MODEL        1
REMARK 921   NORMALIZED FREE ENERGY PREDICTED BY IDOCK:   -6.33 KCAL/MOL
REMARK 922        TOTAL FREE ENERGY PREDICTED BY IDOCK:   -8.40 KCAL/MOL
REMARK 923 INTER-LIGAND FREE ENERGY PREDICTED BY IDOCK:   -7.82 KCAL/MOL
REMARK 924 INTRA-LIGAND FREE ENERGY PREDICTED BY IDOCK:   -0.59 KCAL/MOL
REMARK 927      BINDING AFFINITY PREDICTED BY RF-SCORE:    0.00 PKD
ROOT
HETATM    1  C   UNL     1     -14.388  14.870  72.021  1.00  0.00    -0.561 C  
HETATM    2  N   UNL     1     -13.646  15.609  71.010  1.00  0.00    -0.749 NA 
HETATM    3  H   UNL     1     -14.123  16.473  70.754  1.00  0.00     0.000 HD 
ENDROOT
BRANCH   2   4
HETATM    4  C   UNL     1     -12.269  15.863  71.438  1.00  0.00    -0.448 C  
BRANCH   4   5
HETATM    5  C   UNL     1     -11.327  15.652  70.247  1.00  0.00    -0.357 C  
BRANCH   5   6
HETATM    6  C   UNL     1     -12.010  14.856  69.121  1.00  0.00    -0.313 C  
BRANCH   6   7
HETATM    7  C   UNL     1     -11.242  13.610  68.605  1.00  0.00    -0.308 C  
HETATM    8  C   UNL     1      -9.691  13.875  68.601  1.00  0.00    -0.160 C  
HETATM    9  C   UNL     1      -8.899  12.654  68.047  1.00  0.00    -0.195 C  
HETATM   10  C   UNL     1      -9.873  11.521  67.673  1.00  0.00    -0.192 C  
HETATM   11  C   UNL     1     -10.833  12.122  66.648  1.00  0.00    -0.307 A  
HETATM   12  C   UNL     1     -10.674  11.212  68.932  1.00  0.00    -0.246 A  
HETATM   13  C   UNL     1     -11.006  11.645  65.354  1.00  0.00    -0.328 A  
HETATM   14  C   UNL     1     -10.703   9.970  69.561  1.00  0.00    -0.269 A  
HETATM   15  C   UNL     1     -11.510   9.806  70.686  1.00  0.00    -0.397 A  
HETATM   16  C   UNL     1     -11.919  12.286  64.521  1.00  0.00    -0.459 A  
HETATM   17  C   UNL     1     -12.649  13.390  64.981  1.00  0.00    -0.459 A  
HETATM   18  C   UNL     1     -12.298  10.864  71.153  1.00  0.00    -0.479 A  
HETATM   19  C   UNL     1     -12.282  12.106  70.510  1.00  0.00    -0.392 A  
HETATM   20  C   UNL     1     -12.480  13.869  66.285  1.00  0.00    -0.454 A  
HETATM   21  C   UNL     1     -11.439  12.307  69.421  1.00  0.00    -0.341 A  
HETATM   22  C   UNL     1     -11.567  13.243  67.129  1.00  0.00    -0.402 A  
ENDBRANCH   6   7
ENDBRANCH   5   6
ENDBRANCH   4   5
ENDBRANCH   2   4
TORSDOF 4
ENDMDL
MODEL        2
REMARK 921   NORMALIZED FREE ENERGY PREDICTED BY IDOCK:   -6.17 KCAL/MOL
REMARK 922        TOTAL FREE ENERGY PREDICTED BY IDOCK:   -8.20 KCAL/MOL
REMARK 923 INTER-LIGAND FREE ENERGY PREDICTED BY IDOCK:   -8.02 KCAL/MOL
REMARK 924 INTRA-LIGAND FREE ENERGY PREDICTED BY IDOCK:   -0.18 KCAL/MOL
REMARK 927      BINDING AFFINITY PREDICTED BY RF-SCORE:    0.00 PKD
ROOT
HETATM    1  C   UNL     1     -10.670  11.891  63.406  1.00  0.00    -0.413 C  
HETATM    2  N   UNL     1     -11.692  12.876  63.083  1.00  0.00    -0.844 NA 
HETATM    3  H   UNL     1     -12.536  12.434  62.718  1.00  0.00     0.000 HD 
ENDROOT
BRANCH   2   4
HETATM    4  C   UNL     1     -11.990  13.734  64.231  1.00  0.00    -0.443 C  
BRANCH   4   5
HETATM    5  C   UNL     1     -10.675  14.252  64.825  1.00  0.00    -0.435 C  
BRANCH   5   6
HETATM    6  C   UNL     1     -10.761  15.751  65.164  1.00  0.00    -0.455 C  
BRANCH   6   7
HETATM    7  C   UNL     1     -10.082  16.190  66.490  1.00  0.00    -0.301 C  
HETATM    8  C   UNL     1      -8.585  15.705  66.534  1.00  0.00    -0.335 C  
HETATM    9  C   UNL     1      -7.893  16.095  67.873  1.00  0.00    -0.151 C  
HETATM   10  C   UNL     1      -8.880  16.865  68.771  1.00  0.00    -0.255 C  
HETATM   11  C   UNL     1     -10.074  15.933  68.968  1.00  0.00    -0.228 A  
HETATM   12  C   UNL     1      -9.356  18.061  67.955  1.00  0.00    -0.273 A  
HETATM   13  C   UNL     1     -10.520  15.472  70.201  1.00  0.00    -0.317 A  
HETATM   14  C   UNL     1      -9.190  19.390  68.337  1.00  0.00    -0.415 A  
HETATM   15  C   UNL     1      -9.708  20.393  67.520  1.00  0.00    -0.571 A  
HETATM   16  C   UNL     1     -11.626  14.627  70.240  1.00  0.00    -0.335 A  
HETATM   17  C   UNL     1     -12.275  14.250  69.057  1.00  0.00    -0.255 A  
HETATM   18  C   UNL     1     -10.410  20.065  66.354  1.00  0.00    -0.573 A  
HETATM   19  C   UNL     1     -10.593  18.730  65.981  1.00  0.00    -0.442 A  
HETATM   20  C   UNL     1     -11.830  14.716  67.814  1.00  0.00    -0.359 A  
HETATM   21  C   UNL     1     -10.032  17.716  66.753  1.00  0.00    -0.320 A  
HETATM   22  C   UNL     1     -10.723  15.558  67.758  1.00  0.00    -0.297 A  
ENDBRANCH   6   7
ENDBRANCH   5   6
ENDBRANCH   4   5
ENDBRANCH   2   4
TORSDOF 4
ENDMDL
MODEL        3
REMARK 921   NORMALIZED FREE ENERGY PREDICTED BY IDOCK:   -5.98 KCAL/MOL
REMARK 922        TOTAL FREE ENERGY PREDICTED BY IDOCK:   -7.96 KCAL/MOL
REMARK 923 INTER-LIGAND FREE ENERGY PREDICTED BY IDOCK:   -7.31 KCAL/MOL
REMARK 924 INTRA-LIGAND FREE ENERGY PREDICTED BY IDOCK:   -0.66 KCAL/MOL
REMARK 927      BINDING AFFINITY PREDICTED BY RF-SCORE:    0.00 PKD
ROOT
HETATM    1  C   UNL     1      -8.843  16.835  66.105  1.00  0.00    -0.263 C  
HETATM    2  N   UNL     1     -10.065  17.610  65.944  1.00  0.00    -0.564 NA 
HETATM    3  H   UNL     1     -10.759  17.105  65.394  1.00  0.00     0.000 HD 
ENDROOT
BRANCH   2   4
HETATM    4  C   UNL     1     -10.607  18.027  67.239  1.00  0.00    -0.346 C  
BRANCH   4   5
HETATM    5  C   UNL     1     -10.206  17.000  68.304  1.00  0.00    -0.326 C  
BRANCH   5   6
HETATM    6  C   UNL     1     -11.398  16.113  68.709  1.00  0.00    -0.359 C  
BRANCH   6   7
HETATM    7  C   UNL     1     -11.181  14.581  68.577  1.00  0.00    -0.285 C  
HETATM    8  C   UNL     1      -9.650  14.227  68.658  1.00  0.00    -0.192 C  
HETATM    9  C   UNL     1      -9.403  12.699  68.485  1.00  0.00    -0.082 C  
HETATM   10  C   UNL     1     -10.744  11.966  68.298  1.00  0.00    -0.253 C  
HETATM   11  C   UNL     1     -11.398  12.605  67.073  1.00  0.00    -0.377 A  
HETATM   12  C   UNL     1     -11.596  12.316  69.512  1.00  0.00    -0.366 A  
HETATM   13  C   UNL     1     -11.750  11.918  65.918  1.00  0.00    -0.208 A  
HETATM   14  C   UNL     1     -12.107  11.382  70.410  1.00  0.00    -0.473 A  
HETATM   15  C   UNL     1     -12.907  11.828  71.460  1.00  0.00    -0.450 A  
HETATM   16  C   UNL     1     -12.343  12.623  64.874  1.00  0.00    -0.563 A  
HETATM   17  C   UNL     1     -12.580  13.999  64.990  1.00  0.00    -0.416 A  
HETATM   18  C   UNL     1     -13.216  13.187  71.588  1.00  0.00    -0.435 A  
HETATM   19  C   UNL     1     -12.718  14.123  70.675  1.00  0.00    -0.389 A  
HETATM   20  C   UNL     1     -12.230  14.692  66.154  1.00  0.00    -0.167 A  
HETATM   21  C   UNL     1     -11.869  13.704  69.654  1.00  0.00    -0.396 A  
HETATM   22  C   UNL     1     -11.632  14.003  67.204  1.00  0.00    -0.397 A  
ENDBRANCH   6   7
ENDBRANCH   5   6
ENDBRANCH   4   5
ENDBRANCH   2   4
TORSDOF 4
ENDMDL
MODEL        4
REMARK 921   NORMALIZED FREE ENERGY PREDICTED BY IDOCK:   -5.97 KCAL/MOL
REMARK 922        TOTAL FREE ENERGY PREDICTED BY IDOCK:   -7.95 KCAL/MOL
REMARK 923 INTER-LIGAND FREE ENERGY PREDICTED BY IDOCK:   -7.37 KCAL/MOL
REMARK 924 INTRA-LIGAND FREE ENERGY PREDICTED BY IDOCK:   -0.58 KCAL/MOL
REMARK 927      BINDING AFFINITY PREDICTED BY RF-SCORE:    0.00 PKD
ROOT
HETATM    1  C   UNL     1     -12.961   9.855  71.769  1.00  0.00    -0.449 C  
HETATM    2  N   UNL     1     -12.628   9.860  70.352  1.00  0.00    -0.514 NA 
HETATM    3  H   UNL     1     -13.140  10.586  69.850  1.00  0.00     0.000 HD 
ENDROOT
BRANCH   2   4
HETATM    4  C   UNL     1     -11.184   9.980  70.143  1.00  0.00    -0.304 C  
BRANCH   4   5
HETATM    5  C   UNL     1     -10.913  10.246  68.658  1.00  0.00    -0.289 C  
BRANCH   5   6
HETATM    6  C   UNL     1     -11.760  11.419  68.131  1.00  0.00    -0.355 C  
BRANCH   6   7
HETATM    7  C   UNL     1     -11.056  12.802  68.089  1.00  0.00    -0.288 C  
HETATM    8  C   UNL     1      -9.498  12.638  68.241  1.00  0.00    -0.203 C  
HETATM    9  C   UNL     1      -8.771  14.015  68.244  1.00  0.00    -0.182 C  
HETATM   10  C   UNL     1      -9.797  15.152  68.081  1.00  0.00    -0.218 C  
HETATM   11  C   UNL     1     -10.779  14.994  69.241  1.00  0.00    -0.250 A  
HETATM   12  C   UNL     1     -10.555  14.862  66.791  1.00  0.00    -0.305 A  
HETATM   13  C   UNL     1     -11.021  15.963  70.208  1.00  0.00    -0.370 A  
HETATM   14  C   UNL     1     -10.600  15.720  65.696  1.00  0.00    -0.393 A  
HETATM   15  C   UNL     1     -11.364  15.356  64.588  1.00  0.00    -0.361 A  
HETATM   16  C   UNL     1     -11.946  15.691  71.212  1.00  0.00    -0.467 A  
HETATM   17  C   UNL     1     -12.618  14.462  71.245  1.00  0.00    -0.421 A  
HETATM   18  C   UNL     1     -12.096  14.163  64.594  1.00  0.00    -0.469 A  
HETATM   19  C   UNL     1     -12.065  13.310  65.702  1.00  0.00    -0.488 A  
HETATM   20  C   UNL     1     -12.379  13.486  70.271  1.00  0.00    -0.370 A  
HETATM   21  C   UNL     1     -11.262  13.628  66.794  1.00  0.00    -0.327 A  
HETATM   22  C   UNL     1     -11.454  13.741  69.263  1.00  0.00    -0.344 A  
ENDBRANCH   6   7
ENDBRANCH   5   6
ENDBRANCH   4   5
ENDBRANCH   2   4
TORSDOF 4
ENDMDL
MODEL        5
REMARK 921   NORMALIZED FREE ENERGY PREDICTED BY IDOCK:   -5.96 KCAL/MOL
REMARK 922        TOTAL FREE ENERGY PREDICTED BY IDOCK:   -7.94 KCAL/MOL
REMARK 923 INTER-LIGAND FREE ENERGY PREDICTED BY IDOCK:   -7.39 KCAL/MOL
REMARK 924 INTRA-LIGAND FREE ENERGY PREDICTED BY IDOCK:   -0.55 KCAL/MOL
REMARK 927      BINDING AFFINITY PREDICTED BY RF-SCORE:    0.00 PKD
ROOT
HETATM    1  C   UNL     1     -14.104  15.436  72.190  1.00  0.00    -0.553 C  
HETATM    2  N   UNL     1     -13.506  15.228  70.879  1.00  0.00    -0.679 NA 
HETATM    3  H   UNL     1     -13.249  16.113  70.441  1.00  0.00     0.000 HD 
ENDROOT
BRANCH   2   4
HETATM    4  C   UNL     1     -12.365  14.315  70.952  1.00  0.00    -0.359 C  
BRANCH   4   5
HETATM    5  C   UNL     1     -11.068  15.118  70.794  1.00  0.00    -0.293 C  
BRANCH   5   6
HETATM    6  C   UNL     1     -11.209  16.211  69.719  1.00  0.00    -0.343 C  
BRANCH   6   7
HETATM    7  C   UNL     1     -10.259  16.090  68.497  1.00  0.00    -0.236 C  
HETATM    8  C   UNL     1      -8.889  15.443  68.920  1.00  0.00    -0.211 C  
HETATM    9  C   UNL     1      -7.901  15.349  67.720  1.00  0.00    -0.158 C  
HETATM   10  C   UNL     1      -8.564  15.910  66.448  1.00  0.00    -0.364 C  
HETATM   11  C   UNL     1      -8.957  17.347  66.784  1.00  0.00    -0.272 A  
HETATM   12  C   UNL     1      -9.848  15.114  66.248  1.00  0.00    -0.317 A  
HETATM   13  C   UNL     1      -8.501  18.470  66.104  1.00  0.00    -0.153 A  
HETATM   14  C   UNL     1     -10.135  14.353  65.118  1.00  0.00    -0.359 A  
HETATM   15  C   UNL     1     -11.365  13.703  65.041  1.00  0.00    -0.339 A  
HETATM   16  C   UNL     1      -8.941  19.726  66.514  1.00  0.00    -0.435 A  
HETATM   17  C   UNL     1      -9.828  19.852  67.591  1.00  0.00    -0.524 A  
HETATM   18  C   UNL     1     -12.306  13.840  66.068  1.00  0.00    -0.499 A  
HETATM   19  C   UNL     1     -12.025  14.620  67.195  1.00  0.00    -0.310 A  
HETATM   20  C   UNL     1     -10.292  18.722  68.275  1.00  0.00    -0.391 A  
HETATM   21  C   UNL     1     -10.779  15.230  67.318  1.00  0.00    -0.311 A  
HETATM   22  C   UNL     1      -9.857  17.461  67.881  1.00  0.00    -0.287 A  
ENDBRANCH   6   7
ENDBRANCH   5   6
ENDBRANCH   4   5
ENDBRANCH   2   4
TORSDOF 4
ENDMDL
MODEL        6
REMARK 921   NORMALIZED FREE ENERGY PREDICTED BY IDOCK:   -5.90 KCAL/MOL
REMARK 922        TOTAL FREE ENERGY PREDICTED BY IDOCK:   -7.86 KCAL/MOL
REMARK 923 INTER-LIGAND FREE ENERGY PREDICTED BY IDOCK:   -7.48 KCAL/MOL
REMARK 924 INTRA-LIGAND FREE ENERGY PREDICTED BY IDOCK:   -0.38 KCAL/MOL
REMARK 927      BINDING AFFINITY PREDICTED BY RF-SCORE:    0.00 PKD
ROOT
HETATM    1  C   UNL     1     -12.446  15.146  73.927  1.00  0.00    -0.579 C  
HETATM    2  N   UNL     1     -12.331  16.156  72.885  1.00  0.00    -0.491 NA 
HETATM    3  H   UNL     1     -11.406  16.586  72.882  1.00  0.00     0.000 HD 
ENDROOT
BRANCH   2   4
HETATM    4  C   UNL     1     -12.672  15.610  71.571  1.00  0.00    -0.457 C  
BRANCH   4   5
HETATM    5  C   UNL     1     -11.501  15.846  70.610  1.00  0.00    -0.426 C  
BRANCH   5   6
HETATM    6  C   UNL     1     -11.955  15.782  69.140  1.00  0.00    -0.312 C  
BRANCH   6   7
HETATM    7  C   UNL     1     -10.827  15.633  68.085  1.00  0.00    -0.301 C  
HETATM    8  C   UNL     1      -9.562  14.942  68.717  1.00  0.00    -0.214 C  
HETATM    9  C   UNL     1      -8.399  14.818  67.689  1.00  0.00    -0.180 C  
HETATM   10  C   UNL     1      -8.833  15.401  66.331  1.00  0.00    -0.340 C  
HETATM   11  C   UNL     1      -9.229  16.850  66.609  1.00  0.00    -0.278 A  
HETATM   12  C   UNL     1     -10.093  14.646  65.925  1.00  0.00    -0.341 A  
HETATM   13  C   UNL     1      -8.636  17.958  66.017  1.00  0.00    -0.030 A  
HETATM   14  C   UNL     1     -10.219  13.896  64.759  1.00  0.00    -0.353 A  
HETATM   15  C   UNL     1     -11.441  13.285  64.482  1.00  0.00    -0.399 A  
HETATM   16  C   UNL     1      -9.096  19.227  66.359  1.00  0.00    -0.381 A  
HETATM   17  C   UNL     1     -10.139  19.380  67.282  1.00  0.00    -0.497 A  
HETATM   18  C   UNL     1     -12.528  13.452  65.347  1.00  0.00    -0.543 A  
HETATM   19  C   UNL     1     -12.407  14.221  66.509  1.00  0.00    -0.345 A  
HETATM   20  C   UNL     1     -10.741  18.265  67.877  1.00  0.00    -0.335 A  
HETATM   21  C   UNL     1     -11.178  14.790  66.833  1.00  0.00    -0.347 A  
HETATM   22  C   UNL     1     -10.289  16.990  67.549  1.00  0.00    -0.329 A  
ENDBRANCH   6   7
ENDBRANCH   5   6
ENDBRANCH   4   5
ENDBRANCH   2   4
TORSDOF 4
ENDMDL
MODEL        7
REMARK 921   NORMALIZED FREE ENERGY PREDICTED BY IDOCK:   -5.85 KCAL/MOL
REMARK 922        TOTAL FREE ENERGY PREDICTED BY IDOCK:   -7.81 KCAL/MOL
REMARK 923 INTER-LIGAND FREE ENERGY PREDICTED BY IDOCK:   -7.32 KCAL/MOL
REMARK 924 INTRA-LIGAND FREE ENERGY PREDICTED BY IDOCK:   -0.48 KCAL/MOL
REMARK 927      BINDING AFFINITY PREDICTED BY RF-SCORE:    0.00 PKD
ROOT
HETATM    1  C   UNL     1     -12.143  12.427  63.361  1.00  0.00    -0.524 C  
HETATM    2  N   UNL     1     -12.369  13.860  63.238  1.00  0.00    -1.148 NA 
HETATM    3  H   UNL     1     -13.258  14.060  62.778  1.00  0.00     0.000 HD 
ENDROOT
BRANCH   2   4
HETATM    4  C   UNL     1     -12.276  14.529  64.537  1.00  0.00    -0.465 C  
BRANCH   4   5
HETATM    5  C   UNL     1     -11.275  15.685  64.434  1.00  0.00    -0.249 C  
BRANCH   5   6
HETATM    6  C   UNL     1     -10.067  15.470  65.364  1.00  0.00    -0.387 C  
BRANCH   6   7
HETATM    7  C   UNL     1     -10.026  16.351  66.642  1.00  0.00    -0.281 C  
HETATM    8  C   UNL     1     -10.754  17.724  66.395  1.00  0.00    -0.097 C  
HETATM    9  C   UNL     1     -10.690  18.644  67.649  1.00  0.00    -0.428 C  
HETATM   10  C   UNL     1      -9.936  17.930  68.787  1.00  0.00    -0.377 C  
HETATM   11  C   UNL     1      -8.557  17.595  68.224  1.00  0.00    -0.268 A  
HETATM   12  C   UNL     1     -10.671  16.616  69.028  1.00  0.00    -0.343 A  
HETATM   13  C   UNL     1      -7.355  18.045  68.759  1.00  0.00    -0.279 A  
HETATM   14  C   UNL     1     -11.252  16.250  70.238  1.00  0.00    -0.343 A  
HETATM   15  C   UNL     1     -11.860  15.000  70.341  1.00  0.00    -0.345 A  
HETATM   16  C   UNL     1      -6.165  17.661  68.148  1.00  0.00    -0.167 A  
HETATM   17  C   UNL     1      -6.181  16.836  67.015  1.00  0.00    -0.221 A  
HETATM   18  C   UNL     1     -11.856  14.120  69.253  1.00  0.00    -0.381 A  
HETATM   19  C   UNL     1     -11.255  14.480  68.043  1.00  0.00    -0.308 A  
HETATM   20  C   UNL     1      -7.389  16.378  66.478  1.00  0.00    -0.176 A  
HETATM   21  C   UNL     1     -10.694  15.747  67.903  1.00  0.00    -0.302 A  
HETATM   22  C   UNL     1      -8.588  16.757  67.074  1.00  0.00    -0.233 A  
ENDBRANCH   6   7
ENDBRANCH   5   6
ENDBRANCH   4   5
ENDBRANCH   2   4
TORSDOF 4
ENDMDL
MODEL        8
REMARK 921   NORMALIZED FREE ENERGY PREDICTED BY IDOCK:   -5.85 KCAL/MOL
REMARK 922        TOTAL FREE ENERGY PREDICTED BY IDOCK:   -7.80 KCAL/MOL
REMARK 923 INTER-LIGAND FREE ENERGY PREDICTED BY IDOCK:   -7.36 KCAL/MOL
REMARK 924 INTRA-LIGAND FREE ENERGY PREDICTED BY IDOCK:   -0.44 KCAL/MOL
REMARK 927      BINDING AFFINITY PREDICTED BY RF-SCORE:    0.00 PKD
ROOT
HETATM    1  C   UNL     1      -9.928  20.182  66.505  1.00  0.00    -0.457 C  
HETATM    2  N   UNL     1     -10.677  19.343  67.429  1.00  0.00    -0.483 NA 
HETATM    3  H   UNL     1     -11.027  18.502  66.970  1.00  0.00     0.000 HD 
ENDROOT
BRANCH   2   4
HETATM    4  C   UNL     1      -9.884  19.015  68.615  1.00  0.00    -0.413 C  
BRANCH   4   5
HETATM    5  C   UNL     1      -9.660  17.500  68.666  1.00  0.00    -0.303 C  
BRANCH   5   6
HETATM    6  C   UNL     1     -10.712  16.745  67.833  1.00  0.00    -0.347 C  
BRANCH   6   7
HETATM    7  C   UNL     1     -10.787  15.211  68.059  1.00  0.00    -0.284 C  
HETATM    8  C   UNL     1      -9.347  14.608  68.262  1.00  0.00    -0.199 C  
HETATM    9  C   UNL     1      -9.391  13.063  68.448  1.00  0.00    -0.149 C  
HETATM   10  C   UNL     1     -10.849  12.567  68.394  1.00  0.00    -0.266 C  
HETATM   11  C   UNL     1     -11.390  13.019  67.039  1.00  0.00    -0.343 A  
HETATM   12  C   UNL     1     -11.601  13.337  69.473  1.00  0.00    -0.349 A  
HETATM   13  C   UNL     1     -11.881  12.163  66.061  1.00  0.00    -0.328 A  
HETATM   14  C   UNL     1     -12.263  12.744  70.545  1.00  0.00    -0.389 A  
HETATM   15  C   UNL     1     -12.951  13.558  71.443  1.00  0.00    -0.421 A  
HETATM   16  C   UNL     1     -12.349  12.708  64.867  1.00  0.00    -0.563 A  
HETATM   17  C   UNL     1     -12.323  14.093  64.661  1.00  0.00    -0.432 A  
HETATM   18  C   UNL     1     -12.999  14.943  71.250  1.00  0.00    -0.431 A  
HETATM   19  C   UNL     1     -12.350  15.537  70.163  1.00  0.00    -0.384 A  
HETATM   20  C   UNL     1     -11.833  14.957  65.646  1.00  0.00    -0.131 A  
HETATM   21  C   UNL     1     -11.609  14.746  69.287  1.00  0.00    -0.331 A  
HETATM   22  C   UNL     1     -11.358  14.428  66.842  1.00  0.00    -0.357 A  
ENDBRANCH   6   7
ENDBRANCH   5   6
ENDBRANCH   4   5
ENDBRANCH   2   4
TORSDOF 4
ENDMDL
MODEL        9
REMARK 921   NORMALIZED FREE ENERGY PREDICTED BY IDOCK:   -5.82 KCAL/MOL
REMARK 922        TOTAL FREE ENERGY PREDICTED BY IDOCK:   -7.77 KCAL/MOL
REMARK 923 INTER-LIGAND FREE ENERGY PREDICTED BY IDOCK:   -7.25 KCAL/MOL
REMARK 924 INTRA-LIGAND FREE ENERGY PREDICTED BY IDOCK:   -0.52 KCAL/MOL
REMARK 927      BINDING AFFINITY PREDICTED BY RF-SCORE:    0.00 PKD
ROOT
HETATM    1  C   UNL     1     -10.011  11.785  63.296  1.00  0.00    -0.410 C  
HETATM    2  N   UNL     1     -10.283  13.081  63.901  1.00  0.00    -0.713 NA 
HETATM    3  H   UNL     1      -9.806  13.833  63.404  1.00  0.00     0.000 HD 
ENDROOT
BRANCH   2   4
HETATM    4  C   UNL     1     -11.722  13.332  63.999  1.00  0.00    -0.430 C  
BRANCH   4   5
HETATM    5  C   UNL     1     -11.966  14.466  65.002  1.00  0.00    -0.413 C  
BRANCH   5   6
HETATM    6  C   UNL     1     -10.685  15.283  65.252  1.00  0.00    -0.433 C  
BRANCH   6   7
HETATM    7  C   UNL     1     -10.457  15.762  66.711  1.00  0.00    -0.305 C  
HETATM    8  C   UNL     1     -11.659  15.333  67.631  1.00  0.00    -0.249 C  
HETATM    9  C   UNL     1     -11.475  15.838  69.092  1.00  0.00    -0.383 C  
HETATM   10  C   UNL     1     -10.147  16.608  69.219  1.00  0.00    -0.257 C  
HETATM   11  C   UNL     1     -10.228  17.745  68.202  1.00  0.00    -0.383 A  
HETATM   12  C   UNL     1      -9.053  15.651  68.759  1.00  0.00    -0.208 A  
HETATM   13  C   UNL     1     -10.142  19.095  68.520  1.00  0.00    -0.499 A  
HETATM   14  C   UNL     1      -7.985  15.238  69.551  1.00  0.00    -0.199 A  
HETATM   15  C   UNL     1      -7.027  14.391  68.997  1.00  0.00    -0.114 A  
HETATM   16  C   UNL     1     -10.229  20.031  67.493  1.00  0.00    -0.551 A  
HETATM   17  C   UNL     1     -10.397  19.616  66.165  1.00  0.00    -0.627 A  
HETATM   18  C   UNL     1      -7.123  13.991  67.659  1.00  0.00    -0.193 A  
HETATM   19  C   UNL     1      -8.186  14.421  66.859  1.00  0.00    -0.048 A  
HETATM   20  C   UNL     1     -10.479  18.257  65.843  1.00  0.00    -0.324 A  
HETATM   21  C   UNL     1      -9.185  15.220  67.410  1.00  0.00    -0.201 A  
HETATM   22  C   UNL     1     -10.400  17.309  66.859  1.00  0.00    -0.310 A  
ENDBRANCH   6   7
ENDBRANCH   5   6
ENDBRANCH   4   5
ENDBRANCH   2   4
TORSDOF 4
ENDMDL
MODEL       10
REMARK 921   NORMALIZED FREE ENERGY PREDICTED BY IDOCK:   -5.81 KCAL/MOL
REMARK 922        TOTAL FREE ENERGY PREDICTED BY IDOCK:   -7.76 KCAL/MOL
REMARK 923 INTER-LIGAND FREE ENERGY PREDICTED BY IDOCK:   -7.37 KCAL/MOL
REMARK 924 INTRA-LIGAND FREE ENERGY PREDICTED BY IDOCK:   -0.39 KCAL/MOL
REMARK 927      BINDING AFFINITY PREDICTED BY RF-SCORE:    0.00 PKD
ROOT
HETATM    1  C   UNL     1     -14.309  15.083  72.102  1.00  0.00    -0.530 C  
HETATM    2  N   UNL     1     -14.031  15.421  70.714  1.00  0.00    -0.859 NA 
HETATM    3  H   UNL     1     -14.548  16.250  70.420  1.00  0.00     0.000 HD 
ENDROOT
BRANCH   2   4
HETATM    4  C   UNL     1     -12.594  15.575  70.479  1.00  0.00    -0.416 C  
BRANCH   4   5
HETATM    5  C   UNL     1     -12.049  14.292  69.842  1.00  0.00    -0.404 C  
BRANCH   5   6
HETATM    6  C   UNL     1     -11.616  14.526  68.383  1.00  0.00    -0.356 C  
BRANCH   6   7
HETATM    7  C   UNL     1     -11.123  13.274  67.610  1.00  0.00    -0.292 C  
HETATM    8  C   UNL     1     -11.727  11.961  68.234  1.00  0.00    -0.385 C  
HETATM    9  C   UNL     1     -11.213  10.686  67.503  1.00  0.00    -0.326 C  
HETATM   10  C   UNL     1     -10.264  11.084  66.357  1.00  0.00    -0.284 C  
HETATM   11  C   UNL     1      -9.141  11.888  67.009  1.00  0.00    -0.191 A  
HETATM   12  C   UNL     1     -11.051  12.031  65.459  1.00  0.00    -0.361 A  
HETATM   13  C   UNL     1      -7.795  11.544  66.964  1.00  0.00    -0.161 A  
HETATM   14  C   UNL     1     -11.315  11.800  64.112  1.00  0.00    -0.430 A  
HETATM   15  C   UNL     1     -12.013  12.766  63.389  1.00  0.00    -0.613 A  
HETATM   16  C   UNL     1      -6.871  12.369  67.600  1.00  0.00    -0.132 A  
HETATM   17  C   UNL     1      -7.294  13.524  68.272  1.00  0.00    -0.116 A  
HETATM   18  C   UNL     1     -12.410  13.959  64.002  1.00  0.00    -0.355 A  
HETATM   19  C   UNL     1     -12.128  14.199  65.350  1.00  0.00    -0.415 A  
HETATM   20  C   UNL     1      -8.648  13.874  68.315  1.00  0.00    -0.177 A  
HETATM   21  C   UNL     1     -11.484  13.222  66.104  1.00  0.00    -0.359 A  
HETATM   22  C   UNL     1      -9.584  13.057  67.688  1.00  0.00    -0.206 A  
ENDBRANCH   6   7
ENDBRANCH   5   6
ENDBRANCH   4   5
ENDBRANCH   2   4
TORSDOF 4
ENDMDL
MODEL       11
REMARK 921   NORMALIZED FREE ENERGY PREDICTED BY IDOCK:   -5.72 KCAL/MOL
REMARK 922        TOTAL FREE ENERGY PREDICTED BY IDOCK:   -7.64 KCAL/MOL
REMARK 923 INTER-LIGAND FREE ENERGY PREDICTED BY IDOCK:   -7.17 KCAL/MOL
REMARK 924 INTRA-LIGAND FREE ENERGY PREDICTED BY IDOCK:   -0.47 KCAL/MOL
REMARK 927      BINDING AFFINITY PREDICTED BY RF-SCORE:    0.00 PKD
ROOT
HETATM    1  C   UNL     1     -10.496  19.675  66.185  1.00  0.00    -0.524 C  
HETATM    2  N   UNL     1     -10.758  18.641  67.174  1.00  0.00    -0.413 NA 
HETATM    3  H   UNL     1     -11.752  18.578  67.396  1.00  0.00     0.000 HD 
ENDROOT
BRANCH   2   4
HETATM    4  C   UNL     1     -10.222  17.347  66.749  1.00  0.00    -0.318 C  
BRANCH   4   5
HETATM    5  C   UNL     1     -10.122  16.420  67.966  1.00  0.00    -0.248 C  
BRANCH   5   6
HETATM    6  C   UNL     1     -11.217  15.339  67.944  1.00  0.00    -0.333 C  
BRANCH   6   7
HETATM    7  C   UNL     1     -10.760  13.915  67.526  1.00  0.00    -0.271 C  
HETATM    8  C   UNL     1      -9.191  13.841  67.428  1.00  0.00    -0.221 C  
HETATM    9  C   UNL     1      -8.709  12.434  66.969  1.00  0.00    -0.207 C  
HETATM   10  C   UNL     1      -9.920  11.506  66.754  1.00  0.00    -0.235 C  
HETATM   11  C   UNL     1     -10.796  12.203  65.715  1.00  0.00    -0.319 A  
HETATM   12  C   UNL     1     -10.685  11.491  68.072  1.00  0.00    -0.241 A  
HETATM   13  C   UNL     1     -11.146  11.659  64.485  1.00  0.00    -0.365 A  
HETATM   14  C   UNL     1     -10.934  10.347  68.824  1.00  0.00    -0.287 A  
HETATM   15  C   UNL     1     -11.684  10.462  69.993  1.00  0.00    -0.366 A  
HETATM   16  C   UNL     1     -11.956  12.402  63.630  1.00  0.00    -0.626 A  
HETATM   17  C   UNL     1     -12.409  13.674  64.006  1.00  0.00    -0.382 A  
HETATM   18  C   UNL     1     -12.202  11.702  70.384  1.00  0.00    -0.434 A  
HETATM   19  C   UNL     1     -11.968  12.848  69.617  1.00  0.00    -0.358 A  
HETATM   20  C   UNL     1     -12.061  14.222  65.246  1.00  0.00    -0.400 A  
HETATM   21  C   UNL     1     -11.172  12.764  68.478  1.00  0.00    -0.314 A  
HETATM   22  C   UNL     1     -11.248  13.494  66.110  1.00  0.00    -0.306 A  
ENDBRANCH   6   7
ENDBRANCH   5   6
ENDBRANCH   4   5
ENDBRANCH   2   4
TORSDOF 4
ENDMDL
MODEL       12
REMARK 921   NORMALIZED FREE ENERGY PREDICTED BY IDOCK:   -5.67 KCAL/MOL
REMARK 922        TOTAL FREE ENERGY PREDICTED BY IDOCK:   -7.58 KCAL/MOL
REMARK 923 INTER-LIGAND FREE ENERGY PREDICTED BY IDOCK:   -7.14 KCAL/MOL
REMARK 924 INTRA-LIGAND FREE ENERGY PREDICTED BY IDOCK:   -0.44 KCAL/MOL
REMARK 927      BINDING AFFINITY PREDICTED BY RF-SCORE:    0.00 PKD
ROOT
HETATM    1  C   UNL     1     -10.866   6.585  66.988  1.00  0.00    -0.395 C  
HETATM    2  N   UNL     1     -10.987   7.606  68.019  1.00  0.00    -0.469 NA 
HETATM    3  H   UNL     1     -10.500   7.334  68.873  1.00  0.00     0.000 HD 
ENDROOT
BRANCH   2   4
HETATM    4  C   UNL     1     -10.532   8.910  67.535  1.00  0.00    -0.269 C  
BRANCH   4   5
HETATM    5  C   UNL     1     -10.584   9.919  68.688  1.00  0.00    -0.244 C  
BRANCH   5   6
HETATM    6  C   UNL     1     -11.649  11.003  68.442  1.00  0.00    -0.372 C  
BRANCH   6   7
HETATM    7  C   UNL     1     -11.118  12.449  68.250  1.00  0.00    -0.283 C  
HETATM    8  C   UNL     1      -9.553  12.492  68.414  1.00  0.00    -0.176 C  
HETATM    9  C   UNL     1      -8.999  13.939  68.268  1.00  0.00    -0.187 C  
HETATM   10  C   UNL     1     -10.153  14.920  67.988  1.00  0.00    -0.221 C  
HETATM   11  C   UNL     1     -11.119  14.768  69.161  1.00  0.00    -0.278 A  
HETATM   12  C   UNL     1     -10.857  14.404  66.738  1.00  0.00    -0.301 A  
HETATM   13  C   UNL     1     -11.486  15.798  70.019  1.00  0.00    -0.359 A  
HETATM   14  C   UNL     1     -10.996  15.129  65.558  1.00  0.00    -0.370 A  
HETATM   15  C   UNL     1     -11.699  14.559  64.498  1.00  0.00    -0.421 A  
HETATM   16  C   UNL     1     -12.381  15.524  71.050  1.00  0.00    -0.471 A  
HETATM   17  C   UNL     1     -12.901  14.233  71.216  1.00  0.00    -0.422 A  
HETATM   18  C   UNL     1     -12.281  13.294  64.633  1.00  0.00    -0.460 A  
HETATM   19  C   UNL     1     -12.158  12.574  65.826  1.00  0.00    -0.443 A  
HETATM   20  C   UNL     1     -12.535  13.195  70.351  1.00  0.00    -0.280 A  
HETATM   21  C   UNL     1     -11.410  13.101  66.876  1.00  0.00    -0.355 A  
HETATM   22  C   UNL     1     -11.638  13.452  69.319  1.00  0.00    -0.365 A  
ENDBRANCH   6   7
ENDBRANCH   5   6
ENDBRANCH   4   5
ENDBRANCH   2   4
TORSDOF 4
ENDMDL
MODEL       13
REMARK 921   NORMALIZED FREE ENERGY PREDICTED BY IDOCK:   -5.61 KCAL/MOL
REMARK 922        TOTAL FREE ENERGY PREDICTED BY IDOCK:   -7.51 KCAL/MOL
REMARK 923 INTER-LIGAND FREE ENERGY PREDICTED BY IDOCK:   -7.11 KCAL/MOL
REMARK 924 INTRA-LIGAND FREE ENERGY PREDICTED BY IDOCK:   -0.40 KCAL/MOL
REMARK 927      BINDING AFFINITY PREDICTED BY RF-SCORE:    0.00 PKD
ROOT
HETATM    1  C   UNL     1     -13.409   9.707  71.961  1.00  0.00    -0.457 C  
HETATM    2  N   UNL     1     -13.106  10.000  70.568  1.00  0.00    -0.599 NA 
HETATM    3  H   UNL     1     -13.791  10.637  70.162  1.00  0.00     0.000 HD 
ENDROOT
BRANCH   2   4
HETATM    4  C   UNL     1     -11.742  10.510  70.414  1.00  0.00    -0.344 C  
BRANCH   4   5
HETATM    5  C   UNL     1     -11.769  11.748  69.510  1.00  0.00    -0.408 C  
BRANCH   5   6
HETATM    6  C   UNL     1     -10.560  11.777  68.557  1.00  0.00    -0.242 C  
BRANCH   6   7
HETATM    7  C   UNL     1     -10.724  12.637  67.275  1.00  0.00    -0.259 C  
HETATM    8  C   UNL     1     -12.217  13.105  67.107  1.00  0.00    -0.250 C  
HETATM    9  C   UNL     1     -12.417  13.935  65.805  1.00  0.00    -0.530 C  
HETATM   10  C   UNL     1     -11.077  14.072  65.057  1.00  0.00    -0.364 C  
HETATM   11  C   UNL     1     -10.606  12.644  64.786  1.00  0.00    -0.341 A  
HETATM   12  C   UNL     1     -10.100  14.703  66.042  1.00  0.00    -0.330 A  
HETATM   13  C   UNL     1     -10.367  12.119  63.522  1.00  0.00    -0.473 A  
HETATM   14  C   UNL     1      -9.444  15.913  65.833  1.00  0.00    -0.372 A  
HETATM   15  C   UNL     1      -8.542  16.362  66.796  1.00  0.00    -0.270 A  
HETATM   16  C   UNL     1      -9.937  10.798  63.416  1.00  0.00    -0.385 A  
HETATM   17  C   UNL     1      -9.748  10.018  64.564  1.00  0.00    -0.310 A  
HETATM   18  C   UNL     1      -8.280  15.593  67.935  1.00  0.00    -0.155 A  
HETATM   19  C   UNL     1      -8.925  14.369  68.135  1.00  0.00    -0.185 A  
HETATM   20  C   UNL     1      -9.984  10.547  65.839  1.00  0.00    -0.313 A  
HETATM   21  C   UNL     1      -9.873  13.931  67.214  1.00  0.00    -0.244 A  
HETATM   22  C   UNL     1     -10.419  11.863  65.961  1.00  0.00    -0.282 A  
ENDBRANCH   6   7
ENDBRANCH   5   6
ENDBRANCH   4   5
ENDBRANCH   2   4
TORSDOF 4
ENDMDL
MODEL       14
REMARK 921   NORMALIZED FREE ENERGY PREDICTED BY IDOCK:   -5.58 KCAL/MOL
REMARK 922        TOTAL FREE ENERGY PREDICTED BY IDOCK:   -7.47 KCAL/MOL
REMARK 923 INTER-LIGAND FREE ENERGY PREDICTED BY IDOCK:   -7.09 KCAL/MOL
REMARK 924 INTRA-LIGAND FREE ENERGY PREDICTED BY IDOCK:   -0.38 KCAL/MOL
REMARK 927      BINDING AFFINITY PREDICTED BY RF-SCORE:    0.00 PKD
ROOT
HETATM    1  C   UNL     1     -12.487  15.506  74.320  1.00  0.00    -0.643 C  
HETATM    2  N   UNL     1     -12.051  16.199  73.116  1.00  0.00    -0.508 NA 
HETATM    3  H   UNL     1     -11.284  16.843  73.312  1.00  0.00     0.000 HD 
ENDROOT
BRANCH   2   4
HETATM    4  C   UNL     1     -11.699  15.254  72.054  1.00  0.00    -0.447 C  
BRANCH   4   5
HETATM    5  C   UNL     1     -11.474  16.027  70.750  1.00  0.00    -0.444 C  
BRANCH   5   6
HETATM    6  C   UNL     1     -10.982  15.101  69.623  1.00  0.00    -0.291 C  
BRANCH   6   7
HETATM    7  C   UNL     1     -10.505  15.803  68.323  1.00  0.00    -0.259 C  
HETATM    8  C   UNL     1     -10.947  17.314  68.313  1.00  0.00    -0.188 C  
HETATM    9  C   UNL     1     -10.517  18.031  67.000  1.00  0.00    -0.361 C  
HETATM   10  C   UNL     1      -9.762  17.047  66.086  1.00  0.00    -0.283 C  
HETATM   11  C   UNL     1     -10.724  15.886  65.842  1.00  0.00    -0.303 A  
HETATM   12  C   UNL     1      -8.592  16.515  66.905  1.00  0.00    -0.237 A  
HETATM   13  C   UNL     1     -11.179  15.488  64.591  1.00  0.00    -0.381 A  
HETATM   14  C   UNL     1      -7.254  16.654  66.547  1.00  0.00    -0.241 A  
HETATM   15  C   UNL     1      -6.278  16.085  67.364  1.00  0.00    -0.191 A  
HETATM   16  C   UNL     1     -12.054  14.408  64.509  1.00  0.00    -0.498 A  
HETATM   17  C   UNL     1     -12.467  13.738  65.669  1.00  0.00    -0.541 A  
HETATM   18  C   UNL     1      -6.642  15.361  68.504  1.00  0.00    -0.109 A  
HETATM   19  C   UNL     1      -7.988  15.206  68.853  1.00  0.00    -0.178 A  
HETATM   20  C   UNL     1     -12.007  14.135  66.930  1.00  0.00    -0.479 A  
HETATM   21  C   UNL     1      -8.974  15.816  68.083  1.00  0.00    -0.180 A  
HETATM   22  C   UNL     1     -11.135  15.216  67.028  1.00  0.00    -0.328 A  
ENDBRANCH   6   7
ENDBRANCH   5   6
ENDBRANCH   4   5
ENDBRANCH   2   4
TORSDOF 4
ENDMDL
MODEL       15
REMARK 921   NORMALIZED FREE ENERGY PREDICTED BY IDOCK:   -5.52 KCAL/MOL
REMARK 922        TOTAL FREE ENERGY PREDICTED BY IDOCK:   -7.40 KCAL/MOL
REMARK 923 INTER-LIGAND FREE ENERGY PREDICTED BY IDOCK:   -6.90 KCAL/MOL
REMARK 924 INTRA-LIGAND FREE ENERGY PREDICTED BY IDOCK:   -0.50 KCAL/MOL
REMARK 927      BINDING AFFINITY PREDICTED BY RF-SCORE:    0.00 PKD
ROOT
HETATM    1  C   UNL     1     -12.331  12.042  63.399  1.00  0.00    -0.523 C  
HETATM    2  N   UNL     1     -11.060  11.382  63.137  1.00  0.00    -0.843 NA 
HETATM    3  H   UNL     1     -10.482  11.925  62.496  1.00  0.00     0.000 HD 
ENDROOT
BRANCH   2   4
HETATM    4  C   UNL     1     -10.347  11.083  64.380  1.00  0.00    -0.358 C  
BRANCH   4   5
HETATM    5  C   UNL     1     -11.272  11.365  65.570  1.00  0.00    -0.140 C  
BRANCH   5   6
HETATM    6  C   UNL     1     -10.480  11.490  66.883  1.00  0.00    -0.270 C  
BRANCH   6   7
HETATM    7  C   UNL     1     -10.836  12.707  67.780  1.00  0.00    -0.248 C  
HETATM    8  C   UNL     1     -11.789  13.700  67.017  1.00  0.00    -0.448 C  
HETATM    9  C   UNL     1     -12.128  14.950  67.880  1.00  0.00    -0.089 C  
HETATM   10  C   UNL     1     -11.436  14.846  69.252  1.00  0.00    -0.324 C  
HETATM   11  C   UNL     1      -9.943  14.715  68.955  1.00  0.00    -0.228 A  
HETATM   12  C   UNL     1     -11.904  13.532  69.867  1.00  0.00    -0.386 A  
HETATM   13  C   UNL     1      -8.969  15.600  69.401  1.00  0.00    -0.265 A  
HETATM   14  C   UNL     1     -12.584  13.429  71.077  1.00  0.00    -0.425 A  
HETATM   15  C   UNL     1     -12.921  12.162  71.552  1.00  0.00    -0.398 A  
HETATM   16  C   UNL     1      -7.641  15.361  69.059  1.00  0.00    -0.177 A  
HETATM   17  C   UNL     1      -7.296  14.247  68.282  1.00  0.00    -0.124 A  
HETATM   18  C   UNL     1     -12.553  11.017  70.837  1.00  0.00    -0.488 A  
HETATM   19  C   UNL     1     -11.852  11.121  69.631  1.00  0.00    -0.419 A  
HETATM   20  C   UNL     1      -8.275  13.352  67.835  1.00  0.00    -0.162 A  
HETATM   21  C   UNL     1     -11.558  12.379  69.111  1.00  0.00    -0.369 A  
HETATM   22  C   UNL     1      -9.608  13.580  68.164  1.00  0.00    -0.215 A  
ENDBRANCH   6   7
ENDBRANCH   5   6
ENDBRANCH   4   5
ENDBRANCH   2   4
TORSDOF 4
ENDMDL
MODEL       16
REMARK 921   NORMALIZED FREE ENERGY PREDICTED BY IDOCK:   -5.50 KCAL/MOL
REMARK 922        TOTAL FREE ENERGY PREDICTED BY IDOCK:   -7.38 KCAL/MOL
REMARK 923 INTER-LIGAND FREE ENERGY PREDICTED BY IDOCK:   -6.82 KCAL/MOL
REMARK 924 INTRA-LIGAND FREE ENERGY PREDICTED BY IDOCK:   -0.56 KCAL/MOL
REMARK 927      BINDING AFFINITY PREDICTED BY RF-SCORE:    0.00 PKD
ROOT
HETATM    1  C   UNL     1      -8.562   9.630  70.161  1.00  0.00    -0.214 C  
HETATM    2  N   UNL     1      -9.744   9.456  70.992  1.00  0.00    -0.262 NA 
HETATM    3  H   UNL     1      -9.624   9.889  71.908  1.00  0.00     0.000 HD 
ENDROOT
BRANCH   2   4
HETATM    4  C   UNL     1     -10.947   9.949  70.320  1.00  0.00    -0.309 C  
BRANCH   4   5
HETATM    5  C   UNL     1     -10.628  10.201  68.842  1.00  0.00    -0.237 C  
BRANCH   5   6
HETATM    6  C   UNL     1     -11.603  11.217  68.219  1.00  0.00    -0.370 C  
BRANCH   6   7
HETATM    7  C   UNL     1     -11.047  12.650  68.004  1.00  0.00    -0.288 C  
HETATM    8  C   UNL     1      -9.474  12.648  68.046  1.00  0.00    -0.209 C  
HETATM    9  C   UNL     1      -8.891  14.082  67.875  1.00  0.00    -0.185 C  
HETATM   10  C   UNL     1     -10.036  15.097  67.696  1.00  0.00    -0.229 C  
HETATM   11  C   UNL     1     -10.912  14.956  68.939  1.00  0.00    -0.257 A  
HETATM   12  C   UNL     1     -10.849  14.619  66.499  1.00  0.00    -0.315 A  
HETATM   13  C   UNL     1     -11.183  15.984  69.835  1.00  0.00    -0.361 A  
HETATM   14  C   UNL     1     -11.057  15.363  65.342  1.00  0.00    -0.331 A  
HETATM   15  C   UNL     1     -11.856  14.827  64.333  1.00  0.00    -0.393 A  
HETATM   16  C   UNL     1     -12.003  15.720  70.929  1.00  0.00    -0.453 A  
HETATM   17  C   UNL     1     -12.544  14.442  71.120  1.00  0.00    -0.422 A  
HETATM   18  C   UNL     1     -12.462  13.577  64.498  1.00  0.00    -0.344 A  
HETATM   19  C   UNL     1     -12.267  12.837  65.670  1.00  0.00    -0.503 A  
HETATM   20  C   UNL     1     -12.276  13.406  70.217  1.00  0.00    -0.405 A  
HETATM   21  C   UNL     1     -11.426  13.329  66.664  1.00  0.00    -0.384 A  
HETATM   22  C   UNL     1     -11.454  13.653  69.121  1.00  0.00    -0.346 A  
ENDBRANCH   6   7
ENDBRANCH   5   6
ENDBRANCH   4   5
ENDBRANCH   2   4
TORSDOF 4
ENDMDL
MODEL       17
REMARK 921   NORMALIZED FREE ENERGY PREDICTED BY IDOCK:   -5.44 KCAL/MOL
REMARK 922        TOTAL FREE ENERGY PREDICTED BY IDOCK:   -7.30 KCAL/MOL
REMARK 923 INTER-LIGAND FREE ENERGY PREDICTED BY IDOCK:   -6.79 KCAL/MOL
REMARK 924 INTRA-LIGAND FREE ENERGY PREDICTED BY IDOCK:   -0.51 KCAL/MOL
REMARK 927      BINDING AFFINITY PREDICTED BY RF-SCORE:    0.00 PKD
ROOT
HETATM    1  C   UNL     1      -9.987  11.721  63.344  1.00  0.00    -0.423 C  
HETATM    2  N   UNL     1      -9.884  12.251  64.695  1.00  0.00    -0.463 NA 
HETATM    3  H   UNL     1     -10.019  13.262  64.712  1.00  0.00     0.000 HD 
ENDROOT
BRANCH   2   4
HETATM    4  C   UNL     1     -10.807  11.573  65.607  1.00  0.00    -0.252 C  
BRANCH   4   5
HETATM    5  C   UNL     1     -11.728  12.613  66.255  1.00  0.00    -0.460 C  
BRANCH   5   6
HETATM    6  C   UNL     1     -11.571  12.629  67.786  1.00  0.00    -0.403 C  
BRANCH   6   7
HETATM    7  C   UNL     1     -11.109  13.975  68.409  1.00  0.00    -0.275 C  
HETATM    8  C   UNL     1     -11.519  15.183  67.487  1.00  0.00    -0.306 C  
HETATM    9  C   UNL     1     -11.030  16.542  68.069  1.00  0.00    -0.320 C  
HETATM   10  C   UNL     1     -10.291  16.309  69.400  1.00  0.00    -0.278 C  
HETATM   11  C   UNL     1      -9.144  15.354  69.077  1.00  0.00    -0.233 A  
HETATM   12  C   UNL     1     -11.268  15.571  70.308  1.00  0.00    -0.342 A  
HETATM   13  C   UNL     1      -7.799  15.640  69.276  1.00  0.00    -0.230 A  
HETATM   14  C   UNL     1     -11.712  16.046  71.538  1.00  0.00    -0.554 A  
HETATM   15  C   UNL     1     -12.575  15.253  72.293  1.00  0.00    -0.436 A  
HETATM   16  C   UNL     1      -6.853  14.675  68.940  1.00  0.00    -0.104 A  
HETATM   17  C   UNL     1      -7.253  13.441  68.411  1.00  0.00    -0.110 A  
HETATM   18  C   UNL     1     -12.962  13.990  71.831  1.00  0.00    -0.444 A  
HETATM   19  C   UNL     1     -12.501  13.505  70.603  1.00  0.00    -0.405 A  
HETATM   20  C   UNL     1      -8.607  13.149  68.213  1.00  0.00    -0.166 A  
HETATM   21  C   UNL     1     -11.685  14.306  69.809  1.00  0.00    -0.367 A  
HETATM   22  C   UNL     1      -9.565  14.105  68.540  1.00  0.00    -0.214 A  
ENDBRANCH   6   7
ENDBRANCH   5   6
ENDBRANCH   4   5
ENDBRANCH   2   4
TORSDOF 4
ENDMDL
MODEL       18
REMARK 921   NORMALIZED FREE ENERGY PREDICTED BY IDOCK:   -5.44 KCAL/MOL
REMARK 922        TOTAL FREE ENERGY PREDICTED BY IDOCK:   -7.30 KCAL/MOL
REMARK 923 INTER-LIGAND FREE ENERGY PREDICTED BY IDOCK:   -6.95 KCAL/MOL
REMARK 924 INTRA-LIGAND FREE ENERGY PREDICTED BY IDOCK:   -0.35 KCAL/MOL
REMARK 927      BINDING AFFINITY PREDICTED BY RF-SCORE:    0.00 PKD
ROOT
HETATM    1  C   UNL     1     -11.011   6.129  67.268  1.00  0.00    -0.326 C  
HETATM    2  N   UNL     1     -10.899   7.581  67.288  1.00  0.00    -0.528 NA 
HETATM    3  H   UNL     1     -10.763   7.932  68.236  1.00  0.00     0.000 HD 
ENDROOT
BRANCH   2   4
HETATM    4  C   UNL     1      -9.845   8.048  66.387  1.00  0.00    -0.167 C  
BRANCH   4   5
HETATM    5  C   UNL     1     -10.010   9.555  66.160  1.00  0.00    -0.342 C  
BRANCH   5   6
HETATM    6  C   UNL     1     -10.879  10.198  67.255  1.00  0.00    -0.295 C  
BRANCH   6   7
HETATM    7  C   UNL     1     -10.692  11.725  67.463  1.00  0.00    -0.262 C  
HETATM    8  C   UNL     1      -9.165  12.087  67.584  1.00  0.00    -0.182 C  
HETATM    9  C   UNL     1      -8.952  13.609  67.836  1.00  0.00    -0.195 C  
HETATM   10  C   UNL     1     -10.312  14.331  67.880  1.00  0.00    -0.233 C  
HETATM   11  C   UNL     1     -11.107  13.649  68.992  1.00  0.00    -0.295 A  
HETATM   12  C   UNL     1     -11.004  14.019  66.558  1.00  0.00    -0.306 A  
HETATM   13  C   UNL     1     -11.605  14.297  70.117  1.00  0.00    -0.312 A  
HETATM   14  C   UNL     1     -11.406  14.980  65.635  1.00  0.00    -0.297 A  
HETATM   15  C   UNL     1     -12.067  14.567  64.480  1.00  0.00    -0.501 A  
HETATM   16  C   UNL     1     -12.318  13.555  71.055  1.00  0.00    -0.422 A  
HETATM   17  C   UNL     1     -12.528  12.183  70.866  1.00  0.00    -0.374 A  
HETATM   18  C   UNL     1     -12.347  13.212  64.270  1.00  0.00    -0.421 A  
HETATM   19  C   UNL     1     -11.959  12.248  65.207  1.00  0.00    -0.391 A  
HETATM   20  C   UNL     1     -12.031  11.530  69.732  1.00  0.00    -0.415 A  
HETATM   21  C   UNL     1     -11.247  12.635  66.339  1.00  0.00    -0.350 A  
HETATM   22  C   UNL     1     -11.313  12.256  68.787  1.00  0.00    -0.337 A  
ENDBRANCH   6   7
ENDBRANCH   5   6
ENDBRANCH   4   5
ENDBRANCH   2   4
TORSDOF 4
ENDMDL
MODEL       19
REMARK 921   NORMALIZED FREE ENERGY PREDICTED BY IDOCK:   -5.43 KCAL/MOL
REMARK 922        TOTAL FREE ENERGY PREDICTED BY IDOCK:   -7.28 KCAL/MOL
REMARK 923 INTER-LIGAND FREE ENERGY PREDICTED BY IDOCK:   -6.77 KCAL/MOL
REMARK 924 INTRA-LIGAND FREE ENERGY PREDICTED BY IDOCK:   -0.51 KCAL/MOL
REMARK 927      BINDING AFFINITY PREDICTED BY RF-SCORE:    0.00 PKD
ROOT
HETATM    1  C   UNL     1     -12.478  12.530  63.333  1.00  0.00    -0.408 C  
HETATM    2  N   UNL     1     -12.304  13.975  63.368  1.00  0.00    -1.154 NA 
HETATM    3  H   UNL     1     -13.010  14.451  62.806  1.00  0.00     0.000 HD 
ENDROOT
BRANCH   2   4
HETATM    4  C   UNL     1     -12.286  14.478  64.743  1.00  0.00    -0.391 C  
BRANCH   4   5
HETATM    5  C   UNL     1     -12.330  13.290  65.712  1.00  0.00    -0.505 C  
BRANCH   5   6
HETATM    6  C   UNL     1     -11.431  13.529  66.938  1.00  0.00    -0.374 C  
BRANCH   6   7
HETATM    7  C   UNL     1     -10.520  12.344  67.356  1.00  0.00    -0.229 C  
HETATM    8  C   UNL     1     -10.566  11.200  66.276  1.00  0.00    -0.309 C  
HETATM    9  C   UNL     1      -9.693   9.980  66.691  1.00  0.00    -0.246 C  
HETATM   10  C   UNL     1      -9.016  10.254  68.047  1.00  0.00    -0.132 C  
HETATM   11  C   UNL     1     -10.153  10.534  69.029  1.00  0.00    -0.230 A  
HETATM   12  C   UNL     1      -8.224  11.545  67.876  1.00  0.00    -0.134 A  
HETATM   13  C   UNL     1     -10.400   9.796  70.181  1.00  0.00    -0.335 A  
HETATM   14  C   UNL     1      -6.848  11.653  68.053  1.00  0.00    -0.072 A  
HETATM   15  C   UNL     1      -6.247  12.902  67.907  1.00  0.00    -0.125 A  
HETATM   16  C   UNL     1     -11.472  10.161  70.992  1.00  0.00    -0.436 A  
HETATM   17  C   UNL     1     -12.283  11.251  70.651  1.00  0.00    -0.489 A  
HETATM   18  C   UNL     1      -7.022  14.031  67.618  1.00  0.00    -0.198 A  
HETATM   19  C   UNL     1      -8.408  13.926  67.459  1.00  0.00    -0.202 A  
HETATM   20  C   UNL     1     -12.033  11.998  69.493  1.00  0.00    -0.346 A  
HETATM   21  C   UNL     1      -9.018  12.677  67.543  1.00  0.00    -0.187 A  
HETATM   22  C   UNL     1     -10.969  11.643  68.669  1.00  0.00    -0.266 A  
ENDBRANCH   6   7
ENDBRANCH   5   6
ENDBRANCH   4   5
ENDBRANCH   2   4
TORSDOF 4
ENDMDL
MODEL       20
REMARK 921   NORMALIZED FREE ENERGY PREDICTED BY IDOCK:   -5.42 KCAL/MOL
REMARK 922        TOTAL FREE ENERGY PREDICTED BY IDOCK:   -7.27 KCAL/MOL
REMARK 923 INTER-LIGAND FREE ENERGY PREDICTED BY IDOCK:   -6.88 KCAL/MOL
REMARK 924 INTRA-LIGAND FREE ENERGY PREDICTED BY IDOCK:   -0.39 KCAL/MOL
REMARK 927      BINDING AFFINITY PREDICTED BY RF-SCORE:    0.00 PKD
ROOT
HETATM    1  C   UNL     1      -6.711  20.038  69.423  1.00  0.00    -0.280 C  
HETATM    2  N   UNL     1      -7.009  19.087  68.363  1.00  0.00    -0.252 NA 
HETATM    3  H   UNL     1      -6.404  18.267  68.414  1.00  0.00     0.000 HD 
ENDROOT
BRANCH   2   4
HETATM    4  C   UNL     1      -8.423  18.709  68.367  1.00  0.00    -0.338 C  
BRANCH   4   5
HETATM    5  C   UNL     1      -8.534  17.180  68.375  1.00  0.00    -0.241 C  
BRANCH   5   6
HETATM    6  C   UNL     1      -9.819  16.704  67.673  1.00  0.00    -0.256 C  
BRANCH   6   7
HETATM    7  C   UNL     1     -10.235  15.232  67.940  1.00  0.00    -0.235 C  
HETATM    8  C   UNL     1      -8.969  14.332  68.186  1.00  0.00    -0.189 C  
HETATM    9  C   UNL     1      -9.357  12.841  68.415  1.00  0.00    -0.143 C  
HETATM   10  C   UNL     1     -10.887  12.680  68.347  1.00  0.00    -0.268 C  
HETATM   11  C   UNL     1     -11.298  13.197  66.970  1.00  0.00    -0.349 A  
HETATM   12  C   UNL     1     -11.463  13.630  69.390  1.00  0.00    -0.343 A  
HETATM   13  C   UNL     1     -11.956  12.441  66.007  1.00  0.00    -0.419 A  
HETATM   14  C   UNL     1     -12.254  13.233  70.465  1.00  0.00    -0.416 A  
HETATM   15  C   UNL     1     -12.754  14.207  71.327  1.00  0.00    -0.434 A  
HETATM   16  C   UNL     1     -12.276  13.039  64.790  1.00  0.00    -0.487 A  
HETATM   17  C   UNL     1     -11.941  14.377  64.545  1.00  0.00    -0.487 A  
HETATM   18  C   UNL     1     -12.490  15.562  71.095  1.00  0.00    -0.491 A  
HETATM   19  C   UNL     1     -11.712  15.962  70.004  1.00  0.00    -0.340 A  
HETATM   20  C   UNL     1     -11.282  15.141  65.516  1.00  0.00    -0.320 A  
HETATM   21  C   UNL     1     -11.155  15.000  69.165  1.00  0.00    -0.278 A  
HETATM   22  C   UNL     1     -10.951  14.557  66.735  1.00  0.00    -0.316 A  
ENDBRANCH   6   7
ENDBRANCH   5   6
ENDBRANCH   4   5
ENDBRANCH   2   4
TORSDOF 4
ENDMDL
MODEL       21
REMARK 921   NORMALIZED FREE ENERGY PREDICTED BY IDOCK:   -5.38 KCAL/MOL
REMARK 922        TOTAL FREE ENERGY PREDICTED BY IDOCK:   -7.22 KCAL/MOL
REMARK 923 INTER-LIGAND FREE ENERGY PREDICTED BY IDOCK:   -6.65 KCAL/MOL
REMARK 924 INTRA-LIGAND FREE ENERGY PREDICTED BY IDOCK:   -0.57 KCAL/MOL
REMARK 927      BINDING AFFINITY PREDICTED BY RF-SCORE:    0.00 PKD
ROOT
HETATM    1  C   UNL     1      -8.982   9.381  65.054  1.00  0.00    -0.211 C  
HETATM    2  N   UNL     1     -10.201   9.689  65.788  1.00  0.00    -0.229 NA 
HETATM    3  H   UNL     1     -11.029   9.574  65.203  1.00  0.00     0.000 HD 
ENDROOT
BRANCH   2   4
HETATM    4  C   UNL     1     -10.299   8.900  67.017  1.00  0.00    -0.269 C  
BRANCH   4   5
HETATM    5  C   UNL     1     -10.329   9.848  68.221  1.00  0.00    -0.232 C  
BRANCH   5   6
HETATM    6  C   UNL     1     -11.416  10.927  68.063  1.00  0.00    -0.356 C  
BRANCH   6   7
HETATM    7  C   UNL     1     -10.912  12.392  67.971  1.00  0.00    -0.262 C  
HETATM    8  C   UNL     1      -9.340  12.444  68.016  1.00  0.00    -0.204 C  
HETATM    9  C   UNL     1      -8.810  13.907  67.969  1.00  0.00    -0.184 C  
HETATM   10  C   UNL     1      -9.991  14.892  67.876  1.00  0.00    -0.219 C  
HETATM   11  C   UNL     1     -10.860  14.613  69.101  1.00  0.00    -0.269 A  
HETATM   12  C   UNL     1     -10.788  14.488  66.641  1.00  0.00    -0.311 A  
HETATM   13  C   UNL     1     -11.166  15.549  70.081  1.00  0.00    -0.331 A  
HETATM   14  C   UNL     1     -11.024  15.321  65.551  1.00  0.00    -0.365 A  
HETATM   15  C   UNL     1     -11.805  14.845  64.499  1.00  0.00    -0.404 A  
HETATM   16  C   UNL     1     -11.975  15.163  71.147  1.00  0.00    -0.386 A  
HETATM   17  C   UNL     1     -12.469  13.855  71.227  1.00  0.00    -0.440 A  
HETATM   18  C   UNL     1     -12.364  13.564  64.556  1.00  0.00    -0.406 A  
HETATM   19  C   UNL     1     -12.142  12.734  65.660  1.00  0.00    -0.514 A  
HETATM   20  C   UNL     1     -12.165  12.911  70.239  1.00  0.00    -0.362 A  
HETATM   21  C   UNL     1     -11.317  13.169  66.694  1.00  0.00    -0.361 A  
HETATM   22  C   UNL     1     -11.355  13.280  69.170  1.00  0.00    -0.336 A  
ENDBRANCH   6   7
ENDBRANCH   5   6
ENDBRANCH   4   5
ENDBRANCH   2   4
TORSDOF 4
ENDMDL
MODEL       22
REMARK 921   NORMALIZED FREE ENERGY PREDICTED BY IDOCK:   -5.35 KCAL/MOL
REMARK 922        TOTAL FREE ENERGY PREDICTED BY IDOCK:   -7.19 KCAL/MOL
REMARK 923 INTER-LIGAND FREE ENERGY PREDICTED BY IDOCK:   -6.73 KCAL/MOL
REMARK 924 INTRA-LIGAND FREE ENERGY PREDICTED BY IDOCK:   -0.45 KCAL/MOL
REMARK 927      BINDING AFFINITY PREDICTED BY RF-SCORE:    0.00 PKD
ROOT
HETATM    1  C   UNL     1     -11.266   2.444  73.595  1.00  0.00    -0.217 C  
HETATM    2  N   UNL     1     -10.388   3.406  74.245  1.00  0.00    -0.176 NA 
HETATM    3  H   UNL     1      -9.411   3.246  74.000  1.00  0.00     0.000 HD 
ENDROOT
BRANCH   2   4
HETATM    4  C   UNL     1     -10.795   4.782  73.953  1.00  0.00    -0.294 C  
BRANCH   4   5
HETATM    5  C   UNL     1     -10.189   5.210  72.611  1.00  0.00    -0.232 C  
BRANCH   5   6
HETATM    6  C   UNL     1     -11.238   5.885  71.709  1.00  0.00    -0.311 C  
BRANCH   6   7
HETATM    7  C   UNL     1     -10.808   7.224  71.050  1.00  0.00    -0.258 C  
HETATM    8  C   UNL     1      -9.393   7.672  71.572  1.00  0.00    -0.157 C  
HETATM    9  C   UNL     1      -8.957   9.034  70.957  1.00  0.00    -0.304 C  
HETATM   10  C   UNL     1     -10.043   9.548  69.994  1.00  0.00    -0.279 C  
HETATM   11  C   UNL     1     -11.320   9.652  70.826  1.00  0.00    -0.409 A  
HETATM   12  C   UNL     1     -10.252   8.449  68.960  1.00  0.00    -0.217 A  
HETATM   13  C   UNL     1     -12.040  10.825  71.024  1.00  0.00    -0.452 A  
HETATM   14  C   UNL     1     -10.066   8.611  67.590  1.00  0.00    -0.271 A  
HETATM   15  C   UNL     1     -10.331   7.536  66.744  1.00  0.00    -0.332 A  
HETATM   16  C   UNL     1     -13.192  10.779  71.805  1.00  0.00    -0.523 A  
HETATM   17  C   UNL     1     -13.615   9.572  72.378  1.00  0.00    -0.459 A  
HETATM   18  C   UNL     1     -10.806   6.326  67.262  1.00  0.00    -0.457 A  
HETATM   19  C   UNL     1     -11.011   6.169  68.637  1.00  0.00    -0.415 A  
HETATM   20  C   UNL     1     -12.894   8.390  72.176  1.00  0.00    -0.385 A  
HETATM   21  C   UNL     1     -10.697   7.212  69.504  1.00  0.00    -0.255 A  
HETATM   22  C   UNL     1     -11.738   8.420  71.402  1.00  0.00    -0.332 A  
ENDBRANCH   6   7
ENDBRANCH   5   6
ENDBRANCH   4   5
ENDBRANCH   2   4
TORSDOF 4
ENDMDL
MODEL       23
REMARK 921   NORMALIZED FREE ENERGY PREDICTED BY IDOCK:   -5.34 KCAL/MOL
REMARK 922        TOTAL FREE ENERGY PREDICTED BY IDOCK:   -7.18 KCAL/MOL
REMARK 923 INTER-LIGAND FREE ENERGY PREDICTED BY IDOCK:   -6.81 KCAL/MOL
REMARK 924 INTRA-LIGAND FREE ENERGY PREDICTED BY IDOCK:   -0.36 KCAL/MOL
REMARK 927      BINDING AFFINITY PREDICTED BY RF-SCORE:    0.00 PKD
ROOT
HETATM    1  C   UNL     1     -13.332   9.381  71.997  1.00  0.00    -0.450 C  
HETATM    2  N   UNL     1     -13.006   9.726  70.621  1.00  0.00    -0.570 NA 
HETATM    3  H   UNL     1     -13.838   9.999  70.097  1.00  0.00     0.000 HD 
ENDROOT
BRANCH   2   4
HETATM    4  C   UNL     1     -11.972  10.760  70.561  1.00  0.00    -0.361 C  
BRANCH   4   5
HETATM    5  C   UNL     1     -12.157  11.581  69.279  1.00  0.00    -0.344 C  
BRANCH   5   6
HETATM    6  C   UNL     1     -10.807  11.889  68.607  1.00  0.00    -0.273 C  
BRANCH   6   7
HETATM    7  C   UNL     1     -10.674  13.292  67.957  1.00  0.00    -0.254 C  
HETATM    8  C   UNL     1     -11.489  14.362  68.774  1.00  0.00    -0.319 C  
HETATM    9  C   UNL     1     -11.407  15.772  68.119  1.00  0.00    -0.337 C  
HETATM   10  C   UNL     1     -10.530  15.715  66.854  1.00  0.00    -0.307 C  
HETATM   11  C   UNL     1     -11.181  14.673  65.945  1.00  0.00    -0.336 A  
HETATM   12  C   UNL     1      -9.179  15.165  67.296  1.00  0.00    -0.208 A  
HETATM   13  C   UNL     1     -11.652  14.929  64.663  1.00  0.00    -0.395 A  
HETATM   14  C   UNL     1      -7.970  15.840  67.154  1.00  0.00    -0.250 A  
HETATM   15  C   UNL     1      -6.796  15.209  67.562  1.00  0.00    -0.203 A  
HETATM   16  C   UNL     1     -12.223  13.885  63.939  1.00  0.00    -0.375 A  
HETATM   17  C   UNL     1     -12.317  12.603  64.495  1.00  0.00    -0.537 A  
HETATM   18  C   UNL     1      -6.833  13.908  68.075  1.00  0.00    -0.146 A  
HETATM   19  C   UNL     1      -8.046  13.222  68.200  1.00  0.00    -0.159 A  
HETATM   20  C   UNL     1     -11.839  12.342  65.784  1.00  0.00    -0.467 A  
HETATM   21  C   UNL     1      -9.235  13.857  67.853  1.00  0.00    -0.198 A  
HETATM   22  C   UNL     1     -11.271  13.376  66.523  1.00  0.00    -0.327 A  
ENDBRANCH   6   7
ENDBRANCH   5   6
ENDBRANCH   4   5
ENDBRANCH   2   4
TORSDOF 4
ENDMDL
MODEL       24
REMARK 921   NORMALIZED FREE ENERGY PREDICTED BY IDOCK:   -5.34 KCAL/MOL
REMARK 922        TOTAL FREE ENERGY PREDICTED BY IDOCK:   -7.17 KCAL/MOL
REMARK 923 INTER-LIGAND FREE ENERGY PREDICTED BY IDOCK:   -6.61 KCAL/MOL
REMARK 924 INTRA-LIGAND FREE ENERGY PREDICTED BY IDOCK:   -0.56 KCAL/MOL
REMARK 927      BINDING AFFINITY PREDICTED BY RF-SCORE:    0.00 PKD
ROOT
HETATM    1  C   UNL     1     -10.233   3.072  72.841  1.00  0.00    -0.155 C  
HETATM    2  N   UNL     1     -10.266   4.499  72.557  1.00  0.00    -0.181 NA 
HETATM    3  H   UNL     1     -11.132   4.768  72.091  1.00  0.00     0.000 HD 
ENDROOT
BRANCH   2   4
HETATM    4  C   UNL     1     -10.042   5.290  73.769  1.00  0.00    -0.198 C  
BRANCH   4   5
HETATM    5  C   UNL     1     -10.524   6.725  73.527  1.00  0.00    -0.356 C  
BRANCH   5   6
HETATM    6  C   UNL     1     -11.298   6.845  72.202  1.00  0.00    -0.302 C  
BRANCH   6   7
HETATM    7  C   UNL     1     -10.767   7.900  71.196  1.00  0.00    -0.251 C  
HETATM    8  C   UNL     1      -9.292   8.316  71.554  1.00  0.00    -0.236 C  
HETATM    9  C   UNL     1      -8.749   9.406  70.584  1.00  0.00    -0.263 C  
HETATM   10  C   UNL     1      -9.819   9.755  69.532  1.00  0.00    -0.230 C  
HETATM   11  C   UNL     1     -11.042  10.218  70.323  1.00  0.00    -0.388 A  
HETATM   12  C   UNL     1     -10.183   8.446  68.842  1.00  0.00    -0.223 A  
HETATM   13  C   UNL     1     -11.630  11.471  70.204  1.00  0.00    -0.336 A  
HETATM   14  C   UNL     1     -10.041   8.211  67.477  1.00  0.00    -0.286 A  
HETATM   15  C   UNL     1     -10.450   6.981  66.962  1.00  0.00    -0.386 A  
HETATM   16  C   UNL     1     -12.746  11.764  70.985  1.00  0.00    -0.372 A  
HETATM   17  C   UNL     1     -13.263  10.811  71.872  1.00  0.00    -0.524 A  
HETATM   18  C   UNL     1     -11.020   6.016  67.799  1.00  0.00    -0.333 A  
HETATM   19  C   UNL     1     -11.180   6.261  69.167  1.00  0.00    -0.439 A  
HETATM   20  C   UNL     1     -12.674   9.546  71.991  1.00  0.00    -0.479 A  
HETATM   21  C   UNL     1     -10.724   7.459  69.711  1.00  0.00    -0.252 A  
HETATM   22  C   UNL     1     -11.555   9.240  71.221  1.00  0.00    -0.419 A  
ENDBRANCH   6   7
ENDBRANCH   5   6
ENDBRANCH   4   5
ENDBRANCH   2   4
TORSDOF 4
ENDMDL
MODEL       25
REMARK 921   NORMALIZED FREE ENERGY PREDICTED BY IDOCK:   -5.33 KCAL/MOL
REMARK 922        TOTAL FREE ENERGY PREDICTED BY IDOCK:   -7.16 KCAL/MOL
REMARK 923 INTER-LIGAND FREE ENERGY PREDICTED BY IDOCK:   -6.58 KCAL/MOL
REMARK 924 INTRA-LIGAND FREE ENERGY PREDICTED BY IDOCK:   -0.58 KCAL/MOL
REMARK 927      BINDING AFFINITY PREDICTED BY RF-SCORE:    0.00 PKD
ROOT
HETATM    1  C   UNL     1      -9.925  11.475  63.090  1.00  0.00    -0.377 C  
HETATM    2  N   UNL     1     -11.135  11.143  63.829  1.00  0.00    -0.522 NA 
HETATM    3  H   UNL     1     -10.950  11.051  64.828  1.00  0.00     0.000 HD 
ENDROOT
BRANCH   2   4
HETATM    4  C   UNL     1     -12.202  12.110  63.568  1.00  0.00    -0.567 C  
BRANCH   4   5
HETATM    5  C   UNL     1     -12.491  12.896  64.852  1.00  0.00    -0.540 C  
BRANCH   5   6
HETATM    6  C   UNL     1     -11.641  12.385  66.030  1.00  0.00    -0.455 C  
BRANCH   6   7
HETATM    7  C   UNL     1     -10.615  13.392  66.616  1.00  0.00    -0.282 C  
HETATM    8  C   UNL     1     -10.404  14.605  65.636  1.00  0.00    -0.370 C  
HETATM    9  C   UNL     1      -9.347  15.609  66.182  1.00  0.00    -0.382 C  
HETATM   10  C   UNL     1      -8.818  15.127  67.546  1.00  0.00    -0.190 C  
HETATM   11  C   UNL     1      -8.243  13.733  67.298  1.00  0.00    -0.173 A  
HETATM   12  C   UNL     1     -10.037  14.971  68.447  1.00  0.00    -0.225 A  
HETATM   13  C   UNL     1      -6.921  13.372  67.533  1.00  0.00    -0.153 A  
HETATM   14  C   UNL     1     -10.225  15.658  69.643  1.00  0.00    -0.291 A  
HETATM   15  C   UNL     1     -11.368  15.395  70.396  1.00  0.00    -0.350 A  
HETATM   16  C   UNL     1      -6.528  12.063  67.266  1.00  0.00    -0.149 A  
HETATM   17  C   UNL     1      -7.449  11.131  66.771  1.00  0.00    -0.146 A  
HETATM   18  C   UNL     1     -12.291  14.434  69.971  1.00  0.00    -0.391 A  
HETATM   19  C   UNL     1     -12.093  13.731  68.778  1.00  0.00    -0.344 A  
HETATM   20  C   UNL     1      -8.781  11.491  66.538  1.00  0.00    -0.183 A  
HETATM   21  C   UNL     1     -10.988  14.021  67.982  1.00  0.00    -0.266 A  
HETATM   22  C   UNL     1      -9.189  12.797  66.795  1.00  0.00    -0.225 A  
ENDBRANCH   6   7
ENDBRANCH   5   6
ENDBRANCH   4   5
ENDBRANCH   2   4
TORSDOF 4
ENDMDL
MODEL       26
REMARK 921   NORMALIZED FREE ENERGY PREDICTED BY IDOCK:   -5.26 KCAL/MOL
REMARK 922        TOTAL FREE ENERGY PREDICTED BY IDOCK:   -7.08 KCAL/MOL
REMARK 923 INTER-LIGAND FREE ENERGY PREDICTED BY IDOCK:   -6.64 KCAL/MOL
REMARK 924 INTRA-LIGAND FREE ENERGY PREDICTED BY IDOCK:   -0.44 KCAL/MOL
REMARK 927      BINDING AFFINITY PREDICTED BY RF-SCORE:    0.00 PKD
ROOT
HETATM    1  C   UNL     1      -8.957  20.252  67.868  1.00  0.00    -0.175 C  
HETATM    2  N   UNL     1      -9.671  20.480  66.620  1.00  0.00    -0.643 NA 
HETATM    3  H   UNL     1      -9.036  20.482  65.822  1.00  0.00     0.000 HD 
ENDROOT
BRANCH   2   4
HETATM    4  C   UNL     1     -10.755  19.513  66.440  1.00  0.00    -0.427 C  
BRANCH   4   5
HETATM    5  C   UNL     1     -10.381  18.203  67.144  1.00  0.00    -0.391 C  
BRANCH   5   6
HETATM    6  C   UNL     1     -10.330  17.025  66.153  1.00  0.00    -0.326 C  
BRANCH   6   7
HETATM    7  C   UNL     1     -10.490  15.610  66.770  1.00  0.00    -0.297 C  
HETATM    8  C   UNL     1     -11.358  15.669  68.081  1.00  0.00    -0.340 C  
HETATM    9  C   UNL     1     -11.498  14.267  68.743  1.00  0.00    -0.327 C  
HETATM   10  C   UNL     1     -10.750  13.212  67.906  1.00  0.00    -0.249 C  
HETATM   11  C   UNL     1      -9.302  13.693  67.831  1.00  0.00    -0.206 A  
HETATM   12  C   UNL     1     -11.336  13.288  66.501  1.00  0.00    -0.353 A  
HETATM   13  C   UNL     1      -8.206  12.973  68.292  1.00  0.00    -0.150 A  
HETATM   14  C   UNL     1     -11.957  12.226  65.850  1.00  0.00    -0.358 A  
HETATM   15  C   UNL     1     -12.416  12.413  64.547  1.00  0.00    -0.519 A  
HETATM   16  C   UNL     1      -6.936  13.528  68.160  1.00  0.00    -0.118 A  
HETATM   17  C   UNL     1      -6.769  14.789  67.572  1.00  0.00    -0.157 A  
HETATM   18  C   UNL     1     -12.226  13.638  63.898  1.00  0.00    -0.429 A  
HETATM   19  C   UNL     1     -11.585  14.699  64.546  1.00  0.00    -0.377 A  
HETATM   20  C   UNL     1      -7.871  15.514  67.104  1.00  0.00    -0.256 A  
HETATM   21  C   UNL     1     -11.172  14.551  65.868  1.00  0.00    -0.331 A  
HETATM   22  C   UNL     1      -9.147  14.975  67.233  1.00  0.00    -0.213 A  
ENDBRANCH   6   7
ENDBRANCH   5   6
ENDBRANCH   4   5
ENDBRANCH   2   4
TORSDOF 4
ENDMDL
MODEL       27
REMARK 921   NORMALIZED FREE ENERGY PREDICTED BY IDOCK:   -5.25 KCAL/MOL
REMARK 922        TOTAL FREE ENERGY PREDICTED BY IDOCK:   -7.07 KCAL/MOL
REMARK 923 INTER-LIGAND FREE ENERGY PREDICTED BY IDOCK:   -6.63 KCAL/MOL
REMARK 924 INTRA-LIGAND FREE ENERGY PREDICTED BY IDOCK:   -0.44 KCAL/MOL
REMARK 927      BINDING AFFINITY PREDICTED BY RF-SCORE:    0.00 PKD
ROOT
HETATM    1  C   UNL     1     -10.326  13.990  65.284  1.00  0.00    -0.383 C  
HETATM    2  N   UNL     1      -9.335  13.244  66.045  1.00  0.00    -0.481 NA 
HETATM    3  H   UNL     1      -8.385  13.492  65.768  1.00  0.00     0.000 HD 
ENDROOT
BRANCH   2   4
HETATM    4  C   UNL     1      -9.532  13.409  67.486  1.00  0.00    -0.219 C  
BRANCH   4   5
HETATM    5  C   UNL     1      -9.020  12.159  68.210  1.00  0.00    -0.186 C  
BRANCH   5   6
HETATM    6  C   UNL     1      -9.850  10.915  67.843  1.00  0.00    -0.189 C  
BRANCH   6   7
HETATM    7  C   UNL     1     -10.054   9.874  68.976  1.00  0.00    -0.199 C  
HETATM    8  C   UNL     1      -8.748   9.732  69.842  1.00  0.00    -0.238 C  
HETATM    9  C   UNL     1      -8.912   8.661  70.961  1.00  0.00    -0.242 C  
HETATM   10  C   UNL     1     -10.326   8.054  70.905  1.00  0.00    -0.221 C  
HETATM   11  C   UNL     1     -10.473   7.474  69.500  1.00  0.00    -0.227 A  
HETATM   12  C   UNL     1     -11.298   9.222  71.028  1.00  0.00    -0.390 A  
HETATM   13  C   UNL     1     -10.732   6.137  69.222  1.00  0.00    -0.383 A  
HETATM   14  C   UNL     1     -12.244   9.356  72.040  1.00  0.00    -0.396 A  
HETATM   15  C   UNL     1     -13.103  10.454  72.016  1.00  0.00    -0.521 A  
HETATM   16  C   UNL     1     -10.845   5.740  67.892  1.00  0.00    -0.257 A  
HETATM   17  C   UNL     1     -10.701   6.672  66.856  1.00  0.00    -0.401 A  
HETATM   18  C   UNL     1     -13.033  11.385  70.974  1.00  0.00    -0.280 A  
HETATM   19  C   UNL     1     -12.095  11.240  69.947  1.00  0.00    -0.414 A  
HETATM   20  C   UNL     1     -10.444   8.020  67.135  1.00  0.00    -0.408 A  
HETATM   21  C   UNL     1     -11.189  10.183  69.984  1.00  0.00    -0.361 A  
HETATM   22  C   UNL     1     -10.324   8.432  68.458  1.00  0.00    -0.232 A  
ENDBRANCH   6   7
ENDBRANCH   5   6
ENDBRANCH   4   5
ENDBRANCH   2   4
TORSDOF 4
ENDMDL
MODEL       28
REMARK 921   NORMALIZED FREE ENERGY PREDICTED BY IDOCK:   -5.22 KCAL/MOL
REMARK 922        TOTAL FREE ENERGY PREDICTED BY IDOCK:   -7.03 KCAL/MOL
REMARK 923 INTER-LIGAND FREE ENERGY PREDICTED BY IDOCK:   -6.57 KCAL/MOL
REMARK 924 INTRA-LIGAND FREE ENERGY PREDICTED BY IDOCK:   -0.46 KCAL/MOL
REMARK 927      BINDING AFFINITY PREDICTED BY RF-SCORE:    0.00 PKD
ROOT
HETATM    1  C   UNL     1     -12.704  14.633  71.482  1.00  0.00    -0.338 C  
HETATM    2  N   UNL     1     -11.847  13.637  70.855  1.00  0.00    -0.492 NA 
HETATM    3  H   UNL     1     -10.908  13.647  71.254  1.00  0.00     0.000 HD 
ENDROOT
BRANCH   2   4
HETATM    4  C   UNL     1     -12.444  12.302  70.920  1.00  0.00    -0.276 C  
BRANCH   4   5
HETATM    5  C   UNL     1     -11.903  11.454  69.764  1.00  0.00    -0.435 C  
BRANCH   5   6
HETATM    6  C   UNL     1     -11.115  12.311  68.756  1.00  0.00    -0.295 C  
BRANCH   6   7
HETATM    7  C   UNL     1     -10.546  11.560  67.522  1.00  0.00    -0.243 C  
HETATM    8  C   UNL     1     -10.882  10.024  67.603  1.00  0.00    -0.336 C  
HETATM    9  C   UNL     1     -10.285   9.240  66.397  1.00  0.00    -0.298 C  
HETATM   10  C   UNL     1      -9.543  10.208  65.456  1.00  0.00    -0.310 C  
HETATM   11  C   UNL     1      -8.475  10.883  66.314  1.00  0.00    -0.166 A  
HETATM   12  C   UNL     1     -10.556  11.273  65.053  1.00  0.00    -0.353 A  
HETATM   13  C   UNL     1      -7.109  10.825  66.063  1.00  0.00    -0.102 A  
HETATM   14  C   UNL     1     -10.942  11.535  63.742  1.00  0.00    -0.485 A  
HETATM   15  C   UNL     1     -11.849  12.567  63.503  1.00  0.00    -0.616 A  
HETATM   16  C   UNL     1      -6.241  11.490  66.926  1.00  0.00    -0.143 A  
HETATM   17  C   UNL     1      -6.739  12.204  68.024  1.00  0.00    -0.073 A  
HETATM   18  C   UNL     1     -12.335  13.343  64.561  1.00  0.00    -0.415 A  
HETATM   19  C   UNL     1     -11.931  13.091  65.876  1.00  0.00    -0.491 A  
HETATM   20  C   UNL     1      -8.115  12.267  68.275  1.00  0.00    -0.166 A  
HETATM   21  C   UNL     1     -11.072  12.028  66.142  1.00  0.00    -0.367 A  
HETATM   22  C   UNL     1      -8.994  11.604  67.425  1.00  0.00    -0.166 A  
ENDBRANCH   6   7
ENDBRANCH   5   6
ENDBRANCH   4   5
ENDBRANCH   2   4
TORSDOF 4
ENDMDL
MODEL       29
REMARK 921   NORMALIZED FREE ENERGY PREDICTED BY IDOCK:   -5.22 KCAL/MOL
REMARK 922        TOTAL FREE ENERGY PREDICTED BY IDOCK:   -7.02 KCAL/MOL
REMARK 923 INTER-LIGAND FREE ENERGY PREDICTED BY IDOCK:   -6.64 KCAL/MOL
REMARK 924 INTRA-LIGAND FREE ENERGY PREDICTED BY IDOCK:   -0.38 KCAL/MOL
REMARK 927      BINDING AFFINITY PREDICTED BY RF-SCORE:    0.00 PKD
ROOT
HETATM    1  C   UNL     1     -10.568   4.854  66.272  1.00  0.00    -0.255 C  
HETATM    2  N   UNL     1     -11.099   6.160  66.636  1.00  0.00    -0.759 NA 
HETATM    3  H   UNL     1     -11.709   6.102  67.451  1.00  0.00     0.000 HD 
ENDROOT
BRANCH   2   4
HETATM    4  C   UNL     1     -10.026   7.135  66.838  1.00  0.00    -0.224 C  
BRANCH   4   5
HETATM    5  C   UNL     1     -10.643   8.514  67.096  1.00  0.00    -0.314 C  
BRANCH   5   6
HETATM    6  C   UNL     1      -9.901   9.618  66.321  1.00  0.00    -0.323 C  
BRANCH   6   7
HETATM    7  C   UNL     1     -10.256  11.079  66.709  1.00  0.00    -0.272 C  
HETATM    8  C   UNL     1     -11.274  11.103  67.910  1.00  0.00    -0.365 C  
HETATM    9  C   UNL     1     -11.680  12.557  68.291  1.00  0.00    -0.390 C  
HETATM   10  C   UNL     1     -10.949  13.563  67.382  1.00  0.00    -0.286 C  
HETATM   11  C   UNL     1     -11.341  13.191  65.953  1.00  0.00    -0.338 A  
HETATM   12  C   UNL     1      -9.460  13.280  67.543  1.00  0.00    -0.220 A  
HETATM   13  C   UNL     1     -11.986  14.043  65.065  1.00  0.00    -0.409 A  
HETATM   14  C   UNL     1      -8.528  14.209  67.998  1.00  0.00    -0.171 A  
HETATM   15  C   UNL     1      -7.186  13.837  68.061  1.00  0.00    -0.137 A  
HETATM   16  C   UNL     1     -12.283  13.577  63.787  1.00  0.00    -0.449 A  
HETATM   17  C   UNL     1     -11.937  12.274  63.406  1.00  0.00    -0.588 A  
HETATM   18  C   UNL     1      -6.783  12.564  67.643  1.00  0.00    -0.136 A  
HETATM   19  C   UNL     1      -7.717  11.638  67.168  1.00  0.00    -0.159 A  
HETATM   20  C   UNL     1     -11.283  11.416  64.298  1.00  0.00    -0.306 A  
HETATM   21  C   UNL     1      -9.069  11.970  67.152  1.00  0.00    -0.186 A  
HETATM   22  C   UNL     1     -10.983  11.865  65.581  1.00  0.00    -0.353 A  
ENDBRANCH   6   7
ENDBRANCH   5   6
ENDBRANCH   4   5
ENDBRANCH   2   4
TORSDOF 4
ENDMDL
MODEL       30
REMARK 921   NORMALIZED FREE ENERGY PREDICTED BY IDOCK:   -5.22 KCAL/MOL
REMARK 922        TOTAL FREE ENERGY PREDICTED BY IDOCK:   -7.02 KCAL/MOL
REMARK 923 INTER-LIGAND FREE ENERGY PREDICTED BY IDOCK:   -6.51 KCAL/MOL
REMARK 924 INTRA-LIGAND FREE ENERGY PREDICTED BY IDOCK:   -0.52 KCAL/MOL
REMARK 927      BINDING AFFINITY PREDICTED BY RF-SCORE:    0.00 PKD
ROOT
HETATM    1  C   UNL     1      -7.601  19.164  65.999  1.00  0.00    -0.260 C  
HETATM    2  N   UNL     1      -8.775  18.305  66.038  1.00  0.00    -0.505 NA 
HETATM    3  H   UNL     1      -8.585  17.435  66.536  1.00  0.00     0.000 HD 
ENDROOT
BRANCH   2   4
HETATM    4  C   UNL     1      -9.930  19.004  66.602  1.00  0.00    -0.374 C  
BRANCH   4   5
HETATM    5  C   UNL     1     -10.732  18.029  67.472  1.00  0.00    -0.352 C  
BRANCH   5   6
HETATM    6  C   UNL     1      -9.819  16.978  68.129  1.00  0.00    -0.273 C  
BRANCH   6   7
HETATM    7  C   UNL     1     -10.387  15.535  68.207  1.00  0.00    -0.235 C  
HETATM    8  C   UNL     1     -11.470  15.304  67.089  1.00  0.00    -0.202 C  
HETATM    9  C   UNL     1     -12.087  13.877  67.171  1.00  0.00    -0.422 C  
HETATM   10  C   UNL     1     -11.441  13.090  68.327  1.00  0.00    -0.347 C  
HETATM   11  C   UNL     1     -11.692  13.920  69.585  1.00  0.00    -0.370 A  
HETATM   12  C   UNL     1      -9.941  13.094  68.061  1.00  0.00    -0.233 A  
HETATM   13  C   UNL     1     -12.389  13.472  70.701  1.00  0.00    -0.432 A  
HETATM   14  C   UNL     1      -9.169  11.949  67.889  1.00  0.00    -0.187 A  
HETATM   15  C   UNL     1      -7.796  12.087  67.692  1.00  0.00    -0.149 A  
HETATM   16  C   UNL     1     -12.543  14.333  71.784  1.00  0.00    -0.418 A  
HETATM   17  C   UNL     1     -12.005  15.626  71.747  1.00  0.00    -0.518 A  
HETATM   18  C   UNL     1      -7.204  13.355  67.699  1.00  0.00    -0.167 A  
HETATM   19  C   UNL     1      -7.977  14.504  67.891  1.00  0.00    -0.152 A  
HETATM   20  C   UNL     1     -11.300  16.078  70.626  1.00  0.00    -0.424 A  
HETATM   21  C   UNL     1      -9.357  14.391  68.031  1.00  0.00    -0.200 A  
HETATM   22  C   UNL     1     -11.141  15.231  69.533  1.00  0.00    -0.286 A  
ENDBRANCH   6   7
ENDBRANCH   5   6
ENDBRANCH   4   5
ENDBRANCH   2   4
TORSDOF 4
ENDMDL
MODEL       31
REMARK 921   NORMALIZED FREE ENERGY PREDICTED BY IDOCK:   -5.21 KCAL/MOL
REMARK 922        TOTAL FREE ENERGY PREDICTED BY IDOCK:   -7.01 KCAL/MOL
REMARK 923 INTER-LIGAND FREE ENERGY PREDICTED BY IDOCK:   -6.64 KCAL/MOL
REMARK 924 INTRA-LIGAND FREE ENERGY PREDICTED BY IDOCK:   -0.37 KCAL/MOL
REMARK 927      BINDING AFFINITY PREDICTED BY RF-SCORE:    0.00 PKD
ROOT
HETATM    1  C   UNL     1     -10.540   4.012  64.563  1.00  0.00    -0.180 C  
HETATM    2  N   UNL     1     -11.212   4.818  65.571  1.00  0.00    -0.968 NA 
HETATM    3  H   UNL     1     -12.038   4.345  65.939  1.00  0.00     0.000 HD 
ENDROOT
BRANCH   2   4
HETATM    4  C   UNL     1     -10.295   5.206  66.644  1.00  0.00    -0.281 C  
BRANCH   4   5
HETATM    5  C   UNL     1     -10.896   6.386  67.416  1.00  0.00    -0.457 C  
BRANCH   5   6
HETATM    6  C   UNL     1      -9.900   6.953  68.444  1.00  0.00    -0.143 C  
BRANCH   6   7
HETATM    7  C   UNL     1     -10.507   7.413  69.797  1.00  0.00    -0.235 C  
HETATM    8  C   UNL     1     -11.763   6.540  70.169  1.00  0.00    -0.419 C  
HETATM    9  C   UNL     1     -12.416   7.010  71.502  1.00  0.00    -0.426 C  
HETATM   10  C   UNL     1     -11.627   8.197  72.085  1.00  0.00    -0.417 C  
HETATM   11  C   UNL     1     -11.641   9.275  71.004  1.00  0.00    -0.380 A  
HETATM   12  C   UNL     1     -10.189   7.717  72.243  1.00  0.00    -0.285 A  
HETATM   13  C   UNL     1     -12.169  10.551  71.168  1.00  0.00    -0.496 A  
HETATM   14  C   UNL     1      -9.502   7.677  73.453  1.00  0.00    -0.330 A  
HETATM   15  C   UNL     1      -8.173   7.256  73.457  1.00  0.00    -0.146 A  
HETATM   16  C   UNL     1     -12.114  11.441  70.098  1.00  0.00    -0.439 A  
HETATM   17  C   UNL     1     -11.537  11.055  68.881  1.00  0.00    -0.383 A  
HETATM   18  C   UNL     1      -7.536   6.910  72.260  1.00  0.00    -0.092 A  
HETATM   19  C   UNL     1      -8.222   6.969  71.042  1.00  0.00    -0.117 A  
HETATM   20  C   UNL     1     -11.001   9.773  68.715  1.00  0.00    -0.185 A  
HETATM   21  C   UNL     1      -9.566   7.331  71.025  1.00  0.00    -0.158 A  
HETATM   22  C   UNL     1     -11.052   8.870  69.773  1.00  0.00    -0.099 A  
ENDBRANCH   6   7
ENDBRANCH   5   6
ENDBRANCH   4   5
ENDBRANCH   2   4
TORSDOF 4
ENDMDL
MODEL       32
REMARK 921   NORMALIZED FREE ENERGY PREDICTED BY IDOCK:   -5.20 KCAL/MOL
REMARK 922        TOTAL FREE ENERGY PREDICTED BY IDOCK:   -7.01 KCAL/MOL
REMARK 923 INTER-LIGAND FREE ENERGY PREDICTED BY IDOCK:   -6.97 KCAL/MOL
REMARK 924 INTRA-LIGAND FREE ENERGY PREDICTED BY IDOCK:   -0.04 KCAL/MOL
REMARK 927      BINDING AFFINITY PREDICTED BY RF-SCORE:    0.00 PKD
ROOT
HETATM    1  C   UNL     1     -12.529  12.387  63.721  1.00  0.00    -0.492 C  
HETATM    2  N   UNL     1     -12.169  13.737  63.315  1.00  0.00    -1.096 NA 
HETATM    3  H   UNL     1     -12.705  14.039  62.501  1.00  0.00     0.000 HD 
ENDROOT
BRANCH   2   4
HETATM    4  C   UNL     1     -12.302  14.682  64.425  1.00  0.00    -0.398 C  
BRANCH   4   5
HETATM    5  C   UNL     1     -12.270  13.910  65.748  1.00  0.00    -0.488 C  
BRANCH   5   6
HETATM    6  C   UNL     1     -10.855  13.889  66.355  1.00  0.00    -0.291 C  
BRANCH   6   7
HETATM    7  C   UNL     1     -10.568  14.952  67.449  1.00  0.00    -0.263 C  
HETATM    8  C   UNL     1     -11.023  16.380  66.970  1.00  0.00    -0.048 C  
HETATM    9  C   UNL     1     -10.707  17.472  68.034  1.00  0.00    -0.342 C  
HETATM   10  C   UNL     1     -10.046  16.829  69.268  1.00  0.00    -0.240 C  
HETATM   11  C   UNL     1      -8.794  16.126  68.747  1.00  0.00    -0.233 A  
HETATM   12  C   UNL     1     -11.010  15.756  69.759  1.00  0.00    -0.316 A  
HETATM   13  C   UNL     1      -7.499  16.407  69.166  1.00  0.00    -0.228 A  
HETATM   14  C   UNL     1     -11.582  15.734  71.028  1.00  0.00    -0.453 A  
HETATM   15  C   UNL     1     -12.418  14.673  71.369  1.00  0.00    -0.410 A  
HETATM   16  C   UNL     1      -6.444  15.687  68.611  1.00  0.00    -0.107 A  
HETATM   17  C   UNL     1      -6.687  14.698  67.649  1.00  0.00    -0.196 A  
HETATM   18  C   UNL     1     -12.651  13.634  70.461  1.00  0.00    -0.337 A  
HETATM   19  C   UNL     1     -12.060  13.647  69.193  1.00  0.00    -0.361 A  
HETATM   20  C   UNL     1      -7.991  14.410  67.228  1.00  0.00    -0.204 A  
HETATM   21  C   UNL     1     -11.269  14.727  68.812  1.00  0.00    -0.286 A  
HETATM   22  C   UNL     1      -9.055  15.125  67.770  1.00  0.00    -0.179 A  
ENDBRANCH   6   7
ENDBRANCH   5   6
ENDBRANCH   4   5
ENDBRANCH   2   4
TORSDOF 4
ENDMDL
MODEL       33
REMARK 921   NORMALIZED FREE ENERGY PREDICTED BY IDOCK:   -5.17 KCAL/MOL
REMARK 922        TOTAL FREE ENERGY PREDICTED BY IDOCK:   -6.97 KCAL/MOL
REMARK 923 INTER-LIGAND FREE ENERGY PREDICTED BY IDOCK:   -6.57 KCAL/MOL
REMARK 924 INTRA-LIGAND FREE ENERGY PREDICTED BY IDOCK:   -0.40 KCAL/MOL
REMARK 927      BINDING AFFINITY PREDICTED BY RF-SCORE:    0.00 PKD
ROOT
HETATM    1  C   UNL     1     -11.143   7.572  70.934  1.00  0.00    -0.263 C  
HETATM    2  N   UNL     1     -11.433   8.618  69.964  1.00  0.00    -0.459 NA 
HETATM    3  H   UNL     1     -12.356   9.025  70.118  1.00  0.00     0.000 HD 
ENDROOT
BRANCH   2   4
HETATM    4  C   UNL     1     -10.389   9.644  69.957  1.00  0.00    -0.257 C  
BRANCH   4   5
HETATM    5  C   UNL     1     -10.929  10.904  69.272  1.00  0.00    -0.295 C  
BRANCH   5   6
HETATM    6  C   UNL     1      -9.826  11.637  68.487  1.00  0.00    -0.196 C  
BRANCH   6   7
HETATM    7  C   UNL     1     -10.307  12.558  67.334  1.00  0.00    -0.222 C  
HETATM    8  C   UNL     1     -11.840  12.882  67.485  1.00  0.00    -0.407 C  
HETATM    9  C   UNL     1     -12.358  13.770  66.316  1.00  0.00    -0.479 C  
HETATM   10  C   UNL     1     -11.205  14.091  65.347  1.00  0.00    -0.319 C  
HETATM   11  C   UNL     1     -10.672  12.740  64.875  1.00  0.00    -0.329 A  
HETATM   12  C   UNL     1     -10.116  14.753  66.183  1.00  0.00    -0.312 A  
HETATM   13  C   UNL     1     -10.636  12.325  63.549  1.00  0.00    -0.488 A  
HETATM   14  C   UNL     1      -9.620  16.034  65.958  1.00  0.00    -0.385 A  
HETATM   15  C   UNL     1      -8.593  16.509  66.772  1.00  0.00    -0.263 A  
HETATM   16  C   UNL     1     -10.119  11.065  63.256  1.00  0.00    -0.400 A  
HETATM   17  C   UNL     1      -9.646  10.234  64.280  1.00  0.00    -0.375 A  
HETATM   18  C   UNL     1      -8.050  15.698  67.774  1.00  0.00    -0.158 A  
HETATM   19  C   UNL     1      -8.536  14.404  67.988  1.00  0.00    -0.164 A  
HETATM   20  C   UNL     1      -9.677  10.652  65.616  1.00  0.00    -0.283 A  
HETATM   21  C   UNL     1      -9.601  13.932  67.225  1.00  0.00    -0.243 A  
HETATM   22  C   UNL     1     -10.195  11.906  65.926  1.00  0.00    -0.270 A  
ENDBRANCH   6   7
ENDBRANCH   5   6
ENDBRANCH   4   5
ENDBRANCH   2   4
TORSDOF 4
ENDMDL
MODEL       34
REMARK 921   NORMALIZED FREE ENERGY PREDICTED BY IDOCK:   -5.13 KCAL/MOL
REMARK 922        TOTAL FREE ENERGY PREDICTED BY IDOCK:   -6.91 KCAL/MOL
REMARK 923 INTER-LIGAND FREE ENERGY PREDICTED BY IDOCK:   -6.52 KCAL/MOL
REMARK 924 INTRA-LIGAND FREE ENERGY PREDICTED BY IDOCK:   -0.40 KCAL/MOL
REMARK 927      BINDING AFFINITY PREDICTED BY RF-SCORE:    0.00 PKD
ROOT
HETATM    1  C   UNL     1     -12.492  15.794  74.052  1.00  0.00    -0.645 C  
HETATM    2  N   UNL     1     -12.274  16.118  72.650  1.00  0.00    -0.511 NA 
HETATM    3  H   UNL     1     -11.297  15.993  72.384  1.00  0.00     0.000 HD 
ENDROOT
BRANCH   2   4
HETATM    4  C   UNL     1     -13.168  15.352  71.780  1.00  0.00    -0.457 C  
BRANCH   4   5
HETATM    5  C   UNL     1     -12.610  15.363  70.352  1.00  0.00    -0.433 C  
BRANCH   5   6
HETATM    6  C   UNL     1     -11.742  14.122  70.076  1.00  0.00    -0.358 C  
BRANCH   6   7
HETATM    7  C   UNL     1     -11.127  14.024  68.654  1.00  0.00    -0.286 C  
HETATM    8  C   UNL     1     -12.095  14.655  67.585  1.00  0.00    -0.216 C  
HETATM    9  C   UNL     1     -11.520  14.531  66.144  1.00  0.00    -0.357 C  
HETATM   10  C   UNL     1     -10.148  13.831  66.182  1.00  0.00    -0.314 C  
HETATM   11  C   UNL     1     -10.392  12.476  66.844  1.00  0.00    -0.242 A  
HETATM   12  C   UNL     1      -9.275  14.655  67.121  1.00  0.00    -0.231 A  
HETATM   13  C   UNL     1     -10.132  11.248  66.248  1.00  0.00    -0.271 A  
HETATM   14  C   UNL     1      -8.079  15.264  66.752  1.00  0.00    -0.166 A  
HETATM   15  C   UNL     1      -7.352  15.957  67.718  1.00  0.00    -0.162 A  
HETATM   16  C   UNL     1     -10.399  10.085  66.966  1.00  0.00    -0.305 A  
HETATM   17  C   UNL     1     -10.919  10.155  68.265  1.00  0.00    -0.299 A  
HETATM   18  C   UNL     1      -7.803  16.011  69.041  1.00  0.00    -0.222 A  
HETATM   19  C   UNL     1      -8.996  15.383  69.416  1.00  0.00    -0.258 A  
HETATM   20  C   UNL     1     -11.178  11.391  68.869  1.00  0.00    -0.310 A  
HETATM   21  C   UNL     1      -9.766  14.736  68.454  1.00  0.00    -0.214 A  
HETATM   22  C   UNL     1     -10.921  12.562  68.163  1.00  0.00    -0.260 A  
ENDBRANCH   6   7
ENDBRANCH   5   6
ENDBRANCH   4   5
ENDBRANCH   2   4
TORSDOF 4
ENDMDL
MODEL       35
REMARK 921   NORMALIZED FREE ENERGY PREDICTED BY IDOCK:   -5.13 KCAL/MOL
REMARK 922        TOTAL FREE ENERGY PREDICTED BY IDOCK:   -6.91 KCAL/MOL
REMARK 923 INTER-LIGAND FREE ENERGY PREDICTED BY IDOCK:   -6.39 KCAL/MOL
REMARK 924 INTRA-LIGAND FREE ENERGY PREDICTED BY IDOCK:   -0.53 KCAL/MOL
REMARK 927      BINDING AFFINITY PREDICTED BY RF-SCORE:    0.00 PKD
ROOT
HETATM    1  C   UNL     1      -9.645  10.698  64.349  1.00  0.00    -0.295 C  
HETATM    2  N   UNL     1      -9.362   9.338  64.785  1.00  0.00    -0.444 NA 
HETATM    3  H   UNL     1      -8.429   9.040  64.499  1.00  0.00     0.000 HD 
ENDROOT
BRANCH   2   4
HETATM    4  C   UNL     1      -9.552   9.190  66.229  1.00  0.00    -0.255 C  
BRANCH   4   5
HETATM    5  C   UNL     1     -10.774  10.008  66.661  1.00  0.00    -0.128 C  
BRANCH   5   6
HETATM    6  C   UNL     1     -10.611  10.556  68.090  1.00  0.00    -0.240 C  
BRANCH   6   7
HETATM    7  C   UNL     1     -10.899  12.070  68.276  1.00  0.00    -0.263 C  
HETATM    8  C   UNL     1     -11.708  12.637  67.051  1.00  0.00    -0.438 C  
HETATM    9  C   UNL     1     -11.974  14.164  67.193  1.00  0.00    -0.460 C  
HETATM   10  C   UNL     1     -11.374  14.682  68.514  1.00  0.00    -0.305 C  
HETATM   11  C   UNL     1      -9.887  14.340  68.456  1.00  0.00    -0.231 A  
HETATM   12  C   UNL     1     -12.000  13.845  69.624  1.00  0.00    -0.399 A  
HETATM   13  C   UNL     1      -8.859  15.273  68.527  1.00  0.00    -0.185 A  
HETATM   14  C   UNL     1     -12.754  14.366  70.671  1.00  0.00    -0.421 A  
HETATM   15  C   UNL     1     -13.237  13.496  71.648  1.00  0.00    -0.449 A  
HETATM   16  C   UNL     1      -7.542  14.824  68.465  1.00  0.00    -0.120 A  
HETATM   17  C   UNL     1      -7.262  13.458  68.335  1.00  0.00    -0.110 A  
HETATM   18  C   UNL     1     -12.940  12.130  71.590  1.00  0.00    -0.427 A  
HETATM   19  C   UNL     1     -12.166  11.610  70.548  1.00  0.00    -0.451 A  
HETATM   20  C   UNL     1      -8.295  12.516  68.267  1.00  0.00    -0.167 A  
HETATM   21  C   UNL     1     -11.723  12.453  69.531  1.00  0.00    -0.388 A  
HETATM   22  C   UNL     1      -9.617  12.949  68.323  1.00  0.00    -0.212 A  
ENDBRANCH   6   7
ENDBRANCH   5   6
ENDBRANCH   4   5
ENDBRANCH   2   4
TORSDOF 4
ENDMDL
MODEL       36
REMARK 921   NORMALIZED FREE ENERGY PREDICTED BY IDOCK:   -5.12 KCAL/MOL
REMARK 922        TOTAL FREE ENERGY PREDICTED BY IDOCK:   -6.90 KCAL/MOL
REMARK 923 INTER-LIGAND FREE ENERGY PREDICTED BY IDOCK:   -6.56 KCAL/MOL
REMARK 924 INTRA-LIGAND FREE ENERGY PREDICTED BY IDOCK:   -0.34 KCAL/MOL
REMARK 927      BINDING AFFINITY PREDICTED BY RF-SCORE:    0.00 PKD
ROOT
HETATM    1  C   UNL     1     -10.728   6.367  67.055  1.00  0.00    -0.363 C  
HETATM    2  N   UNL     1     -10.983   7.799  66.992  1.00  0.00    -0.454 NA 
HETATM    3  H   UNL     1     -11.119   8.195  67.923  1.00  0.00     0.000 HD 
ENDROOT
BRANCH   2   4
HETATM    4  C   UNL     1      -9.927   8.499  66.260  1.00  0.00    -0.181 C  
BRANCH   4   5
HETATM    5  C   UNL     1     -10.105  10.010  66.445  1.00  0.00    -0.307 C  
BRANCH   5   6
HETATM    6  C   UNL     1     -10.492  10.360  67.893  1.00  0.00    -0.248 C  
BRANCH   6   7
HETATM    7  C   UNL     1     -10.869  11.843  68.158  1.00  0.00    -0.259 C  
HETATM    8  C   UNL     1     -11.755  12.408  66.987  1.00  0.00    -0.423 C  
HETATM    9  C   UNL     1     -12.113  13.908  67.208  1.00  0.00    -0.403 C  
HETATM   10  C   UNL     1     -11.500  14.405  68.531  1.00  0.00    -0.326 C  
HETATM   11  C   UNL     1      -9.997  14.164  68.408  1.00  0.00    -0.235 A  
HETATM   12  C   UNL     1     -12.031  13.482  69.621  1.00  0.00    -0.397 A  
HETATM   13  C   UNL     1      -9.029  15.158  68.488  1.00  0.00    -0.186 A  
HETATM   14  C   UNL     1     -12.779  13.906  70.716  1.00  0.00    -0.383 A  
HETATM   15  C   UNL     1     -13.171  12.965  71.667  1.00  0.00    -0.416 A  
HETATM   16  C   UNL     1      -7.689  14.799  68.363  1.00  0.00    -0.122 A  
HETATM   17  C   UNL     1      -7.327  13.461  68.160  1.00  0.00    -0.117 A  
HETATM   18  C   UNL     1     -12.789  11.625  71.536  1.00  0.00    -0.469 A  
HETATM   19  C   UNL     1     -12.021  11.203  70.446  1.00  0.00    -0.469 A  
HETATM   20  C   UNL     1      -8.301  12.458  68.084  1.00  0.00    -0.178 A  
HETATM   21  C   UNL     1     -11.670  12.116  69.455  1.00  0.00    -0.402 A  
HETATM   22  C   UNL     1      -9.644  12.801  68.202  1.00  0.00    -0.223 A  
ENDBRANCH   6   7
ENDBRANCH   5   6
ENDBRANCH   4   5
ENDBRANCH   2   4
TORSDOF 4
ENDMDL
MODEL       37
REMARK 921   NORMALIZED FREE ENERGY PREDICTED BY IDOCK:   -5.03 KCAL/MOL
REMARK 922        TOTAL FREE ENERGY PREDICTED BY IDOCK:   -6.80 KCAL/MOL
REMARK 923 INTER-LIGAND FREE ENERGY PREDICTED BY IDOCK:   -6.34 KCAL/MOL
REMARK 924 INTRA-LIGAND FREE ENERGY PREDICTED BY IDOCK:   -0.46 KCAL/MOL
REMARK 927      BINDING AFFINITY PREDICTED BY RF-SCORE:    0.00 PKD
ROOT
HETATM    1  C   UNL     1     -12.106  13.037  63.623  1.00  0.00    -0.531 C  
HETATM    2  N   UNL     1     -12.916  13.072  64.832  1.00  0.00    -0.768 NA 
HETATM    3  H   UNL     1     -12.813  12.215  65.376  1.00  0.00     0.000 HD 
ENDROOT
BRANCH   2   4
HETATM    4  C   UNL     1     -12.620  14.258  65.638  1.00  0.00    -0.410 C  
BRANCH   4   5
HETATM    5  C   UNL     1     -11.568  13.897  66.693  1.00  0.00    -0.392 C  
BRANCH   5   6
HETATM    6  C   UNL     1     -11.715  12.438  67.162  1.00  0.00    -0.415 C  
BRANCH   6   7
HETATM    7  C   UNL     1     -10.412  11.740  67.635  1.00  0.00    -0.223 C  
HETATM    8  C   UNL     1      -9.307  12.805  67.986  1.00  0.00    -0.213 C  
HETATM    9  C   UNL     1      -7.974  12.129  68.423  1.00  0.00    -0.152 C  
HETATM   10  C   UNL     1      -8.129  10.596  68.399  1.00  0.00    -0.123 C  
HETATM   11  C   UNL     1      -8.534  10.243  66.969  1.00  0.00    -0.129 A  
HETATM   12  C   UNL     1      -9.308  10.271  69.309  1.00  0.00    -0.221 A  
HETATM   13  C   UNL     1      -7.811   9.405  66.129  1.00  0.00    -0.100 A  
HETATM   14  C   UNL     1      -9.230   9.462  70.438  1.00  0.00    -0.305 A  
HETATM   15  C   UNL     1     -10.393   9.208  71.164  1.00  0.00    -0.387 A  
HETATM   16  C   UNL     1      -8.296   9.164  64.845  1.00  0.00    -0.169 A  
HETATM   17  C   UNL     1      -9.490   9.756  64.414  1.00  0.00    -0.233 A  
HETATM   18  C   UNL     1     -11.619   9.734  70.744  1.00  0.00    -0.417 A  
HETATM   19  C   UNL     1     -11.700  10.532  69.598  1.00  0.00    -0.328 A  
HETATM   20  C   UNL     1     -10.222  10.597  65.260  1.00  0.00    -0.351 A  
HETATM   21  C   UNL     1     -10.541  10.844  68.892  1.00  0.00    -0.241 A  
HETATM   22  C   UNL     1      -9.748  10.852  66.544  1.00  0.00    -0.235 A  
ENDBRANCH   6   7
ENDBRANCH   5   6
ENDBRANCH   4   5
ENDBRANCH   2   4
TORSDOF 4
ENDMDL
MODEL       38
REMARK 921   NORMALIZED FREE ENERGY PREDICTED BY IDOCK:   -5.03 KCAL/MOL
REMARK 922        TOTAL FREE ENERGY PREDICTED BY IDOCK:   -6.79 KCAL/MOL
REMARK 923 INTER-LIGAND FREE ENERGY PREDICTED BY IDOCK:   -6.30 KCAL/MOL
REMARK 924 INTRA-LIGAND FREE ENERGY PREDICTED BY IDOCK:   -0.49 KCAL/MOL
REMARK 927      BINDING AFFINITY PREDICTED BY RF-SCORE:    0.00 PKD
ROOT
HETATM    1  C   UNL     1     -11.742  15.745  71.182  1.00  0.00    -0.428 C  
HETATM    2  N   UNL     1     -12.607  15.627  70.018  1.00  0.00    -0.554 NA 
HETATM    3  H   UNL     1     -13.163  16.471  69.877  1.00  0.00     0.000 HD 
ENDROOT
BRANCH   2   4
HETATM    4  C   UNL     1     -11.844  15.283  68.817  1.00  0.00    -0.307 C  
BRANCH   4   5
HETATM    5  C   UNL     1     -10.955  14.071  69.118  1.00  0.00    -0.263 C  
BRANCH   5   6
HETATM    6  C   UNL     1     -11.555  12.775  68.544  1.00  0.00    -0.358 C  
BRANCH   6   7
HETATM    7  C   UNL     1     -10.667  12.005  67.529  1.00  0.00    -0.262 C  
HETATM    8  C   UNL     1      -9.223  12.627  67.470  1.00  0.00    -0.190 C  
HETATM    9  C   UNL     1      -8.324  11.899  66.428  1.00  0.00     0.005 C  
HETATM   10  C   UNL     1      -9.113  10.758  65.758  1.00  0.00    -0.208 C  
HETATM   11  C   UNL     1     -10.340  11.416  65.129  1.00  0.00    -0.344 A  
HETATM   12  C   UNL     1      -9.599   9.855  66.885  1.00  0.00    -0.225 A  
HETATM   13  C   UNL     1     -10.649  11.379  63.775  1.00  0.00    -0.464 A  
HETATM   14  C   UNL     1      -9.275   8.507  67.008  1.00  0.00    -0.187 A  
HETATM   15  C   UNL     1      -9.818   7.779  68.065  1.00  0.00    -0.192 A  
HETATM   16  C   UNL     1     -11.803  12.021  63.333  1.00  0.00    -0.542 A  
HETATM   17  C   UNL     1     -12.636  12.689  64.240  1.00  0.00    -0.453 A  
HETATM   18  C   UNL     1     -10.697   8.389  68.967  1.00  0.00    -0.101 A  
HETATM   19  C   UNL     1     -11.037   9.739  68.833  1.00  0.00    -0.139 A  
HETATM   20  C   UNL     1     -12.330  12.724  65.605  1.00  0.00    -0.444 A  
HETATM   21  C   UNL     1     -10.459  10.497  67.818  1.00  0.00    -0.263 A  
HETATM   22  C   UNL     1     -11.177  12.092  66.062  1.00  0.00    -0.382 A  
ENDBRANCH   6   7
ENDBRANCH   5   6
ENDBRANCH   4   5
ENDBRANCH   2   4
TORSDOF 4
ENDMDL
MODEL       39
REMARK 921   NORMALIZED FREE ENERGY PREDICTED BY IDOCK:   -5.03 KCAL/MOL
REMARK 922        TOTAL FREE ENERGY PREDICTED BY IDOCK:   -6.79 KCAL/MOL
REMARK 923 INTER-LIGAND FREE ENERGY PREDICTED BY IDOCK:   -6.28 KCAL/MOL
REMARK 924 INTRA-LIGAND FREE ENERGY PREDICTED BY IDOCK:   -0.51 KCAL/MOL
REMARK 927      BINDING AFFINITY PREDICTED BY RF-SCORE:    0.00 PKD
ROOT
HETATM    1  C   UNL     1      -9.780   8.484  69.800  1.00  0.00    -0.179 C  
HETATM    2  N   UNL     1     -10.682   8.332  68.667  1.00  0.00    -0.410 NA 
HETATM    3  H   UNL     1     -11.648   8.211  68.972  1.00  0.00     0.000 HD 
ENDROOT
BRANCH   2   4
HETATM    4  C   UNL     1     -10.551   9.447  67.728  1.00  0.00    -0.258 C  
BRANCH   4   5
HETATM    5  C   UNL     1      -9.937  10.648  68.457  1.00  0.00    -0.176 C  
BRANCH   5   6
HETATM    6  C   UNL     1      -9.197  11.581  67.481  1.00  0.00    -0.166 C  
BRANCH   6   7
HETATM    7  C   UNL     1      -9.930  12.899  67.113  1.00  0.00    -0.240 C  
HETATM    8  C   UNL     1     -11.068  13.213  68.154  1.00  0.00    -0.284 C  
HETATM    9  C   UNL     1     -11.847  14.509  67.783  1.00  0.00    -0.390 C  
HETATM   10  C   UNL     1     -11.263  15.124  66.497  1.00  0.00    -0.283 C  
HETATM   11  C   UNL     1     -11.374  14.037  65.430  1.00  0.00    -0.315 A  
HETATM   12  C   UNL     1      -9.781  15.357  66.770  1.00  0.00    -0.254 A  
HETATM   13  C   UNL     1     -12.083  14.167  64.242  1.00  0.00    -0.471 A  
HETATM   14  C   UNL     1      -9.157  16.600  66.714  1.00  0.00    -0.261 A  
HETATM   15  C   UNL     1      -7.784  16.672  66.945  1.00  0.00    -0.263 A  
HETATM   16  C   UNL     1     -12.100  13.097  63.352  1.00  0.00    -0.558 A  
HETATM   17  C   UNL     1     -11.414  11.912  63.651  1.00  0.00    -0.551 A  
HETATM   18  C   UNL     1      -7.045  15.511  67.196  1.00  0.00    -0.171 A  
HETATM   19  C   UNL     1      -7.670  14.260  67.233  1.00  0.00    -0.145 A  
HETATM   20  C   UNL     1     -10.695  11.781  64.845  1.00  0.00    -0.347 A  
HETATM   21  C   UNL     1      -9.049  14.173  67.063  1.00  0.00    -0.255 A  
HETATM   22  C   UNL     1     -10.673  12.840  65.747  1.00  0.00    -0.296 A  
ENDBRANCH   6   7
ENDBRANCH   5   6
ENDBRANCH   4   5
ENDBRANCH   2   4
TORSDOF 4
ENDMDL
MODEL       40
REMARK 921   NORMALIZED FREE ENERGY PREDICTED BY IDOCK:   -5.00 KCAL/MOL
REMARK 922        TOTAL FREE ENERGY PREDICTED BY IDOCK:   -6.76 KCAL/MOL
REMARK 923 INTER-LIGAND FREE ENERGY PREDICTED BY IDOCK:   -6.20 KCAL/MOL
REMARK 924 INTRA-LIGAND FREE ENERGY PREDICTED BY IDOCK:   -0.56 KCAL/MOL
REMARK 927      BINDING AFFINITY PREDICTED BY RF-SCORE:    0.00 PKD
ROOT
HETATM    1  C   UNL     1     -11.236  12.633  63.462  1.00  0.00    -0.429 C  
HETATM    2  N   UNL     1     -10.397  13.507  64.270  1.00  0.00    -0.671 NA 
HETATM    3  H   UNL     1      -9.677  13.960  63.707  1.00  0.00     0.000 HD 
ENDROOT
BRANCH   2   4
HETATM    4  C   UNL     1     -11.198  14.486  65.006  1.00  0.00    -0.382 C  
BRANCH   4   5
HETATM    5  C   UNL     1     -11.831  13.804  66.224  1.00  0.00    -0.426 C  
BRANCH   5   6
HETATM    6  C   UNL     1     -10.850  13.740  67.408  1.00  0.00    -0.285 C  
BRANCH   6   7
HETATM    7  C   UNL     1     -10.648  12.341  68.050  1.00  0.00    -0.235 C  
HETATM    8  C   UNL     1     -11.132  11.206  67.073  1.00  0.00    -0.339 C  
HETATM    9  C   UNL     1     -10.979   9.794  67.711  1.00  0.00    -0.242 C  
HETATM   10  C   UNL     1     -10.377   9.917  69.124  1.00  0.00    -0.225 C  
HETATM   11  C   UNL     1     -11.331  10.821  69.903  1.00  0.00    -0.385 A  
HETATM   12  C   UNL     1      -9.058  10.663  68.963  1.00  0.00    -0.174 A  
HETATM   13  C   UNL     1     -11.999  10.450  71.064  1.00  0.00    -0.481 A  
HETATM   14  C   UNL     1      -7.816  10.152  69.329  1.00  0.00    -0.134 A  
HETATM   15  C   UNL     1      -6.687  10.953  69.168  1.00  0.00    -0.079 A  
HETATM   16  C   UNL     1     -12.839  11.375  71.678  1.00  0.00    -0.497 A  
HETATM   17  C   UNL     1     -13.005  12.655  71.133  1.00  0.00    -0.239 A  
HETATM   18  C   UNL     1      -6.808  12.257  68.677  1.00  0.00    -0.087 A  
HETATM   19  C   UNL     1      -8.058  12.777  68.328  1.00  0.00    -0.154 A  
HETATM   20  C   UNL     1     -12.330  13.033  69.966  1.00  0.00    -0.222 A  
HETATM   21  C   UNL     1      -9.191  11.973  68.426  1.00  0.00    -0.160 A  
HETATM   22  C   UNL     1     -11.491  12.118  69.338  1.00  0.00    -0.355 A  
ENDBRANCH   6   7
ENDBRANCH   5   6
ENDBRANCH   4   5
ENDBRANCH   2   4
TORSDOF 4
ENDMDL
MODEL       41
REMARK 921   NORMALIZED FREE ENERGY PREDICTED BY IDOCK:   -4.98 KCAL/MOL
REMARK 922        TOTAL FREE ENERGY PREDICTED BY IDOCK:   -6.73 KCAL/MOL
REMARK 923 INTER-LIGAND FREE ENERGY PREDICTED BY IDOCK:   -6.21 KCAL/MOL
REMARK 924 INTRA-LIGAND FREE ENERGY PREDICTED BY IDOCK:   -0.52 KCAL/MOL
REMARK 927      BINDING AFFINITY PREDICTED BY RF-SCORE:    0.00 PKD
ROOT
HETATM    1  C   UNL     1     -11.402   8.348  71.760  1.00  0.00    -0.300 C  
HETATM    2  N   UNL     1     -11.002   9.650  71.246  1.00  0.00    -0.359 NA 
HETATM    3  H   UNL     1     -10.470   9.563  70.381  1.00  0.00     0.000 HD 
ENDROOT
BRANCH   2   4
HETATM    4  C   UNL     1     -12.156  10.535  71.079  1.00  0.00    -0.387 C  
BRANCH   4   5
HETATM    5  C   UNL     1     -12.271  10.937  69.604  1.00  0.00    -0.354 C  
BRANCH   5   6
HETATM    6  C   UNL     1     -10.967  11.573  69.089  1.00  0.00    -0.276 C  
BRANCH   6   7
HETATM    7  C   UNL     1     -10.410  11.002  67.758  1.00  0.00    -0.218 C  
HETATM    8  C   UNL     1     -10.698   9.458  67.652  1.00  0.00    -0.295 C  
HETATM    9  C   UNL     1     -10.111   8.852  66.343  1.00  0.00    -0.333 C  
HETATM   10  C   UNL     1      -9.423   9.953  65.515  1.00  0.00    -0.313 C  
HETATM   11  C   UNL     1      -8.353  10.550  66.426  1.00  0.00    -0.145 A  
HETATM   12  C   UNL     1     -10.478  11.027  65.273  1.00  0.00    -0.316 A  
HETATM   13  C   UNL     1      -6.993  10.569  66.139  1.00  0.00    -0.131 A  
HETATM   14  C   UNL     1     -10.907  11.439  64.015  1.00  0.00    -0.450 A  
HETATM   15  C   UNL     1     -11.850  12.462  63.929  1.00  0.00    -0.551 A  
HETATM   16  C   UNL     1      -6.123  11.149  67.059  1.00  0.00    -0.092 A  
HETATM   17  C   UNL     1      -6.612  11.703  68.249  1.00  0.00    -0.059 A  
HETATM   18  C   UNL     1     -12.330  13.082  65.087  1.00  0.00    -0.536 A  
HETATM   19  C   UNL     1     -11.884  12.681  66.351  1.00  0.00    -0.466 A  
HETATM   20  C   UNL     1      -7.981  11.689  68.538  1.00  0.00    -0.144 A  
HETATM   21  C   UNL     1     -10.987  11.622  66.461  1.00  0.00    -0.349 A  
HETATM   22  C   UNL     1      -8.863  11.108  67.632  1.00  0.00    -0.136 A  
ENDBRANCH   6   7
ENDBRANCH   5   6
ENDBRANCH   4   5
ENDBRANCH   2   4
TORSDOF 4
ENDMDL
MODEL       42
REMARK 921   NORMALIZED FREE ENERGY PREDICTED BY IDOCK:   -4.96 KCAL/MOL
REMARK 922        TOTAL FREE ENERGY PREDICTED BY IDOCK:   -6.70 KCAL/MOL
REMARK 923 INTER-LIGAND FREE ENERGY PREDICTED BY IDOCK:   -6.38 KCAL/MOL
REMARK 924 INTRA-LIGAND FREE ENERGY PREDICTED BY IDOCK:   -0.32 KCAL/MOL
REMARK 927      BINDING AFFINITY PREDICTED BY RF-SCORE:    0.00 PKD
ROOT
HETATM    1  C   UNL     1      -9.598   9.532  65.289  1.00  0.00    -0.243 C  
HETATM    2  N   UNL     1      -9.019   8.214  65.507  1.00  0.00    -0.374 NA 
HETATM    3  H   UNL     1      -8.004   8.262  65.594  1.00  0.00     0.000 HD 
ENDROOT
BRANCH   2   4
HETATM    4  C   UNL     1      -9.625   7.548  66.661  1.00  0.00    -0.200 C  
BRANCH   4   5
HETATM    5  C   UNL     1     -10.202   8.609  67.606  1.00  0.00    -0.300 C  
BRANCH   5   6
HETATM    6  C   UNL     1      -9.473   8.612  68.963  1.00  0.00    -0.153 C  
BRANCH   6   7
HETATM    7  C   UNL     1     -10.363   8.381  70.214  1.00  0.00    -0.212 C  
HETATM    8  C   UNL     1     -11.388   7.214  69.960  1.00  0.00    -0.242 C  
HETATM    9  C   UNL     1     -12.322   6.991  71.185  1.00  0.00    -0.423 C  
HETATM   10  C   UNL     1     -11.959   7.978  72.311  1.00  0.00    -0.412 C  
HETATM   11  C   UNL     1     -12.100   9.371  71.701  1.00  0.00    -0.462 A  
HETATM   12  C   UNL     1     -10.482   7.753  72.616  1.00  0.00    -0.363 A  
HETATM   13  C   UNL     1     -12.959  10.356  72.175  1.00  0.00    -0.393 A  
HETATM   14  C   UNL     1      -9.986   7.370  73.859  1.00  0.00    -0.258 A  
HETATM   15  C   UNL     1      -8.607   7.238  74.019  1.00  0.00    -0.234 A  
HETATM   16  C   UNL     1     -12.988  11.588  71.526  1.00  0.00    -0.485 A  
HETATM   17  C   UNL     1     -12.164  11.827  70.418  1.00  0.00    -0.416 A  
HETATM   18  C   UNL     1      -7.740   7.516  72.956  1.00  0.00    -0.117 A  
HETATM   19  C   UNL     1      -8.239   7.919  71.713  1.00  0.00    -0.139 A  
HETATM   20  C   UNL     1     -11.296  10.838  69.942  1.00  0.00    -0.385 A  
HETATM   21  C   UNL     1      -9.615   8.001  71.516  1.00  0.00    -0.209 A  
HETATM   22  C   UNL     1     -11.259   9.600  70.576  1.00  0.00    -0.359 A  
ENDBRANCH   6   7
ENDBRANCH   5   6
ENDBRANCH   4   5
ENDBRANCH   2   4
TORSDOF 4
ENDMDL
MODEL       43
REMARK 921   NORMALIZED FREE ENERGY PREDICTED BY IDOCK:   -4.95 KCAL/MOL
REMARK 922        TOTAL FREE ENERGY PREDICTED BY IDOCK:   -6.69 KCAL/MOL
REMARK 923 INTER-LIGAND FREE ENERGY PREDICTED BY IDOCK:   -6.38 KCAL/MOL
REMARK 924 INTRA-LIGAND FREE ENERGY PREDICTED BY IDOCK:   -0.32 KCAL/MOL
REMARK 927      BINDING AFFINITY PREDICTED BY RF-SCORE:    0.00 PKD
ROOT
HETATM    1  C   UNL     1      -7.932  18.773  68.420  1.00  0.00    -0.334 C  
HETATM    2  N   UNL     1      -9.042  17.859  68.645  1.00  0.00    -0.282 NA 
HETATM    3  H   UNL     1      -9.405  17.937  69.595  1.00  0.00     0.000 HD 
ENDROOT
BRANCH   2   4
HETATM    4  C   UNL     1     -10.100  18.048  67.650  1.00  0.00    -0.347 C  
BRANCH   4   5
HETATM    5  C   UNL     1     -10.588  16.677  67.170  1.00  0.00    -0.264 C  
BRANCH   5   6
HETATM    6  C   UNL     1     -11.063  15.803  68.345  1.00  0.00    -0.341 C  
BRANCH   6   7
HETATM    7  C   UNL     1     -11.035  14.269  68.109  1.00  0.00    -0.259 C  
HETATM    8  C   UNL     1     -11.856  13.890  66.821  1.00  0.00    -0.452 C  
HETATM    9  C   UNL     1     -11.879  12.351  66.585  1.00  0.00    -0.394 C  
HETATM   10  C   UNL     1     -11.070  11.638  67.684  1.00  0.00    -0.314 C  
HETATM   11  C   UNL     1     -11.717  12.047  69.006  1.00  0.00    -0.382 A  
HETATM   12  C   UNL     1      -9.671  12.243  67.646  1.00  0.00    -0.194 A  
HETATM   13  C   UNL     1     -12.269  11.159  69.922  1.00  0.00    -0.385 A  
HETATM   14  C   UNL     1      -8.507  11.518  67.410  1.00  0.00    -0.147 A  
HETATM   15  C   UNL     1      -7.283  12.185  67.442  1.00  0.00    -0.147 A  
HETATM   16  C   UNL     1     -12.826  11.666  71.093  1.00  0.00    -0.392 A  
HETATM   17  C   UNL     1     -12.827  13.045  71.341  1.00  0.00    -0.385 A  
HETATM   18  C   UNL     1      -7.228  13.551  67.737  1.00  0.00    -0.157 A  
HETATM   19  C   UNL     1      -8.397  14.275  67.992  1.00  0.00    -0.157 A  
HETATM   20  C   UNL     1     -12.268  13.940  70.422  1.00  0.00    -0.438 A  
HETATM   21  C   UNL     1      -9.633  13.641  67.907  1.00  0.00    -0.223 A  
HETATM   22  C   UNL     1     -11.712  13.450  69.244  1.00  0.00    -0.383 A  
ENDBRANCH   6   7
ENDBRANCH   5   6
ENDBRANCH   4   5
ENDBRANCH   2   4
TORSDOF 4
ENDMDL
MODEL       44
REMARK 921   NORMALIZED FREE ENERGY PREDICTED BY IDOCK:   -4.95 KCAL/MOL
REMARK 922        TOTAL FREE ENERGY PREDICTED BY IDOCK:   -6.69 KCAL/MOL
REMARK 923 INTER-LIGAND FREE ENERGY PREDICTED BY IDOCK:   -6.33 KCAL/MOL
REMARK 924 INTRA-LIGAND FREE ENERGY PREDICTED BY IDOCK:   -0.36 KCAL/MOL
REMARK 927      BINDING AFFINITY PREDICTED BY RF-SCORE:    0.00 PKD
ROOT
HETATM    1  C   UNL     1     -12.033  15.019  64.238  1.00  0.00    -0.295 C  
HETATM    2  N   UNL     1     -10.791  15.730  64.504  1.00  0.00    -0.817 NA 
HETATM    3  H   UNL     1     -10.703  16.560  63.918  1.00  0.00     0.000 HD 
ENDROOT
BRANCH   2   4
HETATM    4  C   UNL     1     -10.658  16.060  65.924  1.00  0.00    -0.328 C  
BRANCH   4   5
HETATM    5  C   UNL     1      -9.824  14.975  66.615  1.00  0.00    -0.266 C  
BRANCH   5   6
HETATM    6  C   UNL     1     -10.719  13.936  67.314  1.00  0.00    -0.286 C  
BRANCH   6   7
HETATM    7  C   UNL     1     -10.036  12.594  67.693  1.00  0.00    -0.218 C  
HETATM    8  C   UNL     1      -8.562  12.841  68.187  1.00  0.00    -0.185 C  
HETATM    9  C   UNL     1      -7.840  11.506  68.533  1.00  0.00    -0.140 C  
HETATM   10  C   UNL     1      -8.792  10.317  68.304  1.00  0.00    -0.126 C  
HETATM   11  C   UNL     1      -9.216  10.402  66.839  1.00  0.00    -0.170 A  
HETATM   12  C   UNL     1     -10.025  10.587  69.159  1.00  0.00    -0.236 A  
HETATM   13  C   UNL     1      -8.997   9.405  65.896  1.00  0.00    -0.217 A  
HETATM   14  C   UNL     1     -10.480   9.746  70.171  1.00  0.00    -0.338 A  
HETATM   15  C   UNL     1     -11.647  10.087  70.853  1.00  0.00    -0.463 A  
HETATM   16  C   UNL     1      -9.438   9.609  64.591  1.00  0.00    -0.221 A  
HETATM   17  C   UNL     1     -10.089  10.799  64.239  1.00  0.00    -0.427 A  
HETATM   18  C   UNL     1     -12.362  11.237  70.503  1.00  0.00    -0.446 A  
HETATM   19  C   UNL     1     -11.915  12.072  69.474  1.00  0.00    -0.346 A  
HETATM   20  C   UNL     1     -10.314  11.802  65.188  1.00  0.00    -0.323 A  
HETATM   21  C   UNL     1     -10.721  11.780  68.820  1.00  0.00    -0.255 A  
HETATM   22  C   UNL     1      -9.875  11.615  66.495  1.00  0.00    -0.228 A  
ENDBRANCH   6   7
ENDBRANCH   5   6
ENDBRANCH   4   5
ENDBRANCH   2   4
TORSDOF 4
ENDMDL
MODEL       45
REMARK 921   NORMALIZED FREE ENERGY PREDICTED BY IDOCK:   -4.94 KCAL/MOL
REMARK 922        TOTAL FREE ENERGY PREDICTED BY IDOCK:   -6.68 KCAL/MOL
REMARK 923 INTER-LIGAND FREE ENERGY PREDICTED BY IDOCK:   -6.54 KCAL/MOL
REMARK 924 INTRA-LIGAND FREE ENERGY PREDICTED BY IDOCK:   -0.14 KCAL/MOL
REMARK 927      BINDING AFFINITY PREDICTED BY RF-SCORE:    0.00 PKD
ROOT
HETATM    1  C   UNL     1     -11.019   6.325  68.495  1.00  0.00    -0.340 C  
HETATM    2  N   UNL     1     -11.043   7.544  67.700  1.00  0.00    -0.512 NA 
HETATM    3  H   UNL     1     -11.997   7.822  67.470  1.00  0.00     0.000 HD 
ENDROOT
BRANCH   2   4
HETATM    4  C   UNL     1     -10.314   8.628  68.361  1.00  0.00    -0.201 C  
BRANCH   4   5
HETATM    5  C   UNL     1     -10.742   9.967  67.750  1.00  0.00    -0.332 C  
BRANCH   5   6
HETATM    6  C   UNL     1     -11.202  10.960  68.833  1.00  0.00    -0.327 C  
BRANCH   6   7
HETATM    7  C   UNL     1     -11.158  12.462  68.442  1.00  0.00    -0.288 C  
HETATM    8  C   UNL     1     -11.943  12.711  67.101  1.00  0.00    -0.326 C  
HETATM    9  C   UNL     1     -11.877  14.204  66.665  1.00  0.00    -0.447 C  
HETATM   10  C   UNL     1     -11.066  15.018  67.691  1.00  0.00    -0.317 C  
HETATM   11  C   UNL     1      -9.691  14.355  67.752  1.00  0.00    -0.221 A  
HETATM   12  C   UNL     1     -11.745  14.802  69.039  1.00  0.00    -0.343 A  
HETATM   13  C   UNL     1      -8.493  14.995  67.460  1.00  0.00    -0.188 A  
HETATM   14  C   UNL     1     -12.278  15.821  69.823  1.00  0.00    -0.236 A  
HETATM   15  C   UNL     1     -12.837  15.496  71.058  1.00  0.00    -0.543 A  
HETATM   16  C   UNL     1      -7.307  14.272  67.558  1.00  0.00    -0.199 A  
HETATM   17  C   UNL     1      -7.324  12.926  67.945  1.00  0.00    -0.127 A  
HETATM   18  C   UNL     1     -12.831  14.173  71.512  1.00  0.00    -0.430 A  
HETATM   19  C   UNL     1     -12.278  13.152  70.732  1.00  0.00    -0.375 A  
HETATM   20  C   UNL     1      -8.530  12.280  68.244  1.00  0.00    -0.173 A  
HETATM   21  C   UNL     1     -11.768  13.447  69.470  1.00  0.00    -0.385 A  
HETATM   22  C   UNL     1      -9.724  12.987  68.145  1.00  0.00    -0.228 A  
ENDBRANCH   6   7
ENDBRANCH   5   6
ENDBRANCH   4   5
ENDBRANCH   2   4
TORSDOF 4
ENDMDL
MODEL       46
REMARK 921   NORMALIZED FREE ENERGY PREDICTED BY IDOCK:   -4.92 KCAL/MOL
REMARK 922        TOTAL FREE ENERGY PREDICTED BY IDOCK:   -6.66 KCAL/MOL
REMARK 923 INTER-LIGAND FREE ENERGY PREDICTED BY IDOCK:   -6.28 KCAL/MOL
REMARK 924 INTRA-LIGAND FREE ENERGY PREDICTED BY IDOCK:   -0.38 KCAL/MOL
REMARK 927      BINDING AFFINITY PREDICTED BY RF-SCORE:    0.00 PKD
ROOT
HETATM    1  C   UNL     1     -12.784  13.694  65.474  1.00  0.00    -0.466 C  
HETATM    2  N   UNL     1     -12.257  12.368  65.764  1.00  0.00    -0.638 NA 
HETATM    3  H   UNL     1     -11.847  11.939  64.935  1.00  0.00     0.000 HD 
ENDROOT
BRANCH   2   4
HETATM    4  C   UNL     1     -11.305  12.403  66.875  1.00  0.00    -0.333 C  
BRANCH   4   5
HETATM    5  C   UNL     1     -10.695  11.009  67.058  1.00  0.00    -0.319 C  
BRANCH   5   6
HETATM    6  C   UNL     1      -9.738  10.965  68.263  1.00  0.00    -0.171 C  
BRANCH   6   7
HETATM    7  C   UNL     1      -9.924   9.771  69.237  1.00  0.00    -0.201 C  
HETATM    8  C   UNL     1     -10.294   8.461  68.447  1.00  0.00    -0.239 C  
HETATM    9  C   UNL     1     -10.528   7.257  69.406  1.00  0.00    -0.223 C  
HETATM   10  C   UNL     1     -10.313   7.698  70.866  1.00  0.00    -0.204 C  
HETATM   11  C   UNL     1     -11.294   8.845  71.101  1.00  0.00    -0.357 A  
HETATM   12  C   UNL     1      -8.903   8.272  70.936  1.00  0.00    -0.171 A  
HETATM   13  C   UNL     1     -12.294   8.842  72.066  1.00  0.00    -0.460 A  
HETATM   14  C   UNL     1      -7.893   7.780  71.759  1.00  0.00    -0.098 A  
HETATM   15  C   UNL     1      -6.656   8.421  71.760  1.00  0.00    -0.070 A  
HETATM   16  C   UNL     1     -13.121   9.958  72.176  1.00  0.00    -0.497 A  
HETATM   17  C   UNL     1     -12.944  11.060  71.330  1.00  0.00    -0.517 A  
HETATM   18  C   UNL     1      -6.446   9.558  70.972  1.00  0.00    -0.071 A  
HETATM   19  C   UNL     1      -7.467  10.063  70.160  1.00  0.00    -0.176 A  
HETATM   20  C   UNL     1     -11.934  11.066  70.361  1.00  0.00    -0.459 A  
HETATM   21  C   UNL     1      -8.691   9.402  70.100  1.00  0.00    -0.245 A  
HETATM   22  C   UNL     1     -11.103   9.957  70.234  1.00  0.00    -0.368 A  
ENDBRANCH   6   7
ENDBRANCH   5   6
ENDBRANCH   4   5
ENDBRANCH   2   4
TORSDOF 4
ENDMDL
MODEL       47
REMARK 921   NORMALIZED FREE ENERGY PREDICTED BY IDOCK:   -4.92 KCAL/MOL
REMARK 922        TOTAL FREE ENERGY PREDICTED BY IDOCK:   -6.66 KCAL/MOL
REMARK 923 INTER-LIGAND FREE ENERGY PREDICTED BY IDOCK:   -6.25 KCAL/MOL
REMARK 924 INTRA-LIGAND FREE ENERGY PREDICTED BY IDOCK:   -0.41 KCAL/MOL
REMARK 927      BINDING AFFINITY PREDICTED BY RF-SCORE:    0.00 PKD
ROOT
HETATM    1  C   UNL     1     -12.308  12.924  63.476  1.00  0.00    -0.434 C  
HETATM    2  N   UNL     1     -10.887  12.863  63.787  1.00  0.00    -0.514 NA 
HETATM    3  H   UNL     1     -10.524  13.776  64.062  1.00  0.00     0.000 HD 
ENDROOT
BRANCH   2   4
HETATM    4  C   UNL     1     -10.607  11.847  64.804  1.00  0.00    -0.299 C  
BRANCH   4   5
HETATM    5  C   UNL     1      -9.883  12.506  65.984  1.00  0.00    -0.266 C  
BRANCH   5   6
HETATM    6  C   UNL     1     -10.876  12.995  67.053  1.00  0.00    -0.278 C  
BRANCH   6   7
HETATM    7  C   UNL     1     -10.480  14.293  67.807  1.00  0.00    -0.245 C  
HETATM    8  C   UNL     1      -8.996  14.206  68.322  1.00  0.00    -0.188 C  
HETATM    9  C   UNL     1      -8.587  15.480  69.119  1.00  0.00    -0.246 C  
HETATM   10  C   UNL     1      -9.763  16.474  69.161  1.00  0.00    -0.241 C  
HETATM   11  C   UNL     1     -10.923  15.717  69.804  1.00  0.00    -0.316 A  
HETATM   12  C   UNL     1     -10.138  16.753  67.710  1.00  0.00    -0.281 A  
HETATM   13  C   UNL     1     -11.568  16.105  70.972  1.00  0.00    -0.434 A  
HETATM   14  C   UNL     1     -10.115  18.014  67.120  1.00  0.00    -0.349 A  
HETATM   15  C   UNL     1     -10.522  18.142  65.793  1.00  0.00    -0.215 A  
HETATM   16  C   UNL     1     -12.617  15.323  71.449  1.00  0.00    -0.444 A  
HETATM   17  C   UNL     1     -13.013  14.168  70.762  1.00  0.00    -0.337 A  
HETATM   18  C   UNL     1     -10.975  17.026  65.080  1.00  0.00    -0.016 A  
HETATM   19  C   UNL     1     -11.016  15.763  65.680  1.00  0.00    -0.248 A  
HETATM   20  C   UNL     1     -12.367  13.778  69.583  1.00  0.00    -0.284 A  
HETATM   21  C   UNL     1     -10.559  15.604  66.985  1.00  0.00    -0.311 A  
HETATM   22  C   UNL     1     -11.314  14.546  69.096  1.00  0.00    -0.305 A  
ENDBRANCH   6   7
ENDBRANCH   5   6
ENDBRANCH   4   5
ENDBRANCH   2   4
TORSDOF 4
ENDMDL
MODEL       48
REMARK 921   NORMALIZED FREE ENERGY PREDICTED BY IDOCK:   -4.83 KCAL/MOL
REMARK 922        TOTAL FREE ENERGY PREDICTED BY IDOCK:   -6.55 KCAL/MOL
REMARK 923 INTER-LIGAND FREE ENERGY PREDICTED BY IDOCK:   -6.36 KCAL/MOL
REMARK 924 INTRA-LIGAND FREE ENERGY PREDICTED BY IDOCK:   -0.19 KCAL/MOL
REMARK 927      BINDING AFFINITY PREDICTED BY RF-SCORE:    0.00 PKD
ROOT
HETATM    1  C   UNL     1      -9.976  10.487  63.507  1.00  0.00    -0.214 C  
HETATM    2  N   UNL     1     -10.567  11.654  62.868  1.00  0.00    -0.653 NA 
HETATM    3  H   UNL     1     -10.548  11.573  61.851  1.00  0.00     0.000 HD 
ENDROOT
BRANCH   2   4
HETATM    4  C   UNL     1     -11.923  11.903  63.360  1.00  0.00    -0.425 C  
BRANCH   4   5
HETATM    5  C   UNL     1     -11.944  13.234  64.120  1.00  0.00    -0.505 C  
BRANCH   5   6
HETATM    6  C   UNL     1     -10.633  13.463  64.894  1.00  0.00    -0.398 C  
BRANCH   6   7
HETATM    7  C   UNL     1     -10.762  13.570  66.437  1.00  0.00    -0.287 C  
HETATM    8  C   UNL     1     -12.104  14.290  66.834  1.00  0.00    -0.440 C  
HETATM    9  C   UNL     1     -12.239  14.448  68.377  1.00  0.00    -0.178 C  
HETATM   10  C   UNL     1     -11.012  13.834  69.077  1.00  0.00    -0.277 C  
HETATM   11  C   UNL     1      -9.799  14.568  68.508  1.00  0.00    -0.231 A  
HETATM   12  C   UNL     1     -10.937  12.384  68.614  1.00  0.00    -0.283 A  
HETATM   13  C   UNL     1      -8.892  15.300  69.265  1.00  0.00    -0.242 A  
HETATM   14  C   UNL     1     -10.994  11.283  69.464  1.00  0.00    -0.249 A  
HETATM   15  C   UNL     1     -10.873  10.006  68.918  1.00  0.00    -0.250 A  
HETATM   16  C   UNL     1      -7.826  15.918  68.617  1.00  0.00    -0.164 A  
HETATM   17  C   UNL     1      -7.672  15.802  67.230  1.00  0.00    -0.232 A  
HETATM   18  C   UNL     1     -10.665   9.840  67.544  1.00  0.00    -0.327 A  
HETATM   19  C   UNL     1     -10.588  10.948  66.693  1.00  0.00    -0.305 A  
HETATM   20  C   UNL     1      -8.581  15.061  66.466  1.00  0.00    -0.179 A  
HETATM   21  C   UNL     1     -10.766  12.228  67.211  1.00  0.00    -0.263 A  
HETATM   22  C   UNL     1      -9.656  14.442  67.097  1.00  0.00    -0.251 A  
ENDBRANCH   6   7
ENDBRANCH   5   6
ENDBRANCH   4   5
ENDBRANCH   2   4
TORSDOF 4
ENDMDL
MODEL       49
REMARK 921   NORMALIZED FREE ENERGY PREDICTED BY IDOCK:   -4.81 KCAL/MOL
REMARK 922        TOTAL FREE ENERGY PREDICTED BY IDOCK:   -6.52 KCAL/MOL
REMARK 923 INTER-LIGAND FREE ENERGY PREDICTED BY IDOCK:   -6.66 KCAL/MOL
REMARK 924 INTRA-LIGAND FREE ENERGY PREDICTED BY IDOCK:    0.14 KCAL/MOL
REMARK 927      BINDING AFFINITY PREDICTED BY RF-SCORE:    0.00 PKD
ROOT
HETATM    1  C   UNL     1     -12.920  16.034  73.505  1.00  0.00    -0.586 C  
HETATM    2  N   UNL     1     -12.313  16.463  72.254  1.00  0.00    -0.521 NA 
HETATM    3  H   UNL     1     -11.295  16.420  72.297  1.00  0.00     0.000 HD 
ENDROOT
BRANCH   2   4
HETATM    4  C   UNL     1     -12.834  15.699  71.119  1.00  0.00    -0.480 C  
BRANCH   4   5
HETATM    5  C   UNL     1     -11.670  15.309  70.200  1.00  0.00    -0.342 C  
BRANCH   5   6
HETATM    6  C   UNL     1     -12.169  14.614  68.920  1.00  0.00    -0.174 C  
BRANCH   6   7
HETATM    7  C   UNL     1     -11.377  13.356  68.475  1.00  0.00    -0.324 C  
HETATM    8  C   UNL     1     -11.879  12.850  67.072  1.00  0.00    -0.437 C  
HETATM    9  C   UNL     1     -11.129  11.563  66.621  1.00  0.00    -0.355 C  
HETATM   10  C   UNL     1     -10.090  11.160  67.684  1.00  0.00    -0.203 C  
HETATM   11  C   UNL     1     -10.875  10.968  68.980  1.00  0.00    -0.274 A  
HETATM   12  C   UNL     1      -9.178  12.367  67.870  1.00  0.00    -0.192 A  
HETATM   13  C   UNL     1     -10.927   9.782  69.703  1.00  0.00    -0.269 A  
HETATM   14  C   UNL     1      -7.803  12.356  67.651  1.00  0.00    -0.163 A  
HETATM   15  C   UNL     1      -7.075  13.518  67.897  1.00  0.00    -0.140 A  
HETATM   16  C   UNL     1     -11.681   9.744  70.873  1.00  0.00    -0.429 A  
HETATM   17  C   UNL     1     -12.373  10.881  71.311  1.00  0.00    -0.448 A  
HETATM   18  C   UNL     1      -7.712  14.664  68.384  1.00  0.00    -0.125 A  
HETATM   19  C   UNL     1      -9.091  14.670  68.622  1.00  0.00    -0.189 A  
HETATM   20  C   UNL     1     -12.319  12.077  70.586  1.00  0.00    -0.394 A  
HETATM   21  C   UNL     1      -9.845  13.537  68.327  1.00  0.00    -0.233 A  
HETATM   22  C   UNL     1     -11.574  12.130  69.412  1.00  0.00    -0.381 A  
ENDBRANCH   6   7
ENDBRANCH   5   6
ENDBRANCH   4   5
ENDBRANCH   2   4
TORSDOF 4
ENDMDL
MODEL       50
REMARK 921   NORMALIZED FREE ENERGY PREDICTED BY IDOCK:   -4.79 KCAL/MOL
REMARK 922        TOTAL FREE ENERGY PREDICTED BY IDOCK:   -6.50 KCAL/MOL
REMARK 923 INTER-LIGAND FREE ENERGY PREDICTED BY IDOCK:   -6.13 KCAL/MOL
REMARK 924 INTRA-LIGAND FREE ENERGY PREDICTED BY IDOCK:   -0.36 KCAL/MOL
REMARK 927      BINDING AFFINITY PREDICTED BY RF-SCORE:    0.00 PKD
ROOT
HETATM    1  C   UNL     1     -13.016  15.947  73.566  1.00  0.00    -0.594 C  
HETATM    2  N   UNL     1     -12.765  16.094  72.140  1.00  0.00    -0.480 NA 
HETATM    3  H   UNL     1     -11.811  16.405  71.957  1.00  0.00     0.000 HD 
ENDROOT
BRANCH   2   4
HETATM    4  C   UNL     1     -13.076  14.863  71.413  1.00  0.00    -0.369 C  
BRANCH   4   5
HETATM    5  C   UNL     1     -12.370  14.891  70.052  1.00  0.00    -0.358 C  
BRANCH   5   6
HETATM    6  C   UNL     1     -12.036  13.471  69.560  1.00  0.00    -0.390 C  
BRANCH   6   7
HETATM    7  C   UNL     1     -10.862  13.359  68.550  1.00  0.00    -0.285 C  
HETATM    8  C   UNL     1      -9.788  14.477  68.820  1.00  0.00    -0.220 C  
HETATM    9  C   UNL     1      -8.620  14.414  67.792  1.00  0.00    -0.171 C  
HETATM   10  C   UNL     1      -8.849  13.252  66.807  1.00  0.00    -0.140 C  
HETATM   11  C   UNL     1     -10.202  13.524  66.153  1.00  0.00    -0.303 A  
HETATM   12  C   UNL     1      -8.988  11.993  67.655  1.00  0.00    -0.172 A  
HETATM   13  C   UNL     1     -10.399  13.693  64.787  1.00  0.00    -0.414 A  
HETATM   14  C   UNL     1      -8.157  10.881  67.555  1.00  0.00    -0.116 A  
HETATM   15  C   UNL     1      -8.417   9.774  68.362  1.00  0.00    -0.114 A  
HETATM   16  C   UNL     1     -11.689  13.933  64.322  1.00  0.00    -0.406 A  
HETATM   17  C   UNL     1     -12.766  14.000  65.215  1.00  0.00    -0.468 A  
HETATM   18  C   UNL     1      -9.512   9.773  69.232  1.00  0.00    -0.201 A  
HETATM   19  C   UNL     1     -10.358  10.884  69.319  1.00  0.00    -0.211 A  
HETATM   20  C   UNL     1     -12.571  13.826  66.590  1.00  0.00    -0.171 A  
HETATM   21  C   UNL     1     -10.082  12.021  68.565  1.00  0.00    -0.201 A  
HETATM   22  C   UNL     1     -11.287  13.590  67.072  1.00  0.00    -0.348 A  
ENDBRANCH   6   7
ENDBRANCH   5   6
ENDBRANCH   4   5
ENDBRANCH   2   4
TORSDOF 4
ENDMDL
MODEL       51
REMARK 921   NORMALIZED FREE ENERGY PREDICTED BY IDOCK:   -4.77 KCAL/MOL
REMARK 922        TOTAL FREE ENERGY PREDICTED BY IDOCK:   -6.47 KCAL/MOL
REMARK 923 INTER-LIGAND FREE ENERGY PREDICTED BY IDOCK:   -6.05 KCAL/MOL
REMARK 924 INTRA-LIGAND FREE ENERGY PREDICTED BY IDOCK:   -0.43 KCAL/MOL
REMARK 927      BINDING AFFINITY PREDICTED BY RF-SCORE:    0.00 PKD
ROOT
HETATM    1  C   UNL     1     -12.539  12.172  63.556  1.00  0.00    -0.506 C  
HETATM    2  N   UNL     1     -11.487  11.350  62.975  1.00  0.00    -0.852 NA 
HETATM    3  H   UNL     1     -11.364  11.547  61.982  1.00  0.00     0.000 HD 
ENDROOT
BRANCH   2   4
HETATM    4  C   UNL     1     -10.230  11.494  63.710  1.00  0.00    -0.382 C  
BRANCH   4   5
HETATM    5  C   UNL     1     -10.160  10.420  64.801  1.00  0.00    -0.387 C  
BRANCH   5   6
HETATM    6  C   UNL     1     -10.243  11.038  66.208  1.00  0.00    -0.295 C  
BRANCH   6   7
HETATM    7  C   UNL     1     -10.000  10.066  67.394  1.00  0.00    -0.242 C  
HETATM    8  C   UNL     1     -10.492   8.616  67.035  1.00  0.00    -0.354 C  
HETATM    9  C   UNL     1     -10.298   7.630  68.224  1.00  0.00    -0.238 C  
HETATM   10  C   UNL     1      -9.659   8.365  69.418  1.00  0.00    -0.170 C  
HETATM   11  C   UNL     1     -10.605   9.518  69.749  1.00  0.00    -0.257 A  
HETATM   12  C   UNL     1      -8.357   8.967  68.901  1.00  0.00    -0.122 A  
HETATM   13  C   UNL     1     -11.233   9.696  70.975  1.00  0.00    -0.445 A  
HETATM   14  C   UNL     1      -7.097   8.672  69.414  1.00  0.00    -0.053 A  
HETATM   15  C   UNL     1      -5.986   9.322  68.880  1.00  0.00    -0.043 A  
HETATM   16  C   UNL     1     -12.071  10.796  71.145  1.00  0.00    -0.415 A  
HETATM   17  C   UNL     1     -12.273  11.704  70.098  1.00  0.00    -0.367 A  
HETATM   18  C   UNL     1      -6.142  10.276  67.868  1.00  0.00    -0.051 A  
HETATM   19  C   UNL     1      -7.411  10.586  67.366  1.00  0.00    -0.093 A  
HETATM   20  C   UNL     1     -11.638  11.529  68.863  1.00  0.00    -0.384 A  
HETATM   21  C   UNL     1      -8.527   9.905  67.846  1.00  0.00    -0.121 A  
HETATM   22  C   UNL     1     -10.802  10.432  68.676  1.00  0.00    -0.270 A  
ENDBRANCH   6   7
ENDBRANCH   5   6
ENDBRANCH   4   5
ENDBRANCH   2   4
TORSDOF 4
ENDMDL
MODEL       52
REMARK 921   NORMALIZED FREE ENERGY PREDICTED BY IDOCK:   -4.71 KCAL/MOL
REMARK 922        TOTAL FREE ENERGY PREDICTED BY IDOCK:   -6.40 KCAL/MOL
REMARK 923 INTER-LIGAND FREE ENERGY PREDICTED BY IDOCK:   -5.92 KCAL/MOL
REMARK 924 INTRA-LIGAND FREE ENERGY PREDICTED BY IDOCK:   -0.48 KCAL/MOL
REMARK 927      BINDING AFFINITY PREDICTED BY RF-SCORE:    0.00 PKD
ROOT
HETATM    1  C   UNL     1     -11.812  12.841  66.951  1.00  0.00    -0.371 C  
HETATM    2  N   UNL     1     -10.997  11.654  67.166  1.00  0.00    -0.264 NA 
HETATM    3  H   UNL     1     -10.275  11.562  66.451  1.00  0.00     0.000 HD 
ENDROOT
BRANCH   2   4
HETATM    4  C   UNL     1     -10.423  11.637  68.513  1.00  0.00    -0.217 C  
BRANCH   4   5
HETATM    5  C   UNL     1      -9.613  10.348  68.697  1.00  0.00    -0.166 C  
BRANCH   5   6
HETATM    6  C   UNL     1      -9.618   9.884  70.165  1.00  0.00    -0.237 C  
BRANCH   6   7
HETATM    7  C   UNL     1     -10.277   8.505  70.440  1.00  0.00    -0.215 C  
HETATM    8  C   UNL     1     -10.414   7.679  69.108  1.00  0.00    -0.220 C  
HETATM    9  C   UNL     1     -11.111   6.308  69.350  1.00  0.00    -0.477 C  
HETATM   10  C   UNL     1     -11.455   6.148  70.843  1.00  0.00    -0.317 C  
HETATM   11  C   UNL     1     -12.346   7.339  71.192  1.00  0.00    -0.381 A  
HETATM   12  C   UNL     1     -10.144   6.313  71.603  1.00  0.00    -0.214 A  
HETATM   13  C   UNL     1     -13.643   7.236  71.682  1.00  0.00    -0.435 A  
HETATM   14  C   UNL     1      -9.588   5.342  72.432  1.00  0.00    -0.175 A  
HETATM   15  C   UNL     1      -8.402   5.632  73.105  1.00  0.00    -0.118 A  
HETATM   16  C   UNL     1     -14.347   8.405  71.962  1.00  0.00    -0.555 A  
HETATM   17  C   UNL     1     -13.755   9.658  71.755  1.00  0.00    -0.349 A  
HETATM   18  C   UNL     1      -7.801   6.888  72.971  1.00  0.00    -0.104 A  
HETATM   19  C   UNL     1      -8.370   7.870  72.153  1.00  0.00    -0.168 A  
HETATM   20  C   UNL     1     -12.448   9.763  71.266  1.00  0.00    -0.461 A  
HETATM   21  C   UNL     1      -9.522   7.580  71.427  1.00  0.00    -0.159 A  
HETATM   22  C   UNL     1     -11.734   8.605  70.976  1.00  0.00    -0.319 A  
ENDBRANCH   6   7
ENDBRANCH   5   6
ENDBRANCH   4   5
ENDBRANCH   2   4
TORSDOF 4
ENDMDL
MODEL       53
REMARK 921   NORMALIZED FREE ENERGY PREDICTED BY IDOCK:   -4.70 KCAL/MOL
REMARK 922        TOTAL FREE ENERGY PREDICTED BY IDOCK:   -6.38 KCAL/MOL
REMARK 923 INTER-LIGAND FREE ENERGY PREDICTED BY IDOCK:   -5.99 KCAL/MOL
REMARK 924 INTRA-LIGAND FREE ENERGY PREDICTED BY IDOCK:   -0.39 KCAL/MOL
REMARK 927      BINDING AFFINITY PREDICTED BY RF-SCORE:    0.00 PKD
ROOT
HETATM    1  C   UNL     1      -9.763   4.004  64.869  1.00  0.00    -0.193 C  
HETATM    2  N   UNL     1     -10.610   4.765  65.777  1.00  0.00    -0.491 NA 
HETATM    3  H   UNL     1     -11.535   4.345  65.865  1.00  0.00     0.000 HD 
ENDROOT
BRANCH   2   4
HETATM    4  C   UNL     1      -9.973   4.936  67.084  1.00  0.00    -0.197 C  
BRANCH   4   5
HETATM    5  C   UNL     1     -10.629   6.115  67.811  1.00  0.00    -0.338 C  
BRANCH   5   6
HETATM    6  C   UNL     1     -10.817   5.819  69.310  1.00  0.00    -0.374 C  
BRANCH   6   7
HETATM    7  C   UNL     1     -10.712   7.040  70.264  1.00  0.00    -0.266 C  
HETATM    8  C   UNL     1     -10.183   8.305  69.491  1.00  0.00    -0.210 C  
HETATM    9  C   UNL     1     -10.029   9.533  70.435  1.00  0.00    -0.325 C  
HETATM   10  C   UNL     1     -10.458   9.155  71.865  1.00  0.00    -0.280 C  
HETATM   11  C   UNL     1      -9.568   7.980  72.268  1.00  0.00    -0.286 A  
HETATM   12  C   UNL     1     -11.888   8.639  71.760  1.00  0.00    -0.404 A  
HETATM   13  C   UNL     1      -8.708   7.980  73.359  1.00  0.00    -0.323 A  
HETATM   14  C   UNL     1     -12.977   9.200  72.421  1.00  0.00    -0.468 A  
HETATM   15  C   UNL     1     -14.230   8.607  72.274  1.00  0.00    -0.497 A  
HETATM   16  C   UNL     1      -7.953   6.838  73.616  1.00  0.00    -0.107 A  
HETATM   17  C   UNL     1      -8.062   5.713  72.788  1.00  0.00    -0.105 A  
HETATM   18  C   UNL     1     -14.380   7.451  71.500  1.00  0.00    -0.594 A  
HETATM   19  C   UNL     1     -13.282   6.877  70.851  1.00  0.00     0.071 A  
HETATM   20  C   UNL     1      -8.931   5.710  71.691  1.00  0.00    -0.143 A  
HETATM   21  C   UNL     1     -12.033   7.488  70.938  1.00  0.00    -0.278 A  
HETATM   22  C   UNL     1      -9.688   6.845  71.418  1.00  0.00    -0.177 A  
ENDBRANCH   6   7
ENDBRANCH   5   6
ENDBRANCH   4   5
ENDBRANCH   2   4
TORSDOF 4
ENDMDL
MODEL       54
REMARK 921   NORMALIZED FREE ENERGY PREDICTED BY IDOCK:   -4.69 KCAL/MOL
REMARK 922        TOTAL FREE ENERGY PREDICTED BY IDOCK:   -6.37 KCAL/MOL
REMARK 923 INTER-LIGAND FREE ENERGY PREDICTED BY IDOCK:   -5.96 KCAL/MOL
REMARK 924 INTRA-LIGAND FREE ENERGY PREDICTED BY IDOCK:   -0.42 KCAL/MOL
REMARK 927      BINDING AFFINITY PREDICTED BY RF-SCORE:    0.00 PKD
ROOT
HETATM    1  C   UNL     1      -9.529   1.906  70.947  1.00  0.00    -0.129 C  
HETATM    2  N   UNL     1      -8.763   2.599  69.921  1.00  0.00    -0.063 NA 
HETATM    3  H   UNL     1      -8.291   1.943  69.299  1.00  0.00     0.000 HD 
ENDROOT
BRANCH   2   4
HETATM    4  C   UNL     1      -9.601   3.538  69.173  1.00  0.00    -0.079 C  
BRANCH   4   5
HETATM    5  C   UNL     1      -9.462   4.935  69.789  1.00  0.00    -0.223 C  
BRANCH   5   6
HETATM    6  C   UNL     1     -10.779   5.726  69.696  1.00  0.00    -0.416 C  
BRANCH   6   7
HETATM    7  C   UNL     1     -10.707   7.221  70.109  1.00  0.00    -0.260 C  
HETATM    8  C   UNL     1      -9.544   7.456  71.144  1.00  0.00    -0.162 C  
HETATM    9  C   UNL     1      -9.477   8.941  71.607  1.00  0.00    -0.351 C  
HETATM   10  C   UNL     1     -10.570   9.763  70.899  1.00  0.00    -0.344 C  
HETATM   11  C   UNL     1     -11.893   9.088  71.256  1.00  0.00    -0.379 A  
HETATM   12  C   UNL     1     -10.344   9.577  69.403  1.00  0.00    -0.225 A  
HETATM   13  C   UNL     1     -12.944   9.712  71.918  1.00  0.00    -0.527 A  
HETATM   14  C   UNL     1     -10.086  10.614  68.511  1.00  0.00    -0.185 A  
HETATM   15  C   UNL     1      -9.938  10.314  67.158  1.00  0.00    -0.243 A  
HETATM   16  C   UNL     1     -14.099   8.980  72.181  1.00  0.00    -0.461 A  
HETATM   17  C   UNL     1     -14.197   7.640  71.783  1.00  0.00    -0.549 A  
HETATM   18  C   UNL     1     -10.079   8.998  66.704  1.00  0.00    -0.355 A  
HETATM   19  C   UNL     1     -10.358   7.959  67.598  1.00  0.00    -0.307 A  
HETATM   20  C   UNL     1     -13.142   7.011  71.112  1.00  0.00    -0.260 A  
HETATM   21  C   UNL     1     -10.451   8.229  68.961  1.00  0.00    -0.212 A  
HETATM   22  C   UNL     1     -11.979   7.728  70.847  1.00  0.00    -0.229 A  
ENDBRANCH   6   7
ENDBRANCH   5   6
ENDBRANCH   4   5
ENDBRANCH   2   4
TORSDOF 4
ENDMDL
MODEL       55
REMARK 921   NORMALIZED FREE ENERGY PREDICTED BY IDOCK:   -4.66 KCAL/MOL
REMARK 922        TOTAL FREE ENERGY PREDICTED BY IDOCK:   -6.33 KCAL/MOL
REMARK 923 INTER-LIGAND FREE ENERGY PREDICTED BY IDOCK:   -6.45 KCAL/MOL
REMARK 924 INTRA-LIGAND FREE ENERGY PREDICTED BY IDOCK:    0.12 KCAL/MOL
REMARK 927      BINDING AFFINITY PREDICTED BY RF-SCORE:    0.00 PKD
ROOT
HETATM    1  C   UNL     1     -12.316  12.540  63.592  1.00  0.00    -0.522 C  
HETATM    2  N   UNL     1     -11.505  11.402  63.185  1.00  0.00    -0.873 NA 
HETATM    3  H   UNL     1     -11.409  11.355  62.170  1.00  0.00     0.000 HD 
ENDROOT
BRANCH   2   4
HETATM    4  C   UNL     1     -10.200  11.412  63.847  1.00  0.00    -0.363 C  
BRANCH   4   5
HETATM    5  C   UNL     1     -10.147  10.272  64.871  1.00  0.00    -0.346 C  
BRANCH   5   6
HETATM    6  C   UNL     1      -9.033  10.497  65.909  1.00  0.00    -0.185 C  
BRANCH   6   7
HETATM    7  C   UNL     1      -9.396  10.165  67.381  1.00  0.00    -0.167 C  
HETATM    8  C   UNL     1      -8.112  10.195  68.291  1.00  0.00    -0.102 C  
HETATM    9  C   UNL     1      -8.443   9.823  69.766  1.00  0.00    -0.206 C  
HETATM   10  C   UNL     1      -9.951   9.544  69.913  1.00  0.00    -0.259 C  
HETATM   11  C   UNL     1     -10.261   8.415  68.931  1.00  0.00    -0.223 A  
HETATM   12  C   UNL     1     -10.667  10.796  69.421  1.00  0.00    -0.272 A  
HETATM   13  C   UNL     1     -10.789   7.181  69.289  1.00  0.00    -0.204 A  
HETATM   14  C   UNL     1     -11.530  11.564  70.198  1.00  0.00    -0.258 A  
HETATM   15  C   UNL     1     -12.155  12.666  69.616  1.00  0.00    -0.277 A  
HETATM   16  C   UNL     1     -11.027   6.240  68.290  1.00  0.00    -0.408 A  
HETATM   17  C   UNL     1     -10.740   6.536  66.951  1.00  0.00    -0.403 A  
HETATM   18  C   UNL     1     -11.941  12.972  68.268  1.00  0.00    -0.306 A  
HETATM   19  C   UNL     1     -11.089  12.189  67.483  1.00  0.00    -0.328 A  
HETATM   20  C   UNL     1     -10.213   7.780  66.588  1.00  0.00    -0.288 A  
HETATM   21  C   UNL     1     -10.409  11.119  68.061  1.00  0.00    -0.208 A  
HETATM   22  C   UNL     1      -9.964   8.729  67.575  1.00  0.00    -0.254 A  
ENDBRANCH   6   7
ENDBRANCH   5   6
ENDBRANCH   4   5
ENDBRANCH   2   4
TORSDOF 4
ENDMDL
MODEL       56
REMARK 921   NORMALIZED FREE ENERGY PREDICTED BY IDOCK:   -4.63 KCAL/MOL
REMARK 922        TOTAL FREE ENERGY PREDICTED BY IDOCK:   -6.29 KCAL/MOL
REMARK 923 INTER-LIGAND FREE ENERGY PREDICTED BY IDOCK:   -5.99 KCAL/MOL
REMARK 924 INTRA-LIGAND FREE ENERGY PREDICTED BY IDOCK:   -0.30 KCAL/MOL
REMARK 927      BINDING AFFINITY PREDICTED BY RF-SCORE:    0.00 PKD
ROOT
HETATM    1  C   UNL     1     -12.380   7.908  71.908  1.00  0.00    -0.315 C  
HETATM    2  N   UNL     1     -13.054   8.947  71.143  1.00  0.00    -0.524 NA 
HETATM    3  H   UNL     1     -14.046   8.999  71.375  1.00  0.00     0.000 HD 
ENDROOT
BRANCH   2   4
HETATM    4  C   UNL     1     -12.397  10.244  71.310  1.00  0.00    -0.403 C  
BRANCH   4   5
HETATM    5  C   UNL     1     -11.264  10.369  70.285  1.00  0.00    -0.395 C  
BRANCH   5   6
HETATM    6  C   UNL     1     -11.741  11.067  68.998  1.00  0.00    -0.402 C  
BRANCH   6   7
HETATM    7  C   UNL     1     -10.654  11.327  67.921  1.00  0.00    -0.231 C  
HETATM    8  C   UNL     1      -9.396  12.026  68.558  1.00  0.00    -0.127 C  
HETATM    9  C   UNL     1      -8.307  12.336  67.490  1.00  0.00    -0.170 C  
HETATM   10  C   UNL     1      -8.775  11.851  66.105  1.00  0.00    -0.009 C  
HETATM   11  C   UNL     1     -10.094  12.573  65.837  1.00  0.00    -0.270 A  
HETATM   12  C   UNL     1      -9.082  10.366  66.253  1.00  0.00    -0.180 A  
HETATM   13  C   UNL     1     -10.326  13.418  64.758  1.00  0.00    -0.397 A  
HETATM   14  C   UNL     1      -8.455   9.356  65.528  1.00  0.00    -0.153 A  
HETATM   15  C   UNL     1      -8.856   8.037  65.728  1.00  0.00    -0.170 A  
HETATM   16  C   UNL     1     -11.580  14.012  64.631  1.00  0.00    -0.400 A  
HETATM   17  C   UNL     1     -12.585  13.760  65.573  1.00  0.00    -0.551 A  
HETATM   18  C   UNL     1      -9.892   7.739  66.620  1.00  0.00    -0.295 A  
HETATM   19  C   UNL     1     -10.534   8.755  67.335  1.00  0.00    -0.349 A  
HETATM   20  C   UNL     1     -12.355  12.906  66.658  1.00  0.00    -0.044 A  
HETATM   21  C   UNL     1     -10.109  10.073  67.193  1.00  0.00    -0.265 A  
HETATM   22  C   UNL     1     -11.106  12.309  66.802  1.00  0.00    -0.345 A  
ENDBRANCH   6   7
ENDBRANCH   5   6
ENDBRANCH   4   5
ENDBRANCH   2   4
TORSDOF 4
ENDMDL
MODEL       57
REMARK 921   NORMALIZED FREE ENERGY PREDICTED BY IDOCK:   -4.55 KCAL/MOL
REMARK 922        TOTAL FREE ENERGY PREDICTED BY IDOCK:   -6.19 KCAL/MOL
REMARK 923 INTER-LIGAND FREE ENERGY PREDICTED BY IDOCK:   -5.58 KCAL/MOL
REMARK 924 INTRA-LIGAND FREE ENERGY PREDICTED BY IDOCK:   -0.61 KCAL/MOL
REMARK 927      BINDING AFFINITY PREDICTED BY RF-SCORE:    0.00 PKD
ROOT
HETATM    1  C   UNL     1      -8.263   4.376  68.697  1.00  0.00    -0.080 C  
HETATM    2  N   UNL     1      -7.544   5.638  68.599  1.00  0.00    -0.087 NA 
HETATM    3  H   UNL     1      -6.536   5.492  68.563  1.00  0.00     0.000 HD 
ENDROOT
BRANCH   2   4
HETATM    4  C   UNL     1      -8.012   6.432  67.462  1.00  0.00    -0.116 C  
BRANCH   4   5
HETATM    5  C   UNL     1      -9.252   7.229  67.883  1.00  0.00    -0.131 C  
BRANCH   5   6
HETATM    6  C   UNL     1      -8.966   8.111  69.112  1.00  0.00    -0.144 C  
BRANCH   6   7
HETATM    7  C   UNL     1      -9.928   7.932  70.317  1.00  0.00    -0.189 C  
HETATM    8  C   UNL     1     -10.832   6.659  70.123  1.00  0.00    -0.330 C  
HETATM    9  C   UNL     1     -11.836   6.480  71.299  1.00  0.00    -0.385 C  
HETATM   10  C   UNL     1     -11.642   7.607  72.332  1.00  0.00    -0.386 C  
HETATM   11  C   UNL     1     -11.849   8.912  71.566  1.00  0.00    -0.402 A  
HETATM   12  C   UNL     1     -10.181   7.547  72.760  1.00  0.00    -0.307 A  
HETATM   13  C   UNL     1     -12.819   9.860  71.869  1.00  0.00    -0.524 A  
HETATM   14  C   UNL     1      -9.752   7.340  74.068  1.00  0.00    -0.277 A  
HETATM   15  C   UNL     1      -8.384   7.348  74.335  1.00  0.00    -0.244 A  
HETATM   16  C   UNL     1     -12.898  11.011  71.089  1.00  0.00    -0.491 A  
HETATM   17  C   UNL     1     -12.014  11.207  70.020  1.00  0.00    -0.447 A  
HETATM   18  C   UNL     1      -7.463   7.592  73.310  1.00  0.00    -0.114 A  
HETATM   19  C   UNL     1      -7.895   7.819  71.999  1.00  0.00    -0.113 A  
HETATM   20  C   UNL     1     -11.033  10.255  69.715  1.00  0.00    -0.338 A  
HETATM   21  C   UNL     1      -9.254   7.756  71.701  1.00  0.00    -0.168 A  
HETATM   22  C   UNL     1     -10.945   9.097  70.482  1.00  0.00    -0.307 A  
ENDBRANCH   6   7
ENDBRANCH   5   6
ENDBRANCH   4   5
ENDBRANCH   2   4
TORSDOF 4
ENDMDL
MODEL       58
REMARK 921   NORMALIZED FREE ENERGY PREDICTED BY IDOCK:   -4.55 KCAL/MOL
REMARK 922        TOTAL FREE ENERGY PREDICTED BY IDOCK:   -6.19 KCAL/MOL
REMARK 923 INTER-LIGAND FREE ENERGY PREDICTED BY IDOCK:   -5.85 KCAL/MOL
REMARK 924 INTRA-LIGAND FREE ENERGY PREDICTED BY IDOCK:   -0.34 KCAL/MOL
REMARK 927      BINDING AFFINITY PREDICTED BY RF-SCORE:    0.00 PKD
ROOT
HETATM    1  C   UNL     1      -8.508   8.986  63.667  1.00  0.00    -0.167 C  
HETATM    2  N   UNL     1      -8.611   8.233  64.908  1.00  0.00    -0.366 NA 
HETATM    3  H   UNL     1      -7.698   8.111  65.348  1.00  0.00     0.000 HD 
ENDROOT
BRANCH   2   4
HETATM    4  C   UNL     1      -9.570   8.847  65.827  1.00  0.00    -0.174 C  
BRANCH   4   5
HETATM    5  C   UNL     1      -8.806   9.541  66.961  1.00  0.00    -0.139 C  
BRANCH   5   6
HETATM    6  C   UNL     1      -8.569  11.031  66.651  1.00  0.00    -0.157 C  
BRANCH   6   7
HETATM    7  C   UNL     1      -9.733  11.994  67.008  1.00  0.00    -0.204 C  
HETATM    8  C   UNL     1     -10.710  11.325  68.045  1.00  0.00    -0.245 C  
HETATM    9  C   UNL     1     -11.910  12.255  68.388  1.00  0.00    -0.358 C  
HETATM   10  C   UNL     1     -11.786  13.582  67.615  1.00  0.00    -0.398 C  
HETATM   11  C   UNL     1     -11.734  13.197  66.138  1.00  0.00    -0.428 A  
HETATM   12  C   UNL     1     -10.430  14.169  67.989  1.00  0.00    -0.240 A  
HETATM   13  C   UNL     1     -12.645  13.624  65.179  1.00  0.00    -0.474 A  
HETATM   14  C   UNL     1     -10.249  15.409  68.594  1.00  0.00    -0.217 A  
HETATM   15  C   UNL     1      -8.952  15.850  68.848  1.00  0.00    -0.228 A  
HETATM   16  C   UNL     1     -12.480  13.200  63.863  1.00  0.00    -0.356 A  
HETATM   17  C   UNL     1     -11.414  12.360  63.515  1.00  0.00    -0.561 A  
HETATM   18  C   UNL     1      -7.852  15.071  68.472  1.00  0.00    -0.137 A  
HETATM   19  C   UNL     1      -8.034  13.833  67.847  1.00  0.00    -0.157 A  
HETATM   20  C   UNL     1     -10.492  11.933  64.478  1.00  0.00    -0.341 A  
HETATM   21  C   UNL     1      -9.322  13.349  67.638  1.00  0.00    -0.217 A  
HETATM   22  C   UNL     1     -10.647  12.344  65.799  1.00  0.00    -0.288 A  
ENDBRANCH   6   7
ENDBRANCH   5   6
ENDBRANCH   4   5
ENDBRANCH   2   4
TORSDOF 4
ENDMDL
MODEL       59
REMARK 921   NORMALIZED FREE ENERGY PREDICTED BY IDOCK:   -4.53 KCAL/MOL
REMARK 922        TOTAL FREE ENERGY PREDICTED BY IDOCK:   -6.18 KCAL/MOL
REMARK 923 INTER-LIGAND FREE ENERGY PREDICTED BY IDOCK:   -6.35 KCAL/MOL
REMARK 924 INTRA-LIGAND FREE ENERGY PREDICTED BY IDOCK:    0.17 KCAL/MOL
REMARK 927      BINDING AFFINITY PREDICTED BY RF-SCORE:    0.00 PKD
ROOT
HETATM    1  C   UNL     1      -9.675  18.468  66.547  1.00  0.00    -0.343 C  
HETATM    2  N   UNL     1     -10.683  18.661  67.579  1.00  0.00    -0.431 NA 
HETATM    3  H   UNL     1     -11.615  18.762  67.177  1.00  0.00     0.000 HD 
ENDROOT
BRANCH   2   4
HETATM    4  C   UNL     1     -10.641  17.588  68.574  1.00  0.00    -0.312 C  
BRANCH   4   5
HETATM    5  C   UNL     1     -10.321  16.264  67.871  1.00  0.00    -0.285 C  
BRANCH   5   6
HETATM    6  C   UNL     1     -11.224  15.124  68.376  1.00  0.00    -0.307 C  
BRANCH   6   7
HETATM    7  C   UNL     1     -10.969  13.726  67.751  1.00  0.00    -0.272 C  
HETATM    8  C   UNL     1     -11.756  12.614  68.538  1.00  0.00    -0.372 C  
HETATM    9  C   UNL     1     -11.483  11.195  67.957  1.00  0.00    -0.366 C  
HETATM   10  C   UNL     1     -10.523  11.294  66.757  1.00  0.00    -0.291 C  
HETATM   11  C   UNL     1      -9.261  11.971  67.290  1.00  0.00    -0.182 A  
HETATM   12  C   UNL     1     -11.176  12.248  65.764  1.00  0.00    -0.378 A  
HETATM   13  C   UNL     1      -7.992  11.405  67.265  1.00  0.00    -0.149 A  
HETATM   14  C   UNL     1     -11.522  11.909  64.459  1.00  0.00    -0.363 A  
HETATM   15  C   UNL     1     -12.078  12.887  63.636  1.00  0.00    -0.611 A  
HETATM   16  C   UNL     1      -6.924  12.134  67.783  1.00  0.00    -0.109 A  
HETATM   17  C   UNL     1      -7.129  13.413  68.318  1.00  0.00    -0.109 A  
HETATM   18  C   UNL     1     -12.254  14.193  64.107  1.00  0.00    -0.423 A  
HETATM   19  C   UNL     1     -11.889  14.537  65.412  1.00  0.00    -0.344 A  
HETATM   20  C   UNL     1      -8.406  13.986  68.340  1.00  0.00    -0.162 A  
HETATM   21  C   UNL     1     -11.386  13.560  66.268  1.00  0.00    -0.327 A  
HETATM   22  C   UNL     1      -9.484  13.268  67.830  1.00  0.00    -0.214 A  
ENDBRANCH   6   7
ENDBRANCH   5   6
ENDBRANCH   4   5
ENDBRANCH   2   4
TORSDOF 4
ENDMDL
MODEL       60
REMARK 921   NORMALIZED FREE ENERGY PREDICTED BY IDOCK:   -4.53 KCAL/MOL
REMARK 922        TOTAL FREE ENERGY PREDICTED BY IDOCK:   -6.18 KCAL/MOL
REMARK 923 INTER-LIGAND FREE ENERGY PREDICTED BY IDOCK:   -5.69 KCAL/MOL
REMARK 924 INTRA-LIGAND FREE ENERGY PREDICTED BY IDOCK:   -0.48 KCAL/MOL
REMARK 927      BINDING AFFINITY PREDICTED BY RF-SCORE:    0.00 PKD
ROOT
HETATM    1  C   UNL     1     -10.518   3.917  74.514  1.00  0.00    -0.204 C  
HETATM    2  N   UNL     1     -11.256   5.014  73.906  1.00  0.00    -0.421 NA 
HETATM    3  H   UNL     1     -11.280   5.832  74.515  1.00  0.00     0.000 HD 
ENDROOT
BRANCH   2   4
HETATM    4  C   UNL     1     -10.724   5.347  72.583  1.00  0.00    -0.240 C  
BRANCH   4   5
HETATM    5  C   UNL     1     -11.719   6.258  71.857  1.00  0.00    -0.370 C  
BRANCH   5   6
HETATM    6  C   UNL     1     -11.453   7.743  72.165  1.00  0.00    -0.361 C  
BRANCH   6   7
HETATM    7  C   UNL     1     -10.806   8.570  71.022  1.00  0.00    -0.290 C  
HETATM    8  C   UNL     1     -10.973   7.835  69.640  1.00  0.00    -0.128 C  
HETATM    9  C   UNL     1     -10.295   8.624  68.482  1.00  0.00    -0.228 C  
HETATM   10  C   UNL     1      -9.662   9.919  69.028  1.00  0.00    -0.195 C  
HETATM   11  C   UNL     1      -8.673   9.475  70.104  1.00  0.00    -0.258 A  
HETATM   12  C   UNL     1     -10.784  10.686  69.717  1.00  0.00    -0.283 A  
HETATM   13  C   UNL     1      -7.309   9.740  70.080  1.00  0.00    -0.159 A  
HETATM   14  C   UNL     1     -11.197  11.966  69.359  1.00  0.00    -0.278 A  
HETATM   15  C   UNL     1     -12.210  12.575  70.097  1.00  0.00    -0.307 A  
HETATM   16  C   UNL     1      -6.519   9.279  71.130  1.00  0.00    -0.083 A  
HETATM   17  C   UNL     1      -7.092   8.562  72.190  1.00  0.00    -0.102 A  
HETATM   18  C   UNL     1     -12.778  11.922  71.196  1.00  0.00    -0.384 A  
HETATM   19  C   UNL     1     -12.349  10.643  71.567  1.00  0.00    -0.414 A  
HETATM   20  C   UNL     1      -8.466   8.298  72.217  1.00  0.00    -0.248 A  
HETATM   21  C   UNL     1     -11.380   9.993  70.807  1.00  0.00    -0.439 A  
HETATM   22  C   UNL     1      -9.268   8.748  71.173  1.00  0.00    -0.299 A  
ENDBRANCH   6   7
ENDBRANCH   5   6
ENDBRANCH   4   5
ENDBRANCH   2   4
TORSDOF 4
ENDMDL
MODEL       61
REMARK 921   NORMALIZED FREE ENERGY PREDICTED BY IDOCK:   -4.51 KCAL/MOL
REMARK 922        TOTAL FREE ENERGY PREDICTED BY IDOCK:   -6.15 KCAL/MOL
REMARK 923 INTER-LIGAND FREE ENERGY PREDICTED BY IDOCK:   -5.70 KCAL/MOL
REMARK 924 INTRA-LIGAND FREE ENERGY PREDICTED BY IDOCK:   -0.45 KCAL/MOL
REMARK 927      BINDING AFFINITY PREDICTED BY RF-SCORE:    0.00 PKD
ROOT
HETATM    1  C   UNL     1     -10.923   9.585  71.073  1.00  0.00    -0.353 C  
HETATM    2  N   UNL     1     -12.355   9.612  70.815  1.00  0.00    -0.451 NA 
HETATM    3  H   UNL     1     -12.889   9.710  71.679  1.00  0.00     0.000 HD 
ENDROOT
BRANCH   2   4
HETATM    4  C   UNL     1     -12.704  10.654  69.848  1.00  0.00    -0.015 C  
BRANCH   4   5
HETATM    5  C   UNL     1     -11.466  11.513  69.568  1.00  0.00    -0.378 C  
BRANCH   5   6
HETATM    6  C   UNL     1     -11.851  12.886  68.987  1.00  0.00    -0.352 C  
BRANCH   6   7
HETATM    7  C   UNL     1     -10.888  13.467  67.917  1.00  0.00    -0.262 C  
HETATM    8  C   UNL     1      -9.427  12.923  68.130  1.00  0.00    -0.218 C  
HETATM    9  C   UNL     1      -8.432  13.524  67.095  1.00  0.00    -0.177 C  
HETATM   10  C   UNL     1      -9.176  14.478  66.141  1.00  0.00    -0.175 C  
HETATM   11  C   UNL     1      -9.819  15.538  67.034  1.00  0.00    -0.236 A  
HETATM   12  C   UNL     1     -10.298  13.662  65.510  1.00  0.00    -0.319 A  
HETATM   13  C   UNL     1      -9.565  16.902  66.948  1.00  0.00    -0.262 A  
HETATM   14  C   UNL     1     -10.438  13.444  64.143  1.00  0.00    -0.202 A  
HETATM   15  C   UNL     1     -11.534  12.711  63.689  1.00  0.00    -0.563 A  
HETATM   16  C   UNL     1     -10.223  17.762  67.824  1.00  0.00    -0.362 A  
HETATM   17  C   UNL     1     -11.124  17.259  68.772  1.00  0.00     0.103 A  
HETATM   18  C   UNL     1     -12.490  12.232  64.591  1.00  0.00    -0.424 A  
HETATM   19  C   UNL     1     -12.358  12.468  65.964  1.00  0.00    -0.083 A  
HETATM   20  C   UNL     1     -11.385  15.886  68.857  1.00  0.00    -0.377 A  
HETATM   21  C   UNL     1     -11.240  13.147  66.443  1.00  0.00    -0.328 A  
HETATM   22  C   UNL     1     -10.731  15.013  67.992  1.00  0.00    -0.262 A  
ENDBRANCH   6   7
ENDBRANCH   5   6
ENDBRANCH   4   5
ENDBRANCH   2   4
TORSDOF 4
ENDMDL
MODEL       62
REMARK 921   NORMALIZED FREE ENERGY PREDICTED BY IDOCK:   -4.50 KCAL/MOL
REMARK 922        TOTAL FREE ENERGY PREDICTED BY IDOCK:   -6.13 KCAL/MOL
REMARK 923 INTER-LIGAND FREE ENERGY PREDICTED BY IDOCK:   -5.57 KCAL/MOL
REMARK 924 INTRA-LIGAND FREE ENERGY PREDICTED BY IDOCK:   -0.56 KCAL/MOL
REMARK 927      BINDING AFFINITY PREDICTED BY RF-SCORE:    0.00 PKD
ROOT
HETATM    1  C   UNL     1      -9.279   8.791  70.912  1.00  0.00    -0.212 C  
HETATM    2  N   UNL     1     -10.547   9.348  71.358  1.00  0.00    -0.340 NA 
HETATM    3  H   UNL     1     -10.408  10.115  72.016  1.00  0.00     0.000 HD 
ENDROOT
BRANCH   2   4
HETATM    4  C   UNL     1     -11.378   9.759  70.224  1.00  0.00    -0.272 C  
BRANCH   4   5
HETATM    5  C   UNL     1     -10.515  10.538  69.226  1.00  0.00    -0.258 C  
BRANCH   5   6
HETATM    6  C   UNL     1     -10.953  10.273  67.774  1.00  0.00    -0.360 C  
BRANCH   6   7
HETATM    7  C   UNL     1      -9.874   9.666  66.838  1.00  0.00    -0.257 C  
HETATM    8  C   UNL     1      -8.429   9.989  67.370  1.00  0.00    -0.121 C  
HETATM    9  C   UNL     1      -7.328   9.426  66.425  1.00  0.00    -0.093 C  
HETATM   10  C   UNL     1      -7.978   8.694  65.236  1.00  0.00    -0.114 C  
HETATM   11  C   UNL     1      -8.876   9.726  64.555  1.00  0.00    -0.248 A  
HETATM   12  C   UNL     1      -8.878   7.620  65.836  1.00  0.00    -0.163 A  
HETATM   13  C   UNL     1      -8.748  10.132  63.232  1.00  0.00    -0.214 A  
HETATM   14  C   UNL     1      -8.744   6.256  65.593  1.00  0.00    -0.122 A  
HETATM   15  C   UNL     1      -9.660   5.379  66.172  1.00  0.00    -0.169 A  
HETATM   16  C   UNL     1      -9.638  11.081  62.735  1.00  0.00    -0.337 A  
HETATM   17  C   UNL     1     -10.641  11.613  63.554  1.00  0.00    -0.496 A  
HETATM   18  C   UNL     1     -10.711   5.866  66.956  1.00  0.00    -0.396 A  
HETATM   19  C   UNL     1     -10.856   7.239  67.184  1.00  0.00    -0.378 A  
HETATM   20  C   UNL     1     -10.774  11.202  64.886  1.00  0.00    -0.318 A  
HETATM   21  C   UNL     1      -9.918   8.127  66.664  1.00  0.00    -0.339 A  
HETATM   22  C   UNL     1      -9.890  10.259  65.400  1.00  0.00    -0.362 A  
ENDBRANCH   6   7
ENDBRANCH   5   6
ENDBRANCH   4   5
ENDBRANCH   2   4
TORSDOF 4
ENDMDL
MODEL       63
REMARK 921   NORMALIZED FREE ENERGY PREDICTED BY IDOCK:   -4.49 KCAL/MOL
REMARK 922        TOTAL FREE ENERGY PREDICTED BY IDOCK:   -6.12 KCAL/MOL
REMARK 923 INTER-LIGAND FREE ENERGY PREDICTED BY IDOCK:   -5.82 KCAL/MOL
REMARK 924 INTRA-LIGAND FREE ENERGY PREDICTED BY IDOCK:   -0.30 KCAL/MOL
REMARK 927      BINDING AFFINITY PREDICTED BY RF-SCORE:    0.00 PKD
ROOT
HETATM    1  C   UNL     1     -12.551   8.329  72.417  1.00  0.00    -0.274 C  
HETATM    2  N   UNL     1     -13.614   9.319  72.499  1.00  0.00    -0.652 NA 
HETATM    3  H   UNL     1     -13.949   9.430  73.457  1.00  0.00     0.000 HD 
ENDROOT
BRANCH   2   4
HETATM    4  C   UNL     1     -13.196  10.600  71.926  1.00  0.00    -0.423 C  
BRANCH   4   5
HETATM    5  C   UNL     1     -12.844  10.396  70.448  1.00  0.00    -0.249 C  
BRANCH   5   6
HETATM    6  C   UNL     1     -11.364  10.714  70.171  1.00  0.00    -0.402 C  
BRANCH   6   7
HETATM    7  C   UNL     1     -11.083  11.681  68.990  1.00  0.00    -0.297 C  
HETATM    8  C   UNL     1     -11.910  11.261  67.719  1.00  0.00    -0.164 C  
HETATM    9  C   UNL     1     -11.614  12.191  66.506  1.00  0.00    -0.425 C  
HETATM   10  C   UNL     1     -10.598  13.276  66.910  1.00  0.00    -0.264 C  
HETATM   11  C   UNL     1      -9.361  12.524  67.398  1.00  0.00    -0.187 A  
HETATM   12  C   UNL     1     -11.201  14.002  68.107  1.00  0.00    -0.299 A  
HETATM   13  C   UNL     1      -8.093  12.643  66.841  1.00  0.00    -0.015 A  
HETATM   14  C   UNL     1     -11.486  15.364  68.139  1.00  0.00    -0.352 A  
HETATM   15  C   UNL     1     -11.999  15.915  69.312  1.00  0.00    -0.254 A  
HETATM   16  C   UNL     1      -7.050  11.900  67.386  1.00  0.00    -0.129 A  
HETATM   17  C   UNL     1      -7.276  11.050  68.476  1.00  0.00    -0.085 A  
HETATM   18  C   UNL     1     -12.194  15.117  70.444  1.00  0.00    -0.391 A  
HETATM   19  C   UNL     1     -11.890  13.752  70.417  1.00  0.00    -0.323 A  
HETATM   20  C   UNL     1      -8.551  10.931  69.042  1.00  0.00    -0.110 A  
HETATM   21  C   UNL     1     -11.431  13.171  69.238  1.00  0.00    -0.348 A  
HETATM   22  C   UNL     1      -9.606  11.663  68.505  1.00  0.00    -0.181 A  
ENDBRANCH   6   7
ENDBRANCH   5   6
ENDBRANCH   4   5
ENDBRANCH   2   4
TORSDOF 4
ENDMDL
MODEL       64
REMARK 921   NORMALIZED FREE ENERGY PREDICTED BY IDOCK:   -4.44 KCAL/MOL
REMARK 922        TOTAL FREE ENERGY PREDICTED BY IDOCK:   -6.06 KCAL/MOL
REMARK 923 INTER-LIGAND FREE ENERGY PREDICTED BY IDOCK:   -5.63 KCAL/MOL
REMARK 924 INTRA-LIGAND FREE ENERGY PREDICTED BY IDOCK:   -0.43 KCAL/MOL
REMARK 927      BINDING AFFINITY PREDICTED BY RF-SCORE:    0.00 PKD
ROOT
HETATM    1  C   UNL     1     -10.198   4.343  72.855  1.00  0.00    -0.172 C  
HETATM    2  N   UNL     1     -11.333   5.029  73.455  1.00  0.00    -0.451 NA 
HETATM    3  H   UNL     1     -11.090   5.433  74.360  1.00  0.00     0.000 HD 
ENDROOT
BRANCH   2   4
HETATM    4  C   UNL     1     -11.886   6.037  72.549  1.00  0.00    -0.186 C  
BRANCH   4   5
HETATM    5  C   UNL     1     -10.927   7.232  72.481  1.00  0.00    -0.322 C  
BRANCH   5   6
HETATM    6  C   UNL     1     -11.486   8.353  71.587  1.00  0.00    -0.349 C  
BRANCH   6   7
HETATM    7  C   UNL     1     -10.541   8.866  70.467  1.00  0.00    -0.262 C  
HETATM    8  C   UNL     1      -9.063   8.976  70.995  1.00  0.00    -0.322 C  
HETATM    9  C   UNL     1      -8.101   9.529  69.902  1.00  0.00    -0.163 C  
HETATM   10  C   UNL     1      -8.881   9.797  68.601  1.00  0.00    -0.126 C  
HETATM   11  C   UNL     1      -9.985  10.783  68.976  1.00  0.00    -0.214 A  
HETATM   12  C   UNL     1      -9.546   8.479  68.223  1.00  0.00    -0.156 A  
HETATM   13  C   UNL     1     -10.142  12.044  68.412  1.00  0.00    -0.211 A  
HETATM   14  C   UNL     1      -9.325   7.801  67.027  1.00  0.00    -0.196 A  
HETATM   15  C   UNL     1     -10.028   6.622  66.783  1.00  0.00    -0.238 A  
HETATM   16  C   UNL     1     -11.197  12.844  68.844  1.00  0.00    -0.327 A  
HETATM   17  C   UNL     1     -12.082  12.384  69.827  1.00  0.00    -0.292 A  
HETATM   18  C   UNL     1     -10.962   6.149  67.712  1.00  0.00    -0.400 A  
HETATM   19  C   UNL     1     -11.198   6.841  68.904  1.00  0.00    -0.196 A  
HETATM   20  C   UNL     1     -11.928  11.113  70.393  1.00  0.00    -0.469 A  
HETATM   21  C   UNL     1     -10.463   7.988  69.193  1.00  0.00    -0.217 A  
HETATM   22  C   UNL     1     -10.876  10.303  69.976  1.00  0.00    -0.364 A  
ENDBRANCH   6   7
ENDBRANCH   5   6
ENDBRANCH   4   5
ENDBRANCH   2   4
TORSDOF 4
ENDMDL
MODEL       65
REMARK 921   NORMALIZED FREE ENERGY PREDICTED BY IDOCK:   -4.43 KCAL/MOL
REMARK 922        TOTAL FREE ENERGY PREDICTED BY IDOCK:   -6.05 KCAL/MOL
REMARK 923 INTER-LIGAND FREE ENERGY PREDICTED BY IDOCK:   -5.66 KCAL/MOL
REMARK 924 INTRA-LIGAND FREE ENERGY PREDICTED BY IDOCK:   -0.39 KCAL/MOL
REMARK 927      BINDING AFFINITY PREDICTED BY RF-SCORE:    0.00 PKD
ROOT
HETATM    1  C   UNL     1     -11.787  14.105  64.472  1.00  0.00    -0.436 C  
HETATM    2  N   UNL     1     -10.514  13.578  64.002  1.00  0.00    -0.619 NA 
HETATM    3  H   UNL     1      -9.728  14.013  64.486  1.00  0.00     0.000 HD 
ENDROOT
BRANCH   2   4
HETATM    4  C   UNL     1     -10.468  12.119  64.108  1.00  0.00    -0.362 C  
BRANCH   4   5
HETATM    5  C   UNL     1     -10.983  11.700  65.489  1.00  0.00    -0.327 C  
BRANCH   5   6
HETATM    6  C   UNL     1     -10.573  10.255  65.830  1.00  0.00    -0.083 C  
BRANCH   6   7
HETATM    7  C   UNL     1     -10.334   9.952  67.334  1.00  0.00    -0.301 C  
HETATM    8  C   UNL     1     -11.346  10.758  68.231  1.00  0.00    -0.376 C  
HETATM    9  C   UNL     1     -11.099  10.504  69.747  1.00  0.00    -0.354 C  
HETATM   10  C   UNL     1      -9.932   9.515  69.932  1.00  0.00    -0.259 C  
HETATM   11  C   UNL     1      -8.733  10.153  69.233  1.00  0.00    -0.186 A  
HETATM   12  C   UNL     1     -10.308   8.260  69.154  1.00  0.00    -0.225 A  
HETATM   13  C   UNL     1      -7.535  10.477  69.859  1.00  0.00    -0.091 A  
HETATM   14  C   UNL     1     -10.441   6.994  69.719  1.00  0.00    -0.235 A  
HETATM   15  C   UNL     1     -10.750   5.918  68.889  1.00  0.00    -0.370 A  
HETATM   16  C   UNL     1      -6.519  11.054  69.101  1.00  0.00    -0.066 A  
HETATM   17  C   UNL     1      -6.703  11.301  67.735  1.00  0.00    -0.069 A  
HETATM   18  C   UNL     1     -10.892   6.105  67.509  1.00  0.00    -0.422 A  
HETATM   19  C   UNL     1     -10.740   7.373  66.940  1.00  0.00    -0.324 A  
HETATM   20  C   UNL     1      -7.908  10.972  67.102  1.00  0.00    -0.135 A  
HETATM   21  C   UNL     1     -10.490   8.471  67.759  1.00  0.00    -0.287 A  
HETATM   22  C   UNL     1      -8.935  10.399  67.846  1.00  0.00    -0.128 A  
ENDBRANCH   6   7
ENDBRANCH   5   6
ENDBRANCH   4   5
ENDBRANCH   2   4
TORSDOF 4
ENDMDL
MODEL       66
REMARK 921   NORMALIZED FREE ENERGY PREDICTED BY IDOCK:   -4.42 KCAL/MOL
REMARK 922        TOTAL FREE ENERGY PREDICTED BY IDOCK:   -6.04 KCAL/MOL
REMARK 923 INTER-LIGAND FREE ENERGY PREDICTED BY IDOCK:   -5.65 KCAL/MOL
REMARK 924 INTRA-LIGAND FREE ENERGY PREDICTED BY IDOCK:   -0.38 KCAL/MOL
REMARK 927      BINDING AFFINITY PREDICTED BY RF-SCORE:    0.00 PKD
ROOT
HETATM    1  C   UNL     1     -10.797   3.651  63.805  1.00  0.00    -0.200 C  
HETATM    2  N   UNL     1     -11.232   4.231  65.067  1.00  0.00    -1.020 NA 
HETATM    3  H   UNL     1     -11.798   3.575  65.605  1.00  0.00     0.000 HD 
ENDROOT
BRANCH   2   4
HETATM    4  C   UNL     1     -10.097   4.725  65.848  1.00  0.00    -0.242 C  
BRANCH   4   5
HETATM    5  C   UNL     1     -10.618   5.363  67.141  1.00  0.00    -0.274 C  
BRANCH   5   6
HETATM    6  C   UNL     1      -9.699   5.048  68.335  1.00  0.00    -0.209 C  
BRANCH   6   7
HETATM    7  C   UNL     1     -10.039   5.771  69.666  1.00  0.00    -0.276 C  
HETATM    8  C   UNL     1     -11.476   6.410  69.600  1.00  0.00    -0.446 C  
HETATM    9  C   UNL     1     -11.825   7.178  70.908  1.00  0.00    -0.379 C  
HETATM   10  C   UNL     1     -10.656   7.078  71.906  1.00  0.00    -0.239 C  
HETATM   11  C   UNL     1      -9.443   7.658  71.181  1.00  0.00    -0.163 A  
HETATM   12  C   UNL     1     -10.402   5.591  72.119  1.00  0.00    -0.263 A  
HETATM   13  C   UNL     1      -8.707   8.751  71.624  1.00  0.00    -0.255 A  
HETATM   14  C   UNL     1     -10.481   4.948  73.351  1.00  0.00    -0.267 A  
HETATM   15  C   UNL     1     -10.184   3.588  73.418  1.00  0.00    -0.222 A  
HETATM   16  C   UNL     1      -7.618   9.176  70.866  1.00  0.00    -0.146 A  
HETATM   17  C   UNL     1      -7.273   8.512  69.682  1.00  0.00    -0.052 A  
HETATM   18  C   UNL     1      -9.784   2.892  72.272  1.00  0.00    -0.225 A  
HETATM   19  C   UNL     1      -9.686   3.543  71.038  1.00  0.00    -0.225 A  
HETATM   20  C   UNL     1      -8.011   7.409  69.236  1.00  0.00    -0.118 A  
HETATM   21  C   UNL     1     -10.035   4.887  70.938  1.00  0.00    -0.287 A  
HETATM   22  C   UNL     1      -9.104   6.975  69.979  1.00  0.00    -0.145 A  
ENDBRANCH   6   7
ENDBRANCH   5   6
ENDBRANCH   4   5
ENDBRANCH   2   4
TORSDOF 4
ENDMDL
MODEL       67
REMARK 921   NORMALIZED FREE ENERGY PREDICTED BY IDOCK:   -4.40 KCAL/MOL
REMARK 922        TOTAL FREE ENERGY PREDICTED BY IDOCK:   -6.01 KCAL/MOL
REMARK 923 INTER-LIGAND FREE ENERGY PREDICTED BY IDOCK:   -6.16 KCAL/MOL
REMARK 924 INTRA-LIGAND FREE ENERGY PREDICTED BY IDOCK:    0.14 KCAL/MOL
REMARK 927      BINDING AFFINITY PREDICTED BY RF-SCORE:    0.00 PKD
ROOT
HETATM    1  C   UNL     1     -10.779   6.623  68.262  1.00  0.00    -0.257 C  
HETATM    2  N   UNL     1     -10.917   7.815  67.438  1.00  0.00    -0.531 NA 
HETATM    3  H   UNL     1     -11.839   7.865  67.003  1.00  0.00     0.000 HD 
ENDROOT
BRANCH   2   4
HETATM    4  C   UNL     1     -10.618   9.028  68.201  1.00  0.00    -0.171 C  
BRANCH   4   5
HETATM    5  C   UNL     1     -11.014  10.254  67.369  1.00  0.00    -0.317 C  
BRANCH   5   6
HETATM    6  C   UNL     1     -11.634  11.356  68.248  1.00  0.00    -0.376 C  
BRANCH   6   7
HETATM    7  C   UNL     1     -11.185  12.809  67.936  1.00  0.00    -0.315 C  
HETATM    8  C   UNL     1     -11.924  13.832  68.876  1.00  0.00    -0.394 C  
HETATM    9  C   UNL     1     -11.523  15.302  68.554  1.00  0.00    -0.355 C  
HETATM   10  C   UNL     1     -10.496  15.328  67.407  1.00  0.00    -0.270 C  
HETATM   11  C   UNL     1     -11.171  14.625  66.230  1.00  0.00    -0.340 A  
HETATM   12  C   UNL     1      -9.329  14.459  67.858  1.00  0.00    -0.203 A  
HETATM   13  C   UNL     1     -11.408  15.210  64.992  1.00  0.00    -0.381 A  
HETATM   14  C   UNL     1      -8.019  14.910  67.994  1.00  0.00    -0.132 A  
HETATM   15  C   UNL     1      -7.032  14.003  68.377  1.00  0.00    -0.100 A  
HETATM   16  C   UNL     1     -12.031  14.453  64.003  1.00  0.00    -0.288 A  
HETATM   17  C   UNL     1     -12.410  13.128  64.254  1.00  0.00    -0.421 A  
HETATM   18  C   UNL     1      -7.351  12.657  68.588  1.00  0.00    -0.101 A  
HETATM   19  C   UNL     1      -8.664  12.200  68.433  1.00  0.00    -0.141 A  
HETATM   20  C   UNL     1     -12.168  12.536  65.499  1.00  0.00    -0.442 A  
HETATM   21  C   UNL     1      -9.674  13.103  68.109  1.00  0.00    -0.228 A  
HETATM   22  C   UNL     1     -11.551  13.280  66.500  1.00  0.00    -0.392 A  
ENDBRANCH   6   7
ENDBRANCH   5   6
ENDBRANCH   4   5
ENDBRANCH   2   4
TORSDOF 4
ENDMDL
MODEL       68
REMARK 921   NORMALIZED FREE ENERGY PREDICTED BY IDOCK:   -4.39 KCAL/MOL
REMARK 922        TOTAL FREE ENERGY PREDICTED BY IDOCK:   -6.00 KCAL/MOL
REMARK 923 INTER-LIGAND FREE ENERGY PREDICTED BY IDOCK:   -5.56 KCAL/MOL
REMARK 924 INTRA-LIGAND FREE ENERGY PREDICTED BY IDOCK:   -0.44 KCAL/MOL
REMARK 927      BINDING AFFINITY PREDICTED BY RF-SCORE:    0.00 PKD
ROOT
HETATM    1  C   UNL     1      -7.499   8.380  64.618  1.00  0.00    -0.098 C  
HETATM    2  N   UNL     1      -7.894   8.143  65.999  1.00  0.00    -0.090 NA 
HETATM    3  H   UNL     1      -7.544   8.874  66.619  1.00  0.00     0.000 HD 
ENDROOT
BRANCH   2   4
HETATM    4  C   UNL     1      -9.345   7.988  66.120  1.00  0.00    -0.147 C  
BRANCH   4   5
HETATM    5  C   UNL     1      -9.999   9.374  66.128  1.00  0.00    -0.351 C  
BRANCH   5   6
HETATM    6  C   UNL     1      -9.341  10.303  67.166  1.00  0.00    -0.175 C  
BRANCH   6   7
HETATM    7  C   UNL     1     -10.193  11.514  67.632  1.00  0.00    -0.205 C  
HETATM    8  C   UNL     1     -11.297  11.861  66.566  1.00  0.00    -0.403 C  
HETATM    9  C   UNL     1     -12.139  13.100  66.991  1.00  0.00    -0.366 C  
HETATM   10  C   UNL     1     -11.651  13.625  68.354  1.00  0.00    -0.377 C  
HETATM   11  C   UNL     1     -10.169  13.948  68.168  1.00  0.00    -0.249 A  
HETATM   12  C   UNL     1     -11.752  12.454  69.324  1.00  0.00    -0.386 A  
HETATM   13  C   UNL     1      -9.605  15.204  68.357  1.00  0.00    -0.212 A  
HETATM   14  C   UNL     1     -12.525  12.456  70.482  1.00  0.00    -0.270 A  
HETATM   15  C   UNL     1     -12.500  11.334  71.308  1.00  0.00    -0.441 A  
HETATM   16  C   UNL     1      -8.236  15.360  68.155  1.00  0.00    -0.144 A  
HETATM   17  C   UNL     1      -7.445  14.269  67.770  1.00  0.00    -0.175 A  
HETATM   18  C   UNL     1     -11.685  10.241  70.994  1.00  0.00    -0.461 A  
HETATM   19  C   UNL     1     -10.893  10.247  69.841  1.00  0.00    -0.355 A  
HETATM   20  C   UNL     1      -8.010  13.003  67.583  1.00  0.00    -0.169 A  
HETATM   21  C   UNL     1     -10.950  11.334  68.972  1.00  0.00    -0.288 A  
HETATM   22  C   UNL     1      -9.378  12.831  67.776  1.00  0.00    -0.199 A  
ENDBRANCH   6   7
ENDBRANCH   5   6
ENDBRANCH   4   5
ENDBRANCH   2   4
TORSDOF 4
ENDMDL
MODEL       69
REMARK 921   NORMALIZED FREE ENERGY PREDICTED BY IDOCK:   -4.38 KCAL/MOL
REMARK 922        TOTAL FREE ENERGY PREDICTED BY IDOCK:   -5.99 KCAL/MOL
REMARK 923 INTER-LIGAND FREE ENERGY PREDICTED BY IDOCK:   -5.56 KCAL/MOL
REMARK 924 INTRA-LIGAND FREE ENERGY PREDICTED BY IDOCK:   -0.43 KCAL/MOL
REMARK 927      BINDING AFFINITY PREDICTED BY RF-SCORE:    0.00 PKD
ROOT
HETATM    1  C   UNL     1     -11.041  15.012  64.734  1.00  0.00    -0.376 C  
HETATM    2  N   UNL     1     -10.163  13.870  64.945  1.00  0.00    -0.558 NA 
HETATM    3  H   UNL     1      -9.512  13.750  64.169  1.00  0.00     0.000 HD 
ENDROOT
BRANCH   2   4
HETATM    4  C   UNL     1      -9.459  13.967  66.225  1.00  0.00    -0.227 C  
BRANCH   4   5
HETATM    5  C   UNL     1     -10.314  13.317  67.318  1.00  0.00    -0.247 C  
BRANCH   5   6
HETATM    6  C   UNL     1     -10.530  11.817  67.049  1.00  0.00    -0.252 C  
BRANCH   6   7
HETATM    7  C   UNL     1      -9.913  10.843  68.089  1.00  0.00    -0.188 C  
HETATM    8  C   UNL     1      -8.569  11.425  68.667  1.00  0.00    -0.126 C  
HETATM    9  C   UNL     1      -7.908  10.447  69.682  1.00  0.00    -0.138 C  
HETATM   10  C   UNL     1      -8.777   9.185  69.840  1.00  0.00    -0.170 C  
HETATM   11  C   UNL     1      -8.904   8.591  68.438  1.00  0.00    -0.139 A  
HETATM   12  C   UNL     1     -10.158   9.668  70.265  1.00  0.00    -0.331 A  
HETATM   13  C   UNL     1      -8.488   7.314  68.081  1.00  0.00    -0.123 A  
HETATM   14  C   UNL     1     -10.790   9.300  71.450  1.00  0.00    -0.434 A  
HETATM   15  C   UNL     1     -12.074   9.780  71.704  1.00  0.00    -0.475 A  
HETATM   16  C   UNL     1      -8.666   6.895  66.765  1.00  0.00    -0.122 A  
HETATM   17  C   UNL     1      -9.255   7.747  65.821  1.00  0.00    -0.004 A  
HETATM   18  C   UNL     1     -12.725  10.591  70.768  1.00  0.00    -0.471 A  
HETATM   19  C   UNL     1     -12.097  10.946  69.569  1.00  0.00    -0.380 A  
HETATM   20  C   UNL     1      -9.679   9.032  66.179  1.00  0.00    -0.354 A  
HETATM   21  C   UNL     1     -10.793  10.524  69.323  1.00  0.00    -0.284 A  
HETATM   22  C   UNL     1      -9.503   9.467  67.490  1.00  0.00    -0.155 A  
ENDBRANCH   6   7
ENDBRANCH   5   6
ENDBRANCH   4   5
ENDBRANCH   2   4
TORSDOF 4
ENDMDL
MODEL       70
REMARK 921   NORMALIZED FREE ENERGY PREDICTED BY IDOCK:   -4.37 KCAL/MOL
REMARK 922        TOTAL FREE ENERGY PREDICTED BY IDOCK:   -5.98 KCAL/MOL
REMARK 923 INTER-LIGAND FREE ENERGY PREDICTED BY IDOCK:   -5.54 KCAL/MOL
REMARK 924 INTRA-LIGAND FREE ENERGY PREDICTED BY IDOCK:   -0.44 KCAL/MOL
REMARK 927      BINDING AFFINITY PREDICTED BY RF-SCORE:    0.00 PKD
ROOT
HETATM    1  C   UNL     1      -5.433  17.610  69.369  1.00  0.00    -0.200 C  
HETATM    2  N   UNL     1      -6.624  16.781  69.250  1.00  0.00    -0.214 NA 
HETATM    3  H   UNL     1      -7.465  17.348  69.142  1.00  0.00     0.000 HD 
ENDROOT
BRANCH   2   4
HETATM    4  C   UNL     1      -6.491  15.808  68.164  1.00  0.00    -0.130 C  
BRANCH   4   5
HETATM    5  C   UNL     1      -7.110  14.476  68.605  1.00  0.00    -0.113 C  
BRANCH   5   6
HETATM    6  C   UNL     1      -7.949  13.844  67.480  1.00  0.00    -0.190 C  
BRANCH   6   7
HETATM    7  C   UNL     1      -9.465  13.682  67.769  1.00  0.00    -0.221 C  
HETATM    8  C   UNL     1      -9.940  14.723  68.850  1.00  0.00    -0.233 C  
HETATM    9  C   UNL     1     -11.449  14.553  69.190  1.00  0.00    -0.324 C  
HETATM   10  C   UNL     1     -12.053  13.412  68.350  1.00  0.00    -0.270 C  
HETATM   11  C   UNL     1     -11.225  12.171  68.682  1.00  0.00    -0.318 A  
HETATM   12  C   UNL     1     -11.789  13.768  66.892  1.00  0.00    -0.447 A  
HETATM   13  C   UNL     1     -11.741  11.000  69.224  1.00  0.00    -0.397 A  
HETATM   14  C   UNL     1     -12.783  13.947  65.934  1.00  0.00    -0.466 A  
HETATM   15  C   UNL     1     -12.408  14.231  64.622  1.00  0.00    -0.433 A  
HETATM   16  C   UNL     1     -10.874   9.940  69.475  1.00  0.00    -0.274 A  
HETATM   17  C   UNL     1      -9.508  10.055  69.186  1.00  0.00    -0.214 A  
HETATM   18  C   UNL     1     -11.055  14.305  64.272  1.00  0.00    -0.105 A  
HETATM   19  C   UNL     1     -10.057  14.107  65.231  1.00  0.00    -0.364 A  
HETATM   20  C   UNL     1      -8.987  11.232  68.636  1.00  0.00    -0.148 A  
HETATM   21  C   UNL     1     -10.411  13.879  66.558  1.00  0.00    -0.282 A  
HETATM   22  C   UNL     1      -9.840  12.302  68.383  1.00  0.00    -0.199 A  
ENDBRANCH   6   7
ENDBRANCH   5   6
ENDBRANCH   4   5
ENDBRANCH   2   4
TORSDOF 4
ENDMDL
MODEL       71
REMARK 921   NORMALIZED FREE ENERGY PREDICTED BY IDOCK:   -4.36 KCAL/MOL
REMARK 922        TOTAL FREE ENERGY PREDICTED BY IDOCK:   -5.96 KCAL/MOL
REMARK 923 INTER-LIGAND FREE ENERGY PREDICTED BY IDOCK:   -5.77 KCAL/MOL
REMARK 924 INTRA-LIGAND FREE ENERGY PREDICTED BY IDOCK:   -0.19 KCAL/MOL
REMARK 927      BINDING AFFINITY PREDICTED BY RF-SCORE:    0.00 PKD
ROOT
HETATM    1  C   UNL     1      -5.724  14.410  70.399  1.00  0.00    -0.146 C  
HETATM    2  N   UNL     1      -5.436  14.664  68.995  1.00  0.00    -0.088 NA 
HETATM    3  H   UNL     1      -4.447  14.869  68.847  1.00  0.00     0.000 HD 
ENDROOT
BRANCH   2   4
HETATM    4  C   UNL     1      -5.886  13.558  68.148  1.00  0.00    -0.115 C  
BRANCH   4   5
HETATM    5  C   UNL     1      -7.296  13.138  68.580  1.00  0.00    -0.111 C  
BRANCH   5   6
HETATM    6  C   UNL     1      -8.132  12.655  67.381  1.00  0.00    -0.182 C  
BRANCH   6   7
HETATM    7  C   UNL     1      -9.481  13.388  67.152  1.00  0.00    -0.244 C  
HETATM    8  C   UNL     1     -10.400  13.272  68.425  1.00  0.00    -0.254 C  
HETATM    9  C   UNL     1     -11.777  13.963  68.206  1.00  0.00    -0.396 C  
HETATM   10  C   UNL     1     -11.838  14.581  66.796  1.00  0.00    -0.390 C  
HETATM   11  C   UNL     1     -11.591  13.426  65.827  1.00  0.00    -0.358 A  
HETATM   12  C   UNL     1     -10.652  15.532  66.695  1.00  0.00    -0.307 A  
HETATM   13  C   UNL     1     -12.483  13.019  64.841  1.00  0.00    -0.512 A  
HETATM   14  C   UNL     1     -10.758  16.898  66.446  1.00  0.00    -0.085 A  
HETATM   15  C   UNL     1      -9.592  17.653  66.336  1.00  0.00    -0.285 A  
HETATM   16  C   UNL     1     -12.131  11.950  64.021  1.00  0.00    -0.444 A  
HETATM   17  C   UNL     1     -10.901  11.300  64.188  1.00  0.00    -0.407 A  
HETATM   18  C   UNL     1      -8.338  17.040  66.444  1.00  0.00    -0.319 A  
HETATM   19  C   UNL     1      -8.232  15.665  66.675  1.00  0.00    -0.284 A  
HETATM   20  C   UNL     1     -10.000  11.711  65.178  1.00  0.00    -0.297 A  
HETATM   21  C   UNL     1      -9.385  14.903  66.846  1.00  0.00    -0.258 A  
HETATM   22  C   UNL     1     -10.339  12.774  66.009  1.00  0.00    -0.291 A  
ENDBRANCH   6   7
ENDBRANCH   5   6
ENDBRANCH   4   5
ENDBRANCH   2   4
TORSDOF 4
ENDMDL
MODEL       72
REMARK 921   NORMALIZED FREE ENERGY PREDICTED BY IDOCK:   -4.36 KCAL/MOL
REMARK 922        TOTAL FREE ENERGY PREDICTED BY IDOCK:   -5.96 KCAL/MOL
REMARK 923 INTER-LIGAND FREE ENERGY PREDICTED BY IDOCK:   -5.54 KCAL/MOL
REMARK 924 INTRA-LIGAND FREE ENERGY PREDICTED BY IDOCK:   -0.42 KCAL/MOL
REMARK 927      BINDING AFFINITY PREDICTED BY RF-SCORE:    0.00 PKD
ROOT
HETATM    1  C   UNL     1     -12.404  11.168  69.711  1.00  0.00    -0.246 C  
HETATM    2  N   UNL     1     -12.972  10.717  70.973  1.00  0.00    -0.378 NA 
HETATM    3  H   UNL     1     -13.876  10.264  70.836  1.00  0.00     0.000 HD 
ENDROOT
BRANCH   2   4
HETATM    4  C   UNL     1     -12.042   9.848  71.697  1.00  0.00    -0.373 C  
BRANCH   4   5
HETATM    5  C   UNL     1     -12.722   8.501  71.968  1.00  0.00    -0.421 C  
BRANCH   5   6
HETATM    6  C   UNL     1     -11.758   7.509  72.643  1.00  0.00    -0.279 C  
BRANCH   6   7
HETATM    7  C   UNL     1     -10.888   6.647  71.689  1.00  0.00    -0.269 C  
HETATM    8  C   UNL     1     -11.570   6.522  70.276  1.00  0.00    -0.473 C  
HETATM    9  C   UNL     1     -10.737   5.627  69.312  1.00  0.00    -0.350 C  
HETATM   10  C   UNL     1      -9.465   5.129  70.023  1.00  0.00    -0.221 C  
HETATM   11  C   UNL     1      -9.950   4.378  71.262  1.00  0.00    -0.245 A  
HETATM   12  C   UNL     1      -8.725   6.374  70.496  1.00  0.00    -0.144 A  
HETATM   13  C   UNL     1      -9.686   3.040  71.528  1.00  0.00    -0.223 A  
HETATM   14  C   UNL     1      -7.431   6.714  70.110  1.00  0.00    -0.094 A  
HETATM   15  C   UNL     1      -6.850   7.861  70.647  1.00  0.00    -0.041 A  
HETATM   16  C   UNL     1     -10.187   2.478  72.700  1.00  0.00    -0.236 A  
HETATM   17  C   UNL     1     -10.943   3.251  73.592  1.00  0.00    -0.330 A  
HETATM   18  C   UNL     1      -7.545   8.637  71.581  1.00  0.00    -0.139 A  
HETATM   19  C   UNL     1      -8.837   8.284  71.984  1.00  0.00    -0.256 A  
HETATM   20  C   UNL     1     -11.207   4.600  73.328  1.00  0.00    -0.411 A  
HETATM   21  C   UNL     1      -9.457   7.175  71.415  1.00  0.00    -0.162 A  
HETATM   22  C   UNL     1     -10.717   5.174  72.159  1.00  0.00    -0.252 A  
ENDBRANCH   6   7
ENDBRANCH   5   6
ENDBRANCH   4   5
ENDBRANCH   2   4
TORSDOF 4
ENDMDL
MODEL       73
REMARK 921   NORMALIZED FREE ENERGY PREDICTED BY IDOCK:   -4.30 KCAL/MOL
REMARK 922        TOTAL FREE ENERGY PREDICTED BY IDOCK:   -5.89 KCAL/MOL
REMARK 923 INTER-LIGAND FREE ENERGY PREDICTED BY IDOCK:   -5.63 KCAL/MOL
REMARK 924 INTRA-LIGAND FREE ENERGY PREDICTED BY IDOCK:   -0.27 KCAL/MOL
REMARK 927      BINDING AFFINITY PREDICTED BY RF-SCORE:    0.00 PKD
ROOT
HETATM    1  C   UNL     1     -12.497  12.312  63.828  1.00  0.00    -0.515 C  
HETATM    2  N   UNL     1     -12.218  13.652  63.332  1.00  0.00    -1.020 NA 
HETATM    3  H   UNL     1     -12.752  13.857  62.488  1.00  0.00     0.000 HD 
ENDROOT
BRANCH   2   4
HETATM    4  C   UNL     1     -12.444  14.662  64.367  1.00  0.00    -0.288 C  
BRANCH   4   5
HETATM    5  C   UNL     1     -12.304  14.008  65.746  1.00  0.00    -0.506 C  
BRANCH   5   6
HETATM    6  C   UNL     1     -11.134  14.614  66.542  1.00  0.00    -0.329 C  
BRANCH   6   7
HETATM    7  C   UNL     1     -10.033  13.619  67.000  1.00  0.00    -0.248 C  
HETATM    8  C   UNL     1      -9.513  12.768  65.782  1.00  0.00    -0.023 C  
HETATM    9  C   UNL     1      -8.438  11.731  66.222  1.00  0.00    -0.022 C  
HETATM   10  C   UNL     1      -8.180  11.851  67.736  1.00  0.00    -0.148 C  
HETATM   11  C   UNL     1      -9.534  11.623  68.406  1.00  0.00    -0.193 A  
HETATM   12  C   UNL     1      -7.775  13.298  67.988  1.00  0.00    -0.147 A  
HETATM   13  C   UNL     1      -9.802  10.611  69.320  1.00  0.00    -0.201 A  
HETATM   14  C   UNL     1      -6.561  13.690  68.544  1.00  0.00    -0.088 A  
HETATM   15  C   UNL     1      -6.328  15.047  68.761  1.00  0.00    -0.082 A  
HETATM   16  C   UNL     1     -11.083  10.518  69.859  1.00  0.00    -0.371 A  
HETATM   17  C   UNL     1     -12.079  11.430  69.486  1.00  0.00    -0.370 A  
HETATM   18  C   UNL     1      -7.313  15.993  68.454  1.00  0.00    -0.131 A  
HETATM   19  C   UNL     1      -8.541  15.597  67.913  1.00  0.00    -0.163 A  
HETATM   20  C   UNL     1     -11.810  12.453  68.569  1.00  0.00    -0.352 A  
HETATM   21  C   UNL     1      -8.769  14.252  67.634  1.00  0.00    -0.192 A  
HETATM   22  C   UNL     1     -10.536  12.556  68.018  1.00  0.00    -0.237 A  
ENDBRANCH   6   7
ENDBRANCH   5   6
ENDBRANCH   4   5
ENDBRANCH   2   4
TORSDOF 4
ENDMDL
MODEL       74
REMARK 921   NORMALIZED FREE ENERGY PREDICTED BY IDOCK:   -4.30 KCAL/MOL
REMARK 922        TOTAL FREE ENERGY PREDICTED BY IDOCK:   -5.89 KCAL/MOL
REMARK 923 INTER-LIGAND FREE ENERGY PREDICTED BY IDOCK:   -5.69 KCAL/MOL
REMARK 924 INTRA-LIGAND FREE ENERGY PREDICTED BY IDOCK:   -0.20 KCAL/MOL
REMARK 927      BINDING AFFINITY PREDICTED BY RF-SCORE:    0.00 PKD
ROOT
HETATM    1  C   UNL     1     -13.238  14.857  73.050  1.00  0.00    -0.494 C  
HETATM    2  N   UNL     1     -12.104  14.521  72.201  1.00  0.00    -0.234 NA 
HETATM    3  H   UNL     1     -11.546  13.768  72.604  1.00  0.00     0.000 HD 
ENDROOT
BRANCH   2   4
HETATM    4  C   UNL     1     -12.534  14.200  70.839  1.00  0.00    -0.365 C  
BRANCH   4   5
HETATM    5  C   UNL     1     -11.344  14.362  69.886  1.00  0.00    -0.273 C  
BRANCH   5   6
HETATM    6  C   UNL     1     -11.004  15.846  69.656  1.00  0.00    -0.319 C  
BRANCH   6   7
HETATM    7  C   UNL     1     -10.057  16.151  68.464  1.00  0.00    -0.241 C  
HETATM    8  C   UNL     1     -10.556  15.427  67.159  1.00  0.00    -0.305 C  
HETATM    9  C   UNL     1      -9.599  15.683  65.957  1.00  0.00    -0.386 C  
HETATM   10  C   UNL     1      -8.435  16.592  66.395  1.00  0.00    -0.348 C  
HETATM   11  C   UNL     1      -7.755  15.865  67.554  1.00  0.00    -0.183 A  
HETATM   12  C   UNL     1      -9.071  17.860  66.953  1.00  0.00    -0.266 A  
HETATM   13  C   UNL     1      -6.423  15.469  67.563  1.00  0.00    -0.186 A  
HETATM   14  C   UNL     1      -8.848  19.139  66.449  1.00  0.00    -0.349 A  
HETATM   15  C   UNL     1      -9.459  20.223  67.076  1.00  0.00    -0.546 A  
HETATM   16  C   UNL     1      -5.927  14.815  68.688  1.00  0.00    -0.089 A  
HETATM   17  C   UNL     1      -6.757  14.564  69.789  1.00  0.00    -0.150 A  
HETATM   18  C   UNL     1     -10.255  20.030  68.210  1.00  0.00    -0.527 A  
HETATM   19  C   UNL     1     -10.464  18.747  68.728  1.00  0.00    -0.033 A  
HETATM   20  C   UNL     1      -8.098  14.967  69.783  1.00  0.00     0.112 A  
HETATM   21  C   UNL     1      -9.910  17.645  68.081  1.00  0.00    -0.318 A  
HETATM   22  C   UNL     1      -8.610  15.617  68.664  1.00  0.00    -0.188 A  
ENDBRANCH   6   7
ENDBRANCH   5   6
ENDBRANCH   4   5
ENDBRANCH   2   4
TORSDOF 4
ENDMDL
MODEL       75
REMARK 921   NORMALIZED FREE ENERGY PREDICTED BY IDOCK:   -4.29 KCAL/MOL
REMARK 922        TOTAL FREE ENERGY PREDICTED BY IDOCK:   -5.88 KCAL/MOL
REMARK 923 INTER-LIGAND FREE ENERGY PREDICTED BY IDOCK:   -6.06 KCAL/MOL
REMARK 924 INTRA-LIGAND FREE ENERGY PREDICTED BY IDOCK:    0.18 KCAL/MOL
REMARK 927      BINDING AFFINITY PREDICTED BY RF-SCORE:    0.00 PKD
ROOT
HETATM    1  C   UNL     1     -10.323   3.754  64.330  1.00  0.00    -0.245 C  
HETATM    2  N   UNL     1     -10.905   4.665  65.304  1.00  0.00    -0.727 NA 
HETATM    3  H   UNL     1     -11.903   4.491  65.430  1.00  0.00     0.000 HD 
ENDROOT
BRANCH   2   4
HETATM    4  C   UNL     1     -10.188   4.613  66.580  1.00  0.00    -0.238 C  
BRANCH   4   5
HETATM    5  C   UNL     1     -10.737   5.702  67.509  1.00  0.00    -0.272 C  
BRANCH   5   6
HETATM    6  C   UNL     1      -9.709   6.094  68.586  1.00  0.00    -0.145 C  
BRANCH   6   7
HETATM    7  C   UNL     1      -9.778   7.561  69.090  1.00  0.00    -0.166 C  
HETATM    8  C   UNL     1      -8.486   7.928  69.911  1.00  0.00    -0.127 C  
HETATM    9  C   UNL     1      -8.548   9.382  70.464  1.00  0.00    -0.265 C  
HETATM   10  C   UNL     1      -9.865  10.054  70.031  1.00  0.00    -0.247 C  
HETATM   11  C   UNL     1     -10.982   9.163  70.571  1.00  0.00    -0.307 A  
HETATM   12  C   UNL     1      -9.904   9.975  68.509  1.00  0.00    -0.168 A  
HETATM   13  C   UNL     1     -11.966   9.582  71.458  1.00  0.00    -0.475 A  
HETATM   14  C   UNL     1      -9.974  11.080  67.666  1.00  0.00    -0.196 A  
HETATM   15  C   UNL     1     -10.046  10.871  66.289  1.00  0.00    -0.284 A  
HETATM   16  C   UNL     1     -12.931   8.666  71.870  1.00  0.00    -0.409 A  
HETATM   17  C   UNL     1     -12.907   7.348  71.397  1.00  0.00    -0.408 A  
HETATM   18  C   UNL     1     -10.078   9.572  65.771  1.00  0.00    -0.223 A  
HETATM   19  C   UNL     1     -10.026   8.461  66.620  1.00  0.00    -0.354 A  
HETATM   20  C   UNL     1     -11.919   6.924  70.500  1.00  0.00    -0.358 A  
HETATM   21  C   UNL     1      -9.895   8.649  67.993  1.00  0.00    -0.201 A  
HETATM   22  C   UNL     1     -10.945   7.827  70.083  1.00  0.00    -0.246 A  
ENDBRANCH   6   7
ENDBRANCH   5   6
ENDBRANCH   4   5
ENDBRANCH   2   4
TORSDOF 4
ENDMDL
MODEL       76
REMARK 921   NORMALIZED FREE ENERGY PREDICTED BY IDOCK:   -4.18 KCAL/MOL
REMARK 922        TOTAL FREE ENERGY PREDICTED BY IDOCK:   -5.74 KCAL/MOL
REMARK 923 INTER-LIGAND FREE ENERGY PREDICTED BY IDOCK:   -5.37 KCAL/MOL
REMARK 924 INTRA-LIGAND FREE ENERGY PREDICTED BY IDOCK:   -0.37 KCAL/MOL
REMARK 927      BINDING AFFINITY PREDICTED BY RF-SCORE:    0.00 PKD
ROOT
HETATM    1  C   UNL     1     -12.364  13.649  65.564  1.00  0.00    -0.482 C  
HETATM    2  N   UNL     1     -12.228  12.353  66.214  1.00  0.00    -0.583 NA 
HETATM    3  H   UNL     1     -11.668  11.711  65.654  1.00  0.00     0.000 HD 
ENDROOT
BRANCH   2   4
HETATM    4  C   UNL     1     -11.693  12.490  67.570  1.00  0.00    -0.374 C  
BRANCH   4   5
HETATM    5  C   UNL     1     -10.276  11.906  67.611  1.00  0.00    -0.215 C  
BRANCH   5   6
HETATM    6  C   UNL     1     -10.005  11.176  68.938  1.00  0.00    -0.188 C  
BRANCH   6   7
HETATM    7  C   UNL     1     -10.061   9.625  68.886  1.00  0.00    -0.198 C  
HETATM    8  C   UNL     1     -10.783   9.139  67.575  1.00  0.00    -0.255 C  
HETATM    9  C   UNL     1     -10.890   7.587  67.518  1.00  0.00    -0.232 C  
HETATM   10  C   UNL     1     -10.236   6.968  68.768  1.00  0.00    -0.181 C  
HETATM   11  C   UNL     1     -10.973   7.571  69.962  1.00  0.00    -0.252 A  
HETATM   12  C   UNL     1      -8.802   7.483  68.800  1.00  0.00    -0.131 A  
HETATM   13  C   UNL     1     -11.668   6.835  70.915  1.00  0.00    -0.424 A  
HETATM   14  C   UNL     1      -7.673   6.669  68.767  1.00  0.00    -0.109 A  
HETATM   15  C   UNL     1      -6.415   7.264  68.844  1.00  0.00    -0.040 A  
HETATM   16  C   UNL     1     -12.294   7.512  71.958  1.00  0.00    -0.305 A  
HETATM   17  C   UNL     1     -12.224   8.909  72.043  1.00  0.00    -0.447 A  
HETATM   18  C   UNL     1      -6.294   8.651  68.982  1.00  0.00    -0.044 A  
HETATM   19  C   UNL     1      -7.429   9.466  69.034  1.00  0.00    -0.073 A  
HETATM   20  C   UNL     1     -11.522   9.652  71.087  1.00  0.00    -0.456 A  
HETATM   21  C   UNL     1      -8.693   8.897  68.900  1.00  0.00    -0.136 A  
HETATM   22  C   UNL     1     -10.894   8.990  70.035  1.00  0.00    -0.247 A  
ENDBRANCH   6   7
ENDBRANCH   5   6
ENDBRANCH   4   5
ENDBRANCH   2   4
TORSDOF 4
ENDMDL
MODEL       77
REMARK 921   NORMALIZED FREE ENERGY PREDICTED BY IDOCK:   -4.14 KCAL/MOL
REMARK 922        TOTAL FREE ENERGY PREDICTED BY IDOCK:   -5.69 KCAL/MOL
REMARK 923 INTER-LIGAND FREE ENERGY PREDICTED BY IDOCK:   -5.84 KCAL/MOL
REMARK 924 INTRA-LIGAND FREE ENERGY PREDICTED BY IDOCK:    0.15 KCAL/MOL
REMARK 927      BINDING AFFINITY PREDICTED BY RF-SCORE:    0.00 PKD
ROOT
HETATM    1  C   UNL     1     -12.501  15.655  64.025  1.00  0.00     0.384 C  
HETATM    2  N   UNL     1     -11.173  16.250  64.022  1.00  0.00    -1.342 NA 
HETATM    3  H   UNL     1     -11.108  17.017  63.353  1.00  0.00     0.000 HD 
ENDROOT
BRANCH   2   4
HETATM    4  C   UNL     1     -10.775  16.676  65.365  1.00  0.00    -0.215 C  
BRANCH   4   5
HETATM    5  C   UNL     1      -9.953  15.561  66.022  1.00  0.00    -0.356 C  
BRANCH   5   6
HETATM    6  C   UNL     1     -10.807  14.733  66.999  1.00  0.00    -0.315 C  
BRANCH   6   7
HETATM    7  C   UNL     1     -10.367  13.258  67.206  1.00  0.00    -0.247 C  
HETATM    8  C   UNL     1     -11.388  12.498  68.132  1.00  0.00    -0.343 C  
HETATM    9  C   UNL     1     -10.947  11.027  68.389  1.00  0.00    -0.281 C  
HETATM   10  C   UNL     1      -9.632  10.733  67.643  1.00  0.00    -0.174 C  
HETATM   11  C   UNL     1      -8.623  11.757  68.162  1.00  0.00    -0.160 A  
HETATM   12  C   UNL     1      -9.895  11.046  66.174  1.00  0.00    -0.268 A  
HETATM   13  C   UNL     1      -7.428  11.435  68.795  1.00  0.00    -0.124 A  
HETATM   14  C   UNL     1      -9.775  10.123  65.140  1.00  0.00    -0.370 A  
HETATM   15  C   UNL     1     -10.004  10.547  63.832  1.00  0.00    -0.348 A  
HETATM   16  C   UNL     1      -6.596  12.469  69.218  1.00  0.00    -0.089 A  
HETATM   17  C   UNL     1      -6.959  13.805  69.008  1.00  0.00    -0.104 A  
HETATM   18  C   UNL     1     -10.318  11.884  63.565  1.00  0.00    -0.495 A  
HETATM   19  C   UNL     1     -10.420  12.816  64.603  1.00  0.00    -0.373 A  
HETATM   20  C   UNL     1      -8.160  14.131  68.366  1.00  0.00    -0.144 A  
HETATM   21  C   UNL     1     -10.252  12.399  65.921  1.00  0.00    -0.273 A  
HETATM   22  C   UNL     1      -9.005  13.110  67.942  1.00  0.00    -0.200 A  
ENDBRANCH   6   7
ENDBRANCH   5   6
ENDBRANCH   4   5
ENDBRANCH   2   4
TORSDOF 4
ENDMDL
MODEL       78
REMARK 921   NORMALIZED FREE ENERGY PREDICTED BY IDOCK:   -4.14 KCAL/MOL
REMARK 922        TOTAL FREE ENERGY PREDICTED BY IDOCK:   -5.69 KCAL/MOL
REMARK 923 INTER-LIGAND FREE ENERGY PREDICTED BY IDOCK:   -5.23 KCAL/MOL
REMARK 924 INTRA-LIGAND FREE ENERGY PREDICTED BY IDOCK:   -0.46 KCAL/MOL
REMARK 927      BINDING AFFINITY PREDICTED BY RF-SCORE:    0.00 PKD
ROOT
HETATM    1  C   UNL     1     -11.456  13.820  64.492  1.00  0.00    -0.384 C  
HETATM    2  N   UNL     1     -10.411  12.913  64.945  1.00  0.00    -0.317 NA 
HETATM    3  H   UNL     1      -9.755  12.694  64.195  1.00  0.00     0.000 HD 
ENDROOT
BRANCH   2   4
HETATM    4  C   UNL     1      -9.721  13.439  66.124  1.00  0.00    -0.250 C  
BRANCH   4   5
HETATM    5  C   UNL     1      -9.971  14.949  66.220  1.00  0.00    -0.300 C  
BRANCH   5   6
HETATM    6  C   UNL     1      -9.424  15.529  67.536  1.00  0.00    -0.208 C  
BRANCH   6   7
HETATM    7  C   UNL     1      -8.416  16.701  67.396  1.00  0.00    -0.204 C  
HETATM    8  C   UNL     1      -7.637  16.605  66.032  1.00  0.00     0.120 C  
HETATM    9  C   UNL     1      -6.588  17.746  65.886  1.00  0.00    -0.271 C  
HETATM   10  C   UNL     1      -6.627  18.659  67.126  1.00  0.00    -0.204 C  
HETATM   11  C   UNL     1      -6.351  17.747  68.320  1.00  0.00    -0.188 A  
HETATM   12  C   UNL     1      -8.062  19.157  67.246  1.00  0.00    -0.286 A  
HETATM   13  C   UNL     1      -5.287  17.901  69.202  1.00  0.00    -0.188 A  
HETATM   14  C   UNL     1      -8.434  20.498  67.216  1.00  0.00    -0.365 A  
HETATM   15  C   UNL     1      -9.780  20.825  67.377  1.00  0.00    -0.473 A  
HETATM   16  C   UNL     1      -5.153  16.998  70.253  1.00  0.00    -0.204 A  
HETATM   17  C   UNL     1      -6.075  15.956  70.417  1.00  0.00     0.038 A  
HETATM   18  C   UNL     1     -10.731  19.823  67.596  1.00  0.00    -0.460 A  
HETATM   19  C   UNL     1     -10.354  18.477  67.644  1.00  0.00    -0.442 A  
HETATM   20  C   UNL     1      -7.149  15.801  69.533  1.00  0.00    -0.190 A  
HETATM   21  C   UNL     1      -9.024  18.126  67.427  1.00  0.00    -0.256 A  
HETATM   22  C   UNL     1      -7.294  16.692  68.474  1.00  0.00    -0.201 A  
ENDBRANCH   6   7
ENDBRANCH   5   6
ENDBRANCH   4   5
ENDBRANCH   2   4
TORSDOF 4
ENDMDL
MODEL       79
REMARK 921   NORMALIZED FREE ENERGY PREDICTED BY IDOCK:   -4.12 KCAL/MOL
REMARK 922        TOTAL FREE ENERGY PREDICTED BY IDOCK:   -5.67 KCAL/MOL
REMARK 923 INTER-LIGAND FREE ENERGY PREDICTED BY IDOCK:   -5.78 KCAL/MOL
REMARK 924 INTRA-LIGAND FREE ENERGY PREDICTED BY IDOCK:    0.11 KCAL/MOL
REMARK 927      BINDING AFFINITY PREDICTED BY RF-SCORE:    0.00 PKD
ROOT
HETATM    1  C   UNL     1     -13.759   8.080  71.858  1.00  0.00    -0.323 C  
HETATM    2  N   UNL     1     -14.042   9.410  72.379  1.00  0.00    -0.542 NA 
HETATM    3  H   UNL     1     -14.210   9.390  73.385  1.00  0.00     0.000 HD 
ENDROOT
BRANCH   2   4
HETATM    4  C   UNL     1     -12.981  10.356  72.032  1.00  0.00    -0.396 C  
BRANCH   4   5
HETATM    5  C   UNL     1     -12.386   9.967  70.673  1.00  0.00    -0.342 C  
BRANCH   5   6
HETATM    6  C   UNL     1     -10.848  10.018  70.696  1.00  0.00    -0.367 C  
BRANCH   6   7
HETATM    7  C   UNL     1     -10.142   9.893  69.319  1.00  0.00    -0.214 C  
HETATM    8  C   UNL     1      -8.595  10.145  69.461  1.00  0.00    -0.177 C  
HETATM    9  C   UNL     1      -7.870  10.066  68.086  1.00  0.00    -0.089 C  
HETATM   10  C   UNL     1      -8.885   9.746  66.973  1.00  0.00    -0.145 C  
HETATM   11  C   UNL     1      -9.929  10.859  67.032  1.00  0.00    -0.227 A  
HETATM   12  C   UNL     1      -9.569   8.447  67.380  1.00  0.00    -0.202 A  
HETATM   13  C   UNL     1     -10.225  11.720  65.981  1.00  0.00    -0.265 A  
HETATM   14  C   UNL     1      -9.554   7.279  66.623  1.00  0.00    -0.236 A  
HETATM   15  C   UNL     1     -10.255   6.167  67.088  1.00  0.00    -0.246 A  
HETATM   16  C   UNL     1     -11.204  12.692  66.168  1.00  0.00    -0.350 A  
HETATM   17  C   UNL     1     -11.878  12.797  67.392  1.00  0.00    -0.404 A  
HETATM   18  C   UNL     1     -10.986   6.238  68.279  1.00  0.00    -0.408 A  
HETATM   19  C   UNL     1     -11.017   7.418  69.029  1.00  0.00    -0.035 A  
HETATM   20  C   UNL     1     -11.585  11.928  68.450  1.00  0.00    -0.376 A  
HETATM   21  C   UNL     1     -10.276   8.520  68.612  1.00  0.00    -0.217 A  
HETATM   22  C   UNL     1     -10.605  10.955  68.280  1.00  0.00    -0.223 A  
ENDBRANCH   6   7
ENDBRANCH   5   6
ENDBRANCH   4   5
ENDBRANCH   2   4
TORSDOF 4
ENDMDL
MODEL       80
REMARK 921   NORMALIZED FREE ENERGY PREDICTED BY IDOCK:   -4.12 KCAL/MOL
REMARK 922        TOTAL FREE ENERGY PREDICTED BY IDOCK:   -5.67 KCAL/MOL
REMARK 923 INTER-LIGAND FREE ENERGY PREDICTED BY IDOCK:   -5.20 KCAL/MOL
REMARK 924 INTRA-LIGAND FREE ENERGY PREDICTED BY IDOCK:   -0.47 KCAL/MOL
REMARK 927      BINDING AFFINITY PREDICTED BY RF-SCORE:    0.00 PKD
ROOT
HETATM    1  C   UNL     1     -12.527  13.749  70.628  1.00  0.00    -0.359 C  
HETATM    2  N   UNL     1     -11.315  14.009  69.864  1.00  0.00    -0.444 NA 
HETATM    3  H   UNL     1     -10.553  13.395  70.150  1.00  0.00     0.000 HD 
ENDROOT
BRANCH   2   4
HETATM    4  C   UNL     1     -11.562  13.921  68.424  1.00  0.00    -0.332 C  
BRANCH   4   5
HETATM    5  C   UNL     1     -11.380  12.467  67.972  1.00  0.00    -0.339 C  
BRANCH   5   6
HETATM    6  C   UNL     1     -10.076  11.864  68.526  1.00  0.00    -0.211 C  
BRANCH   6   7
HETATM    7  C   UNL     1      -9.962  10.317  68.464  1.00  0.00    -0.177 C  
HETATM    8  C   UNL     1     -10.634   9.762  67.154  1.00  0.00    -0.298 C  
HETATM    9  C   UNL     1     -10.571   8.208  67.088  1.00  0.00    -0.355 C  
HETATM   10  C   UNL     1      -9.846   7.657  68.331  1.00  0.00    -0.176 C  
HETATM   11  C   UNL     1     -10.638   8.169  69.532  1.00  0.00    -0.215 A  
HETATM   12  C   UNL     1      -8.477   8.326  68.359  1.00  0.00    -0.129 A  
HETATM   13  C   UNL     1     -11.242   7.356  70.484  1.00  0.00    -0.296 A  
HETATM   14  C   UNL     1      -7.266   7.641  68.316  1.00  0.00    -0.093 A  
HETATM   15  C   UNL     1      -6.080   8.369  68.390  1.00  0.00    -0.046 A  
HETATM   16  C   UNL     1     -11.934   7.955  71.534  1.00  0.00    -0.333 A  
HETATM   17  C   UNL     1     -12.016   9.350  71.628  1.00  0.00    -0.465 A  
HETATM   18  C   UNL     1      -6.110   9.761  68.536  1.00  0.00    -0.042 A  
HETATM   19  C   UNL     1      -7.328  10.447  68.598  1.00  0.00    -0.085 A  
HETATM   20  C   UNL     1     -11.405  10.171  70.672  1.00  0.00    -0.433 A  
HETATM   21  C   UNL     1      -8.523   9.743  68.467  1.00  0.00    -0.115 A  
HETATM   22  C   UNL     1     -10.715   9.588  69.614  1.00  0.00    -0.257 A  
ENDBRANCH   6   7
ENDBRANCH   5   6
ENDBRANCH   4   5
ENDBRANCH   2   4
TORSDOF 4
ENDMDL
MODEL       81
REMARK 921   NORMALIZED FREE ENERGY PREDICTED BY IDOCK:   -4.10 KCAL/MOL
REMARK 922        TOTAL FREE ENERGY PREDICTED BY IDOCK:   -5.65 KCAL/MOL
REMARK 923 INTER-LIGAND FREE ENERGY PREDICTED BY IDOCK:   -5.20 KCAL/MOL
REMARK 924 INTRA-LIGAND FREE ENERGY PREDICTED BY IDOCK:   -0.45 KCAL/MOL
REMARK 927      BINDING AFFINITY PREDICTED BY RF-SCORE:    0.00 PKD
ROOT
HETATM    1  C   UNL     1     -12.979  12.178  63.267  1.00  0.00    -0.017 C  
HETATM    2  N   UNL     1     -12.499  13.537  63.059  1.00  0.00    -0.925 NA 
HETATM    3  H   UNL     1     -13.174  14.097  62.540  1.00  0.00     0.000 HD 
ENDROOT
BRANCH   2   4
HETATM    4  C   UNL     1     -12.136  14.174  64.326  1.00  0.00    -0.444 C  
BRANCH   4   5
HETATM    5  C   UNL     1     -11.982  13.096  65.405  1.00  0.00    -0.448 C  
BRANCH   5   6
HETATM    6  C   UNL     1     -10.585  13.138  66.050  1.00  0.00    -0.291 C  
BRANCH   6   7
HETATM    7  C   UNL     1     -10.010  11.773  66.517  1.00  0.00    -0.229 C  
HETATM    8  C   UNL     1     -11.085  10.968  67.336  1.00  0.00    -0.370 C  
HETATM    9  C   UNL     1     -10.519   9.613  67.853  1.00  0.00    -0.296 C  
HETATM   10  C   UNL     1      -9.058   9.444  67.395  1.00  0.00    -0.141 C  
HETATM   11  C   UNL     1      -8.307  10.653  67.950  1.00  0.00    -0.120 A  
HETATM   12  C   UNL     1      -9.070   9.563  65.876  1.00  0.00    -0.230 A  
HETATM   13  C   UNL     1      -7.226  10.578  68.821  1.00  0.00    -0.084 A  
HETATM   14  C   UNL     1      -8.636   8.568  65.005  1.00  0.00    -0.162 A  
HETATM   15  C   UNL     1      -8.660   8.818  63.634  1.00  0.00    -0.058 A  
HETATM   16  C   UNL     1      -6.630  11.762  69.249  1.00  0.00    -0.112 A  
HETATM   17  C   UNL     1      -7.112  13.001  68.809  1.00  0.00    -0.097 A  
HETATM   18  C   UNL     1      -9.084  10.059  63.147  1.00  0.00    -0.296 A  
HETATM   19  C   UNL     1      -9.502  11.066  64.024  1.00  0.00    -0.278 A  
HETATM   20  C   UNL     1      -8.198  13.078  67.929  1.00  0.00    -0.166 A  
HETATM   21  C   UNL     1      -9.541  10.816  65.393  1.00  0.00    -0.272 A  
HETATM   22  C   UNL     1      -8.808  11.905  67.496  1.00  0.00    -0.169 A  
ENDBRANCH   6   7
ENDBRANCH   5   6
ENDBRANCH   4   5
ENDBRANCH   2   4
TORSDOF 4
ENDMDL
MODEL       82
REMARK 921   NORMALIZED FREE ENERGY PREDICTED BY IDOCK:   -4.09 KCAL/MOL
REMARK 922        TOTAL FREE ENERGY PREDICTED BY IDOCK:   -5.63 KCAL/MOL
REMARK 923 INTER-LIGAND FREE ENERGY PREDICTED BY IDOCK:   -5.77 KCAL/MOL
REMARK 924 INTRA-LIGAND FREE ENERGY PREDICTED BY IDOCK:    0.13 KCAL/MOL
REMARK 927      BINDING AFFINITY PREDICTED BY RF-SCORE:    0.00 PKD
ROOT
HETATM    1  C   UNL     1     -11.597  14.609  68.695  1.00  0.00    -0.314 C  
HETATM    2  N   UNL     1     -12.381  14.434  67.481  1.00  0.00    -0.600 NA 
HETATM    3  H   UNL     1     -12.466  15.308  66.962  1.00  0.00     0.000 HD 
ENDROOT
BRANCH   2   4
HETATM    4  C   UNL     1     -11.837  13.363  66.644  1.00  0.00    -0.395 C  
BRANCH   4   5
HETATM    5  C   UNL     1     -10.811  12.564  67.455  1.00  0.00    -0.272 C  
BRANCH   5   6
HETATM    6  C   UNL     1     -10.948  11.051  67.203  1.00  0.00    -0.344 C  
BRANCH   6   7
HETATM    7  C   UNL     1     -10.334  10.123  68.285  1.00  0.00    -0.215 C  
HETATM    8  C   UNL     1     -10.237   8.643  67.758  1.00  0.00    -0.282 C  
HETATM    9  C   UNL     1      -9.663   7.682  68.840  1.00  0.00    -0.156 C  
HETATM   10  C   UNL     1      -9.339   8.469  70.124  1.00  0.00    -0.164 C  
HETATM   11  C   UNL     1     -10.650   9.128  70.548  1.00  0.00    -0.287 A  
HETATM   12  C   UNL     1      -8.375   9.577  69.715  1.00  0.00    -0.170 A  
HETATM   13  C   UNL     1     -11.282   8.915  71.768  1.00  0.00    -0.432 A  
HETATM   14  C   UNL     1      -7.092   9.733  70.230  1.00  0.00    -0.145 A  
HETATM   15  C   UNL     1      -6.323  10.814  69.802  1.00  0.00    -0.104 A  
HETATM   16  C   UNL     1     -12.475   9.584  72.029  1.00  0.00    -0.427 A  
HETATM   17  C   UNL     1     -13.025  10.455  71.079  1.00  0.00    -0.490 A  
HETATM   18  C   UNL     1      -6.847  11.741  68.894  1.00  0.00    -0.102 A  
HETATM   19  C   UNL     1      -8.143  11.594  68.391  1.00  0.00    -0.153 A  
HETATM   20  C   UNL     1     -12.388  10.674  69.852  1.00  0.00    -0.304 A  
HETATM   21  C   UNL     1      -8.906  10.489  68.761  1.00  0.00    -0.158 A  
HETATM   22  C   UNL     1     -11.198  10.009  69.574  1.00  0.00    -0.254 A  
ENDBRANCH   6   7
ENDBRANCH   5   6
ENDBRANCH   4   5
ENDBRANCH   2   4
TORSDOF 4
ENDMDL
MODEL       83
REMARK 921   NORMALIZED FREE ENERGY PREDICTED BY IDOCK:   -4.07 KCAL/MOL
REMARK 922        TOTAL FREE ENERGY PREDICTED BY IDOCK:   -5.60 KCAL/MOL
REMARK 923 INTER-LIGAND FREE ENERGY PREDICTED BY IDOCK:   -5.17 KCAL/MOL
REMARK 924 INTRA-LIGAND FREE ENERGY PREDICTED BY IDOCK:   -0.43 KCAL/MOL
REMARK 927      BINDING AFFINITY PREDICTED BY RF-SCORE:    0.00 PKD
ROOT
HETATM    1  C   UNL     1      -8.675   4.994  65.118  1.00  0.00    -0.150 C  
HETATM    2  N   UNL     1      -7.978   6.110  65.741  1.00  0.00    -0.109 NA 
HETATM    3  H   UNL     1      -7.220   5.788  66.343  1.00  0.00     0.000 HD 
ENDROOT
BRANCH   2   4
HETATM    4  C   UNL     1      -7.499   7.065  64.741  1.00  0.00    -0.096 C  
BRANCH   4   5
HETATM    5  C   UNL     1      -7.597   8.483  65.316  1.00  0.00    -0.089 C  
BRANCH   5   6
HETATM    6  C   UNL     1      -8.980   9.105  65.052  1.00  0.00    -0.221 C  
BRANCH   6   7
HETATM    7  C   UNL     1      -9.366  10.313  65.948  1.00  0.00    -0.226 C  
HETATM    8  C   UNL     1      -8.093  11.164  66.311  1.00  0.00    -0.142 C  
HETATM    9  C   UNL     1      -8.447  12.359  67.244  1.00  0.00    -0.183 C  
HETATM   10  C   UNL     1      -9.959  12.371  67.534  1.00  0.00    -0.196 C  
HETATM   11  C   UNL     1     -10.272  11.014  68.161  1.00  0.00    -0.201 A  
HETATM   12  C   UNL     1     -10.653  12.427  66.178  1.00  0.00    -0.283 A  
HETATM   13  C   UNL     1     -10.820  10.836  69.425  1.00  0.00    -0.289 A  
HETATM   14  C   UNL     1     -11.516  13.443  65.777  1.00  0.00    -0.341 A  
HETATM   15  C   UNL     1     -12.120  13.355  64.524  1.00  0.00    -0.457 A  
HETATM   16  C   UNL     1     -11.059   9.540  69.875  1.00  0.00    -0.244 A  
HETATM   17  C   UNL     1     -10.752   8.438  69.066  1.00  0.00    -0.101 A  
HETATM   18  C   UNL     1     -11.885  12.249  63.700  1.00  0.00    -0.610 A  
HETATM   19  C   UNL     1     -11.034  11.219  64.111  1.00  0.00    -0.376 A  
HETATM   20  C   UNL     1     -10.203   8.615  67.790  1.00  0.00    -0.282 A  
HETATM   21  C   UNL     1     -10.375  11.316  65.335  1.00  0.00    -0.328 A  
HETATM   22  C   UNL     1      -9.955   9.904  67.328  1.00  0.00    -0.245 A  
ENDBRANCH   6   7
ENDBRANCH   5   6
ENDBRANCH   4   5
ENDBRANCH   2   4
TORSDOF 4
ENDMDL
MODEL       84
REMARK 921   NORMALIZED FREE ENERGY PREDICTED BY IDOCK:   -4.02 KCAL/MOL
REMARK 922        TOTAL FREE ENERGY PREDICTED BY IDOCK:   -5.55 KCAL/MOL
REMARK 923 INTER-LIGAND FREE ENERGY PREDICTED BY IDOCK:   -5.67 KCAL/MOL
REMARK 924 INTRA-LIGAND FREE ENERGY PREDICTED BY IDOCK:    0.13 KCAL/MOL
REMARK 927      BINDING AFFINITY PREDICTED BY RF-SCORE:    0.00 PKD
ROOT
HETATM    1  C   UNL     1     -12.087  10.991  70.081  1.00  0.00    -0.356 C  
HETATM    2  N   UNL     1     -13.100  10.080  70.594  1.00  0.00    -0.590 NA 
HETATM    3  H   UNL     1     -13.458   9.468  69.860  1.00  0.00     0.000 HD 
ENDROOT
BRANCH   2   4
HETATM    4  C   UNL     1     -12.600   9.313  71.736  1.00  0.00    -0.382 C  
BRANCH   4   5
HETATM    5  C   UNL     1     -12.047   7.973  71.237  1.00  0.00    -0.314 C  
BRANCH   5   6
HETATM    6  C   UNL     1     -10.515   7.910  71.372  1.00  0.00    -0.242 C  
BRANCH   6   7
HETATM    7  C   UNL     1      -9.856   6.548  71.022  1.00  0.00    -0.196 C  
HETATM    8  C   UNL     1      -8.293   6.629  71.187  1.00  0.00    -0.125 C  
HETATM    9  C   UNL     1      -7.604   5.287  70.801  1.00  0.00    -0.083 C  
HETATM   10  C   UNL     1      -8.664   4.253  70.379  1.00  0.00    -0.118 C  
HETATM   11  C   UNL     1      -9.423   4.888  69.215  1.00  0.00    -0.206 A  
HETATM   12  C   UNL     1      -9.632   4.130  71.550  1.00  0.00    -0.238 A  
HETATM   13  C   UNL     1      -9.509   4.345  67.939  1.00  0.00    -0.209 A  
HETATM   14  C   UNL     1      -9.886   2.948  72.240  1.00  0.00    -0.234 A  
HETATM   15  C   UNL     1     -10.826   2.960  73.269  1.00  0.00    -0.279 A  
HETATM   16  C   UNL     1     -10.237   5.028  66.968  1.00  0.00    -0.253 A  
HETATM   17  C   UNL     1     -10.870   6.240  67.275  1.00  0.00    -0.457 A  
HETATM   18  C   UNL     1     -11.522   4.133  73.579  1.00  0.00    -0.228 A  
HETATM   19  C   UNL     1     -11.280   5.316  72.873  1.00  0.00    -0.375 A  
HETATM   20  C   UNL     1     -10.787   6.787  68.561  1.00  0.00    -0.280 A  
HETATM   21  C   UNL     1     -10.303   5.339  71.881  1.00  0.00    -0.275 A  
HETATM   22  C   UNL     1     -10.059   6.119  69.541  1.00  0.00    -0.232 A  
ENDBRANCH   6   7
ENDBRANCH   5   6
ENDBRANCH   4   5
ENDBRANCH   2   4
TORSDOF 4
ENDMDL
MODEL       85
REMARK 921   NORMALIZED FREE ENERGY PREDICTED BY IDOCK:   -4.01 KCAL/MOL
REMARK 922        TOTAL FREE ENERGY PREDICTED BY IDOCK:   -5.53 KCAL/MOL
REMARK 923 INTER-LIGAND FREE ENERGY PREDICTED BY IDOCK:   -5.00 KCAL/MOL
REMARK 924 INTRA-LIGAND FREE ENERGY PREDICTED BY IDOCK:   -0.54 KCAL/MOL
REMARK 927      BINDING AFFINITY PREDICTED BY RF-SCORE:    0.00 PKD
ROOT
HETATM    1  C   UNL     1     -13.875   8.916  72.419  1.00  0.00    -0.454 C  
HETATM    2  N   UNL     1     -12.493   9.299  72.171  1.00  0.00    -0.367 NA 
HETATM    3  H   UNL     1     -12.265  10.188  72.617  1.00  0.00     0.000 HD 
ENDROOT
BRANCH   2   4
HETATM    4  C   UNL     1     -11.565   8.242  72.580  1.00  0.00    -0.385 C  
BRANCH   4   5
HETATM    5  C   UNL     1     -10.716   7.826  71.374  1.00  0.00    -0.250 C  
BRANCH   5   6
HETATM    6  C   UNL     1     -11.161   8.554  70.092  1.00  0.00    -0.192 C  
BRANCH   6   7
HETATM    7  C   UNL     1     -10.066   9.377  69.361  1.00  0.00    -0.204 C  
HETATM    8  C   UNL     1      -8.777   9.504  70.255  1.00  0.00    -0.270 C  
HETATM    9  C   UNL     1      -7.678  10.362  69.561  1.00  0.00    -0.159 C  
HETATM   10  C   UNL     1      -8.170  10.830  68.179  1.00  0.00    -0.119 C  
HETATM   11  C   UNL     1      -9.457  11.611  68.440  1.00  0.00    -0.193 A  
HETATM   12  C   UNL     1      -8.541   9.569  67.407  1.00  0.00    -0.125 A  
HETATM   13  C   UNL     1      -9.654  12.943  68.098  1.00  0.00    -0.223 A  
HETATM   14  C   UNL     1      -7.961   9.185  66.202  1.00  0.00    -0.103 A  
HETATM   15  C   UNL     1      -8.419   8.027  65.575  1.00  0.00    -0.159 A  
HETATM   16  C   UNL     1     -10.880  13.535  68.392  1.00  0.00    -0.286 A  
HETATM   17  C   UNL     1     -11.894  12.798  69.018  1.00  0.00    -0.344 A  
HETATM   18  C   UNL     1      -9.465   7.285  66.134  1.00  0.00    -0.064 A  
HETATM   19  C   UNL     1     -10.061   7.682  67.336  1.00  0.00    -0.287 A  
HETATM   20  C   UNL     1     -11.699  11.454  69.358  1.00  0.00    -0.406 A  
HETATM   21  C   UNL     1      -9.578   8.802  68.007  1.00  0.00    -0.160 A  
HETATM   22  C   UNL     1     -10.477  10.850  69.077  1.00  0.00    -0.244 A  
ENDBRANCH   6   7
ENDBRANCH   5   6
ENDBRANCH   4   5
ENDBRANCH   2   4
TORSDOF 4
ENDMDL
MODEL       86
REMARK 921   NORMALIZED FREE ENERGY PREDICTED BY IDOCK:   -4.01 KCAL/MOL
REMARK 922        TOTAL FREE ENERGY PREDICTED BY IDOCK:   -5.53 KCAL/MOL
REMARK 923 INTER-LIGAND FREE ENERGY PREDICTED BY IDOCK:   -5.13 KCAL/MOL
REMARK 924 INTRA-LIGAND FREE ENERGY PREDICTED BY IDOCK:   -0.40 KCAL/MOL
REMARK 927      BINDING AFFINITY PREDICTED BY RF-SCORE:    0.00 PKD
ROOT
HETATM    1  C   UNL     1      -7.415  19.698  69.079  1.00  0.00    -0.310 C  
HETATM    2  N   UNL     1      -6.997  18.640  68.171  1.00  0.00    -0.238 NA 
HETATM    3  H   UNL     1      -6.312  18.023  68.607  1.00  0.00     0.000 HD 
ENDROOT
BRANCH   2   4
HETATM    4  C   UNL     1      -8.146  17.889  67.661  1.00  0.00    -0.224 C  
BRANCH   4   5
HETATM    5  C   UNL     1      -7.949  16.401  67.969  1.00  0.00    -0.159 C  
BRANCH   5   6
HETATM    6  C   UNL     1      -8.430  15.515  66.804  1.00  0.00    -0.314 C  
BRANCH   6   7
HETATM    7  C   UNL     1      -9.380  14.348  67.184  1.00  0.00    -0.226 C  
HETATM    8  C   UNL     1     -10.181  14.687  68.495  1.00  0.00    -0.240 C  
HETATM    9  C   UNL     1     -11.111  13.513  68.921  1.00  0.00    -0.305 C  
HETATM   10  C   UNL     1     -10.987  12.352  67.917  1.00  0.00    -0.266 C  
HETATM   11  C   UNL     1      -9.509  11.967  67.909  1.00  0.00    -0.196 A  
HETATM   12  C   UNL     1     -11.322  12.933  66.549  1.00  0.00    -0.361 A  
HETATM   13  C   UNL     1      -9.019  10.708  68.237  1.00  0.00    -0.143 A  
HETATM   14  C   UNL     1     -12.363  12.488  65.739  1.00  0.00    -0.227 A  
HETATM   15  C   UNL     1     -12.539  13.077  64.488  1.00  0.00    -0.387 A  
HETATM   16  C   UNL     1      -7.644  10.490  68.186  1.00  0.00    -0.091 A  
HETATM   17  C   UNL     1      -6.775  11.522  67.809  1.00  0.00    -0.072 A  
HETATM   18  C   UNL     1     -11.665  14.075  64.045  1.00  0.00    -0.276 A  
HETATM   19  C   UNL     1     -10.607  14.509  64.851  1.00  0.00    -0.450 A  
HETATM   20  C   UNL     1      -7.266  12.789  67.475  1.00  0.00    -0.154 A  
HETATM   21  C   UNL     1     -10.450  13.974  66.128  1.00  0.00    -0.297 A  
HETATM   22  C   UNL     1      -8.637  13.024  67.526  1.00  0.00    -0.192 A  
ENDBRANCH   6   7
ENDBRANCH   5   6
ENDBRANCH   4   5
ENDBRANCH   2   4
TORSDOF 4
ENDMDL
MODEL       87
REMARK 921   NORMALIZED FREE ENERGY PREDICTED BY IDOCK:   -4.01 KCAL/MOL
REMARK 922        TOTAL FREE ENERGY PREDICTED BY IDOCK:   -5.53 KCAL/MOL
REMARK 923 INTER-LIGAND FREE ENERGY PREDICTED BY IDOCK:   -5.04 KCAL/MOL
REMARK 924 INTRA-LIGAND FREE ENERGY PREDICTED BY IDOCK:   -0.49 KCAL/MOL
REMARK 927      BINDING AFFINITY PREDICTED BY RF-SCORE:    0.00 PKD
ROOT
HETATM    1  C   UNL     1      -8.922   4.705  64.347  1.00  0.00    -0.142 C  
HETATM    2  N   UNL     1      -8.741   5.621  65.464  1.00  0.00    -0.154 NA 
HETATM    3  H   UNL     1      -8.552   5.120  66.332  1.00  0.00     0.000 HD 
ENDROOT
BRANCH   2   4
HETATM    4  C   UNL     1      -7.700   6.610  65.179  1.00  0.00    -0.101 C  
BRANCH   4   5
HETATM    5  C   UNL     1      -7.804   7.754  66.194  1.00  0.00    -0.095 C  
BRANCH   5   6
HETATM    6  C   UNL     1      -9.242   8.298  66.286  1.00  0.00    -0.258 C  
BRANCH   6   7
HETATM    7  C   UNL     1      -9.602   9.051  67.595  1.00  0.00    -0.183 C  
HETATM    8  C   UNL     1      -8.299   9.477  68.368  1.00  0.00    -0.118 C  
HETATM    9  C   UNL     1      -8.633  10.198  69.707  1.00  0.00    -0.148 C  
HETATM   10  C   UNL     1     -10.160  10.301  69.882  1.00  0.00    -0.219 C  
HETATM   11  C   UNL     1     -10.680   8.866  69.834  1.00  0.00    -0.236 A  
HETATM   12  C   UNL     1     -10.684  11.026  68.648  1.00  0.00    -0.234 A  
HETATM   13  C   UNL     1     -11.386   8.248  70.859  1.00  0.00    -0.292 A  
HETATM   14  C   UNL     1     -11.385  12.228  68.680  1.00  0.00    -0.339 A  
HETATM   15  C   UNL     1     -11.847  12.768  67.481  1.00  0.00    -0.402 A  
HETATM   16  C   UNL     1     -11.806   6.932  70.683  1.00  0.00    -0.418 A  
HETATM   17  C   UNL     1     -11.523   6.247  69.494  1.00  0.00    -0.387 A  
HETATM   18  C   UNL     1     -11.634  12.096  66.272  1.00  0.00    -0.424 A  
HETATM   19  C   UNL     1     -10.946  10.879  66.243  1.00  0.00    -0.130 A  
HETATM   20  C   UNL     1     -10.816   6.870  68.459  1.00  0.00    -0.234 A  
HETATM   21  C   UNL     1     -10.426  10.352  67.422  1.00  0.00    -0.299 A  
HETATM   22  C   UNL     1     -10.384   8.183  68.621  1.00  0.00    -0.224 A  
ENDBRANCH   6   7
ENDBRANCH   5   6
ENDBRANCH   4   5
ENDBRANCH   2   4
TORSDOF 4
ENDMDL
MODEL       88
REMARK 921   NORMALIZED FREE ENERGY PREDICTED BY IDOCK:   -4.00 KCAL/MOL
REMARK 922        TOTAL FREE ENERGY PREDICTED BY IDOCK:   -5.52 KCAL/MOL
REMARK 923 INTER-LIGAND FREE ENERGY PREDICTED BY IDOCK:   -5.06 KCAL/MOL
REMARK 924 INTRA-LIGAND FREE ENERGY PREDICTED BY IDOCK:   -0.46 KCAL/MOL
REMARK 927      BINDING AFFINITY PREDICTED BY RF-SCORE:    0.00 PKD
ROOT
HETATM    1  C   UNL     1     -12.605  11.970  63.353  1.00  0.00    -0.469 C  
HETATM    2  N   UNL     1     -13.137  12.598  64.554  1.00  0.00    -0.820 NA 
HETATM    3  H   UNL     1     -13.877  12.035  64.974  1.00  0.00     0.000 HD 
ENDROOT
BRANCH   2   4
HETATM    4  C   UNL     1     -12.075  12.892  65.517  1.00  0.00    -0.458 C  
BRANCH   4   5
HETATM    5  C   UNL     1     -11.184  11.655  65.675  1.00  0.00    -0.275 C  
BRANCH   5   6
HETATM    6  C   UNL     1     -10.945  11.317  67.158  1.00  0.00    -0.348 C  
BRANCH   6   7
HETATM    7  C   UNL     1      -9.476  11.410  67.650  1.00  0.00    -0.165 C  
HETATM    8  C   UNL     1      -8.483  10.923  66.531  1.00  0.00    -0.159 C  
HETATM    9  C   UNL     1      -7.004  10.967  67.014  1.00  0.00    -0.105 C  
HETATM   10  C   UNL     1      -6.938  11.494  68.460  1.00  0.00    -0.083 C  
HETATM   11  C   UNL     1      -7.806  10.546  69.286  1.00  0.00    -0.144 A  
HETATM   12  C   UNL     1      -7.620  12.857  68.450  1.00  0.00    -0.133 A  
HETATM   13  C   UNL     1      -7.351   9.796  70.364  1.00  0.00    -0.151 A  
HETATM   14  C   UNL     1      -7.001  14.048  68.818  1.00  0.00    -0.106 A  
HETATM   15  C   UNL     1      -7.749  15.225  68.804  1.00  0.00    -0.147 A  
HETATM   16  C   UNL     1      -8.252   8.972  71.034  1.00  0.00    -0.220 A  
HETATM   17  C   UNL     1      -9.591   8.903  70.627  1.00  0.00    -0.262 A  
HETATM   18  C   UNL     1      -9.103  15.200  68.456  1.00  0.00    -0.191 A  
HETATM   19  C   UNL     1      -9.729  13.999  68.104  1.00  0.00    -0.220 A  
HETATM   20  C   UNL     1     -10.052   9.661  69.545  1.00  0.00    -0.223 A  
HETATM   21  C   UNL     1      -8.986  12.823  68.055  1.00  0.00    -0.196 A  
HETATM   22  C   UNL     1      -9.163  10.486  68.862  1.00  0.00    -0.188 A  
ENDBRANCH   6   7
ENDBRANCH   5   6
ENDBRANCH   4   5
ENDBRANCH   2   4
TORSDOF 4
ENDMDL
MODEL       89
REMARK 921   NORMALIZED FREE ENERGY PREDICTED BY IDOCK:   -4.00 KCAL/MOL
REMARK 922        TOTAL FREE ENERGY PREDICTED BY IDOCK:   -5.52 KCAL/MOL
REMARK 923 INTER-LIGAND FREE ENERGY PREDICTED BY IDOCK:   -5.32 KCAL/MOL
REMARK 924 INTRA-LIGAND FREE ENERGY PREDICTED BY IDOCK:   -0.20 KCAL/MOL
REMARK 927      BINDING AFFINITY PREDICTED BY RF-SCORE:    0.00 PKD
ROOT
HETATM    1  C   UNL     1     -12.398  13.494  66.255  1.00  0.00    -0.383 C  
HETATM    2  N   UNL     1     -11.486  12.951  67.251  1.00  0.00    -0.316 NA 
HETATM    3  H   UNL     1     -10.513  13.125  67.001  1.00  0.00     0.000 HD 
ENDROOT
BRANCH   2   4
HETATM    4  C   UNL     1     -11.794  13.458  68.590  1.00  0.00    -0.362 C  
BRANCH   4   5
HETATM    5  C   UNL     1     -11.728  14.989  68.574  1.00  0.00    -0.345 C  
BRANCH   5   6
HETATM    6  C   UNL     1     -10.388  15.502  69.134  1.00  0.00    -0.237 C  
BRANCH   6   7
HETATM    7  C   UNL     1      -9.423  16.150  68.105  1.00  0.00    -0.209 C  
HETATM    8  C   UNL     1      -9.650  15.543  66.671  1.00  0.00    -0.273 C  
HETATM    9  C   UNL     1      -8.665  16.147  65.628  1.00  0.00     0.408 C  
HETATM   10  C   UNL     1      -7.752  17.186  66.306  1.00  0.00    -0.350 C  
HETATM   11  C   UNL     1      -7.041  16.440  67.433  1.00  0.00    -0.190 A  
HETATM   12  C   UNL     1      -8.677  18.217  66.943  1.00  0.00    -0.267 A  
HETATM   13  C   UNL     1      -5.662  16.305  67.544  1.00  0.00    -0.179 A  
HETATM   14  C   UNL     1      -8.676  19.573  66.633  1.00  0.00    -0.377 A  
HETATM   15  C   UNL     1      -9.546  20.420  67.318  1.00  0.00    -0.592 A  
HETATM   16  C   UNL     1      -5.143  15.600  68.627  1.00  0.00    -0.093 A  
HETATM   17  C   UNL     1      -5.997  15.039  69.585  1.00  0.00    -0.116 A  
HETATM   18  C   UNL     1     -10.381  19.916  68.321  1.00  0.00    -0.526 A  
HETATM   19  C   UNL     1     -10.369  18.556  68.645  1.00  0.00    -0.271 A  
HETATM   20  C   UNL     1      -7.386  15.178  69.478  1.00  0.00    -0.210 A  
HETATM   21  C   UNL     1      -9.549  17.685  67.932  1.00  0.00    -0.282 A  
HETATM   22  C   UNL     1      -7.921  15.875  68.399  1.00  0.00    -0.147 A  
ENDBRANCH   6   7
ENDBRANCH   5   6
ENDBRANCH   4   5
ENDBRANCH   2   4
TORSDOF 4
ENDMDL
MODEL       90
REMARK 921   NORMALIZED FREE ENERGY PREDICTED BY IDOCK:   -3.98 KCAL/MOL
REMARK 922        TOTAL FREE ENERGY PREDICTED BY IDOCK:   -5.50 KCAL/MOL
REMARK 923 INTER-LIGAND FREE ENERGY PREDICTED BY IDOCK:   -5.05 KCAL/MOL
REMARK 924 INTRA-LIGAND FREE ENERGY PREDICTED BY IDOCK:   -0.45 KCAL/MOL
REMARK 927      BINDING AFFINITY PREDICTED BY RF-SCORE:    0.00 PKD
ROOT
HETATM    1  C   UNL     1     -10.877  16.307  65.041  1.00  0.00    -0.320 C  
HETATM    2  N   UNL     1     -10.939  14.924  64.592  1.00  0.00    -0.607 NA 
HETATM    3  H   UNL     1     -10.123  14.394  64.900  1.00  0.00     0.000 HD 
ENDROOT
BRANCH   2   4
HETATM    4  C   UNL     1     -12.185  14.281  65.012  1.00  0.00    -0.433 C  
BRANCH   4   5
HETATM    5  C   UNL     1     -11.860  12.931  65.660  1.00  0.00    -0.464 C  
BRANCH   5   6
HETATM    6  C   UNL     1     -10.373  12.835  66.049  1.00  0.00    -0.291 C  
BRANCH   6   7
HETATM    7  C   UNL     1      -9.779  11.403  66.121  1.00  0.00    -0.248 C  
HETATM    8  C   UNL     1     -10.803  10.408  66.783  1.00  0.00    -0.186 C  
HETATM    9  C   UNL     1     -10.215   8.972  66.906  1.00  0.00    -0.339 C  
HETATM   10  C   UNL     1      -8.789   8.936  66.323  1.00  0.00    -0.187 C  
HETATM   11  C   UNL     1      -7.993   9.974  67.112  1.00  0.00    -0.109 A  
HETATM   12  C   UNL     1      -8.902   9.431  64.886  1.00  0.00    -0.240 A  
HETATM   13  C   UNL     1      -6.857   9.695  67.862  1.00  0.00    -0.074 A  
HETATM   14  C   UNL     1      -8.536   8.689  63.767  1.00  0.00    -0.066 A  
HETATM   15  C   UNL     1      -8.650   9.273  62.507  1.00  0.00    -0.226 A  
HETATM   16  C   UNL     1      -6.224  10.739  68.531  1.00  0.00    -0.046 A  
HETATM   17  C   UNL     1      -6.724  12.045  68.448  1.00  0.00    -0.065 A  
HETATM   18  C   UNL     1      -9.095  10.593  62.376  1.00  0.00    -0.322 A  
HETATM   19  C   UNL     1      -9.445  11.345  63.502  1.00  0.00    -0.255 A  
HETATM   20  C   UNL     1      -7.866  12.329  67.690  1.00  0.00    -0.156 A  
HETATM   21  C   UNL     1      -9.394  10.760  64.764  1.00  0.00    -0.264 A  
HETATM   22  C   UNL     1      -8.513  11.296  67.019  1.00  0.00    -0.150 A  
ENDBRANCH   6   7
ENDBRANCH   5   6
ENDBRANCH   4   5
ENDBRANCH   2   4
TORSDOF 4
ENDMDL
MODEL       91
REMARK 921   NORMALIZED FREE ENERGY PREDICTED BY IDOCK:   -3.98 KCAL/MOL
REMARK 922        TOTAL FREE ENERGY PREDICTED BY IDOCK:   -5.49 KCAL/MOL
REMARK 923 INTER-LIGAND FREE ENERGY PREDICTED BY IDOCK:   -5.52 KCAL/MOL
REMARK 924 INTRA-LIGAND FREE ENERGY PREDICTED BY IDOCK:    0.03 KCAL/MOL
REMARK 927      BINDING AFFINITY PREDICTED BY RF-SCORE:    0.00 PKD
ROOT
HETATM    1  C   UNL     1      -6.670  15.354  69.640  1.00  0.00    -0.184 C  
HETATM    2  N   UNL     1      -6.832  16.773  69.361  1.00  0.00    -0.228 NA 
HETATM    3  H   UNL     1      -5.964  17.286  69.513  1.00  0.00     0.000 HD 
ENDROOT
BRANCH   2   4
HETATM    4  C   UNL     1      -7.357  16.996  68.012  1.00  0.00    -0.180 C  
BRANCH   4   5
HETATM    5  C   UNL     1      -7.720  15.644  67.386  1.00  0.00    -0.215 C  
BRANCH   5   6
HETATM    6  C   UNL     1      -9.145  15.658  66.802  1.00  0.00    -0.281 C  
BRANCH   6   7
HETATM    7  C   UNL     1     -10.065  14.481  67.224  1.00  0.00    -0.247 C  
HETATM    8  C   UNL     1     -11.306  14.374  66.262  1.00  0.00    -0.350 C  
HETATM    9  C   UNL     1     -12.268  13.226  66.690  1.00  0.00    -0.359 C  
HETATM   10  C   UNL     1     -11.713  12.511  67.936  1.00  0.00    -0.416 C  
HETATM   11  C   UNL     1     -11.566  13.593  69.004  1.00  0.00    -0.356 A  
HETATM   12  C   UNL     1     -10.314  12.032  67.566  1.00  0.00    -0.217 A  
HETATM   13  C   UNL     1     -12.207  13.576  70.237  1.00  0.00    -0.417 A  
HETATM   14  C   UNL     1      -9.908  10.700  67.584  1.00  0.00    -0.191 A  
HETATM   15  C   UNL     1      -8.586  10.397  67.263  1.00  0.00    -0.126 A  
HETATM   16  C   UNL     1     -11.982  14.627  71.122  1.00  0.00    -0.405 A  
HETATM   17  C   UNL     1     -11.126  15.680  70.774  1.00  0.00    -0.382 A  
HETATM   18  C   UNL     1      -7.679  11.418  66.959  1.00  0.00    -0.154 A  
HETATM   19  C   UNL     1      -8.083  12.757  66.959  1.00  0.00    -0.072 A  
HETATM   20  C   UNL     1     -10.477  15.696  69.534  1.00  0.00    -0.270 A  
HETATM   21  C   UNL     1      -9.413  13.076  67.220  1.00  0.00    -0.224 A  
HETATM   22  C   UNL     1     -10.694  14.656  68.636  1.00  0.00    -0.252 A  
ENDBRANCH   6   7
ENDBRANCH   5   6
ENDBRANCH   4   5
ENDBRANCH   2   4
TORSDOF 4
ENDMDL
MODEL       92
REMARK 921   NORMALIZED FREE ENERGY PREDICTED BY IDOCK:   -3.97 KCAL/MOL
REMARK 922        TOTAL FREE ENERGY PREDICTED BY IDOCK:   -5.48 KCAL/MOL
REMARK 923 INTER-LIGAND FREE ENERGY PREDICTED BY IDOCK:   -5.58 KCAL/MOL
REMARK 924 INTRA-LIGAND FREE ENERGY PREDICTED BY IDOCK:    0.10 KCAL/MOL
REMARK 927      BINDING AFFINITY PREDICTED BY RF-SCORE:    0.00 PKD
ROOT
HETATM    1  C   UNL     1      -8.494  12.416  66.722  1.00  0.00    -0.095 C  
HETATM    2  N   UNL     1      -7.174  12.873  67.130  1.00  0.00    -0.361 NA 
HETATM    3  H   UNL     1      -6.703  13.374  66.377  1.00  0.00     0.000 HD 
ENDROOT
BRANCH   2   4
HETATM    4  C   UNL     1      -7.241  13.678  68.351  1.00  0.00    -0.109 C  
BRANCH   4   5
HETATM    5  C   UNL     1      -7.836  15.050  68.015  1.00  0.00    -0.129 C  
BRANCH   5   6
HETATM    6  C   UNL     1      -6.904  15.859  67.095  1.00  0.00    -0.199 C  
BRANCH   6   7
HETATM    7  C   UNL     1      -6.921  17.399  67.293  1.00  0.00    -0.194 C  
HETATM    8  C   UNL     1      -6.033  18.109  66.205  1.00  0.00    -0.228 C  
HETATM    9  C   UNL     1      -5.999  19.653  66.407  1.00  0.00    -0.170 C  
HETATM   10  C   UNL     1      -6.866  20.044  67.618  1.00  0.00    -0.281 C  
HETATM   11  C   UNL     1      -6.290  19.276  68.806  1.00  0.00    -0.282 A  
HETATM   12  C   UNL     1      -8.260  19.493  67.341  1.00  0.00    -0.321 A  
HETATM   13  C   UNL     1      -5.789  19.867  69.960  1.00  0.00    -0.341 A  
HETATM   14  C   UNL     1      -9.411  20.271  67.257  1.00  0.00    -0.557 A  
HETATM   15  C   UNL     1     -10.634  19.639  67.039  1.00  0.00    -0.602 A  
HETATM   16  C   UNL     1      -5.294  19.047  70.971  1.00  0.00    -0.270 A  
HETATM   17  C   UNL     1      -5.305  17.654  70.826  1.00  0.00    -0.226 A  
HETATM   18  C   UNL     1     -10.704  18.245  66.939  1.00  0.00    -0.272 A  
HETATM   19  C   UNL     1      -9.549  17.462  67.043  1.00  0.00    -0.273 A  
HETATM   20  C   UNL     1      -5.814  17.056  69.667  1.00  0.00    -0.217 A  
HETATM   21  C   UNL     1      -8.311  18.078  67.202  1.00  0.00    -0.241 A  
HETATM   22  C   UNL     1      -6.307  17.862  68.645  1.00  0.00    -0.209 A  
ENDBRANCH   6   7
ENDBRANCH   5   6
ENDBRANCH   4   5
ENDBRANCH   2   4
TORSDOF 4
ENDMDL
MODEL       93
REMARK 921   NORMALIZED FREE ENERGY PREDICTED BY IDOCK:   -3.96 KCAL/MOL
REMARK 922        TOTAL FREE ENERGY PREDICTED BY IDOCK:   -5.48 KCAL/MOL
REMARK 923 INTER-LIGAND FREE ENERGY PREDICTED BY IDOCK:   -5.10 KCAL/MOL
REMARK 924 INTRA-LIGAND FREE ENERGY PREDICTED BY IDOCK:   -0.38 KCAL/MOL
REMARK 927      BINDING AFFINITY PREDICTED BY RF-SCORE:    0.00 PKD
ROOT
HETATM    1  C   UNL     1      -7.057  11.667  66.957  1.00  0.00    -0.145 C  
HETATM    2  N   UNL     1      -6.974  11.634  68.410  1.00  0.00    -0.073 NA 
HETATM    3  H   UNL     1      -7.853  11.920  68.842  1.00  0.00     0.000 HD 
ENDROOT
BRANCH   2   4
HETATM    4  C   UNL     1      -6.544  10.320  68.892  1.00  0.00    -0.052 C  
BRANCH   4   5
HETATM    5  C   UNL     1      -7.397   9.926  70.103  1.00  0.00    -0.166 C  
BRANCH   5   6
HETATM    6  C   UNL     1      -8.163   8.615  69.851  1.00  0.00    -0.121 C  
BRANCH   6   7
HETATM    7  C   UNL     1      -9.077   8.127  71.008  1.00  0.00    -0.176 C  
HETATM    8  C   UNL     1      -8.390   8.374  72.402  1.00  0.00    -0.219 C  
HETATM    9  C   UNL     1      -9.269   7.855  73.577  1.00  0.00    -0.340 C  
HETATM   10  C   UNL     1     -10.578   7.257  73.031  1.00  0.00    -0.371 C  
HETATM   11  C   UNL     1     -10.157   6.148  72.068  1.00  0.00    -0.206 A  
HETATM   12  C   UNL     1     -11.241   8.356  72.209  1.00  0.00    -0.446 A  
HETATM   13  C   UNL     1     -10.512   4.811  72.201  1.00  0.00    -0.243 A  
HETATM   14  C   UNL     1     -12.505   8.879  72.469  1.00  0.00    -0.344 A  
HETATM   15  C   UNL     1     -13.016   9.856  71.616  1.00  0.00    -0.536 A  
HETATM   16  C   UNL     1     -10.061   3.901  71.248  1.00  0.00    -0.098 A  
HETATM   17  C   UNL     1      -9.266   4.328  70.177  1.00  0.00    -0.205 A  
HETATM   18  C   UNL     1     -12.281  10.278  70.502  1.00  0.00    -0.390 A  
HETATM   19  C   UNL     1     -11.019   9.739  70.231  1.00  0.00    -0.352 A  
HETATM   20  C   UNL     1      -8.911   5.675  70.039  1.00  0.00    -0.136 A  
HETATM   21  C   UNL     1     -10.467   8.805  71.104  1.00  0.00    -0.315 A  
HETATM   22  C   UNL     1      -9.349   6.596  70.986  1.00  0.00    -0.161 A  
ENDBRANCH   6   7
ENDBRANCH   5   6
ENDBRANCH   4   5
ENDBRANCH   2   4
TORSDOF 4
ENDMDL
MODEL       94
REMARK 921   NORMALIZED FREE ENERGY PREDICTED BY IDOCK:   -3.95 KCAL/MOL
REMARK 922        TOTAL FREE ENERGY PREDICTED BY IDOCK:   -5.46 KCAL/MOL
REMARK 923 INTER-LIGAND FREE ENERGY PREDICTED BY IDOCK:   -5.07 KCAL/MOL
REMARK 924 INTRA-LIGAND FREE ENERGY PREDICTED BY IDOCK:   -0.39 KCAL/MOL
REMARK 927      BINDING AFFINITY PREDICTED BY RF-SCORE:    0.00 PKD
ROOT
HETATM    1  C   UNL     1     -12.397  15.757  74.157  1.00  0.00    -0.638 C  
HETATM    2  N   UNL     1     -12.371  16.119  72.747  1.00  0.00    -0.482 NA 
HETATM    3  H   UNL     1     -11.417  16.151  72.387  1.00  0.00     0.000 HD 
ENDROOT
BRANCH   2   4
HETATM    4  C   UNL     1     -13.215  15.226  71.951  1.00  0.00    -0.415 C  
BRANCH   4   5
HETATM    5  C   UNL     1     -12.892  15.423  70.466  1.00  0.00    -0.425 C  
BRANCH   5   6
HETATM    6  C   UNL     1     -11.462  14.958  70.133  1.00  0.00    -0.320 C  
BRANCH   6   7
HETATM    7  C   UNL     1     -11.079  14.958  68.629  1.00  0.00    -0.272 C  
HETATM    8  C   UNL     1     -12.282  14.454  67.748  1.00  0.00    -0.190 C  
HETATM    9  C   UNL     1     -11.909  14.405  66.238  1.00  0.00    -0.391 C  
HETATM   10  C   UNL     1     -10.458  14.883  66.038  1.00  0.00    -0.326 C  
HETATM   11  C   UNL     1      -9.595  13.958  66.894  1.00  0.00    -0.271 A  
HETATM   12  C   UNL     1     -10.381  16.280  66.642  1.00  0.00    -0.302 A  
HETATM   13  C   UNL     1      -8.575  13.152  66.404  1.00  0.00     0.289 A  
HETATM   14  C   UNL     1     -10.028  17.425  65.934  1.00  0.00    -0.166 A  
HETATM   15  C   UNL     1      -9.955  18.639  66.615  1.00  0.00    -0.394 A  
HETATM   16  C   UNL     1      -7.862  12.356  67.297  1.00  0.00    -0.166 A  
HETATM   17  C   UNL     1      -8.169  12.371  68.664  1.00  0.00    -0.002 A  
HETATM   18  C   UNL     1     -10.202  18.697  67.991  1.00  0.00    -0.426 A  
HETATM   19  C   UNL     1     -10.538  17.542  68.706  1.00  0.00    -0.241 A  
HETATM   20  C   UNL     1      -9.194  13.185  69.161  1.00  0.00     0.640 A  
HETATM   21  C   UNL     1     -10.674  16.330  68.033  1.00  0.00    -0.331 A  
HETATM   22  C   UNL     1      -9.919  13.982  68.280  1.00  0.00    -0.236 A  
ENDBRANCH   6   7
ENDBRANCH   5   6
ENDBRANCH   4   5
ENDBRANCH   2   4
TORSDOF 4
ENDMDL
MODEL       95
REMARK 921   NORMALIZED FREE ENERGY PREDICTED BY IDOCK:   -3.92 KCAL/MOL
REMARK 922        TOTAL FREE ENERGY PREDICTED BY IDOCK:   -5.42 KCAL/MOL
REMARK 923 INTER-LIGAND FREE ENERGY PREDICTED BY IDOCK:   -4.97 KCAL/MOL
REMARK 924 INTRA-LIGAND FREE ENERGY PREDICTED BY IDOCK:   -0.45 KCAL/MOL
REMARK 927      BINDING AFFINITY PREDICTED BY RF-SCORE:    0.00 PKD
ROOT
HETATM    1  C   UNL     1     -13.480  13.518  72.032  1.00  0.00    -0.494 C  
HETATM    2  N   UNL     1     -12.236  13.747  71.311  1.00  0.00    -0.396 NA 
HETATM    3  H   UNL     1     -11.778  12.869  71.067  1.00  0.00     0.000 HD 
ENDROOT
BRANCH   2   4
HETATM    4  C   UNL     1     -12.450  14.586  70.131  1.00  0.00    -0.321 C  
BRANCH   4   5
HETATM    5  C   UNL     1     -12.079  13.790  68.875  1.00  0.00    -0.348 C  
BRANCH   5   6
HETATM    6  C   UNL     1     -10.607  13.341  68.906  1.00  0.00    -0.167 C  
BRANCH   6   7
HETATM    7  C   UNL     1     -10.274  12.044  68.120  1.00  0.00    -0.203 C  
HETATM    8  C   UNL     1     -11.175  11.926  66.835  1.00  0.00    -0.382 C  
HETATM    9  C   UNL     1     -10.890  10.612  66.050  1.00  0.00    -0.051 C  
HETATM   10  C   UNL     1      -9.785   9.806  66.758  1.00  0.00    -0.248 C  
HETATM   11  C   UNL     1     -10.298   9.553  68.174  1.00  0.00    -0.251 A  
HETATM   12  C   UNL     1      -8.579  10.732  66.861  1.00  0.00    -0.132 A  
HETATM   13  C   UNL     1     -10.493   8.294  68.730  1.00  0.00    -0.200 A  
HETATM   14  C   UNL     1      -7.331  10.464  66.304  1.00  0.00    -0.128 A  
HETATM   15  C   UNL     1      -6.297  11.376  66.505  1.00  0.00    -0.095 A  
HETATM   16  C   UNL     1     -10.965   8.206  70.037  1.00  0.00    -0.199 A  
HETATM   17  C   UNL     1     -11.236   9.365  70.776  1.00  0.00    -0.367 A  
HETATM   18  C   UNL     1      -6.504  12.524  67.279  1.00  0.00    -0.124 A  
HETATM   19  C   UNL     1      -7.752  12.783  67.854  1.00  0.00    -0.143 A  
HETATM   20  C   UNL     1     -11.037  10.634  70.219  1.00  0.00    -0.310 A  
HETATM   21  C   UNL     1      -8.814  11.914  67.616  1.00  0.00    -0.169 A  
HETATM   22  C   UNL     1     -10.571  10.739  68.912  1.00  0.00    -0.246 A  
ENDBRANCH   6   7
ENDBRANCH   5   6
ENDBRANCH   4   5
ENDBRANCH   2   4
TORSDOF 4
ENDMDL
MODEL       96
REMARK 921   NORMALIZED FREE ENERGY PREDICTED BY IDOCK:   -3.92 KCAL/MOL
REMARK 922        TOTAL FREE ENERGY PREDICTED BY IDOCK:   -5.42 KCAL/MOL
REMARK 923 INTER-LIGAND FREE ENERGY PREDICTED BY IDOCK:   -5.42 KCAL/MOL
REMARK 924 INTRA-LIGAND FREE ENERGY PREDICTED BY IDOCK:    0.00 KCAL/MOL
REMARK 927      BINDING AFFINITY PREDICTED BY RF-SCORE:    0.00 PKD
ROOT
HETATM    1  C   UNL     1     -10.134  11.949  63.281  1.00  0.00    -0.396 C  
HETATM    2  N   UNL     1     -10.708  11.461  64.526  1.00  0.00    -0.326 NA 
HETATM    3  H   UNL     1     -10.061  11.574  65.306  1.00  0.00     0.000 HD 
ENDROOT
BRANCH   2   4
HETATM    4  C   UNL     1     -11.998  12.094  64.804  1.00  0.00    -0.307 C  
BRANCH   4   5
HETATM    5  C   UNL     1     -11.852  13.019  66.018  1.00  0.00    -0.471 C  
BRANCH   5   6
HETATM    6  C   UNL     1     -10.434  12.948  66.613  1.00  0.00    -0.272 C  
BRANCH   6   7
HETATM    7  C   UNL     1     -10.053  14.083  67.601  1.00  0.00    -0.241 C  
HETATM    8  C   UNL     1     -11.012  14.080  68.848  1.00  0.00    -0.283 C  
HETATM    9  C   UNL     1     -10.678  15.236  69.836  1.00  0.00    -0.300 C  
HETATM   10  C   UNL     1      -9.482  16.050  69.307  1.00  0.00    -0.245 C  
HETATM   11  C   UNL     1      -9.899  16.550  67.925  1.00  0.00    -0.240 A  
HETATM   12  C   UNL     1      -8.341  15.058  69.117  1.00  0.00    -0.187 A  
HETATM   13  C   UNL     1      -9.974  17.888  67.559  1.00  0.00    -0.322 A  
HETATM   14  C   UNL     1      -7.109  15.142  69.761  1.00  0.00    -0.169 A  
HETATM   15  C   UNL     1      -6.132  14.192  69.468  1.00  0.00    -0.113 A  
HETATM   16  C   UNL     1     -10.367  18.207  66.262  1.00  0.00    -0.407 A  
HETATM   17  C   UNL     1     -10.678  17.194  65.345  1.00  0.00    -0.097 A  
HETATM   18  C   UNL     1      -6.377  13.192  68.520  1.00  0.00    -0.082 A  
HETATM   19  C   UNL     1      -7.608  13.119  67.860  1.00  0.00    -0.147 A  
HETATM   20  C   UNL     1     -10.599  15.845  65.710  1.00  0.00    -0.368 A  
HETATM   21  C   UNL     1      -8.617  14.024  68.181  1.00  0.00    -0.181 A  
HETATM   22  C   UNL     1     -10.213  15.511  67.004  1.00  0.00    -0.271 A  
ENDBRANCH   6   7
ENDBRANCH   5   6
ENDBRANCH   4   5
ENDBRANCH   2   4
TORSDOF 4
ENDMDL
MODEL       97
REMARK 921   NORMALIZED FREE ENERGY PREDICTED BY IDOCK:   -3.91 KCAL/MOL
REMARK 922        TOTAL FREE ENERGY PREDICTED BY IDOCK:   -5.41 KCAL/MOL
REMARK 923 INTER-LIGAND FREE ENERGY PREDICTED BY IDOCK:   -4.98 KCAL/MOL
REMARK 924 INTRA-LIGAND FREE ENERGY PREDICTED BY IDOCK:   -0.43 KCAL/MOL
REMARK 927      BINDING AFFINITY PREDICTED BY RF-SCORE:    0.00 PKD
ROOT
HETATM    1  C   UNL     1      -9.189   3.123  69.663  1.00  0.00    -0.151 C  
HETATM    2  N   UNL     1      -8.725   4.477  69.395  1.00  0.00    -0.084 NA 
HETATM    3  H   UNL     1      -7.758   4.483  69.072  1.00  0.00     0.000 HD 
ENDROOT
BRANCH   2   4
HETATM    4  C   UNL     1      -9.609   5.167  68.453  1.00  0.00    -0.139 C  
BRANCH   4   5
HETATM    5  C   UNL     1     -10.511   6.134  69.228  1.00  0.00    -0.314 C  
BRANCH   5   6
HETATM    6  C   UNL     1      -9.692   7.244  69.912  1.00  0.00    -0.174 C  
BRANCH   6   7
HETATM    7  C   UNL     1      -9.961   8.691  69.418  1.00  0.00    -0.197 C  
HETATM    8  C   UNL     1     -10.464   8.685  67.927  1.00  0.00    -0.269 C  
HETATM    9  C   UNL     1     -10.701  10.128  67.393  1.00  0.00    -0.336 C  
HETATM   10  C   UNL     1     -10.385  11.156  68.497  1.00  0.00    -0.207 C  
HETATM   11  C   UNL     1      -8.933  10.900  68.898  1.00  0.00    -0.146 A  
HETATM   12  C   UNL     1     -11.265  10.790  69.686  1.00  0.00    -0.355 A  
HETATM   13  C   UNL     1      -7.914  11.841  68.811  1.00  0.00    -0.063 A  
HETATM   14  C   UNL     1     -12.211  11.638  70.255  1.00  0.00    -0.401 A  
HETATM   15  C   UNL     1     -12.925  11.197  71.368  1.00  0.00    -0.506 A  
HETATM   16  C   UNL     1      -6.631  11.477  69.214  1.00  0.00    -0.113 A  
HETATM   17  C   UNL     1      -6.377  10.187  69.697  1.00  0.00    -0.057 A  
HETATM   18  C   UNL     1     -12.670   9.937  71.920  1.00  0.00    -0.501 A  
HETATM   19  C   UNL     1     -11.706   9.092  71.359  1.00  0.00    -0.413 A  
HETATM   20  C   UNL     1      -7.403   9.239  69.789  1.00  0.00    -0.072 A  
HETATM   21  C   UNL     1     -11.024   9.491  70.212  1.00  0.00    -0.317 A  
HETATM   22  C   UNL     1      -8.689   9.586  69.386  1.00  0.00    -0.166 A  
ENDBRANCH   6   7
ENDBRANCH   5   6
ENDBRANCH   4   5
ENDBRANCH   2   4
TORSDOF 4
ENDMDL
MODEL       98
REMARK 921   NORMALIZED FREE ENERGY PREDICTED BY IDOCK:   -3.91 KCAL/MOL
REMARK 922        TOTAL FREE ENERGY PREDICTED BY IDOCK:   -5.41 KCAL/MOL
REMARK 923 INTER-LIGAND FREE ENERGY PREDICTED BY IDOCK:   -5.56 KCAL/MOL
REMARK 924 INTRA-LIGAND FREE ENERGY PREDICTED BY IDOCK:    0.15 KCAL/MOL
REMARK 927      BINDING AFFINITY PREDICTED BY RF-SCORE:    0.00 PKD
ROOT
HETATM    1  C   UNL     1     -10.382  19.801  68.366  1.00  0.00    -0.391 C  
HETATM    2  N   UNL     1     -10.020  20.141  66.998  1.00  0.00    -0.432 NA 
HETATM    3  H   UNL     1      -9.091  20.560  66.950  1.00  0.00     0.000 HD 
ENDROOT
BRANCH   2   4
HETATM    4  C   UNL     1     -10.130  18.981  66.112  1.00  0.00    -0.406 C  
BRANCH   4   5
HETATM    5  C   UNL     1      -9.800  17.711  66.905  1.00  0.00    -0.306 C  
BRANCH   5   6
HETATM    6  C   UNL     1      -9.835  16.460  66.008  1.00  0.00    -0.362 C  
BRANCH   6   7
HETATM    7  C   UNL     1      -9.686  15.097  66.735  1.00  0.00    -0.255 C  
HETATM    8  C   UNL     1     -10.033  13.908  65.763  1.00  0.00    -0.304 C  
HETATM    9  C   UNL     1      -9.932  12.530  66.481  1.00  0.00    -0.252 C  
HETATM   10  C   UNL     1      -9.502  12.729  67.946  1.00  0.00    -0.208 C  
HETATM   11  C   UNL     1     -10.555  13.647  68.566  1.00  0.00    -0.259 A  
HETATM   12  C   UNL     1      -8.186  13.497  67.905  1.00  0.00    -0.168 A  
HETATM   13  C   UNL     1     -11.348  13.313  69.657  1.00  0.00    -0.191 A  
HETATM   14  C   UNL     1      -6.987  13.031  68.436  1.00  0.00    -0.100 A  
HETATM   15  C   UNL     1      -5.860  13.849  68.370  1.00  0.00    -0.102 A  
HETATM   16  C   UNL     1     -12.270  14.246  70.125  1.00  0.00    -0.407 A  
HETATM   17  C   UNL     1     -12.393  15.497  69.505  1.00  0.00    -0.184 A  
HETATM   18  C   UNL     1      -5.945  15.127  67.807  1.00  0.00    -0.150 A  
HETATM   19  C   UNL     1      -7.154  15.602  67.290  1.00  0.00    -0.242 A  
HETATM   20  C   UNL     1     -11.592  15.836  68.408  1.00  0.00    -0.343 A  
HETATM   21  C   UNL     1      -8.277  14.778  67.294  1.00  0.00    -0.237 A  
HETATM   22  C   UNL     1     -10.670  14.912  67.925  1.00  0.00    -0.265 A  
ENDBRANCH   6   7
ENDBRANCH   5   6
ENDBRANCH   4   5
ENDBRANCH   2   4
TORSDOF 4
ENDMDL
MODEL       99
REMARK 921   NORMALIZED FREE ENERGY PREDICTED BY IDOCK:   -3.91 KCAL/MOL
REMARK 922        TOTAL FREE ENERGY PREDICTED BY IDOCK:   -5.41 KCAL/MOL
REMARK 923 INTER-LIGAND FREE ENERGY PREDICTED BY IDOCK:   -5.71 KCAL/MOL
REMARK 924 INTRA-LIGAND FREE ENERGY PREDICTED BY IDOCK:    0.31 KCAL/MOL
REMARK 927      BINDING AFFINITY PREDICTED BY RF-SCORE:    0.00 PKD
ROOT
HETATM    1  C   UNL     1      -7.925  10.464  62.449  1.00  0.00    -0.162 C  
HETATM    2  N   UNL     1      -8.783  11.594  62.775  1.00  0.00    -0.640 NA 
HETATM    3  H   UNL     1      -8.726  12.323  62.064  1.00  0.00     0.000 HD 
ENDROOT
BRANCH   2   4
HETATM    4  C   UNL     1     -10.166  11.168  62.995  1.00  0.00    -0.214 C  
BRANCH   4   5
HETATM    5  C   UNL     1     -10.960  12.332  63.600  1.00  0.00    -0.532 C  
BRANCH   5   6
HETATM    6  C   UNL     1     -11.492  11.983  65.002  1.00  0.00    -0.343 C  
BRANCH   6   7
HETATM    7  C   UNL     1     -10.920  12.823  66.176  1.00  0.00    -0.310 C  
HETATM    8  C   UNL     1     -11.857  12.726  67.437  1.00  0.00    -0.404 C  
HETATM    9  C   UNL     1     -11.327  13.594  68.616  1.00  0.00    -0.321 C  
HETATM   10  C   UNL     1     -10.016  14.293  68.207  1.00  0.00    -0.239 C  
HETATM   11  C   UNL     1     -10.356  15.118  66.967  1.00  0.00    -0.271 A  
HETATM   12  C   UNL     1      -9.057  13.188  67.781  1.00  0.00    -0.200 A  
HETATM   13  C   UNL     1     -10.210  16.497  66.872  1.00  0.00    -0.296 A  
HETATM   14  C   UNL     1      -7.824  12.943  68.378  1.00  0.00    -0.133 A  
HETATM   15  C   UNL     1      -7.021  11.925  67.867  1.00  0.00    -0.085 A  
HETATM   16  C   UNL     1     -10.555  17.125  65.678  1.00  0.00    -0.187 A  
HETATM   17  C   UNL     1     -11.038  16.379  64.596  1.00  0.00    -0.202 A  
HETATM   18  C   UNL     1      -7.436  11.186  66.753  1.00  0.00    -0.146 A  
HETATM   19  C   UNL     1      -8.667  11.445  66.142  1.00  0.00    -0.153 A  
HETATM   20  C   UNL     1     -11.182  14.990  64.688  1.00  0.00    -0.342 A  
HETATM   21  C   UNL     1      -9.510  12.418  66.674  1.00  0.00    -0.232 A  
HETATM   22  C   UNL     1     -10.846  14.347  65.875  1.00  0.00    -0.304 A  
ENDBRANCH   6   7
ENDBRANCH   5   6
ENDBRANCH   4   5
ENDBRANCH   2   4
TORSDOF 4
ENDMDL
MODEL      100
REMARK 921   NORMALIZED FREE ENERGY PREDICTED BY IDOCK:   -3.84 KCAL/MOL
REMARK 922        TOTAL FREE ENERGY PREDICTED BY IDOCK:   -5.32 KCAL/MOL
REMARK 923 INTER-LIGAND FREE ENERGY PREDICTED BY IDOCK:   -4.94 KCAL/MOL
REMARK 924 INTRA-LIGAND FREE ENERGY PREDICTED BY IDOCK:   -0.39 KCAL/MOL
REMARK 927      BINDING AFFINITY PREDICTED BY RF-SCORE:    0.00 PKD
ROOT
HETATM    1  C   UNL     1     -12.740  14.539  64.409  1.00  0.00     0.044 C  
HETATM    2  N   UNL     1     -12.441  13.798  63.192  1.00  0.00    -1.074 NA 
HETATM    3  H   UNL     1     -11.533  14.060  62.808  1.00  0.00     0.000 HD 
ENDROOT
BRANCH   2   4
HETATM    4  C   UNL     1     -12.533  12.353  63.411  1.00  0.00    -0.446 C  
BRANCH   4   5
HETATM    5  C   UNL     1     -11.958  12.017  64.792  1.00  0.00    -0.310 C  
BRANCH   5   6
HETATM    6  C   UNL     1     -10.433  11.815  64.734  1.00  0.00    -0.341 C  
BRANCH   6   7
HETATM    7  C   UNL     1      -9.698  11.783  66.101  1.00  0.00    -0.250 C  
HETATM    8  C   UNL     1     -10.616  11.150  67.211  1.00  0.00    -0.279 C  
HETATM    9  C   UNL     1      -9.917  11.145  68.602  1.00  0.00    -0.210 C  
HETATM   10  C   UNL     1      -8.507  11.755  68.485  1.00  0.00    -0.125 C  
HETATM   11  C   UNL     1      -8.709  13.162  67.926  1.00  0.00    -0.192 A  
HETATM   12  C   UNL     1      -7.774  10.937  67.428  1.00  0.00    -0.108 A  
HETATM   13  C   UNL     1      -8.315  14.330  68.568  1.00  0.00    -0.156 A  
HETATM   14  C   UNL     1      -6.598  10.229  67.658  1.00  0.00    -0.066 A  
HETATM   15  C   UNL     1      -6.003   9.553  66.594  1.00  0.00    -0.059 A  
HETATM   16  C   UNL     1      -8.558  15.551  67.943  1.00  0.00    -0.156 A  
HETATM   17  C   UNL     1      -9.187  15.597  66.692  1.00  0.00    -0.294 A  
HETATM   18  C   UNL     1      -6.565   9.612  65.314  1.00  0.00    -0.087 A  
HETATM   19  C   UNL     1      -7.737  10.338  65.080  1.00  0.00    -0.129 A  
HETATM   20  C   UNL     1      -9.581  14.422  66.043  1.00  0.00    -0.292 A  
HETATM   21  C   UNL     1      -8.378  10.973  66.141  1.00  0.00    -0.163 A  
HETATM   22  C   UNL     1      -9.350  13.194  66.656  1.00  0.00    -0.242 A  
ENDBRANCH   6   7
ENDBRANCH   5   6
ENDBRANCH   4   5
ENDBRANCH   2   4
TORSDOF 4
ENDMDL
MODEL      101
REMARK 921   NORMALIZED FREE ENERGY PREDICTED BY IDOCK:   -3.82 KCAL/MOL
REMARK 922        TOTAL FREE ENERGY PREDICTED BY IDOCK:   -5.30 KCAL/MOL
REMARK 923 INTER-LIGAND FREE ENERGY PREDICTED BY IDOCK:   -5.99 KCAL/MOL
REMARK 924 INTRA-LIGAND FREE ENERGY PREDICTED BY IDOCK:    0.68 KCAL/MOL
REMARK 927      BINDING AFFINITY PREDICTED BY RF-SCORE:    0.00 PKD
ROOT
HETATM    1  C   UNL     1      -5.135  11.248  66.187  1.00  0.00    -0.107 C  
HETATM    2  N   UNL     1      -6.063  10.136  66.326  1.00  0.00    -0.067 NA 
HETATM    3  H   UNL     1      -6.534  10.151  67.231  1.00  0.00     0.000 HD 
ENDROOT
BRANCH   2   4
HETATM    4  C   UNL     1      -7.025  10.102  65.223  1.00  0.00    -0.137 C  
BRANCH   4   5
HETATM    5  C   UNL     1      -8.447  10.146  65.795  1.00  0.00    -0.153 C  
BRANCH   5   6
HETATM    6  C   UNL     1      -8.455  10.658  67.247  1.00  0.00    -0.126 C  
BRANCH   6   7
HETATM    7  C   UNL     1      -9.568  11.680  67.602  1.00  0.00    -0.184 C  
HETATM    8  C   UNL     1      -8.942  13.060  68.024  1.00  0.00    -0.199 C  
HETATM    9  C   UNL     1     -10.037  14.091  68.426  1.00  0.00    -0.236 C  
HETATM   10  C   UNL     1     -11.434  13.459  68.279  1.00  0.00    -0.350 C  
HETATM   11  C   UNL     1     -11.425  12.221  69.173  1.00  0.00    -0.352 A  
HETATM   12  C   UNL     1     -11.538  12.986  66.834  1.00  0.00    -0.419 A  
HETATM   13  C   UNL     1     -12.296  12.009  70.236  1.00  0.00    -0.275 A  
HETATM   14  C   UNL     1     -12.501  13.426  65.930  1.00  0.00    -0.468 A  
HETATM   15  C   UNL     1     -12.515  12.884  64.646  1.00  0.00    -0.499 A  
HETATM   16  C   UNL     1     -12.181  10.831  70.970  1.00  0.00    -0.485 A  
HETATM   17  C   UNL     1     -11.206   9.880  70.641  1.00  0.00    -0.416 A  
HETATM   18  C   UNL     1     -11.595  11.894  64.285  1.00  0.00    -0.405 A  
HETATM   19  C   UNL     1     -10.639  11.438  65.200  1.00  0.00    -0.352 A  
HETATM   20  C   UNL     1     -10.331  10.090  69.569  1.00  0.00    -0.256 A  
HETATM   21  C   UNL     1     -10.572  12.009  66.468  1.00  0.00    -0.269 A  
HETATM   22  C   UNL     1     -10.430  11.264  68.828  1.00  0.00    -0.232 A  
ENDBRANCH   6   7
ENDBRANCH   5   6
ENDBRANCH   4   5
ENDBRANCH   2   4
TORSDOF 4
ENDMDL
MODEL      102
REMARK 921   NORMALIZED FREE ENERGY PREDICTED BY IDOCK:   -3.82 KCAL/MOL
REMARK 922        TOTAL FREE ENERGY PREDICTED BY IDOCK:   -5.30 KCAL/MOL
REMARK 923 INTER-LIGAND FREE ENERGY PREDICTED BY IDOCK:   -4.95 KCAL/MOL
REMARK 924 INTRA-LIGAND FREE ENERGY PREDICTED BY IDOCK:   -0.36 KCAL/MOL
REMARK 927      BINDING AFFINITY PREDICTED BY RF-SCORE:    0.00 PKD
ROOT
HETATM    1  C   UNL     1      -8.052   5.032  66.173  1.00  0.00    -0.108 C  
HETATM    2  N   UNL     1      -9.067   6.074  66.183  1.00  0.00    -0.151 NA 
HETATM    3  H   UNL     1      -9.993   5.697  65.979  1.00  0.00     0.000 HD 
ENDROOT
BRANCH   2   4
HETATM    4  C   UNL     1      -9.057   6.817  67.444  1.00  0.00    -0.117 C  
BRANCH   4   5
HETATM    5  C   UNL     1      -9.935   8.065  67.298  1.00  0.00    -0.282 C  
BRANCH   5   6
HETATM    6  C   UNL     1     -10.273   8.681  68.668  1.00  0.00    -0.214 C  
BRANCH   6   7
HETATM    7  C   UNL     1     -10.553  10.208  68.679  1.00  0.00    -0.236 C  
HETATM    8  C   UNL     1     -11.292  10.646  67.360  1.00  0.00    -0.185 C  
HETATM    9  C   UNL     1     -11.546  12.182  67.327  1.00  0.00    -0.404 C  
HETATM   10  C   UNL     1     -11.008  12.833  68.615  1.00  0.00    -0.295 C  
HETATM   11  C   UNL     1      -9.524  12.477  68.670  1.00  0.00    -0.010 A  
HETATM   12  C   UNL     1     -11.699  12.123  69.773  1.00  0.00    -0.381 A  
HETATM   13  C   UNL     1      -8.490  13.406  68.695  1.00  0.00     0.001 A  
HETATM   14  C   UNL     1     -12.499  12.756  70.720  1.00  0.00    -0.357 A  
HETATM   15  C   UNL     1     -13.041  11.998  71.756  1.00  0.00    -0.460 A  
HETATM   16  C   UNL     1      -7.177  12.945  68.749  1.00  0.00    -0.081 A  
HETATM   17  C   UNL     1      -6.907  11.570  68.778  1.00  0.00    -0.084 A  
HETATM   18  C   UNL     1     -12.758  10.632  71.858  1.00  0.00    -0.410 A  
HETATM   19  C   UNL     1     -11.938   9.999  70.917  1.00  0.00    -0.453 A  
HETATM   20  C   UNL     1      -7.947  10.634  68.757  1.00  0.00    -0.135 A  
HETATM   21  C   UNL     1     -11.435  10.727  69.842  1.00  0.00    -0.398 A  
HETATM   22  C   UNL     1      -9.264  11.078  68.698  1.00  0.00    -0.186 A  
ENDBRANCH   6   7
ENDBRANCH   5   6
ENDBRANCH   4   5
ENDBRANCH   2   4
TORSDOF 4
ENDMDL
MODEL      103
REMARK 921   NORMALIZED FREE ENERGY PREDICTED BY IDOCK:   -3.79 KCAL/MOL
REMARK 922        TOTAL FREE ENERGY PREDICTED BY IDOCK:   -5.26 KCAL/MOL
REMARK 923 INTER-LIGAND FREE ENERGY PREDICTED BY IDOCK:   -5.04 KCAL/MOL
REMARK 924 INTRA-LIGAND FREE ENERGY PREDICTED BY IDOCK:   -0.22 KCAL/MOL
REMARK 927      BINDING AFFINITY PREDICTED BY RF-SCORE:    0.00 PKD
ROOT
HETATM    1  C   UNL     1     -12.489   6.600  71.701  1.00  0.00    -0.303 C  
HETATM    2  N   UNL     1     -12.222   6.987  70.324  1.00  0.00    -0.622 NA 
HETATM    3  H   UNL     1     -13.004   7.506  69.923  1.00  0.00     0.000 HD 
ENDROOT
BRANCH   2   4
HETATM    4  C   UNL     1     -10.969   7.737  70.214  1.00  0.00    -0.247 C  
BRANCH   4   5
HETATM    5  C   UNL     1     -11.285   9.236  70.157  1.00  0.00    -0.237 C  
BRANCH   5   6
HETATM    6  C   UNL     1     -10.014  10.072  69.921  1.00  0.00    -0.280 C  
BRANCH   6   7
HETATM    7  C   UNL     1      -9.767  10.538  68.461  1.00  0.00    -0.170 C  
HETATM    8  C   UNL     1     -10.262   9.449  67.438  1.00  0.00    -0.298 C  
HETATM    9  C   UNL     1      -9.987   9.874  65.966  1.00  0.00    -0.338 C  
HETATM   10  C   UNL     1      -9.315  11.260  65.935  1.00  0.00    -0.240 C  
HETATM   11  C   UNL     1      -8.039  11.120  66.762  1.00  0.00    -0.155 A  
HETATM   12  C   UNL     1     -10.250  12.205  66.681  1.00  0.00    -0.223 A  
HETATM   13  C   UNL     1      -6.756  11.348  66.279  1.00  0.00     0.060 A  
HETATM   14  C   UNL     1     -10.830  13.340  66.123  1.00  0.00    -0.290 A  
HETATM   15  C   UNL     1     -11.636  14.146  66.926  1.00  0.00    -0.410 A  
HETATM   16  C   UNL     1      -5.676  11.187  67.143  1.00  0.00    -0.067 A  
HETATM   17  C   UNL     1      -5.882  10.803  68.475  1.00  0.00    -0.043 A  
HETATM   18  C   UNL     1     -11.830  13.833  68.275  1.00  0.00    -0.413 A  
HETATM   19  C   UNL     1     -11.232  12.702  68.841  1.00  0.00    -0.329 A  
HETATM   20  C   UNL     1      -7.174  10.576  68.965  1.00  0.00    -0.090 A  
HETATM   21  C   UNL     1     -10.471  11.853  68.041  1.00  0.00    -0.228 A  
HETATM   22  C   UNL     1      -8.263  10.729  68.112  1.00  0.00    -0.119 A  
ENDBRANCH   6   7
ENDBRANCH   5   6
ENDBRANCH   4   5
ENDBRANCH   2   4
TORSDOF 4
ENDMDL
MODEL      104
REMARK 921   NORMALIZED FREE ENERGY PREDICTED BY IDOCK:   -3.79 KCAL/MOL
REMARK 922        TOTAL FREE ENERGY PREDICTED BY IDOCK:   -5.26 KCAL/MOL
REMARK 923 INTER-LIGAND FREE ENERGY PREDICTED BY IDOCK:   -4.97 KCAL/MOL
REMARK 924 INTRA-LIGAND FREE ENERGY PREDICTED BY IDOCK:   -0.28 KCAL/MOL
REMARK 927      BINDING AFFINITY PREDICTED BY RF-SCORE:    0.00 PKD
ROOT
HETATM    1  C   UNL     1     -12.681  11.876  63.604  1.00  0.00    -0.390 C  
HETATM    2  N   UNL     1     -12.400  13.295  63.441  1.00  0.00    -0.851 NA 
HETATM    3  H   UNL     1     -13.148  13.871  63.828  1.00  0.00     0.000 HD 
ENDROOT
BRANCH   2   4
HETATM    4  C   UNL     1     -11.100  13.651  64.012  1.00  0.00    -0.102 C  
BRANCH   4   5
HETATM    5  C   UNL     1     -11.320  14.420  65.320  1.00  0.00    -0.346 C  
BRANCH   5   6
HETATM    6  C   UNL     1     -10.353  15.612  65.442  1.00  0.00    -0.421 C  
BRANCH   6   7
HETATM    7  C   UNL     1      -9.799  15.896  66.865  1.00  0.00    -0.251 C  
HETATM    8  C   UNL     1     -10.975  16.027  67.903  1.00  0.00    -0.327 C  
HETATM    9  C   UNL     1     -10.448  16.354  69.331  1.00  0.00    -0.309 C  
HETATM   10  C   UNL     1      -8.910  16.441  69.317  1.00  0.00    -0.121 C  
HETATM   11  C   UNL     1      -8.565  17.521  68.294  1.00  0.00    -0.266 A  
HETATM   12  C   UNL     1      -8.411  15.109  68.771  1.00  0.00    -0.180 A  
HETATM   13  C   UNL     1      -7.852  18.680  68.579  1.00  0.00    -0.355 A  
HETATM   14  C   UNL     1      -7.575  14.237  69.463  1.00  0.00     0.149 A  
HETATM   15  C   UNL     1      -7.157  13.066  68.834  1.00  0.00    -0.068 A  
HETATM   16  C   UNL     1      -7.603  19.583  67.549  1.00  0.00    -0.290 A  
HETATM   17  C   UNL     1      -8.063  19.326  66.251  1.00  0.00    -0.322 A  
HETATM   18  C   UNL     1      -7.547  12.790  67.519  1.00  0.00    -0.162 A  
HETATM   19  C   UNL     1      -8.372  13.674  66.817  1.00  0.00     0.089 A  
HETATM   20  C   UNL     1      -8.777  18.158  65.961  1.00  0.00     0.000 A  
HETATM   21  C   UNL     1      -8.848  14.821  67.448  1.00  0.00    -0.203 A  
HETATM   22  C   UNL     1      -9.039  17.248  66.980  1.00  0.00    -0.247 A  
ENDBRANCH   6   7
ENDBRANCH   5   6
ENDBRANCH   4   5
ENDBRANCH   2   4
TORSDOF 4
ENDMDL
MODEL      105
REMARK 921   NORMALIZED FREE ENERGY PREDICTED BY IDOCK:   -3.78 KCAL/MOL
REMARK 922        TOTAL FREE ENERGY PREDICTED BY IDOCK:   -5.25 KCAL/MOL
REMARK 923 INTER-LIGAND FREE ENERGY PREDICTED BY IDOCK:   -4.88 KCAL/MOL
REMARK 924 INTRA-LIGAND FREE ENERGY PREDICTED BY IDOCK:   -0.37 KCAL/MOL
REMARK 927      BINDING AFFINITY PREDICTED BY RF-SCORE:    0.00 PKD
ROOT
HETATM    1  C   UNL     1     -13.192  14.269  71.292  1.00  0.00    -0.343 C  
HETATM    2  N   UNL     1     -12.084  13.613  70.614  1.00  0.00    -0.448 NA 
HETATM    3  H   UNL     1     -11.184  13.939  70.966  1.00  0.00     0.000 HD 
ENDROOT
BRANCH   2   4
HETATM    4  C   UNL     1     -12.195  12.156  70.694  1.00  0.00    -0.300 C  
BRANCH   4   5
HETATM    5  C   UNL     1     -11.490  11.531  69.484  1.00  0.00    -0.378 C  
BRANCH   5   6
HETATM    6  C   UNL     1     -11.802  10.029  69.364  1.00  0.00     0.064 C  
BRANCH   6   7
HETATM    7  C   UNL     1     -10.656   9.061  69.762  1.00  0.00    -0.236 C  
HETATM    8  C   UNL     1      -9.510   9.836  70.512  1.00  0.00    -0.140 C  
HETATM    9  C   UNL     1      -8.327   8.895  70.886  1.00  0.00    -0.219 C  
HETATM   10  C   UNL     1      -8.631   7.458  70.421  1.00  0.00    -0.144 C  
HETATM   11  C   UNL     1      -8.864   7.550  68.915  1.00  0.00    -0.135 A  
HETATM   12  C   UNL     1      -9.953   7.069  71.072  1.00  0.00    -0.196 A  
HETATM   13  C   UNL     1      -8.119   6.872  67.957  1.00  0.00    -0.115 A  
HETATM   14  C   UNL     1     -10.117   5.989  71.935  1.00  0.00    -0.223 A  
HETATM   15  C   UNL     1     -11.389   5.714  72.433  1.00  0.00    -0.327 A  
HETATM   16  C   UNL     1      -8.440   7.044  66.613  1.00  0.00    -0.121 A  
HETATM   17  C   UNL     1      -9.496   7.884  66.236  1.00  0.00    -0.220 A  
HETATM   18  C   UNL     1     -12.485   6.493  72.044  1.00  0.00    -0.261 A  
HETATM   19  C   UNL     1     -12.323   7.567  71.162  1.00  0.00    -0.321 A  
HETATM   20  C   UNL     1     -10.250   8.565  67.199  1.00  0.00    -0.355 A  
HETATM   21  C   UNL     1     -11.050   7.893  70.701  1.00  0.00    -0.263 A  
HETATM   22  C   UNL     1      -9.938   8.408  68.546  1.00  0.00    -0.203 A  
ENDBRANCH   6   7
ENDBRANCH   5   6
ENDBRANCH   4   5
ENDBRANCH   2   4
TORSDOF 4
ENDMDL
MODEL      106
REMARK 921   NORMALIZED FREE ENERGY PREDICTED BY IDOCK:   -3.78 KCAL/MOL
REMARK 922        TOTAL FREE ENERGY PREDICTED BY IDOCK:   -5.25 KCAL/MOL
REMARK 923 INTER-LIGAND FREE ENERGY PREDICTED BY IDOCK:   -4.92 KCAL/MOL
REMARK 924 INTRA-LIGAND FREE ENERGY PREDICTED BY IDOCK:   -0.33 KCAL/MOL
REMARK 927      BINDING AFFINITY PREDICTED BY RF-SCORE:    0.00 PKD
ROOT
HETATM    1  C   UNL     1      -9.618   3.727  74.369  1.00  0.00    -0.110 C  
HETATM    2  N   UNL     1     -10.925   3.804  73.732  1.00  0.00    -0.234 NA 
HETATM    3  H   UNL     1     -11.646   3.367  74.306  1.00  0.00     0.000 HD 
ENDROOT
BRANCH   2   4
HETATM    4  C   UNL     1     -11.273   5.184  73.393  1.00  0.00    -0.290 C  
BRANCH   4   5
HETATM    5  C   UNL     1     -10.775   5.494  71.976  1.00  0.00    -0.293 C  
BRANCH   5   6
HETATM    6  C   UNL     1     -10.765   7.008  71.700  1.00  0.00    -0.244 C  
BRANCH   6   7
HETATM    7  C   UNL     1     -10.465   7.431  70.237  1.00  0.00    -0.229 C  
HETATM    8  C   UNL     1     -11.165   6.454  69.221  1.00  0.00    -0.440 C  
HETATM    9  C   UNL     1     -10.845   6.832  67.745  1.00  0.00    -0.339 C  
HETATM   10  C   UNL     1      -9.936   8.076  67.705  1.00  0.00    -0.234 C  
HETATM   11  C   UNL     1      -8.691   7.705  68.508  1.00  0.00    -0.128 A  
HETATM   12  C   UNL     1     -10.674   9.168  68.471  1.00  0.00    -0.160 A  
HETATM   13  C   UNL     1      -7.397   7.703  68.001  1.00  0.00    -0.099 A  
HETATM   14  C   UNL     1     -11.051  10.392  67.927  1.00  0.00    -0.363 A  
HETATM   15  C   UNL     1     -11.686  11.324  68.746  1.00  0.00    -0.405 A  
HETATM   16  C   UNL     1      -6.348   7.346  68.845  1.00  0.00    -0.039 A  
HETATM   17  C   UNL     1      -6.596   6.997  70.179  1.00  0.00    -0.047 A  
HETATM   18  C   UNL     1     -11.909  11.043  70.098  1.00  0.00    -0.441 A  
HETATM   19  C   UNL     1     -11.512   9.820  70.649  1.00  0.00    -0.397 A  
HETATM   20  C   UNL     1      -7.898   7.002  70.692  1.00  0.00    -0.097 A  
HETATM   21  C   UNL     1     -10.930   8.853  69.834  1.00  0.00    -0.190 A  
HETATM   22  C   UNL     1      -8.958   7.352  69.861  1.00  0.00    -0.141 A  
ENDBRANCH   6   7
ENDBRANCH   5   6
ENDBRANCH   4   5
ENDBRANCH   2   4
TORSDOF 4
ENDMDL
MODEL      107
REMARK 921   NORMALIZED FREE ENERGY PREDICTED BY IDOCK:   -3.77 KCAL/MOL
REMARK 922        TOTAL FREE ENERGY PREDICTED BY IDOCK:   -5.24 KCAL/MOL
REMARK 923 INTER-LIGAND FREE ENERGY PREDICTED BY IDOCK:   -4.91 KCAL/MOL
REMARK 924 INTRA-LIGAND FREE ENERGY PREDICTED BY IDOCK:   -0.33 KCAL/MOL
REMARK 927      BINDING AFFINITY PREDICTED BY RF-SCORE:    0.00 PKD
ROOT
HETATM    1  C   UNL     1      -7.342  18.553  66.061  1.00  0.00    -0.240 C  
HETATM    2  N   UNL     1      -7.914  17.220  65.948  1.00  0.00    -0.519 NA 
HETATM    3  H   UNL     1      -7.393  16.541  66.503  1.00  0.00     0.000 HD 
ENDROOT
BRANCH   2   4
HETATM    4  C   UNL     1      -9.336  17.217  66.296  1.00  0.00    -0.223 C  
BRANCH   4   5
HETATM    5  C   UNL     1      -9.822  15.768  66.412  1.00  0.00    -0.296 C  
BRANCH   5   6
HETATM    6  C   UNL     1      -8.910  14.940  67.336  1.00  0.00    -0.204 C  
BRANCH   6   7
HETATM    7  C   UNL     1      -9.398  13.503  67.664  1.00  0.00    -0.216 C  
HETATM    8  C   UNL     1      -9.986  12.809  66.379  1.00  0.00    -0.268 C  
HETATM    9  C   UNL     1     -10.522  11.380  66.691  1.00  0.00    -0.285 C  
HETATM   10  C   UNL     1     -10.306  11.050  68.180  1.00  0.00    -0.204 C  
HETATM   11  C   UNL     1     -11.038  12.143  68.957  1.00  0.00    -0.290 A  
HETATM   12  C   UNL     1      -8.814  11.216  68.442  1.00  0.00    -0.157 A  
HETATM   13  C   UNL     1     -12.072  11.913  69.857  1.00  0.00    -0.344 A  
HETATM   14  C   UNL     1      -7.979  10.201  68.903  1.00  0.00    -0.110 A  
HETATM   15  C   UNL     1      -6.638  10.493  69.143  1.00  0.00    -0.057 A  
HETATM   16  C   UNL     1     -12.652  13.003  70.502  1.00  0.00    -0.220 A  
HETATM   17  C   UNL     1     -12.200  14.304  70.246  1.00  0.00    -0.407 A  
HETATM   18  C   UNL     1      -6.150  11.791  68.952  1.00  0.00    -0.054 A  
HETATM   19  C   UNL     1      -6.993  12.814  68.507  1.00  0.00    -0.095 A  
HETATM   20  C   UNL     1     -11.156  14.537  69.343  1.00  0.00    -0.297 A  
HETATM   21  C   UNL     1      -8.322  12.529  68.207  1.00  0.00    -0.167 A  
HETATM   22  C   UNL     1     -10.569  13.459  68.687  1.00  0.00    -0.257 A  
ENDBRANCH   6   7
ENDBRANCH   5   6
ENDBRANCH   4   5
ENDBRANCH   2   4
TORSDOF 4
ENDMDL
MODEL      108
REMARK 921   NORMALIZED FREE ENERGY PREDICTED BY IDOCK:   -3.72 KCAL/MOL
REMARK 922        TOTAL FREE ENERGY PREDICTED BY IDOCK:   -5.17 KCAL/MOL
REMARK 923 INTER-LIGAND FREE ENERGY PREDICTED BY IDOCK:   -4.72 KCAL/MOL
REMARK 924 INTRA-LIGAND FREE ENERGY PREDICTED BY IDOCK:   -0.45 KCAL/MOL
REMARK 927      BINDING AFFINITY PREDICTED BY RF-SCORE:    0.00 PKD
ROOT
HETATM    1  C   UNL     1      -6.385  15.660  70.102  1.00  0.00    -0.056 C  
HETATM    2  N   UNL     1      -5.775  14.513  69.445  1.00  0.00    -0.093 NA 
HETATM    3  H   UNL     1      -6.065  13.636  69.877  1.00  0.00     0.000 HD 
ENDROOT
BRANCH   2   4
HETATM    4  C   UNL     1      -6.044  14.517  68.006  1.00  0.00    -0.153 C  
BRANCH   4   5
HETATM    5  C   UNL     1      -6.315  13.080  67.543  1.00  0.00    -0.153 C  
BRANCH   5   6
HETATM    6  C   UNL     1      -7.716  12.605  67.969  1.00  0.00    -0.139 C  
BRANCH   6   7
HETATM    7  C   UNL     1      -8.422  11.615  67.004  1.00  0.00    -0.168 C  
HETATM    8  C   UNL     1      -7.377  10.934  66.044  1.00  0.00    -0.081 C  
HETATM    9  C   UNL     1      -8.065   9.967  65.037  1.00  0.00    -0.145 C  
HETATM   10  C   UNL     1      -9.585   9.945  65.283  1.00  0.00    -0.361 C  
HETATM   11  C   UNL     1     -10.051  11.392  65.131  1.00  0.00    -0.319 A  
HETATM   12  C   UNL     1      -9.776   9.547  66.742  1.00  0.00    -0.254 A  
HETATM   13  C   UNL     1     -10.992  11.825  64.205  1.00  0.00    -0.437 A  
HETATM   14  C   UNL     1     -10.481   8.424  67.165  1.00  0.00    -0.380 A  
HETATM   15  C   UNL     1     -10.618   8.194  68.533  1.00  0.00    -0.142 A  
HETATM   16  C   UNL     1     -11.329  13.176  64.175  1.00  0.00    -0.440 A  
HETATM   17  C   UNL     1     -10.730  14.079  65.063  1.00  0.00    -0.409 A  
HETATM   18  C   UNL     1     -10.082   9.094  69.460  1.00  0.00    -0.202 A  
HETATM   19  C   UNL     1      -9.390  10.232  69.035  1.00  0.00    -0.195 A  
HETATM   20  C   UNL     1      -9.785  13.644  66.000  1.00  0.00    -0.239 A  
HETATM   21  C   UNL     1      -9.192  10.450  67.673  1.00  0.00    -0.157 A  
HETATM   22  C   UNL     1      -9.434  12.298  66.039  1.00  0.00    -0.194 A  
ENDBRANCH   6   7
ENDBRANCH   5   6
ENDBRANCH   4   5
ENDBRANCH   2   4
TORSDOF 4
ENDMDL
MODEL      109
REMARK 921   NORMALIZED FREE ENERGY PREDICTED BY IDOCK:   -3.71 KCAL/MOL
REMARK 922        TOTAL FREE ENERGY PREDICTED BY IDOCK:   -5.17 KCAL/MOL
REMARK 923 INTER-LIGAND FREE ENERGY PREDICTED BY IDOCK:   -4.78 KCAL/MOL
REMARK 924 INTRA-LIGAND FREE ENERGY PREDICTED BY IDOCK:   -0.38 KCAL/MOL
REMARK 927      BINDING AFFINITY PREDICTED BY RF-SCORE:    0.00 PKD
ROOT
HETATM    1  C   UNL     1     -13.191  13.721  71.489  1.00  0.00    -0.341 C  
HETATM    2  N   UNL     1     -12.183  13.279  70.536  1.00  0.00    -0.398 NA 
HETATM    3  H   UNL     1     -11.285  13.734  70.704  1.00  0.00     0.000 HD 
ENDROOT
BRANCH   2   4
HETATM    4  C   UNL     1     -12.053  11.821  70.535  1.00  0.00    -0.347 C  
BRANCH   4   5
HETATM    5  C   UNL     1     -12.059  11.319  69.086  1.00  0.00    -0.348 C  
BRANCH   5   6
HETATM    6  C   UNL     1     -11.291  12.274  68.155  1.00  0.00    -0.349 C  
BRANCH   6   7
HETATM    7  C   UNL     1      -9.830  11.869  67.818  1.00  0.00    -0.187 C  
HETATM    8  C   UNL     1      -9.304  10.791  68.837  1.00  0.00    -0.183 C  
HETATM    9  C   UNL     1      -7.825  10.398  68.547  1.00  0.00    -0.107 C  
HETATM   10  C   UNL     1      -7.304  11.176  67.324  1.00  0.00    -0.118 C  
HETATM   11  C   UNL     1      -7.470  12.655  67.672  1.00  0.00    -0.143 A  
HETATM   12  C   UNL     1      -8.258  10.860  66.178  1.00  0.00    -0.168 A  
HETATM   13  C   UNL     1      -6.429  13.574  67.725  1.00  0.00    -0.175 A  
HETATM   14  C   UNL     1      -7.877  10.264  64.979  1.00  0.00    -0.133 A  
HETATM   15  C   UNL     1      -8.841  10.066  63.992  1.00  0.00    -0.246 A  
HETATM   16  C   UNL     1      -6.720  14.896  68.054  1.00  0.00    -0.152 A  
HETATM   17  C   UNL     1      -8.038  15.288  68.324  1.00  0.00    -0.137 A  
HETATM   18  C   UNL     1     -10.160  10.488  64.195  1.00  0.00    -0.351 A  
HETATM   19  C   UNL     1     -10.538  11.104  65.392  1.00  0.00    -0.291 A  
HETATM   20  C   UNL     1      -9.088  14.364  68.267  1.00  0.00    -0.193 A  
HETATM   21  C   UNL     1      -9.603  11.258  66.413  1.00  0.00    -0.223 A  
HETATM   22  C   UNL     1      -8.813  13.039  67.945  1.00  0.00    -0.193 A  
ENDBRANCH   6   7
ENDBRANCH   5   6
ENDBRANCH   4   5
ENDBRANCH   2   4
TORSDOF 4
ENDMDL
MODEL      110
REMARK 921   NORMALIZED FREE ENERGY PREDICTED BY IDOCK:   -3.69 KCAL/MOL
REMARK 922        TOTAL FREE ENERGY PREDICTED BY IDOCK:   -5.14 KCAL/MOL
REMARK 923 INTER-LIGAND FREE ENERGY PREDICTED BY IDOCK:   -5.72 KCAL/MOL
REMARK 924 INTRA-LIGAND FREE ENERGY PREDICTED BY IDOCK:    0.58 KCAL/MOL
REMARK 927      BINDING AFFINITY PREDICTED BY RF-SCORE:    0.00 PKD
ROOT
HETATM    1  C   UNL     1     -11.736  10.852  69.950  1.00  0.00    -0.339 C  
HETATM    2  N   UNL     1     -13.034  10.313  70.331  1.00  0.00    -0.554 NA 
HETATM    3  H   UNL     1     -13.371   9.633  69.649  1.00  0.00     0.000 HD 
ENDROOT
BRANCH   2   4
HETATM    4  C   UNL     1     -13.001   9.746  71.681  1.00  0.00    -0.419 C  
BRANCH   4   5
HETATM    5  C   UNL     1     -12.695   8.247  71.588  1.00  0.00    -0.351 C  
BRANCH   5   6
HETATM    6  C   UNL     1     -11.895   7.758  72.809  1.00  0.00    -0.247 C  
BRANCH   6   7
HETATM    7  C   UNL     1     -10.952   6.549  72.566  1.00  0.00    -0.281 C  
HETATM    8  C   UNL     1     -11.490   5.267  73.305  1.00  0.00    -0.250 C  
HETATM    9  C   UNL     1     -10.540   4.050  73.112  1.00  0.00    -0.265 C  
HETATM   10  C   UNL     1      -9.342   4.452  72.231  1.00  0.00    -0.168 C  
HETATM   11  C   UNL     1      -8.672   5.621  72.951  1.00  0.00    -0.121 A  
HETATM   12  C   UNL     1      -9.928   4.984  70.929  1.00  0.00    -0.286 A  
HETATM   13  C   UNL     1      -7.354   5.625  73.391  1.00  0.00    -0.091 A  
HETATM   14  C   UNL     1      -9.670   4.445  69.671  1.00  0.00    -0.289 A  
HETATM   15  C   UNL     1     -10.237   5.051  68.552  1.00  0.00    -0.143 A  
HETATM   16  C   UNL     1      -6.866   6.761  74.033  1.00  0.00    -0.071 A  
HETATM   17  C   UNL     1      -7.691   7.877  74.228  1.00  0.00    -0.246 A  
HETATM   18  C   UNL     1     -11.026   6.199  68.690  1.00  0.00    -0.415 A  
HETATM   19  C   UNL     1     -11.270   6.751  69.952  1.00  0.00    -0.379 A  
HETATM   20  C   UNL     1      -9.018   7.875  73.782  1.00  0.00    -0.324 A  
HETATM   21  C   UNL     1     -10.761   6.126  71.088  1.00  0.00    -0.312 A  
HETATM   22  C   UNL     1      -9.521   6.746  73.143  1.00  0.00    -0.166 A  
ENDBRANCH   6   7
ENDBRANCH   5   6
ENDBRANCH   4   5
ENDBRANCH   2   4
TORSDOF 4
ENDMDL
MODEL      111
REMARK 921   NORMALIZED FREE ENERGY PREDICTED BY IDOCK:   -3.67 KCAL/MOL
REMARK 922        TOTAL FREE ENERGY PREDICTED BY IDOCK:   -5.12 KCAL/MOL
REMARK 923 INTER-LIGAND FREE ENERGY PREDICTED BY IDOCK:   -4.73 KCAL/MOL
REMARK 924 INTRA-LIGAND FREE ENERGY PREDICTED BY IDOCK:   -0.39 KCAL/MOL
REMARK 927      BINDING AFFINITY PREDICTED BY RF-SCORE:    0.00 PKD
ROOT
HETATM    1  C   UNL     1     -10.842   3.359  63.499  1.00  0.00    -0.206 C  
HETATM    2  N   UNL     1     -10.975   4.282  64.616  1.00  0.00    -0.717 NA 
HETATM    3  H   UNL     1     -11.801   4.073  65.177  1.00  0.00     0.000 HD 
ENDROOT
BRANCH   2   4
HETATM    4  C   UNL     1      -9.763   4.308  65.436  1.00  0.00    -0.200 C  
BRANCH   4   5
HETATM    5  C   UNL     1     -10.138   4.679  66.875  1.00  0.00    -0.227 C  
BRANCH   5   6
HETATM    6  C   UNL     1      -9.101   5.629  67.501  1.00  0.00    -0.106 C  
BRANCH   6   7
HETATM    7  C   UNL     1      -9.534   6.343  68.810  1.00  0.00    -0.127 C  
HETATM    8  C   UNL     1     -10.737   5.584  69.485  1.00  0.00    -0.332 C  
HETATM    9  C   UNL     1     -11.219   6.304  70.778  1.00  0.00    -0.387 C  
HETATM   10  C   UNL     1     -10.360   7.557  71.035  1.00  0.00    -0.204 C  
HETATM   11  C   UNL     1     -10.504   8.422  69.784  1.00  0.00    -0.220 A  
HETATM   12  C   UNL     1      -8.915   7.077  71.103  1.00  0.00    -0.146 A  
HETATM   13  C   UNL     1     -11.004   9.719  69.775  1.00  0.00    -0.287 A  
HETATM   14  C   UNL     1      -8.083   7.240  72.207  1.00  0.00    -0.109 A  
HETATM   15  C   UNL     1      -6.766   6.792  72.127  1.00  0.00    -0.059 A  
HETATM   16  C   UNL     1     -11.079  10.398  68.561  1.00  0.00    -0.318 A  
HETATM   17  C   UNL     1     -10.658   9.784  67.375  1.00  0.00    -0.330 A  
HETATM   18  C   UNL     1      -6.283   6.218  70.945  1.00  0.00    -0.039 A  
HETATM   19  C   UNL     1      -7.113   6.073  69.829  1.00  0.00    -0.072 A  
HETATM   20  C   UNL     1     -10.151   8.479  67.383  1.00  0.00    -0.298 A  
HETATM   21  C   UNL     1      -8.449   6.460  69.909  1.00  0.00    -0.131 A  
HETATM   22  C   UNL     1     -10.074   7.785  68.586  1.00  0.00    -0.211 A  
ENDBRANCH   6   7
ENDBRANCH   5   6
ENDBRANCH   4   5
ENDBRANCH   2   4
TORSDOF 4
ENDMDL
MODEL      112
REMARK 921   NORMALIZED FREE ENERGY PREDICTED BY IDOCK:   -3.67 KCAL/MOL
REMARK 922        TOTAL FREE ENERGY PREDICTED BY IDOCK:   -5.11 KCAL/MOL
REMARK 923 INTER-LIGAND FREE ENERGY PREDICTED BY IDOCK:   -4.57 KCAL/MOL
REMARK 924 INTRA-LIGAND FREE ENERGY PREDICTED BY IDOCK:   -0.54 KCAL/MOL
REMARK 927      BINDING AFFINITY PREDICTED BY RF-SCORE:    0.00 PKD
ROOT
HETATM    1  C   UNL     1     -11.834   9.004  72.107  1.00  0.00    -0.313 C  
HETATM    2  N   UNL     1     -12.036   8.250  70.878  1.00  0.00    -0.465 NA 
HETATM    3  H   UNL     1     -11.339   8.490  70.173  1.00  0.00     0.000 HD 
ENDROOT
BRANCH   2   4
HETATM    4  C   UNL     1     -12.065   6.809  71.134  1.00  0.00    -0.370 C  
BRANCH   4   5
HETATM    5  C   UNL     1     -11.085   6.111  70.185  1.00  0.00    -0.448 C  
BRANCH   5   6
HETATM    6  C   UNL     1     -11.198   6.663  68.752  1.00  0.00    -0.256 C  
BRANCH   6   7
HETATM    7  C   UNL     1      -9.856   6.951  68.025  1.00  0.00    -0.153 C  
HETATM    8  C   UNL     1      -8.652   6.890  69.037  1.00  0.00    -0.128 C  
HETATM    9  C   UNL     1      -7.299   7.217  68.341  1.00  0.00    -0.103 C  
HETATM   10  C   UNL     1      -7.530   7.495  66.844  1.00  0.00    -0.098 C  
HETATM   11  C   UNL     1      -8.524   8.653  66.786  1.00  0.00    -0.117 A  
HETATM   12  C   UNL     1      -8.224   6.260  66.283  1.00  0.00    -0.117 A  
HETATM   13  C   UNL     1      -8.274   9.878  66.178  1.00  0.00    -0.118 A  
HETATM   14  C   UNL     1      -7.716   5.470  65.256  1.00  0.00    -0.090 A  
HETATM   15  C   UNL     1      -8.470   4.388  64.804  1.00  0.00    -0.123 A  
HETATM   16  C   UNL     1      -9.272  10.849  66.195  1.00  0.00    -0.205 A  
HETATM   17  C   UNL     1     -10.503  10.594  66.813  1.00  0.00    -0.303 A  
HETATM   18  C   UNL     1      -9.729   4.123  65.354  1.00  0.00    -0.201 A  
HETATM   19  C   UNL     1     -10.248   4.928  66.373  1.00  0.00    -0.313 A  
HETATM   20  C   UNL     1     -10.758   9.360  67.423  1.00  0.00    -0.280 A  
HETATM   21  C   UNL     1      -9.485   5.978  66.878  1.00  0.00    -0.146 A  
HETATM   22  C   UNL     1      -9.769   8.380  67.419  1.00  0.00    -0.222 A  
ENDBRANCH   6   7
ENDBRANCH   5   6
ENDBRANCH   4   5
ENDBRANCH   2   4
TORSDOF 4
ENDMDL
MODEL      113
REMARK 921   NORMALIZED FREE ENERGY PREDICTED BY IDOCK:   -3.64 KCAL/MOL
REMARK 922        TOTAL FREE ENERGY PREDICTED BY IDOCK:   -5.08 KCAL/MOL
REMARK 923 INTER-LIGAND FREE ENERGY PREDICTED BY IDOCK:   -4.77 KCAL/MOL
REMARK 924 INTRA-LIGAND FREE ENERGY PREDICTED BY IDOCK:   -0.31 KCAL/MOL
REMARK 927      BINDING AFFINITY PREDICTED BY RF-SCORE:    0.00 PKD
ROOT
HETATM    1  C   UNL     1     -12.619  12.061  63.231  1.00  0.00    -0.385 C  
HETATM    2  N   UNL     1     -12.634  13.316  63.969  1.00  0.00    -0.673 NA 
HETATM    3  H   UNL     1     -13.445  13.884  63.724  1.00  0.00     0.000 HD 
ENDROOT
BRANCH   2   4
HETATM    4  C   UNL     1     -12.558  13.087  65.413  1.00  0.00    -0.422 C  
BRANCH   4   5
HETATM    5  C   UNL     1     -11.086  13.069  65.840  1.00  0.00    -0.303 C  
BRANCH   5   6
HETATM    6  C   UNL     1     -10.766  11.840  66.711  1.00  0.00    -0.289 C  
BRANCH   6   7
HETATM    7  C   UNL     1      -9.756  10.825  66.112  1.00  0.00    -0.253 C  
HETATM    8  C   UNL     1      -9.874  10.783  64.544  1.00  0.00    -0.369 C  
HETATM    9  C   UNL     1      -8.900   9.741  63.920  1.00  0.00    -0.259 C  
HETATM   10  C   UNL     1      -8.082   9.054  65.031  1.00  0.00    -0.137 C  
HETATM   11  C   UNL     1      -9.108   8.423  65.971  1.00  0.00    -0.235 A  
HETATM   12  C   UNL     1      -7.379  10.170  65.795  1.00  0.00    -0.128 A  
HETATM   13  C   UNL     1      -9.182   7.066  66.261  1.00  0.00    -0.166 A  
HETATM   14  C   UNL     1      -5.998  10.282  65.929  1.00  0.00    -0.094 A  
HETATM   15  C   UNL     1      -5.480  11.329  66.690  1.00  0.00    -0.126 A  
HETATM   16  C   UNL     1     -10.167   6.622  67.139  1.00  0.00    -0.275 A  
HETATM   17  C   UNL     1     -11.064   7.528  67.719  1.00  0.00     0.088 A  
HETATM   18  C   UNL     1      -6.337  12.230  67.331  1.00  0.00    -0.152 A  
HETATM   19  C   UNL     1      -7.725  12.106  67.212  1.00  0.00    -0.168 A  
HETATM   20  C   UNL     1     -10.988   8.896  67.431  1.00  0.00     0.079 A  
HETATM   21  C   UNL     1      -8.260  11.102  66.409  1.00  0.00    -0.164 A  
HETATM   22  C   UNL     1     -10.013   9.355  66.551  1.00  0.00    -0.339 A  
ENDBRANCH   6   7
ENDBRANCH   5   6
ENDBRANCH   4   5
ENDBRANCH   2   4
TORSDOF 4
ENDMDL
MODEL      114
REMARK 921   NORMALIZED FREE ENERGY PREDICTED BY IDOCK:   -3.63 KCAL/MOL
REMARK 922        TOTAL FREE ENERGY PREDICTED BY IDOCK:   -5.06 KCAL/MOL
REMARK 923 INTER-LIGAND FREE ENERGY PREDICTED BY IDOCK:   -5.18 KCAL/MOL
REMARK 924 INTRA-LIGAND FREE ENERGY PREDICTED BY IDOCK:    0.11 KCAL/MOL
REMARK 927      BINDING AFFINITY PREDICTED BY RF-SCORE:    0.00 PKD
ROOT
HETATM    1  C   UNL     1      -7.043  13.797  68.795  1.00  0.00    -0.106 C  
HETATM    2  N   UNL     1      -7.821  13.856  67.566  1.00  0.00    -0.173 NA 
HETATM    3  H   UNL     1      -7.226  13.769  66.742  1.00  0.00     0.000 HD 
ENDROOT
BRANCH   2   4
HETATM    4  C   UNL     1      -8.890  12.857  67.563  1.00  0.00    -0.192 C  
BRANCH   4   5
HETATM    5  C   UNL     1      -8.472  11.671  68.440  1.00  0.00    -0.157 C  
BRANCH   5   6
HETATM    6  C   UNL     1      -9.283  10.407  68.103  1.00  0.00    -0.145 C  
BRANCH   6   7
HETATM    7  C   UNL     1      -9.833   9.608  69.316  1.00  0.00    -0.195 C  
HETATM    8  C   UNL     1     -10.475   8.251  68.843  1.00  0.00    -0.209 C  
HETATM    9  C   UNL     1     -11.073   7.450  70.036  1.00  0.00    -0.238 C  
HETATM   10  C   UNL     1     -10.848   8.219  71.352  1.00  0.00    -0.293 C  
HETATM   11  C   UNL     1     -11.514   9.579  71.156  1.00  0.00    -0.430 A  
HETATM   12  C   UNL     1      -9.345   8.450  71.460  1.00  0.00    -0.263 A  
HETATM   13  C   UNL     1     -12.542  10.076  71.948  1.00  0.00    -0.454 A  
HETATM   14  C   UNL     1      -8.552   7.989  72.507  1.00  0.00    -0.227 A  
HETATM   15  C   UNL     1      -7.194   8.303  72.509  1.00  0.00    -0.130 A  
HETATM   16  C   UNL     1     -13.059  11.337  71.661  1.00  0.00    -0.513 A  
HETATM   17  C   UNL     1     -12.550  12.088  70.593  1.00  0.00    -0.255 A  
HETATM   18  C   UNL     1      -6.648   9.095  71.493  1.00  0.00    -0.034 A  
HETATM   19  C   UNL     1      -7.449   9.574  70.451  1.00  0.00    -0.158 A  
HETATM   20  C   UNL     1     -11.512  11.591  69.797  1.00  0.00    -0.362 A  
HETATM   21  C   UNL     1      -8.796   9.222  70.400  1.00  0.00    -0.271 A  
HETATM   22  C   UNL     1     -10.988  10.331  70.068  1.00  0.00    -0.371 A  
ENDBRANCH   6   7
ENDBRANCH   5   6
ENDBRANCH   4   5
ENDBRANCH   2   4
TORSDOF 4
ENDMDL
MODEL      115
REMARK 921   NORMALIZED FREE ENERGY PREDICTED BY IDOCK:   -3.55 KCAL/MOL
REMARK 922        TOTAL FREE ENERGY PREDICTED BY IDOCK:   -4.97 KCAL/MOL
REMARK 923 INTER-LIGAND FREE ENERGY PREDICTED BY IDOCK:   -4.53 KCAL/MOL
REMARK 924 INTRA-LIGAND FREE ENERGY PREDICTED BY IDOCK:   -0.44 KCAL/MOL
REMARK 927      BINDING AFFINITY PREDICTED BY RF-SCORE:    0.00 PKD
ROOT
HETATM    1  C   UNL     1     -12.820  14.159  65.319  1.00  0.00    -0.344 C  
HETATM    2  N   UNL     1     -12.324  13.701  64.029  1.00  0.00    -0.671 NA 
HETATM    3  H   UNL     1     -11.546  14.274  63.702  1.00  0.00     0.000 HD 
ENDROOT
BRANCH   2   4
HETATM    4  C   UNL     1     -11.965  12.283  64.067  1.00  0.00    -0.462 C  
BRANCH   4   5
HETATM    5  C   UNL     1     -11.491  11.923  65.480  1.00  0.00    -0.311 C  
BRANCH   5   6
HETATM    6  C   UNL     1     -10.104  11.256  65.457  1.00  0.00    -0.306 C  
BRANCH   6   7
HETATM    7  C   UNL     1      -9.618  10.648  66.800  1.00  0.00    -0.200 C  
HETATM    8  C   UNL     1     -10.768  10.682  67.873  1.00  0.00    -0.292 C  
HETATM    9  C   UNL     1     -10.293  10.115  69.244  1.00  0.00    -0.242 C  
HETATM   10  C   UNL     1      -8.823   9.667  69.147  1.00  0.00    -0.157 C  
HETATM   11  C   UNL     1      -8.040  10.905  68.712  1.00  0.00    -0.145 A  
HETATM   12  C   UNL     1      -8.759   8.654  68.010  1.00  0.00    -0.141 A  
HETATM   13  C   UNL     1      -7.006  11.480  69.439  1.00  0.00    -0.071 A  
HETATM   14  C   UNL     1      -8.335   7.336  68.154  1.00  0.00    -0.124 A  
HETATM   15  C   UNL     1      -8.283   6.520  67.025  1.00  0.00    -0.113 A  
HETATM   16  C   UNL     1      -6.372  12.609  68.924  1.00  0.00    -0.086 A  
HETATM   17  C   UNL     1      -6.772  13.150  67.695  1.00  0.00    -0.163 A  
HETATM   18  C   UNL     1      -8.623   7.030  65.767  1.00  0.00    -0.138 A  
HETATM   19  C   UNL     1      -9.031   8.359  65.620  1.00  0.00    -0.183 A  
HETATM   20  C   UNL     1      -7.811  12.569  66.959  1.00  0.00    -0.065 A  
HETATM   21  C   UNL     1      -9.145   9.174  66.744  1.00  0.00    -0.176 A  
HETATM   22  C   UNL     1      -8.458  11.444  67.463  1.00  0.00    -0.137 A  
ENDBRANCH   6   7
ENDBRANCH   5   6
ENDBRANCH   4   5
ENDBRANCH   2   4
TORSDOF 4
ENDMDL
MODEL      116
REMARK 921   NORMALIZED FREE ENERGY PREDICTED BY IDOCK:   -3.55 KCAL/MOL
REMARK 922        TOTAL FREE ENERGY PREDICTED BY IDOCK:   -4.96 KCAL/MOL
REMARK 923 INTER-LIGAND FREE ENERGY PREDICTED BY IDOCK:   -4.84 KCAL/MOL
REMARK 924 INTRA-LIGAND FREE ENERGY PREDICTED BY IDOCK:   -0.12 KCAL/MOL
REMARK 927      BINDING AFFINITY PREDICTED BY RF-SCORE:    0.00 PKD
ROOT
HETATM    1  C   UNL     1     -10.124   3.154  73.155  1.00  0.00    -0.137 C  
HETATM    2  N   UNL     1     -11.324   3.958  73.334  1.00  0.00    -0.209 NA 
HETATM    3  H   UNL     1     -11.904   3.600  74.092  1.00  0.00     0.000 HD 
ENDROOT
BRANCH   2   4
HETATM    4  C   UNL     1     -10.996   5.371  73.531  1.00  0.00    -0.268 C  
BRANCH   4   5
HETATM    5  C   UNL     1     -10.986   6.078  72.171  1.00  0.00    -0.314 C  
BRANCH   5   6
HETATM    6  C   UNL     1      -9.676   6.854  71.947  1.00  0.00    -0.166 C  
BRANCH   6   7
HETATM    7  C   UNL     1      -9.747   8.037  70.944  1.00  0.00    -0.183 C  
HETATM    8  C   UNL     1     -10.852   9.069  71.380  1.00  0.00    -0.400 C  
HETATM    9  C   UNL     1     -10.973  10.245  70.367  1.00  0.00    -0.365 C  
HETATM   10  C   UNL     1      -9.955  10.063  69.225  1.00  0.00    -0.226 C  
HETATM   11  C   UNL     1     -10.271   8.705  68.601  1.00  0.00    -0.214 A  
HETATM   12  C   UNL     1      -8.586   9.963  69.886  1.00  0.00    -0.216 A  
HETATM   13  C   UNL     1     -10.625   8.511  67.271  1.00  0.00    -0.315 A  
HETATM   14  C   UNL     1      -7.527  10.833  69.639  1.00  0.00    -0.082 A  
HETATM   15  C   UNL     1      -6.310  10.608  70.279  1.00  0.00    -0.141 A  
HETATM   16  C   UNL     1     -10.884   7.216  66.830  1.00  0.00    -0.307 A  
HETATM   17  C   UNL     1     -10.788   6.131  67.712  1.00  0.00    -0.413 A  
HETATM   18  C   UNL     1      -6.149   9.508  71.129  1.00  0.00    -0.074 A  
HETATM   19  C   UNL     1      -7.207   8.623  71.362  1.00  0.00    -0.101 A  
HETATM   20  C   UNL     1     -10.428   6.325  69.051  1.00  0.00    -0.287 A  
HETATM   21  C   UNL     1      -8.448   8.864  70.779  1.00  0.00    -0.216 A  
HETATM   22  C   UNL     1     -10.170   7.613  69.509  1.00  0.00    -0.209 A  
ENDBRANCH   6   7
ENDBRANCH   5   6
ENDBRANCH   4   5
ENDBRANCH   2   4
TORSDOF 4
ENDMDL
MODEL      117
REMARK 921   NORMALIZED FREE ENERGY PREDICTED BY IDOCK:   -3.50 KCAL/MOL
REMARK 922        TOTAL FREE ENERGY PREDICTED BY IDOCK:   -4.90 KCAL/MOL
REMARK 923 INTER-LIGAND FREE ENERGY PREDICTED BY IDOCK:   -4.51 KCAL/MOL
REMARK 924 INTRA-LIGAND FREE ENERGY PREDICTED BY IDOCK:   -0.39 KCAL/MOL
REMARK 927      BINDING AFFINITY PREDICTED BY RF-SCORE:    0.00 PKD
ROOT
HETATM    1  C   UNL     1     -11.412  12.688  65.951  1.00  0.00    -0.363 C  
HETATM    2  N   UNL     1     -11.499  12.850  67.395  1.00  0.00    -0.315 NA 
HETATM    3  H   UNL     1     -12.337  13.365  67.663  1.00  0.00     0.000 HD 
ENDROOT
BRANCH   2   4
HETATM    4  C   UNL     1     -11.419  11.561  68.083  1.00  0.00    -0.315 C  
BRANCH   4   5
HETATM    5  C   UNL     1     -10.536  11.709  69.327  1.00  0.00    -0.025 C  
BRANCH   5   6
HETATM    6  C   UNL     1      -9.386  10.685  69.328  1.00  0.00    -0.136 C  
BRANCH   6   7
HETATM    7  C   UNL     1      -9.731   9.275  69.879  1.00  0.00    -0.220 C  
HETATM    8  C   UNL     1     -11.010   9.334  70.794  1.00  0.00    -0.349 C  
HETATM    9  C   UNL     1     -11.353   7.939  71.395  1.00  0.00    -0.285 C  
HETATM   10  C   UNL     1     -10.337   6.890  70.903  1.00  0.00    -0.218 C  
HETATM   11  C   UNL     1      -8.966   7.405  71.338  1.00  0.00    -0.141 A  
HETATM   12  C   UNL     1     -10.386   6.930  69.380  1.00  0.00    -0.220 A  
HETATM   13  C   UNL     1      -8.095   6.718  72.175  1.00  0.00    -0.100 A  
HETATM   14  C   UNL     1     -10.715   5.844  68.575  1.00  0.00    -0.327 A  
HETATM   15  C   UNL     1     -10.683   6.000  67.190  1.00  0.00    -0.409 A  
HETATM   16  C   UNL     1      -6.871   7.302  72.490  1.00  0.00    -0.067 A  
HETATM   17  C   UNL     1      -6.527   8.557  71.972  1.00  0.00    -0.073 A  
HETATM   18  C   UNL     1     -10.295   7.219  66.623  1.00  0.00    -0.229 A  
HETATM   19  C   UNL     1      -9.946   8.305  67.433  1.00  0.00    -0.271 A  
HETATM   20  C   UNL     1      -7.401   9.249  71.125  1.00  0.00    -0.050 A  
HETATM   21  C   UNL     1     -10.028   8.187  68.818  1.00  0.00    -0.198 A  
HETATM   22  C   UNL     1      -8.631   8.681  70.804  1.00  0.00    -0.197 A  
ENDBRANCH   6   7
ENDBRANCH   5   6
ENDBRANCH   4   5
ENDBRANCH   2   4
TORSDOF 4
ENDMDL
MODEL      118
REMARK 921   NORMALIZED FREE ENERGY PREDICTED BY IDOCK:   -3.49 KCAL/MOL
REMARK 922        TOTAL FREE ENERGY PREDICTED BY IDOCK:   -4.90 KCAL/MOL
REMARK 923 INTER-LIGAND FREE ENERGY PREDICTED BY IDOCK:   -4.34 KCAL/MOL
REMARK 924 INTRA-LIGAND FREE ENERGY PREDICTED BY IDOCK:   -0.55 KCAL/MOL
REMARK 927      BINDING AFFINITY PREDICTED BY RF-SCORE:    0.00 PKD
ROOT
HETATM    1  C   UNL     1     -10.308   5.488  73.946  1.00  0.00    -0.261 C  
HETATM    2  N   UNL     1     -10.168   6.514  72.923  1.00  0.00    -0.184 NA 
HETATM    3  H   UNL     1     -10.839   7.271  73.058  1.00  0.00     0.000 HD 
ENDROOT
BRANCH   2   4
HETATM    4  C   UNL     1      -8.796   7.021  72.860  1.00  0.00    -0.125 C  
BRANCH   4   5
HETATM    5  C   UNL     1      -8.829   8.520  72.543  1.00  0.00    -0.245 C  
BRANCH   5   6
HETATM    6  C   UNL     1      -8.123   8.831  71.210  1.00  0.00    -0.195 C  
BRANCH   6   7
HETATM    7  C   UNL     1      -9.044   9.265  70.038  1.00  0.00    -0.229 C  
HETATM    8  C   UNL     1     -10.448   9.730  70.576  1.00  0.00    -0.366 C  
HETATM    9  C   UNL     1     -11.406  10.131  69.416  1.00  0.00    -0.233 C  
HETATM   10  C   UNL     1     -10.689   9.970  68.062  1.00  0.00    -0.303 C  
HETATM   11  C   UNL     1     -10.254   8.507  67.995  1.00  0.00    -0.264 A  
HETATM   12  C   UNL     1      -9.429  10.825  68.141  1.00  0.00    -0.161 A  
HETATM   13  C   UNL     1     -10.650   7.610  67.011  1.00  0.00    -0.406 A  
HETATM   14  C   UNL     1      -9.141  11.881  67.281  1.00  0.00    -0.178 A  
HETATM   15  C   UNL     1      -7.933  12.560  67.434  1.00  0.00    -0.180 A  
HETATM   16  C   UNL     1     -10.176   6.302  67.066  1.00  0.00    -0.256 A  
HETATM   17  C   UNL     1      -9.315   5.901  68.096  1.00  0.00    -0.117 A  
HETATM   18  C   UNL     1      -7.016  12.164  68.414  1.00  0.00    -0.078 A  
HETATM   19  C   UNL     1      -7.299  11.090  69.265  1.00  0.00    -0.113 A  
HETATM   20  C   UNL     1      -8.911   6.804  69.086  1.00  0.00    -0.134 A  
HETATM   21  C   UNL     1      -8.524  10.437  69.167  1.00  0.00    -0.168 A  
HETATM   22  C   UNL     1      -9.380   8.114  69.047  1.00  0.00    -0.147 A  
ENDBRANCH   6   7
ENDBRANCH   5   6
ENDBRANCH   4   5
ENDBRANCH   2   4
TORSDOF 4
ENDMDL
MODEL      119
REMARK 921   NORMALIZED FREE ENERGY PREDICTED BY IDOCK:   -3.48 KCAL/MOL
REMARK 922        TOTAL FREE ENERGY PREDICTED BY IDOCK:   -4.88 KCAL/MOL
REMARK 923 INTER-LIGAND FREE ENERGY PREDICTED BY IDOCK:   -4.49 KCAL/MOL
REMARK 924 INTRA-LIGAND FREE ENERGY PREDICTED BY IDOCK:   -0.39 KCAL/MOL
REMARK 927      BINDING AFFINITY PREDICTED BY RF-SCORE:    0.00 PKD
ROOT
HETATM    1  C   UNL     1      -6.834  11.648  66.992  1.00  0.00    -0.144 C  
HETATM    2  N   UNL     1      -6.417  10.264  67.165  1.00  0.00    -0.067 NA 
HETATM    3  H   UNL     1      -5.490  10.100  66.772  1.00  0.00     0.000 HD 
ENDROOT
BRANCH   2   4
HETATM    4  C   UNL     1      -6.483   9.857  68.569  1.00  0.00    -0.050 C  
BRANCH   4   5
HETATM    5  C   UNL     1      -7.903   9.375  68.887  1.00  0.00    -0.083 C  
BRANCH   5   6
HETATM    6  C   UNL     1      -7.926   8.468  70.131  1.00  0.00    -0.105 C  
BRANCH   6   7
HETATM    7  C   UNL     1      -9.050   7.398  70.173  1.00  0.00    -0.148 C  
HETATM    8  C   UNL     1      -9.463   6.969  68.716  1.00  0.00    -0.136 C  
HETATM    9  C   UNL     1     -10.619   5.926  68.729  1.00  0.00    -0.340 C  
HETATM   10  C   UNL     1     -11.019   5.601  70.181  1.00  0.00    -0.303 C  
HETATM   11  C   UNL     1     -11.414   6.936  70.810  1.00  0.00    -0.381 A  
HETATM   12  C   UNL     1      -9.751   5.119  70.876  1.00  0.00    -0.252 A  
HETATM   13  C   UNL     1     -12.664   7.214  71.350  1.00  0.00    -0.433 A  
HETATM   14  C   UNL     1      -9.604   3.866  71.463  1.00  0.00    -0.236 A  
HETATM   15  C   UNL     1      -8.404   3.561  72.104  1.00  0.00    -0.082 A  
HETATM   16  C   UNL     1     -12.892   8.475  71.896  1.00  0.00    -0.399 A  
HETATM   17  C   UNL     1     -11.878   9.442  71.901  1.00  0.00    -0.402 A  
HETATM   18  C   UNL     1      -7.380   4.512  72.181  1.00  0.00    -0.072 A  
HETATM   19  C   UNL     1      -7.536   5.778  71.607  1.00  0.00    -0.094 A  
HETATM   20  C   UNL     1     -10.617   9.162  71.361  1.00  0.00    -0.412 A  
HETATM   21  C   UNL     1      -8.704   6.081  70.912  1.00  0.00    -0.135 A  
HETATM   22  C   UNL     1     -10.375   7.909  70.807  1.00  0.00    -0.211 A  
ENDBRANCH   6   7
ENDBRANCH   5   6
ENDBRANCH   4   5
ENDBRANCH   2   4
TORSDOF 4
ENDMDL
MODEL      120
REMARK 921   NORMALIZED FREE ENERGY PREDICTED BY IDOCK:   -3.46 KCAL/MOL
REMARK 922        TOTAL FREE ENERGY PREDICTED BY IDOCK:   -4.85 KCAL/MOL
REMARK 923 INTER-LIGAND FREE ENERGY PREDICTED BY IDOCK:   -4.37 KCAL/MOL
REMARK 924 INTRA-LIGAND FREE ENERGY PREDICTED BY IDOCK:   -0.48 KCAL/MOL
REMARK 927      BINDING AFFINITY PREDICTED BY RF-SCORE:    0.00 PKD
ROOT
HETATM    1  C   UNL     1     -11.173  11.740  65.986  1.00  0.00    -0.296 C  
HETATM    2  N   UNL     1     -11.720  12.108  67.284  1.00  0.00    -0.521 NA 
HETATM    3  H   UNL     1     -12.735  12.199  67.250  1.00  0.00     0.000 HD 
ENDROOT
BRANCH   2   4
HETATM    4  C   UNL     1     -11.300  11.170  68.325  1.00  0.00    -0.297 C  
BRANCH   4   5
HETATM    5  C   UNL     1     -10.178  10.281  67.777  1.00  0.00    -0.225 C  
BRANCH   5   6
HETATM    6  C   UNL     1     -10.487   8.787  67.989  1.00  0.00    -0.260 C  
BRANCH   6   7
HETATM    7  C   UNL     1      -9.519   8.018  68.928  1.00  0.00    -0.151 C  
HETATM    8  C   UNL     1      -8.111   8.720  68.971  1.00  0.00    -0.116 C  
HETATM    9  C   UNL     1      -7.108   7.943  69.873  1.00  0.00    -0.061 C  
HETATM   10  C   UNL     1      -7.796   6.707  70.482  1.00  0.00    -0.106 C  
HETATM   11  C   UNL     1      -8.291   5.881  69.295  1.00  0.00    -0.113 A  
HETATM   12  C   UNL     1      -9.020   7.223  71.229  1.00  0.00    -0.139 A  
HETATM   13  C   UNL     1      -7.907   4.572  69.030  1.00  0.00    -0.070 A  
HETATM   14  C   UNL     1      -9.242   7.047  72.592  1.00  0.00    -0.154 A  
HETATM   15  C   UNL     1     -10.424   7.533  73.148  1.00  0.00    -0.419 A  
HETATM   16  C   UNL     1      -8.437   3.933  67.912  1.00  0.00    -0.105 A  
HETATM   17  C   UNL     1      -9.341   4.599  67.074  1.00  0.00    -0.153 A  
HETATM   18  C   UNL     1     -11.381   8.159  72.343  1.00  0.00    -0.456 A  
HETATM   19  C   UNL     1     -11.166   8.320  70.970  1.00  0.00    -0.291 A  
HETATM   20  C   UNL     1      -9.732   5.916  67.342  1.00  0.00    -0.126 A  
HETATM   21  C   UNL     1      -9.967   7.893  70.406  1.00  0.00    -0.192 A  
HETATM   22  C   UNL     1      -9.207   6.570  68.452  1.00  0.00    -0.121 A  
ENDBRANCH   6   7
ENDBRANCH   5   6
ENDBRANCH   4   5
ENDBRANCH   2   4
TORSDOF 4
ENDMDL
MODEL      121
REMARK 921   NORMALIZED FREE ENERGY PREDICTED BY IDOCK:   -3.46 KCAL/MOL
REMARK 922        TOTAL FREE ENERGY PREDICTED BY IDOCK:   -4.85 KCAL/MOL
REMARK 923 INTER-LIGAND FREE ENERGY PREDICTED BY IDOCK:   -4.37 KCAL/MOL
REMARK 924 INTRA-LIGAND FREE ENERGY PREDICTED BY IDOCK:   -0.48 KCAL/MOL
REMARK 927      BINDING AFFINITY PREDICTED BY RF-SCORE:    0.00 PKD
ROOT
HETATM    1  C   UNL     1      -9.537  12.283  68.244  1.00  0.00    -0.212 C  
HETATM    2  N   UNL     1      -8.493  11.365  67.811  1.00  0.00    -0.124 NA 
HETATM    3  H   UNL     1      -7.695  11.865  67.420  1.00  0.00     0.000 HD 
ENDROOT
BRANCH   2   4
HETATM    4  C   UNL     1      -8.086  10.469  68.894  1.00  0.00    -0.138 C  
BRANCH   4   5
HETATM    5  C   UNL     1      -9.332  10.009  69.660  1.00  0.00    -0.242 C  
BRANCH   5   6
HETATM    6  C   UNL     1      -8.968   9.048  70.806  1.00  0.00    -0.286 C  
BRANCH   6   7
HETATM    7  C   UNL     1      -9.407   7.570  70.621  1.00  0.00    -0.163 C  
HETATM    8  C   UNL     1     -10.716   7.484  69.753  1.00  0.00    -0.249 C  
HETATM    9  C   UNL     1     -11.202   6.014  69.588  1.00  0.00    -0.428 C  
HETATM   10  C   UNL     1     -10.241   5.057  70.318  1.00  0.00    -0.328 C  
HETATM   11  C   UNL     1     -10.224   5.518  71.775  1.00  0.00    -0.256 A  
HETATM   12  C   UNL     1      -8.856   5.314  69.735  1.00  0.00    -0.123 A  
HETATM   13  C   UNL     1     -10.592   4.728  72.857  1.00  0.00    -0.278 A  
HETATM   14  C   UNL     1      -8.081   4.351  69.097  1.00  0.00    -0.069 A  
HETATM   15  C   UNL     1      -6.811   4.704  68.642  1.00  0.00    -0.051 A  
HETATM   16  C   UNL     1     -10.528   5.273  74.137  1.00  0.00    -0.319 A  
HETATM   17  C   UNL     1     -10.098   6.594  74.326  1.00  0.00    -0.378 A  
HETATM   18  C   UNL     1      -6.317   5.996  68.854  1.00  0.00    -0.041 A  
HETATM   19  C   UNL     1      -7.089   6.958  69.513  1.00  0.00    -0.075 A  
HETATM   20  C   UNL     1      -9.723   7.390  73.238  1.00  0.00    -0.300 A  
HETATM   21  C   UNL     1      -8.382   6.642  69.922  1.00  0.00    -0.132 A  
HETATM   22  C   UNL     1      -9.787   6.861  71.952  1.00  0.00    -0.173 A  
ENDBRANCH   6   7
ENDBRANCH   5   6
ENDBRANCH   4   5
ENDBRANCH   2   4
TORSDOF 4
ENDMDL
MODEL      122
REMARK 921   NORMALIZED FREE ENERGY PREDICTED BY IDOCK:   -3.45 KCAL/MOL
REMARK 922        TOTAL FREE ENERGY PREDICTED BY IDOCK:   -4.84 KCAL/MOL
REMARK 923 INTER-LIGAND FREE ENERGY PREDICTED BY IDOCK:   -4.45 KCAL/MOL
REMARK 924 INTRA-LIGAND FREE ENERGY PREDICTED BY IDOCK:   -0.38 KCAL/MOL
REMARK 927      BINDING AFFINITY PREDICTED BY RF-SCORE:    0.00 PKD
ROOT
HETATM    1  C   UNL     1     -10.633   3.728  63.996  1.00  0.00    -0.262 C  
HETATM    2  N   UNL     1     -11.069   4.500  65.150  1.00  0.00    -0.934 NA 
HETATM    3  H   UNL     1     -11.910   4.103  65.570  1.00  0.00     0.000 HD 
ENDROOT
BRANCH   2   4
HETATM    4  C   UNL     1      -9.995   4.642  66.134  1.00  0.00    -0.247 C  
BRANCH   4   5
HETATM    5  C   UNL     1     -10.174   5.967  66.885  1.00  0.00    -0.262 C  
BRANCH   5   6
HETATM    6  C   UNL     1      -9.279   6.032  68.135  1.00  0.00    -0.116 C  
BRANCH   6   7
HETATM    7  C   UNL     1      -9.378   7.333  68.977  1.00  0.00    -0.148 C  
HETATM    8  C   UNL     1     -10.665   8.150  68.586  1.00  0.00    -0.065 C  
HETATM    9  C   UNL     1     -10.767   9.482  69.387  1.00  0.00    -0.244 C  
HETATM   10  C   UNL     1      -9.572   9.609  70.351  1.00  0.00    -0.292 C  
HETATM   11  C   UNL     1      -8.323   9.535  69.475  1.00  0.00    -0.145 A  
HETATM   12  C   UNL     1      -9.597   8.363  71.228  1.00  0.00    -0.239 A  
HETATM   13  C   UNL     1      -7.360  10.533  69.388  1.00  0.00    -0.133 A  
HETATM   14  C   UNL     1      -9.713   8.380  72.616  1.00  0.00    -0.332 A  
HETATM   15  C   UNL     1      -9.682   7.169  73.307  1.00  0.00    -0.251 A  
HETATM   16  C   UNL     1      -6.265  10.336  68.550  1.00  0.00    -0.047 A  
HETATM   17  C   UNL     1      -6.140   9.153  67.811  1.00  0.00    -0.050 A  
HETATM   18  C   UNL     1      -9.505   5.964  72.618  1.00  0.00    -0.152 A  
HETATM   19  C   UNL     1      -9.370   5.949  71.226  1.00  0.00    -0.172 A  
HETATM   20  C   UNL     1      -7.106   8.144  67.900  1.00  0.00    -0.083 A  
HETATM   21  C   UNL     1      -9.457   7.142  70.512  1.00  0.00    -0.162 A  
HETATM   22  C   UNL     1      -8.209   8.328  68.729  1.00  0.00    -0.117 A  
ENDBRANCH   6   7
ENDBRANCH   5   6
ENDBRANCH   4   5
ENDBRANCH   2   4
TORSDOF 4
ENDMDL
MODEL      123
REMARK 921   NORMALIZED FREE ENERGY PREDICTED BY IDOCK:   -3.42 KCAL/MOL
REMARK 922        TOTAL FREE ENERGY PREDICTED BY IDOCK:   -4.80 KCAL/MOL
REMARK 923 INTER-LIGAND FREE ENERGY PREDICTED BY IDOCK:   -4.40 KCAL/MOL
REMARK 924 INTRA-LIGAND FREE ENERGY PREDICTED BY IDOCK:   -0.40 KCAL/MOL
REMARK 927      BINDING AFFINITY PREDICTED BY RF-SCORE:    0.00 PKD
ROOT
HETATM    1  C   UNL     1     -12.043  15.994  71.621  1.00  0.00    -0.472 C  
HETATM    2  N   UNL     1     -11.537  15.427  70.379  1.00  0.00    -0.294 NA 
HETATM    3  H   UNL     1     -10.578  15.094  70.484  1.00  0.00     0.000 HD 
ENDROOT
BRANCH   2   4
HETATM    4  C   UNL     1     -12.418  14.373  69.875  1.00  0.00    -0.261 C  
BRANCH   4   5
HETATM    5  C   UNL     1     -11.942  13.945  68.482  1.00  0.00    -0.394 C  
BRANCH   5   6
HETATM    6  C   UNL     1     -10.413  13.775  68.436  1.00  0.00    -0.256 C  
BRANCH   6   7
HETATM    7  C   UNL     1      -9.896  12.343  68.133  1.00  0.00    -0.213 C  
HETATM    8  C   UNL     1     -10.738  11.270  68.918  1.00  0.00    -0.246 C  
HETATM    9  C   UNL     1     -10.212   9.826  68.665  1.00  0.00    -0.210 C  
HETATM   10  C   UNL     1      -9.016   9.865  67.695  1.00  0.00    -0.133 C  
HETATM   11  C   UNL     1      -7.976  10.769  68.356  1.00  0.00    -0.124 A  
HETATM   12  C   UNL     1      -9.508  10.568  66.436  1.00  0.00    -0.208 A  
HETATM   13  C   UNL     1      -6.689  10.373  68.698  1.00  0.00    -0.053 A  
HETATM   14  C   UNL     1      -9.514   9.996  65.167  1.00  0.00    -0.331 A  
HETATM   15  C   UNL     1      -9.954  10.761  64.088  1.00  0.00    -0.405 A  
HETATM   16  C   UNL     1      -5.839  11.301  69.294  1.00  0.00    -0.049 A  
HETATM   17  C   UNL     1      -6.276  12.609  69.541  1.00  0.00    -0.121 A  
HETATM   18  C   UNL     1     -10.351  12.090  64.276  1.00  0.00    -0.357 A  
HETATM   19  C   UNL     1     -10.326  12.670  65.548  1.00  0.00    -0.305 A  
HETATM   20  C   UNL     1      -7.570  13.011  69.194  1.00  0.00     0.254 A  
HETATM   21  C   UNL     1      -9.947  11.904  66.648  1.00  0.00    -0.220 A  
HETATM   22  C   UNL     1      -8.434  12.094  68.602  1.00  0.00    -0.005 A  
ENDBRANCH   6   7
ENDBRANCH   5   6
ENDBRANCH   4   5
ENDBRANCH   2   4
TORSDOF 4
ENDMDL
MODEL      124
REMARK 921   NORMALIZED FREE ENERGY PREDICTED BY IDOCK:   -3.41 KCAL/MOL
REMARK 922        TOTAL FREE ENERGY PREDICTED BY IDOCK:   -4.79 KCAL/MOL
REMARK 923 INTER-LIGAND FREE ENERGY PREDICTED BY IDOCK:   -4.26 KCAL/MOL
REMARK 924 INTRA-LIGAND FREE ENERGY PREDICTED BY IDOCK:   -0.53 KCAL/MOL
REMARK 927      BINDING AFFINITY PREDICTED BY RF-SCORE:    0.00 PKD
ROOT
HETATM    1  C   UNL     1     -12.396  10.884  70.473  1.00  0.00    -0.374 C  
HETATM    2  N   UNL     1     -12.748   9.479  70.623  1.00  0.00    -0.514 NA 
HETATM    3  H   UNL     1     -12.253   8.896  69.948  1.00  0.00     0.000 HD 
ENDROOT
BRANCH   2   4
HETATM    4  C   UNL     1     -12.527   9.017  71.994  1.00  0.00    -0.390 C  
BRANCH   4   5
HETATM    5  C   UNL     1     -11.456   7.920  71.987  1.00  0.00    -0.351 C  
BRANCH   5   6
HETATM    6  C   UNL     1     -11.316   7.276  70.596  1.00  0.00    -0.311 C  
BRANCH   6   7
HETATM    7  C   UNL     1      -9.869   6.951  70.138  1.00  0.00    -0.185 C  
HETATM    8  C   UNL     1      -8.828   7.847  70.907  1.00  0.00    -0.141 C  
HETATM    9  C   UNL     1      -7.371   7.570  70.435  1.00  0.00    -0.072 C  
HETATM   10  C   UNL     1      -7.367   6.477  69.350  1.00  0.00    -0.092 C  
HETATM   11  C   UNL     1      -8.265   7.001  68.231  1.00  0.00    -0.124 A  
HETATM   12  C   UNL     1      -8.053   5.263  69.965  1.00  0.00    -0.084 A  
HETATM   13  C   UNL     1      -7.852   7.212  66.921  1.00  0.00    -0.107 A  
HETATM   14  C   UNL     1      -7.455   4.015  70.117  1.00  0.00    -0.045 A  
HETATM   15  C   UNL     1      -8.206   2.972  70.658  1.00  0.00    -0.073 A  
HETATM   16  C   UNL     1      -8.777   7.692  65.997  1.00  0.00    -0.178 A  
HETATM   17  C   UNL     1     -10.097   7.956  66.383  1.00  0.00    -0.149 A  
HETATM   18  C   UNL     1      -9.545   3.172  71.010  1.00  0.00    -0.228 A  
HETATM   19  C   UNL     1     -10.151   4.421  70.840  1.00  0.00    -0.199 A  
HETATM   20  C   UNL     1     -10.516   7.741  67.701  1.00  0.00    -0.308 A  
HETATM   21  C   UNL     1      -9.401   5.491  70.356  1.00  0.00    -0.198 A  
HETATM   22  C   UNL     1      -9.603   7.266  68.638  1.00  0.00    -0.141 A  
ENDBRANCH   6   7
ENDBRANCH   5   6
ENDBRANCH   4   5
ENDBRANCH   2   4
TORSDOF 4
ENDMDL
MODEL      125
REMARK 921   NORMALIZED FREE ENERGY PREDICTED BY IDOCK:   -3.38 KCAL/MOL
REMARK 922        TOTAL FREE ENERGY PREDICTED BY IDOCK:   -4.76 KCAL/MOL
REMARK 923 INTER-LIGAND FREE ENERGY PREDICTED BY IDOCK:   -5.23 KCAL/MOL
REMARK 924 INTRA-LIGAND FREE ENERGY PREDICTED BY IDOCK:    0.47 KCAL/MOL
REMARK 927      BINDING AFFINITY PREDICTED BY RF-SCORE:    0.00 PKD
ROOT
HETATM    1  C   UNL     1     -11.598  10.930  68.423  1.00  0.00    -0.276 C  
HETATM    2  N   UNL     1     -11.234   9.521  68.382  1.00  0.00    -0.489 NA 
HETATM    3  H   UNL     1     -11.025   9.216  67.431  1.00  0.00     0.000 HD 
ENDROOT
BRANCH   2   4
HETATM    4  C   UNL     1     -10.126   9.230  69.294  1.00  0.00    -0.200 C  
BRANCH   4   5
HETATM    5  C   UNL     1     -10.665   9.140  70.726  1.00  0.00    -0.327 C  
BRANCH   5   6
HETATM    6  C   UNL     1     -11.608   7.935  70.899  1.00  0.00    -0.286 C  
BRANCH   6   7
HETATM    7  C   UNL     1     -10.972   6.654  71.502  1.00  0.00    -0.287 C  
HETATM    8  C   UNL     1     -12.011   5.889  72.404  1.00  0.00    -0.206 C  
HETATM    9  C   UNL     1     -11.384   4.622  73.056  1.00  0.00    -0.287 C  
HETATM   10  C   UNL     1      -9.917   4.472  72.612  1.00  0.00    -0.217 C  
HETATM   11  C   UNL     1      -9.222   5.765  73.037  1.00  0.00    -0.140 A  
HETATM   12  C   UNL     1      -9.933   4.434  71.089  1.00  0.00    -0.243 A  
HETATM   13  C   UNL     1      -8.140   5.830  73.907  1.00  0.00    -0.109 A  
HETATM   14  C   UNL     1      -9.453   3.375  70.323  1.00  0.00    -0.247 A  
HETATM   15  C   UNL     1      -9.487   3.481  68.934  1.00  0.00    -0.210 A  
HETATM   16  C   UNL     1      -7.598   7.077  74.209  1.00  0.00    -0.123 A  
HETATM   17  C   UNL     1      -8.135   8.241  73.645  1.00  0.00    -0.248 A  
HETATM   18  C   UNL     1      -9.966   4.645  68.324  1.00  0.00    -0.130 A  
HETATM   19  C   UNL     1     -10.430   5.717  69.093  1.00  0.00    -0.346 A  
HETATM   20  C   UNL     1      -9.223   8.177  72.766  1.00  0.00    -0.341 A  
HETATM   21  C   UNL     1     -10.459   5.607  70.481  1.00  0.00    -0.347 A  
HETATM   22  C   UNL     1      -9.779   6.940  72.458  1.00  0.00    -0.169 A  
ENDBRANCH   6   7
ENDBRANCH   5   6
ENDBRANCH   4   5
ENDBRANCH   2   4
TORSDOF 4
ENDMDL
MODEL      126
REMARK 921   NORMALIZED FREE ENERGY PREDICTED BY IDOCK:   -3.36 KCAL/MOL
REMARK 922        TOTAL FREE ENERGY PREDICTED BY IDOCK:   -4.73 KCAL/MOL
REMARK 923 INTER-LIGAND FREE ENERGY PREDICTED BY IDOCK:   -4.46 KCAL/MOL
REMARK 924 INTRA-LIGAND FREE ENERGY PREDICTED BY IDOCK:   -0.27 KCAL/MOL
REMARK 927      BINDING AFFINITY PREDICTED BY RF-SCORE:    0.00 PKD
ROOT
HETATM    1  C   UNL     1      -5.876   9.000  74.401  1.00  0.00    -0.107 C  
HETATM    2  N   UNL     1      -7.309   8.744  74.422  1.00  0.00    -0.416 NA 
HETATM    3  H   UNL     1      -7.837   9.593  74.623  1.00  0.00     0.000 HD 
ENDROOT
BRANCH   2   4
HETATM    4  C   UNL     1      -7.757   8.116  73.178  1.00  0.00    -0.153 C  
BRANCH   4   5
HETATM    5  C   UNL     1      -8.773   7.016  73.509  1.00  0.00    -0.164 C  
BRANCH   5   6
HETATM    6  C   UNL     1      -9.673   6.698  72.302  1.00  0.00    -0.155 C  
BRANCH   6   7
HETATM    7  C   UNL     1      -9.355   5.380  71.544  1.00  0.00    -0.177 C  
HETATM    8  C   UNL     1      -7.803   5.124  71.503  1.00  0.00    -0.111 C  
HETATM    9  C   UNL     1      -7.454   3.829  70.711  1.00  0.00    -0.041 C  
HETATM   10  C   UNL     1      -8.745   3.159  70.204  1.00  0.00    -0.127 C  
HETATM   11  C   UNL     1      -9.449   4.209  69.347  1.00  0.00    -0.260 A  
HETATM   12  C   UNL     1      -9.609   2.910  71.435  1.00  0.00    -0.223 A  
HETATM   13  C   UNL     1      -9.762   4.049  68.002  1.00  0.00    -0.142 A  
HETATM   14  C   UNL     1     -10.050   1.656  71.847  1.00  0.00    -0.221 A  
HETATM   15  C   UNL     1     -10.871   1.568  72.969  1.00  0.00    -0.240 A  
HETATM   16  C   UNL     1     -10.409   5.088  67.337  1.00  0.00    -0.174 A  
HETATM   17  C   UNL     1     -10.737   6.270  68.014  1.00  0.00    -0.369 A  
HETATM   18  C   UNL     1     -11.269   2.724  73.649  1.00  0.00    -0.311 A  
HETATM   19  C   UNL     1     -10.842   3.986  73.223  1.00  0.00    -0.301 A  
HETATM   20  C   UNL     1     -10.426   6.431  69.370  1.00  0.00    -0.277 A  
HETATM   21  C   UNL     1      -9.974   4.091  72.139  1.00  0.00    -0.242 A  
HETATM   22  C   UNL     1      -9.775   5.404  70.047  1.00  0.00    -0.248 A  
ENDBRANCH   6   7
ENDBRANCH   5   6
ENDBRANCH   4   5
ENDBRANCH   2   4
TORSDOF 4
ENDMDL
MODEL      127
REMARK 921   NORMALIZED FREE ENERGY PREDICTED BY IDOCK:   -3.35 KCAL/MOL
REMARK 922        TOTAL FREE ENERGY PREDICTED BY IDOCK:   -4.72 KCAL/MOL
REMARK 923 INTER-LIGAND FREE ENERGY PREDICTED BY IDOCK:   -4.26 KCAL/MOL
REMARK 924 INTRA-LIGAND FREE ENERGY PREDICTED BY IDOCK:   -0.45 KCAL/MOL
REMARK 927      BINDING AFFINITY PREDICTED BY RF-SCORE:    0.00 PKD
ROOT
HETATM    1  C   UNL     1     -14.344   8.526  71.810  1.00  0.00    -0.437 C  
HETATM    2  N   UNL     1     -13.676   9.543  71.010  1.00  0.00    -0.518 NA 
HETATM    3  H   UNL     1     -14.341  10.214  70.626  1.00  0.00     0.000 HD 
ENDROOT
BRANCH   2   4
HETATM    4  C   UNL     1     -12.620  10.213  71.772  1.00  0.00    -0.403 C  
BRANCH   4   5
HETATM    5  C   UNL     1     -11.358  10.306  70.906  1.00  0.00    -0.376 C  
BRANCH   5   6
HETATM    6  C   UNL     1     -10.952   8.929  70.351  1.00  0.00    -0.275 C  
BRANCH   6   7
HETATM    7  C   UNL     1      -9.984   8.943  69.138  1.00  0.00    -0.192 C  
HETATM    8  C   UNL     1     -10.276  10.178  68.207  1.00  0.00    -0.192 C  
HETATM    9  C   UNL     1      -9.345  10.191  66.959  1.00  0.00    -0.178 C  
HETATM   10  C   UNL     1      -8.386   8.986  67.004  1.00  0.00    -0.116 C  
HETATM   11  C   UNL     1      -9.279   7.749  67.067  1.00  0.00    -0.176 A  
HETATM   12  C   UNL     1      -7.638   9.085  68.328  1.00  0.00    -0.091 A  
HETATM   13  C   UNL     1      -9.276   6.725  66.126  1.00  0.00    -0.120 A  
HETATM   14  C   UNL     1      -6.255   9.193  68.444  1.00  0.00    -0.053 A  
HETATM   15  C   UNL     1      -5.689   9.235  69.717  1.00  0.00    -0.032 A  
HETATM   16  C   UNL     1     -10.142   5.649  66.306  1.00  0.00    -0.160 A  
HETATM   17  C   UNL     1     -10.997   5.601  67.414  1.00  0.00    -0.056 A  
HETATM   18  C   UNL     1      -6.497   9.138  70.855  1.00  0.00    -0.074 A  
HETATM   19  C   UNL     1      -7.885   9.010  70.738  1.00  0.00    -0.156 A  
HETATM   20  C   UNL     1     -10.998   6.629  68.365  1.00  0.00    -0.313 A  
HETATM   21  C   UNL     1      -8.474   9.026  69.477  1.00  0.00    -0.125 A  
HETATM   22  C   UNL     1     -10.143   7.714  68.197  1.00  0.00    -0.220 A  
ENDBRANCH   6   7
ENDBRANCH   5   6
ENDBRANCH   4   5
ENDBRANCH   2   4
TORSDOF 4
ENDMDL
MODEL      128
REMARK 921   NORMALIZED FREE ENERGY PREDICTED BY IDOCK:   -3.33 KCAL/MOL
REMARK 922        TOTAL FREE ENERGY PREDICTED BY IDOCK:   -4.70 KCAL/MOL
REMARK 923 INTER-LIGAND FREE ENERGY PREDICTED BY IDOCK:   -5.02 KCAL/MOL
REMARK 924 INTRA-LIGAND FREE ENERGY PREDICTED BY IDOCK:    0.32 KCAL/MOL
REMARK 927      BINDING AFFINITY PREDICTED BY RF-SCORE:    0.00 PKD
ROOT
HETATM    1  C   UNL     1     -11.849  14.108  66.073  1.00  0.00    -0.398 C  
HETATM    2  N   UNL     1     -11.601  12.707  66.379  1.00  0.00    -0.363 NA 
HETATM    3  H   UNL     1     -11.059  12.254  65.643  1.00  0.00     0.000 HD 
ENDROOT
BRANCH   2   4
HETATM    4  C   UNL     1     -10.963  12.551  67.687  1.00  0.00    -0.242 C  
BRANCH   4   5
HETATM    5  C   UNL     1     -11.080  11.089  68.132  1.00  0.00    -0.329 C  
BRANCH   5   6
HETATM    6  C   UNL     1     -10.150  10.784  69.320  1.00  0.00    -0.200 C  
BRANCH   6   7
HETATM    7  C   UNL     1     -10.069   9.296  69.757  1.00  0.00    -0.218 C  
HETATM    8  C   UNL     1      -8.758   9.031  70.586  1.00  0.00    -0.251 C  
HETATM    9  C   UNL     1      -8.631   7.536  71.000  1.00  0.00    -0.132 C  
HETATM   10  C   UNL     1      -9.847   6.742  70.487  1.00  0.00    -0.187 C  
HETATM   11  C   UNL     1      -9.861   6.941  68.972  1.00  0.00    -0.152 A  
HETATM   12  C   UNL     1     -11.080   7.434  71.056  1.00  0.00    -0.277 A  
HETATM   13  C   UNL     1      -9.778   5.912  68.041  1.00  0.00    -0.132 A  
HETATM   14  C   UNL     1     -12.015   6.818  71.883  1.00  0.00    -0.374 A  
HETATM   15  C   UNL     1     -13.124   7.551  72.305  1.00  0.00     0.034 A  
HETATM   16  C   UNL     1      -9.805   6.232  66.686  1.00  0.00    -0.201 A  
HETATM   17  C   UNL     1      -9.915   7.567  66.272  1.00  0.00    -0.000 A  
HETATM   18  C   UNL     1     -13.306   8.870  71.876  1.00  0.00    -0.455 A  
HETATM   19  C   UNL     1     -12.375   9.482  71.030  1.00  0.00    -0.363 A  
HETATM   20  C   UNL     1     -10.004   8.603  67.209  1.00  0.00    -0.282 A  
HETATM   21  C   UNL     1     -11.232   8.787  70.645  1.00  0.00    -0.294 A  
HETATM   22  C   UNL     1      -9.973   8.300  68.566  1.00  0.00    -0.206 A  
ENDBRANCH   6   7
ENDBRANCH   5   6
ENDBRANCH   4   5
ENDBRANCH   2   4
TORSDOF 4
ENDMDL
MODEL      129
REMARK 921   NORMALIZED FREE ENERGY PREDICTED BY IDOCK:   -3.32 KCAL/MOL
REMARK 922        TOTAL FREE ENERGY PREDICTED BY IDOCK:   -4.68 KCAL/MOL
REMARK 923 INTER-LIGAND FREE ENERGY PREDICTED BY IDOCK:   -4.48 KCAL/MOL
REMARK 924 INTRA-LIGAND FREE ENERGY PREDICTED BY IDOCK:   -0.20 KCAL/MOL
REMARK 927      BINDING AFFINITY PREDICTED BY RF-SCORE:    0.00 PKD
ROOT
HETATM    1  C   UNL     1     -12.757  13.777  71.428  1.00  0.00    -0.367 C  
HETATM    2  N   UNL     1     -12.133  12.626  70.792  1.00  0.00    -0.484 NA 
HETATM    3  H   UNL     1     -11.133  12.586  70.991  1.00  0.00     0.000 HD 
ENDROOT
BRANCH   2   4
HETATM    4  C   UNL     1     -12.804  11.380  71.165  1.00  0.00    -0.341 C  
BRANCH   4   5
HETATM    5  C   UNL     1     -12.243  10.234  70.315  1.00  0.00    -0.298 C  
BRANCH   5   6
HETATM    6  C   UNL     1     -10.706  10.184  70.378  1.00  0.00    -0.329 C  
BRANCH   6   7
HETATM    7  C   UNL     1     -10.052   8.834  69.982  1.00  0.00    -0.200 C  
HETATM    8  C   UNL     1     -10.602   8.335  68.595  1.00  0.00    -0.144 C  
HETATM    9  C   UNL     1      -9.993   6.960  68.194  1.00  0.00    -0.170 C  
HETATM   10  C   UNL     1      -9.004   6.486  69.276  1.00  0.00    -0.131 C  
HETATM   11  C   UNL     1      -9.809   6.425  70.573  1.00  0.00    -0.207 A  
HETATM   12  C   UNL     1      -7.970   7.595  69.425  1.00  0.00    -0.125 A  
HETATM   13  C   UNL     1      -9.988   5.278  71.337  1.00  0.00    -0.245 A  
HETATM   14  C   UNL     1      -6.604   7.430  69.214  1.00  0.00    -0.037 A  
HETATM   15  C   UNL     1      -5.756   8.516  69.424  1.00  0.00    -0.031 A  
HETATM   16  C   UNL     1     -10.745   5.362  72.503  1.00  0.00    -0.288 A  
HETATM   17  C   UNL     1     -11.312   6.581  72.897  1.00  0.00    -0.172 A  
HETATM   18  C   UNL     1      -6.268   9.740  69.867  1.00  0.00    -0.051 A  
HETATM   19  C   UNL     1      -7.639   9.901  70.096  1.00  0.00    -0.185 A  
HETATM   20  C   UNL     1     -11.129   7.738  72.131  1.00  0.00    -0.331 A  
HETATM   21  C   UNL     1      -8.509   8.845  69.837  1.00  0.00    -0.135 A  
HETATM   22  C   UNL     1     -10.380   7.670  70.960  1.00  0.00    -0.208 A  
ENDBRANCH   6   7
ENDBRANCH   5   6
ENDBRANCH   4   5
ENDBRANCH   2   4
TORSDOF 4
ENDMDL
MODEL      130
REMARK 921   NORMALIZED FREE ENERGY PREDICTED BY IDOCK:   -3.22 KCAL/MOL
REMARK 922        TOTAL FREE ENERGY PREDICTED BY IDOCK:   -4.56 KCAL/MOL
REMARK 923 INTER-LIGAND FREE ENERGY PREDICTED BY IDOCK:   -4.48 KCAL/MOL
REMARK 924 INTRA-LIGAND FREE ENERGY PREDICTED BY IDOCK:   -0.08 KCAL/MOL
REMARK 927      BINDING AFFINITY PREDICTED BY RF-SCORE:    0.00 PKD
ROOT
HETATM    1  C   UNL     1     -12.442  10.890  70.496  1.00  0.00    -0.351 C  
HETATM    2  N   UNL     1     -12.832   9.500  70.678  1.00  0.00    -0.527 NA 
HETATM    3  H   UNL     1     -12.364   8.889  70.008  1.00  0.00     0.000 HD 
ENDROOT
BRANCH   2   4
HETATM    4  C   UNL     1     -12.607   9.057  72.055  1.00  0.00    -0.394 C  
BRANCH   4   5
HETATM    5  C   UNL     1     -11.516   7.980  72.063  1.00  0.00    -0.364 C  
BRANCH   5   6
HETATM    6  C   UNL     1     -11.406   7.279  70.697  1.00  0.00    -0.311 C  
BRANCH   6   7
HETATM    7  C   UNL     1     -10.124   6.432  70.468  1.00  0.00    -0.221 C  
HETATM    8  C   UNL     1     -10.038   5.260  71.515  1.00  0.00    -0.254 C  
HETATM    9  C   UNL     1      -8.739   4.421  71.333  1.00  0.00    -0.138 C  
HETATM   10  C   UNL     1      -7.912   4.978  70.159  1.00  0.00    -0.077 C  
HETATM   11  C   UNL     1      -7.633   6.440  70.505  1.00  0.00    -0.096 A  
HETATM   12  C   UNL     1      -8.830   4.958  68.942  1.00  0.00    -0.115 A  
HETATM   13  C   UNL     1      -6.364   6.989  70.643  1.00  0.00    -0.043 A  
HETATM   14  C   UNL     1      -8.567   4.253  67.771  1.00  0.00    -0.107 A  
HETATM   15  C   UNL     1      -9.470   4.350  66.713  1.00  0.00    -0.194 A  
HETATM   16  C   UNL     1      -6.250   8.341  70.959  1.00  0.00    -0.034 A  
HETATM   17  C   UNL     1      -7.395   9.129  71.133  1.00  0.00    -0.091 A  
HETATM   18  C   UNL     1     -10.602   5.166  66.819  1.00  0.00    -0.266 A  
HETATM   19  C   UNL     1     -10.855   5.888  67.989  1.00  0.00    -0.321 A  
HETATM   20  C   UNL     1      -8.674   8.578  70.991  1.00  0.00    -0.209 A  
HETATM   21  C   UNL     1      -9.997   5.759  69.078  1.00  0.00    -0.222 A  
HETATM   22  C   UNL     1      -8.805   7.228  70.680  1.00  0.00    -0.148 A  
ENDBRANCH   6   7
ENDBRANCH   5   6
ENDBRANCH   4   5
ENDBRANCH   2   4
TORSDOF 4
ENDMDL
MODEL      131
REMARK 921   NORMALIZED FREE ENERGY PREDICTED BY IDOCK:   -3.21 KCAL/MOL
REMARK 922        TOTAL FREE ENERGY PREDICTED BY IDOCK:   -4.55 KCAL/MOL
REMARK 923 INTER-LIGAND FREE ENERGY PREDICTED BY IDOCK:   -4.24 KCAL/MOL
REMARK 924 INTRA-LIGAND FREE ENERGY PREDICTED BY IDOCK:   -0.31 KCAL/MOL
REMARK 927      BINDING AFFINITY PREDICTED BY RF-SCORE:    0.00 PKD
ROOT
HETATM    1  C   UNL     1     -12.487  12.401  63.394  1.00  0.00    -0.446 C  
HETATM    2  N   UNL     1     -13.358  12.889  64.453  1.00  0.00    -0.172 NA 
HETATM    3  H   UNL     1     -14.160  12.273  64.591  1.00  0.00     0.000 HD 
ENDROOT
BRANCH   2   4
HETATM    4  C   UNL     1     -12.620  13.094  65.700  1.00  0.00    -0.351 C  
BRANCH   4   5
HETATM    5  C   UNL     1     -11.185  12.584  65.524  1.00  0.00    -0.349 C  
BRANCH   5   6
HETATM    6  C   UNL     1     -10.816  11.552  66.605  1.00  0.00    -0.335 C  
BRANCH   6   7
HETATM    7  C   UNL     1      -9.318  11.493  67.007  1.00  0.00    -0.185 C  
HETATM    8  C   UNL     1      -8.732  12.943  67.184  1.00  0.00    -0.205 C  
HETATM    9  C   UNL     1      -7.218  12.912  67.545  1.00  0.00    -0.149 C  
HETATM   10  C   UNL     1      -6.729  11.454  67.641  1.00  0.00    -0.075 C  
HETATM   11  C   UNL     1      -7.029  10.826  66.281  1.00  0.00    -0.134 A  
HETATM   12  C   UNL     1      -7.620  10.772  68.673  1.00  0.00    -0.106 A  
HETATM   13  C   UNL     1      -6.071  10.273  65.439  1.00  0.00    -0.120 A  
HETATM   14  C   UNL     1      -7.156  10.181  69.845  1.00  0.00    -0.144 A  
HETATM   15  C   UNL     1      -8.071   9.552  70.688  1.00  0.00    -0.152 A  
HETATM   16  C   UNL     1      -6.482   9.730  64.225  1.00  0.00    -0.118 A  
HETATM   17  C   UNL     1      -7.835   9.741  63.862  1.00  0.00    -0.144 A  
HETATM   18  C   UNL     1      -9.426   9.491  70.343  1.00  0.00    -0.317 A  
HETATM   19  C   UNL     1      -9.889  10.069  69.156  1.00  0.00    -0.213 A  
HETATM   20  C   UNL     1      -8.801  10.293  64.710  1.00  0.00    -0.217 A  
HETATM   21  C   UNL     1      -9.000  10.752  68.330  1.00  0.00    -0.153 A  
HETATM   22  C   UNL     1      -8.407  10.845  65.925  1.00  0.00    -0.149 A  
ENDBRANCH   6   7
ENDBRANCH   5   6
ENDBRANCH   4   5
ENDBRANCH   2   4
TORSDOF 4
ENDMDL
MODEL      132
REMARK 921   NORMALIZED FREE ENERGY PREDICTED BY IDOCK:   -3.20 KCAL/MOL
REMARK 922        TOTAL FREE ENERGY PREDICTED BY IDOCK:   -4.53 KCAL/MOL
REMARK 923 INTER-LIGAND FREE ENERGY PREDICTED BY IDOCK:   -4.23 KCAL/MOL
REMARK 924 INTRA-LIGAND FREE ENERGY PREDICTED BY IDOCK:   -0.31 KCAL/MOL
REMARK 927      BINDING AFFINITY PREDICTED BY RF-SCORE:    0.00 PKD
ROOT
HETATM    1  C   UNL     1      -8.536  10.514  67.893  1.00  0.00    -0.123 C  
HETATM    2  N   UNL     1      -7.696   9.550  67.197  1.00  0.00    -0.092 NA 
HETATM    3  H   UNL     1      -6.756   9.916  67.044  1.00  0.00     0.000 HD 
ENDROOT
BRANCH   2   4
HETATM    4  C   UNL     1      -7.664   8.265  67.897  1.00  0.00    -0.103 C  
BRANCH   4   5
HETATM    5  C   UNL     1      -8.731   8.267  68.997  1.00  0.00    -0.143 C  
BRANCH   5   6
HETATM    6  C   UNL     1      -8.775   6.920  69.743  1.00  0.00    -0.141 C  
BRANCH   6   7
HETATM    7  C   UNL     1      -9.272   6.972  71.212  1.00  0.00    -0.152 C  
HETATM    8  C   UNL     1     -10.555   7.875  71.334  1.00  0.00    -0.246 C  
HETATM    9  C   UNL     1     -11.050   7.977  72.807  1.00  0.00    -0.448 C  
HETATM   10  C   UNL     1     -10.139   7.144  73.727  1.00  0.00    -0.391 C  
HETATM   11  C   UNL     1      -8.731   7.702  73.533  1.00  0.00    -0.267 A  
HETATM   12  C   UNL     1     -10.155   5.724  73.173  1.00  0.00    -0.200 A  
HETATM   13  C   UNL     1      -7.950   8.245  74.546  1.00  0.00    -0.276 A  
HETATM   14  C   UNL     1     -10.580   4.606  73.885  1.00  0.00    -0.337 A  
HETATM   15  C   UNL     1     -10.506   3.354  73.276  1.00  0.00    -0.260 A  
HETATM   16  C   UNL     1      -6.678   8.717  74.232  1.00  0.00    -0.127 A  
HETATM   17  C   UNL     1      -6.198   8.645  72.918  1.00  0.00    -0.072 A  
HETATM   18  C   UNL     1      -9.985   3.224  71.984  1.00  0.00    -0.222 A  
HETATM   19  C   UNL     1      -9.541   4.346  71.276  1.00  0.00    -0.242 A  
HETATM   20  C   UNL     1      -6.981   8.096  71.896  1.00  0.00    -0.081 A  
HETATM   21  C   UNL     1      -9.661   5.611  71.844  1.00  0.00    -0.176 A  
HETATM   22  C   UNL     1      -8.256   7.624  72.193  1.00  0.00    -0.127 A  
ENDBRANCH   6   7
ENDBRANCH   5   6
ENDBRANCH   4   5
ENDBRANCH   2   4
TORSDOF 4
ENDMDL
MODEL      133
REMARK 921   NORMALIZED FREE ENERGY PREDICTED BY IDOCK:   -3.17 KCAL/MOL
REMARK 922        TOTAL FREE ENERGY PREDICTED BY IDOCK:   -4.49 KCAL/MOL
REMARK 923 INTER-LIGAND FREE ENERGY PREDICTED BY IDOCK:   -4.84 KCAL/MOL
REMARK 924 INTRA-LIGAND FREE ENERGY PREDICTED BY IDOCK:    0.35 KCAL/MOL
REMARK 927      BINDING AFFINITY PREDICTED BY RF-SCORE:    0.00 PKD
ROOT
HETATM    1  C   UNL     1     -11.507   4.707  73.428  1.00  0.00    -0.245 C  
HETATM    2  N   UNL     1     -11.724   5.974  72.745  1.00  0.00    -0.512 NA 
HETATM    3  H   UNL     1     -11.668   6.762  73.391  1.00  0.00     0.000 HD 
ENDROOT
BRANCH   2   4
HETATM    4  C   UNL     1     -10.804   6.138  71.619  1.00  0.00    -0.258 C  
BRANCH   4   5
HETATM    5  C   UNL     1     -10.751   7.619  71.226  1.00  0.00    -0.248 C  
BRANCH   5   6
HETATM    6  C   UNL     1      -9.316   8.062  70.887  1.00  0.00    -0.169 C  
BRANCH   6   7
HETATM    7  C   UNL     1      -9.177   9.117  69.757  1.00  0.00    -0.179 C  
HETATM    8  C   UNL     1      -7.816   9.896  69.886  1.00  0.00    -0.182 C  
HETATM    9  C   UNL     1      -7.672  10.990  68.788  1.00  0.00    -0.135 C  
HETATM   10  C   UNL     1      -8.910  10.984  67.873  1.00  0.00    -0.134 C  
HETATM   11  C   UNL     1     -10.107  11.219  68.793  1.00  0.00    -0.204 A  
HETATM   12  C   UNL     1      -9.024   9.569  67.317  1.00  0.00    -0.143 A  
HETATM   13  C   UNL     1     -10.992  12.285  68.680  1.00  0.00    -0.276 A  
HETATM   14  C   UNL     1      -8.991   9.251  65.963  1.00  0.00    -0.215 A  
HETATM   15  C   UNL     1      -9.147   7.919  65.581  1.00  0.00    -0.018 A  
HETATM   16  C   UNL     1     -12.045  12.379  69.586  1.00  0.00    -0.271 A  
HETATM   17  C   UNL     1     -12.208  11.416  70.590  1.00  0.00    -0.484 A  
HETATM   18  C   UNL     1      -9.364   6.927  66.544  1.00  0.00    -0.197 A  
HETATM   19  C   UNL     1      -9.416   7.250  67.904  1.00  0.00    -0.142 A  
HETATM   20  C   UNL     1     -11.320  10.339  70.703  1.00  0.00    -0.431 A  
HETATM   21  C   UNL     1      -9.204   8.566  68.309  1.00  0.00    -0.140 A  
HETATM   22  C   UNL     1     -10.259  10.234  69.809  1.00  0.00    -0.262 A  
ENDBRANCH   6   7
ENDBRANCH   5   6
ENDBRANCH   4   5
ENDBRANCH   2   4
TORSDOF 4
ENDMDL
MODEL      134
REMARK 921   NORMALIZED FREE ENERGY PREDICTED BY IDOCK:   -3.16 KCAL/MOL
REMARK 922        TOTAL FREE ENERGY PREDICTED BY IDOCK:   -4.49 KCAL/MOL
REMARK 923 INTER-LIGAND FREE ENERGY PREDICTED BY IDOCK:   -3.98 KCAL/MOL
REMARK 924 INTRA-LIGAND FREE ENERGY PREDICTED BY IDOCK:   -0.51 KCAL/MOL
REMARK 927      BINDING AFFINITY PREDICTED BY RF-SCORE:    0.00 PKD
ROOT
HETATM    1  C   UNL     1     -12.816   7.914  71.805  1.00  0.00    -0.328 C  
HETATM    2  N   UNL     1     -11.946   7.835  70.641  1.00  0.00    -0.485 NA 
HETATM    3  H   UNL     1     -11.269   8.597  70.627  1.00  0.00     0.000 HD 
ENDROOT
BRANCH   2   4
HETATM    4  C   UNL     1     -11.287   6.531  70.555  1.00  0.00    -0.367 C  
BRANCH   4   5
HETATM    5  C   UNL     1     -11.184   6.117  69.082  1.00  0.00    -0.409 C  
BRANCH   5   6
HETATM    6  C   UNL     1      -9.722   6.106  68.600  1.00  0.00    -0.145 C  
BRANCH   6   7
HETATM    7  C   UNL     1      -9.308   7.266  67.654  1.00  0.00    -0.139 C  
HETATM    8  C   UNL     1     -10.556   8.149  67.279  1.00  0.00    -0.344 C  
HETATM    9  C   UNL     1     -10.176   9.295  66.296  1.00  0.00    -0.273 C  
HETATM   10  C   UNL     1      -8.668   9.242  65.984  1.00  0.00    -0.175 C  
HETATM   11  C   UNL     1      -8.414   7.852  65.403  1.00  0.00    -0.134 A  
HETATM   12  C   UNL     1      -7.951   9.322  67.326  1.00  0.00    -0.106 A  
HETATM   13  C   UNL     1      -7.894   7.608  64.138  1.00  0.00    -0.133 A  
HETATM   14  C   UNL     1      -7.046  10.320  67.676  1.00  0.00    -0.086 A  
HETATM   15  C   UNL     1      -6.425  10.257  68.922  1.00  0.00    -0.051 A  
HETATM   16  C   UNL     1      -7.709   6.289  63.733  1.00  0.00    -0.107 A  
HETATM   17  C   UNL     1      -8.042   5.229  64.587  1.00  0.00    -0.122 A  
HETATM   18  C   UNL     1      -6.685   9.191  69.790  1.00  0.00    -0.050 A  
HETATM   19  C   UNL     1      -7.579   8.177  69.430  1.00  0.00    -0.101 A  
HETATM   20  C   UNL     1      -8.562   5.473  65.864  1.00  0.00    -0.141 A  
HETATM   21  C   UNL     1      -8.254   8.254  68.214  1.00  0.00    -0.128 A  
HETATM   22  C   UNL     1      -8.757   6.786  66.281  1.00  0.00    -0.152 A  
ENDBRANCH   6   7
ENDBRANCH   5   6
ENDBRANCH   4   5
ENDBRANCH   2   4
TORSDOF 4
ENDMDL
MODEL      135
REMARK 921   NORMALIZED FREE ENERGY PREDICTED BY IDOCK:   -3.15 KCAL/MOL
REMARK 922        TOTAL FREE ENERGY PREDICTED BY IDOCK:   -4.47 KCAL/MOL
REMARK 923 INTER-LIGAND FREE ENERGY PREDICTED BY IDOCK:   -4.05 KCAL/MOL
REMARK 924 INTRA-LIGAND FREE ENERGY PREDICTED BY IDOCK:   -0.42 KCAL/MOL
REMARK 927      BINDING AFFINITY PREDICTED BY RF-SCORE:    0.00 PKD
ROOT
HETATM    1  C   UNL     1      -6.578  14.556  69.893  1.00  0.00    -0.151 C  
HETATM    2  N   UNL     1      -6.338  14.971  68.519  1.00  0.00    -0.088 NA 
HETATM    3  H   UNL     1      -5.380  15.297  68.388  1.00  0.00     0.000 HD 
ENDROOT
BRANCH   2   4
HETATM    4  C   UNL     1      -6.674  13.906  67.572  1.00  0.00    -0.114 C  
BRANCH   4   5
HETATM    5  C   UNL     1      -6.595  12.554  68.290  1.00  0.00    -0.073 C  
BRANCH   5   6
HETATM    6  C   UNL     1      -7.368  11.464  67.526  1.00  0.00    -0.112 C  
BRANCH   6   7
HETATM    7  C   UNL     1      -8.353  10.610  68.369  1.00  0.00    -0.127 C  
HETATM    8  C   UNL     1      -7.678  10.150  69.715  1.00  0.00    -0.176 C  
HETATM    9  C   UNL     1      -8.631   9.256  70.561  1.00  0.00    -0.271 C  
HETATM   10  C   UNL     1      -9.980   9.090  69.835  1.00  0.00    -0.203 C  
HETATM   11  C   UNL     1      -9.646   8.482  68.474  1.00  0.00    -0.158 A  
HETATM   12  C   UNL     1     -10.512  10.498  69.595  1.00  0.00    -0.257 A  
HETATM   13  C   UNL     1     -10.132   7.264  68.013  1.00  0.00    -0.207 A  
HETATM   14  C   UNL     1     -11.725  10.974  70.085  1.00  0.00    -0.442 A  
HETATM   15  C   UNL     1     -12.118  12.271  69.760  1.00  0.00    -0.298 A  
HETATM   16  C   UNL     1      -9.749   6.827  66.747  1.00  0.00    -0.222 A  
HETATM   17  C   UNL     1      -8.891   7.602  65.956  1.00  0.00    -0.186 A  
HETATM   18  C   UNL     1     -11.320  13.066  68.930  1.00  0.00    -0.333 A  
HETATM   19  C   UNL     1     -10.110  12.580  68.423  1.00  0.00    -0.216 A  
HETATM   20  C   UNL     1      -8.403   8.830  66.418  1.00  0.00    -0.117 A  
HETATM   21  C   UNL     1      -9.672  11.309  68.784  1.00  0.00    -0.184 A  
HETATM   22  C   UNL     1      -8.772   9.279  67.682  1.00  0.00    -0.116 A  
ENDBRANCH   6   7
ENDBRANCH   5   6
ENDBRANCH   4   5
ENDBRANCH   2   4
TORSDOF 4
ENDMDL
MODEL      136
REMARK 921   NORMALIZED FREE ENERGY PREDICTED BY IDOCK:   -3.14 KCAL/MOL
REMARK 922        TOTAL FREE ENERGY PREDICTED BY IDOCK:   -4.46 KCAL/MOL
REMARK 923 INTER-LIGAND FREE ENERGY PREDICTED BY IDOCK:   -4.10 KCAL/MOL
REMARK 924 INTRA-LIGAND FREE ENERGY PREDICTED BY IDOCK:   -0.36 KCAL/MOL
REMARK 927      BINDING AFFINITY PREDICTED BY RF-SCORE:    0.00 PKD
ROOT
HETATM    1  C   UNL     1      -5.987   3.581  65.924  1.00  0.00    -0.023 C  
HETATM    2  N   UNL     1      -7.370   4.014  66.061  1.00  0.00    -0.075 NA 
HETATM    3  H   UNL     1      -8.005   3.219  66.141  1.00  0.00     0.000 HD 
ENDROOT
BRANCH   2   4
HETATM    4  C   UNL     1      -7.531   4.943  67.181  1.00  0.00    -0.086 C  
BRANCH   4   5
HETATM    5  C   UNL     1      -8.967   5.479  67.185  1.00  0.00    -0.112 C  
BRANCH   5   6
HETATM    6  C   UNL     1      -9.427   5.848  68.607  1.00  0.00    -0.137 C  
BRANCH   6   7
HETATM    7  C   UNL     1      -9.787   7.340  68.842  1.00  0.00    -0.158 C  
HETATM    8  C   UNL     1     -10.440   7.963  67.552  1.00  0.00    -0.332 C  
HETATM    9  C   UNL     1     -10.772   9.472  67.747  1.00  0.00    -0.302 C  
HETATM   10  C   UNL     1     -10.374   9.920  69.166  1.00  0.00    -0.225 C  
HETATM   11  C   UNL     1      -8.882   9.617  69.293  1.00  0.00    -0.164 A  
HETATM   12  C   UNL     1     -11.117   9.000  70.128  1.00  0.00    -0.228 A  
HETATM   13  C   UNL     1      -7.904  10.569  69.560  1.00  0.00    -0.134 A  
HETATM   14  C   UNL     1     -12.023   9.435  71.091  1.00  0.00    -0.413 A  
HETATM   15  C   UNL     1     -12.606   8.494  71.938  1.00  0.00    -0.400 A  
HETATM   16  C   UNL     1      -6.577  10.156  69.653  1.00  0.00    -0.069 A  
HETATM   17  C   UNL     1      -6.238   8.808  69.481  1.00  0.00    -0.040 A  
HETATM   18  C   UNL     1     -12.259   7.142  71.841  1.00  0.00    -0.358 A  
HETATM   19  C   UNL     1     -11.334   6.708  70.886  1.00  0.00    -0.377 A  
HETATM   20  C   UNL     1      -7.222   7.848  69.217  1.00  0.00    -0.080 A  
HETATM   21  C   UNL     1     -10.786   7.623  69.991  1.00  0.00    -0.245 A  
HETATM   22  C   UNL     1      -8.552   8.245  69.116  1.00  0.00    -0.138 A  
ENDBRANCH   6   7
ENDBRANCH   5   6
ENDBRANCH   4   5
ENDBRANCH   2   4
TORSDOF 4
ENDMDL
MODEL      137
REMARK 921   NORMALIZED FREE ENERGY PREDICTED BY IDOCK:   -3.13 KCAL/MOL
REMARK 922        TOTAL FREE ENERGY PREDICTED BY IDOCK:   -4.44 KCAL/MOL
REMARK 923 INTER-LIGAND FREE ENERGY PREDICTED BY IDOCK:   -4.05 KCAL/MOL
REMARK 924 INTRA-LIGAND FREE ENERGY PREDICTED BY IDOCK:   -0.39 KCAL/MOL
REMARK 927      BINDING AFFINITY PREDICTED BY RF-SCORE:    0.00 PKD
ROOT
HETATM    1  C   UNL     1     -12.273  14.017  70.550  1.00  0.00    -0.365 C  
HETATM    2  N   UNL     1     -11.466  13.031  69.846  1.00  0.00    -0.512 NA 
HETATM    3  H   UNL     1     -10.475  13.135  70.063  1.00  0.00     0.000 HD 
ENDROOT
BRANCH   2   4
HETATM    4  C   UNL     1     -11.933  11.670  70.115  1.00  0.00    -0.359 C  
BRANCH   4   5
HETATM    5  C   UNL     1     -11.789  10.829  68.841  1.00  0.00    -0.287 C  
BRANCH   5   6
HETATM    6  C   UNL     1     -10.338  10.832  68.325  1.00  0.00    -0.195 C  
BRANCH   6   7
HETATM    7  C   UNL     1      -9.751   9.447  67.940  1.00  0.00    -0.177 C  
HETATM    8  C   UNL     1     -10.846   8.550  67.253  1.00  0.00    -0.076 C  
HETATM    9  C   UNL     1     -10.293   7.139  66.895  1.00  0.00    -0.349 C  
HETATM   10  C   UNL     1      -8.813   7.034  67.308  1.00  0.00    -0.119 C  
HETATM   11  C   UNL     1      -8.779   7.323  68.807  1.00  0.00    -0.125 A  
HETATM   12  C   UNL     1      -8.089   8.173  66.600  1.00  0.00    -0.103 A  
HETATM   13  C   UNL     1      -8.305   6.440  69.771  1.00  0.00    -0.127 A  
HETATM   14  C   UNL     1      -7.040   8.001  65.702  1.00  0.00    -0.063 A  
HETATM   15  C   UNL     1      -6.435   9.130  65.152  1.00  0.00    -0.069 A  
HETATM   16  C   UNL     1      -8.328   6.832  71.107  1.00  0.00    -0.124 A  
HETATM   17  C   UNL     1      -8.821   8.092  71.470  1.00  0.00    -0.195 A  
HETATM   18  C   UNL     1      -6.856  10.411  65.523  1.00  0.00    -0.125 A  
HETATM   19  C   UNL     1      -7.898  10.584  66.440  1.00  0.00    -0.138 A  
HETATM   20  C   UNL     1      -9.295   8.984  70.501  1.00  0.00    -0.262 A  
HETATM   21  C   UNL     1      -8.554   9.469  66.955  1.00  0.00    -0.131 A  
HETATM   22  C   UNL     1      -9.283   8.606  69.162  1.00  0.00    -0.152 A  
ENDBRANCH   6   7
ENDBRANCH   5   6
ENDBRANCH   4   5
ENDBRANCH   2   4
TORSDOF 4
ENDMDL
MODEL      138
REMARK 921   NORMALIZED FREE ENERGY PREDICTED BY IDOCK:   -3.11 KCAL/MOL
REMARK 922        TOTAL FREE ENERGY PREDICTED BY IDOCK:   -4.42 KCAL/MOL
REMARK 923 INTER-LIGAND FREE ENERGY PREDICTED BY IDOCK:   -3.82 KCAL/MOL
REMARK 924 INTRA-LIGAND FREE ENERGY PREDICTED BY IDOCK:   -0.60 KCAL/MOL
REMARK 927      BINDING AFFINITY PREDICTED BY RF-SCORE:    0.00 PKD
ROOT
HETATM    1  C   UNL     1      -8.181   5.352  69.240  1.00  0.00    -0.093 C  
HETATM    2  N   UNL     1      -8.211   6.079  67.979  1.00  0.00    -0.112 NA 
HETATM    3  H   UNL     1      -7.592   5.654  67.288  1.00  0.00     0.000 HD 
ENDROOT
BRANCH   2   4
HETATM    4  C   UNL     1      -9.577   6.207  67.469  1.00  0.00    -0.112 C  
BRANCH   4   5
HETATM    5  C   UNL     1     -10.222   7.459  68.072  1.00  0.00    -0.234 C  
BRANCH   5   6
HETATM    6  C   UNL     1     -10.411   8.562  67.015  1.00  0.00    -0.379 C  
BRANCH   6   7
HETATM    7  C   UNL     1      -9.369   9.713  67.038  1.00  0.00    -0.180 C  
HETATM    8  C   UNL     1      -8.666   9.798  68.443  1.00  0.00    -0.120 C  
HETATM    9  C   UNL     1      -7.646  10.973  68.507  1.00  0.00    -0.114 C  
HETATM   10  C   UNL     1      -7.609  11.711  67.155  1.00  0.00    -0.152 C  
HETATM   11  C   UNL     1      -9.041  12.180  66.899  1.00  0.00    -0.203 A  
HETATM   12  C   UNL     1      -7.270  10.661  66.104  1.00  0.00    -0.138 A  
HETATM   13  C   UNL     1      -9.419  13.506  66.731  1.00  0.00    -0.272 A  
HETATM   14  C   UNL     1      -6.154  10.712  65.274  1.00  0.00    -0.068 A  
HETATM   15  C   UNL     1      -5.979   9.708  64.323  1.00  0.00    -0.088 A  
HETATM   16  C   UNL     1     -10.761  13.796  66.501  1.00  0.00    -0.284 A  
HETATM   17  C   UNL     1     -11.710  12.767  66.439  1.00  0.00    -0.464 A  
HETATM   18  C   UNL     1      -6.926   8.687  64.187  1.00  0.00    -0.089 A  
HETATM   19  C   UNL     1      -8.057   8.647  65.009  1.00  0.00    -0.143 A  
HETATM   20  C   UNL     1     -11.331  11.429  66.604  1.00  0.00    -0.230 A  
HETATM   21  C   UNL     1      -8.220   9.608  66.004  1.00  0.00    -0.119 A  
HETATM   22  C   UNL     1      -9.994  11.124  66.841  1.00  0.00    -0.230 A  
ENDBRANCH   6   7
ENDBRANCH   5   6
ENDBRANCH   4   5
ENDBRANCH   2   4
TORSDOF 4
ENDMDL
MODEL      139
REMARK 921   NORMALIZED FREE ENERGY PREDICTED BY IDOCK:   -3.07 KCAL/MOL
REMARK 922        TOTAL FREE ENERGY PREDICTED BY IDOCK:   -4.37 KCAL/MOL
REMARK 923 INTER-LIGAND FREE ENERGY PREDICTED BY IDOCK:   -4.62 KCAL/MOL
REMARK 924 INTRA-LIGAND FREE ENERGY PREDICTED BY IDOCK:    0.25 KCAL/MOL
REMARK 927      BINDING AFFINITY PREDICTED BY RF-SCORE:    0.00 PKD
ROOT
HETATM    1  C   UNL     1     -14.361   8.622  71.860  1.00  0.00    -0.405 C  
HETATM    2  N   UNL     1     -13.647   9.498  70.943  1.00  0.00    -0.573 NA 
HETATM    3  H   UNL     1     -14.274  10.173  70.506  1.00  0.00     0.000 HD 
ENDROOT
BRANCH   2   4
HETATM    4  C   UNL     1     -12.522  10.161  71.604  1.00  0.00    -0.409 C  
BRANCH   4   5
HETATM    5  C   UNL     1     -11.219   9.752  70.908  1.00  0.00    -0.429 C  
BRANCH   5   6
HETATM    6  C   UNL     1     -11.106   8.222  70.776  1.00  0.00    -0.280 C  
BRANCH   6   7
HETATM    7  C   UNL     1      -9.945   7.700  69.888  1.00  0.00    -0.190 C  
HETATM    8  C   UNL     1     -10.112   6.161  69.603  1.00  0.00    -0.226 C  
HETATM    9  C   UNL     1      -8.936   5.602  68.749  1.00  0.00    -0.117 C  
HETATM   10  C   UNL     1      -7.946   6.733  68.414  1.00  0.00    -0.115 C  
HETATM   11  C   UNL     1      -7.489   7.296  69.758  1.00  0.00    -0.093 A  
HETATM   12  C   UNL     1      -8.755   7.816  67.709  1.00  0.00    -0.123 A  
HETATM   13  C   UNL     1      -6.170   7.324  70.195  1.00  0.00    -0.027 A  
HETATM   14  C   UNL     1      -8.501   8.273  66.419  1.00  0.00    -0.125 A  
HETATM   15  C   UNL     1      -9.291   9.299  65.903  1.00  0.00    -0.297 A  
HETATM   16  C   UNL     1      -5.890   7.870  71.445  1.00  0.00    -0.034 A  
HETATM   17  C   UNL     1      -6.921   8.381  72.245  1.00  0.00    -0.106 A  
HETATM   18  C   UNL     1     -10.299   9.877  66.682  1.00  0.00    -0.275 A  
HETATM   19  C   UNL     1     -10.541   9.430  67.985  1.00  0.00    -0.278 A  
HETATM   20  C   UNL     1      -8.250   8.357  71.805  1.00  0.00    -0.200 A  
HETATM   21  C   UNL     1      -9.802   8.367  68.497  1.00  0.00    -0.186 A  
HETATM   22  C   UNL     1      -8.546   7.810  70.561  1.00  0.00    -0.132 A  
ENDBRANCH   6   7
ENDBRANCH   5   6
ENDBRANCH   4   5
ENDBRANCH   2   4
TORSDOF 4
ENDMDL
MODEL      140
REMARK 921   NORMALIZED FREE ENERGY PREDICTED BY IDOCK:   -3.06 KCAL/MOL
REMARK 922        TOTAL FREE ENERGY PREDICTED BY IDOCK:   -4.36 KCAL/MOL
REMARK 923 INTER-LIGAND FREE ENERGY PREDICTED BY IDOCK:   -3.83 KCAL/MOL
REMARK 924 INTRA-LIGAND FREE ENERGY PREDICTED BY IDOCK:   -0.54 KCAL/MOL
REMARK 927      BINDING AFFINITY PREDICTED BY RF-SCORE:    0.00 PKD
ROOT
HETATM    1  C   UNL     1      -8.449   4.803  71.777  1.00  0.00    -0.118 C  
HETATM    2  N   UNL     1      -8.546   5.660  70.604  1.00  0.00    -0.128 NA 
HETATM    3  H   UNL     1      -8.492   5.120  69.741  1.00  0.00     0.000 HD 
ENDROOT
BRANCH   2   4
HETATM    4  C   UNL     1      -9.754   6.485  70.644  1.00  0.00    -0.179 C  
BRANCH   4   5
HETATM    5  C   UNL     1      -9.390   7.926  70.268  1.00  0.00    -0.159 C  
BRANCH   5   6
HETATM    6  C   UNL     1     -10.173   8.401  69.031  1.00  0.00    -0.217 C  
BRANCH   6   7
HETATM    7  C   UNL     1      -9.398   8.384  67.686  1.00  0.00    -0.158 C  
HETATM    8  C   UNL     1      -7.855   8.574  67.932  1.00  0.00    -0.103 C  
HETATM    9  C   UNL     1      -7.058   8.603  66.594  1.00  0.00    -0.080 C  
HETATM   10  C   UNL     1      -8.020   8.420  65.405  1.00  0.00    -0.122 C  
HETATM   11  C   UNL     1      -9.037   9.555  65.516  1.00  0.00    -0.262 A  
HETATM   12  C   UNL     1      -8.758   7.110  65.650  1.00  0.00    -0.088 A  
HETATM   13  C   UNL     1      -9.252  10.520  64.539  1.00  0.00    -0.278 A  
HETATM   14  C   UNL     1      -8.732   6.018  64.786  1.00  0.00     0.113 A  
HETATM   15  C   UNL     1      -9.485   4.890  65.106  1.00  0.00    -0.070 A  
HETATM   16  C   UNL     1     -10.215  11.499  64.767  1.00  0.00    -0.331 A  
HETATM   17  C   UNL     1     -10.951  11.509  65.959  1.00  0.00    -0.316 A  
HETATM   18  C   UNL     1     -10.278   4.872  66.259  1.00  0.00    -0.312 A  
HETATM   19  C   UNL     1     -10.319   5.976  67.117  1.00  0.00    -0.284 A  
HETATM   20  C   UNL     1     -10.738  10.536  66.943  1.00  0.00    -0.281 A  
HETATM   21  C   UNL     1      -9.528   7.089  66.845  1.00  0.00    -0.199 A  
HETATM   22  C   UNL     1      -9.776   9.553  66.732  1.00  0.00    -0.254 A  
ENDBRANCH   6   7
ENDBRANCH   5   6
ENDBRANCH   4   5
ENDBRANCH   2   4
TORSDOF 4
ENDMDL
MODEL      141
REMARK 921   NORMALIZED FREE ENERGY PREDICTED BY IDOCK:   -3.06 KCAL/MOL
REMARK 922        TOTAL FREE ENERGY PREDICTED BY IDOCK:   -4.36 KCAL/MOL
REMARK 923 INTER-LIGAND FREE ENERGY PREDICTED BY IDOCK:   -4.02 KCAL/MOL
REMARK 924 INTRA-LIGAND FREE ENERGY PREDICTED BY IDOCK:   -0.34 KCAL/MOL
REMARK 927      BINDING AFFINITY PREDICTED BY RF-SCORE:    0.00 PKD
ROOT
HETATM    1  C   UNL     1     -10.257  13.610  68.063  1.00  0.00    -0.248 C  
HETATM    2  N   UNL     1     -10.922  14.723  67.400  1.00  0.00    -0.304 NA 
HETATM    3  H   UNL     1     -10.765  15.601  67.895  1.00  0.00     0.000 HD 
ENDROOT
BRANCH   2   4
HETATM    4  C   UNL     1     -10.525  14.822  65.995  1.00  0.00    -0.303 C  
BRANCH   4   5
HETATM    5  C   UNL     1     -10.608  16.287  65.552  1.00  0.00    -0.369 C  
BRANCH   5   6
HETATM    6  C   UNL     1      -9.213  16.933  65.472  1.00  0.00     0.526 C  
BRANCH   6   7
HETATM    7  C   UNL     1      -8.654  17.512  66.800  1.00  0.00    -0.276 C  
HETATM    8  C   UNL     1      -9.826  17.961  67.748  1.00  0.00    -0.300 C  
HETATM    9  C   UNL     1      -9.291  18.585  69.070  1.00  0.00    -0.155 C  
HETATM   10  C   UNL     1      -7.750  18.568  69.074  1.00  0.00    -0.175 C  
HETATM   11  C   UNL     1      -7.325  19.349  67.832  1.00  0.00    -0.295 A  
HETATM   12  C   UNL     1      -7.338  17.115  68.871  1.00  0.00    -0.241 A  
HETATM   13  C   UNL     1      -6.538  20.495  67.852  1.00  0.00    -0.347 A  
HETATM   14  C   UNL     1      -6.569  16.382  69.770  1.00  0.00    -0.108 A  
HETATM   15  C   UNL     1      -6.225  15.071  69.447  1.00  0.00    -0.115 A  
HETATM   16  C   UNL     1      -6.220  21.109  66.644  1.00  0.00    -0.364 A  
HETATM   17  C   UNL     1      -6.685  20.580  65.433  1.00  0.00    -0.263 A  
HETATM   18  C   UNL     1      -6.621  14.515  68.226  1.00  0.00    -0.119 A  
HETATM   19  C   UNL     1      -7.379  15.257  67.315  1.00  0.00    -0.230 A  
HETATM   20  C   UNL     1      -7.474  19.424  65.410  1.00  0.00     0.110 A  
HETATM   21  C   UNL     1      -7.782  16.549  67.644  1.00  0.00    -0.167 A  
HETATM   22  C   UNL     1      -7.805  18.801  66.610  1.00  0.00    -0.275 A  
ENDBRANCH   6   7
ENDBRANCH   5   6
ENDBRANCH   4   5
ENDBRANCH   2   4
TORSDOF 4
ENDMDL
MODEL      142
REMARK 921   NORMALIZED FREE ENERGY PREDICTED BY IDOCK:   -3.03 KCAL/MOL
REMARK 922        TOTAL FREE ENERGY PREDICTED BY IDOCK:   -4.32 KCAL/MOL
REMARK 923 INTER-LIGAND FREE ENERGY PREDICTED BY IDOCK:   -4.60 KCAL/MOL
REMARK 924 INTRA-LIGAND FREE ENERGY PREDICTED BY IDOCK:    0.27 KCAL/MOL
REMARK 927      BINDING AFFINITY PREDICTED BY RF-SCORE:    0.00 PKD
ROOT
HETATM    1  C   UNL     1      -6.273  15.326  70.068  1.00  0.00    -0.151 C  
HETATM    2  N   UNL     1      -5.582  14.249  69.373  1.00  0.00    -0.086 NA 
HETATM    3  H   UNL     1      -5.707  13.356  69.850  1.00  0.00     0.000 HD 
ENDROOT
BRANCH   2   4
HETATM    4  C   UNL     1      -5.992  14.169  67.970  1.00  0.00    -0.142 C  
BRANCH   4   5
HETATM    5  C   UNL     1      -6.316  12.711  67.624  1.00  0.00    -0.147 C  
BRANCH   5   6
HETATM    6  C   UNL     1      -7.349  12.116  68.598  1.00  0.00    -0.109 C  
BRANCH   6   7
HETATM    7  C   UNL     1      -8.746  11.799  67.999  1.00  0.00    -0.167 C  
HETATM    8  C   UNL     1      -9.534  10.799  68.924  1.00  0.00    -0.190 C  
HETATM    9  C   UNL     1     -10.922  10.431  68.324  1.00  0.00    -0.321 C  
HETATM   10  C   UNL     1     -11.132  11.171  66.989  1.00  0.00    -0.339 C  
HETATM   11  C   UNL     1      -9.966  10.751  66.095  1.00  0.00    -0.283 A  
HETATM   12  C   UNL     1     -10.970  12.655  67.294  1.00  0.00    -0.291 A  
HETATM   13  C   UNL     1     -10.103  10.112  64.869  1.00  0.00    -0.277 A  
HETATM   14  C   UNL     1     -11.957  13.614  67.080  1.00  0.00    -0.434 A  
HETATM   15  C   UNL     1     -11.669  14.948  67.363  1.00  0.00    -0.311 A  
HETATM   16  C   UNL     1      -8.954   9.786  64.152  1.00  0.00    -0.276 A  
HETATM   17  C   UNL     1      -7.687  10.099  64.660  1.00  0.00    -0.141 A  
HETATM   18  C   UNL     1     -10.400  15.317  67.823  1.00  0.00    -0.244 A  
HETATM   19  C   UNL     1      -9.403  14.356  68.019  1.00  0.00    -0.200 A  
HETATM   20  C   UNL     1      -7.547  10.746  65.893  1.00  0.00    -0.106 A  
HETATM   21  C   UNL     1      -9.689  13.011  67.799  1.00  0.00    -0.218 A  
HETATM   22  C   UNL     1      -8.685  11.073  66.624  1.00  0.00    -0.160 A  
ENDBRANCH   6   7
ENDBRANCH   5   6
ENDBRANCH   4   5
ENDBRANCH   2   4
TORSDOF 4
ENDMDL
MODEL      143
REMARK 921   NORMALIZED FREE ENERGY PREDICTED BY IDOCK:   -2.95 KCAL/MOL
REMARK 922        TOTAL FREE ENERGY PREDICTED BY IDOCK:   -4.22 KCAL/MOL
REMARK 923 INTER-LIGAND FREE ENERGY PREDICTED BY IDOCK:   -3.76 KCAL/MOL
REMARK 924 INTRA-LIGAND FREE ENERGY PREDICTED BY IDOCK:   -0.46 KCAL/MOL
REMARK 927      BINDING AFFINITY PREDICTED BY RF-SCORE:    0.00 PKD
ROOT
HETATM    1  C   UNL     1     -12.231   6.433  72.102  1.00  0.00    -0.229 C  
HETATM    2  N   UNL     1     -12.205   6.696  70.670  1.00  0.00    -0.455 NA 
HETATM    3  H   UNL     1     -12.866   7.430  70.413  1.00  0.00     0.000 HD 
ENDROOT
BRANCH   2   4
HETATM    4  C   UNL     1     -10.851   7.008  70.209  1.00  0.00    -0.254 C  
BRANCH   4   5
HETATM    5  C   UNL     1     -10.437   8.378  70.759  1.00  0.00    -0.230 C  
BRANCH   5   6
HETATM    6  C   UNL     1      -9.053   8.801  70.234  1.00  0.00    -0.185 C  
BRANCH   6   7
HETATM    7  C   UNL     1      -9.036  10.006  69.254  1.00  0.00    -0.208 C  
HETATM    8  C   UNL     1     -10.291  10.927  69.485  1.00  0.00    -0.136 C  
HETATM    9  C   UNL     1     -10.320  12.121  68.485  1.00  0.00    -0.233 C  
HETATM   10  C   UNL     1      -9.091  12.062  67.559  1.00  0.00    -0.177 C  
HETATM   11  C   UNL     1      -9.160  10.703  66.865  1.00  0.00    -0.168 A  
HETATM   12  C   UNL     1      -7.869  12.055  68.471  1.00  0.00    -0.129 A  
HETATM   13  C   UNL     1      -9.235  10.522  65.489  1.00  0.00    -0.223 A  
HETATM   14  C   UNL     1      -6.864  13.018  68.446  1.00  0.00    -0.097 A  
HETATM   15  C   UNL     1      -5.776  12.876  69.306  1.00  0.00    -0.081 A  
HETATM   16  C   UNL     1      -9.289   9.225  64.986  1.00  0.00    -0.196 A  
HETATM   17  C   UNL     1      -9.268   8.125  65.853  1.00  0.00    -0.158 A  
HETATM   18  C   UNL     1      -5.684  11.766  70.153  1.00  0.00    -0.145 A  
HETATM   19  C   UNL     1      -6.684  10.789  70.164  1.00  0.00    -0.116 A  
HETATM   20  C   UNL     1      -9.189   8.304  67.239  1.00  0.00    -0.165 A  
HETATM   21  C   UNL     1      -7.807  10.944  69.355  1.00  0.00    -0.048 A  
HETATM   22  C   UNL     1      -9.138   9.594  67.758  1.00  0.00    -0.132 A  
ENDBRANCH   6   7
ENDBRANCH   5   6
ENDBRANCH   4   5
ENDBRANCH   2   4
TORSDOF 4
ENDMDL
MODEL      144
REMARK 921   NORMALIZED FREE ENERGY PREDICTED BY IDOCK:   -2.95 KCAL/MOL
REMARK 922        TOTAL FREE ENERGY PREDICTED BY IDOCK:   -4.22 KCAL/MOL
REMARK 923 INTER-LIGAND FREE ENERGY PREDICTED BY IDOCK:   -3.93 KCAL/MOL
REMARK 924 INTRA-LIGAND FREE ENERGY PREDICTED BY IDOCK:   -0.29 KCAL/MOL
REMARK 927      BINDING AFFINITY PREDICTED BY RF-SCORE:    0.00 PKD
ROOT
HETATM    1  C   UNL     1     -12.483   6.704  71.763  1.00  0.00    -0.311 C  
HETATM    2  N   UNL     1     -12.228   7.155  70.402  1.00  0.00    -0.596 NA 
HETATM    3  H   UNL     1     -13.018   7.683  70.029  1.00  0.00     0.000 HD 
ENDROOT
BRANCH   2   4
HETATM    4  C   UNL     1     -10.984   7.921  70.318  1.00  0.00    -0.248 C  
BRANCH   4   5
HETATM    5  C   UNL     1     -11.081   8.910  69.150  1.00  0.00     0.111 C  
BRANCH   5   6
HETATM    6  C   UNL     1      -9.797   9.748  69.012  1.00  0.00    -0.183 C  
BRANCH   6   7
HETATM    7  C   UNL     1      -9.877  10.961  68.046  1.00  0.00    -0.185 C  
HETATM    8  C   UNL     1     -11.263  11.692  68.184  1.00  0.00    -0.325 C  
HETATM    9  C   UNL     1     -11.385  12.887  67.194  1.00  0.00    -0.352 C  
HETATM   10  C   UNL     1     -10.092  13.020  66.367  1.00  0.00    -0.279 C  
HETATM   11  C   UNL     1      -9.914  11.678  65.659  1.00  0.00    -0.274 A  
HETATM   12  C   UNL     1      -8.956  13.169  67.371  1.00  0.00    -0.201 A  
HETATM   13  C   UNL     1      -9.857  11.514  64.281  1.00  0.00    -0.279 A  
HETATM   14  C   UNL     1      -8.100  14.264  67.433  1.00  0.00    -0.213 A  
HETATM   15  C   UNL     1      -7.071  14.261  68.374  1.00  0.00    -0.105 A  
HETATM   16  C   UNL     1      -9.688  10.231  63.765  1.00  0.00    -0.298 A  
HETATM   17  C   UNL     1      -9.577   9.129  64.623  1.00  0.00     0.410 A  
HETATM   18  C   UNL     1      -6.887  13.160  69.219  1.00  0.00    -0.024 A  
HETATM   19  C   UNL     1      -7.737  12.051  69.143  1.00  0.00     0.200 A  
HETATM   20  C   UNL     1      -9.630   9.292  66.012  1.00  0.00    -0.338 A  
HETATM   21  C   UNL     1      -8.805  12.061  68.250  1.00  0.00    -0.182 A  
HETATM   22  C   UNL     1      -9.804  10.567  66.543  1.00  0.00    -0.255 A  
ENDBRANCH   6   7
ENDBRANCH   5   6
ENDBRANCH   4   5
ENDBRANCH   2   4
TORSDOF 4
ENDMDL
MODEL      145
REMARK 921   NORMALIZED FREE ENERGY PREDICTED BY IDOCK:   -2.92 KCAL/MOL
REMARK 922        TOTAL FREE ENERGY PREDICTED BY IDOCK:   -4.19 KCAL/MOL
REMARK 923 INTER-LIGAND FREE ENERGY PREDICTED BY IDOCK:   -3.75 KCAL/MOL
REMARK 924 INTRA-LIGAND FREE ENERGY PREDICTED BY IDOCK:   -0.43 KCAL/MOL
REMARK 927      BINDING AFFINITY PREDICTED BY RF-SCORE:    0.00 PKD
ROOT
HETATM    1  C   UNL     1      -8.574  11.785  66.506  1.00  0.00    -0.148 C  
HETATM    2  N   UNL     1      -7.964  10.470  66.376  1.00  0.00    -0.131 NA 
HETATM    3  H   UNL     1      -7.477  10.370  65.485  1.00  0.00     0.000 HD 
ENDROOT
BRANCH   2   4
HETATM    4  C   UNL     1      -7.079  10.178  67.505  1.00  0.00    -0.087 C  
BRANCH   4   5
HETATM    5  C   UNL     1      -7.930   9.889  68.747  1.00  0.00    -0.093 C  
BRANCH   5   6
HETATM    6  C   UNL     1      -8.978   8.795  68.472  1.00  0.00    -0.138 C  
BRANCH   6   7
HETATM    7  C   UNL     1      -9.035   7.633  69.500  1.00  0.00    -0.139 C  
HETATM    8  C   UNL     1      -7.655   7.477  70.240  1.00  0.00    -0.090 C  
HETATM    9  C   UNL     1      -7.672   6.290  71.247  1.00  0.00    -0.103 C  
HETATM   10  C   UNL     1      -9.056   5.613  71.239  1.00  0.00    -0.156 C  
HETATM   11  C   UNL     1      -9.293   5.172  69.795  1.00  0.00    -0.182 A  
HETATM   12  C   UNL     1     -10.068   6.706  71.561  1.00  0.00    -0.200 A  
HETATM   13  C   UNL     1      -9.510   3.858  69.397  1.00  0.00    -0.260 A  
HETATM   14  C   UNL     1     -10.931   6.681  72.654  1.00  0.00    -0.288 A  
HETATM   15  C   UNL     1     -11.840   7.725  72.815  1.00  0.00    -0.247 A  
HETATM   16  C   UNL     1      -9.716   3.594  68.045  1.00  0.00    -0.105 A  
HETATM   17  C   UNL     1      -9.705   4.635  67.107  1.00  0.00    -0.219 A  
HETATM   18  C   UNL     1     -11.903   8.761  71.876  1.00  0.00    -0.437 A  
HETATM   19  C   UNL     1     -11.049   8.776  70.769  1.00  0.00    -0.306 A  
HETATM   20  C   UNL     1      -9.490   5.959  67.507  1.00  0.00    -0.110 A  
HETATM   21  C   UNL     1     -10.094   7.773  70.621  1.00  0.00    -0.191 A  
HETATM   22  C   UNL     1      -9.278   6.239  68.853  1.00  0.00    -0.123 A  
ENDBRANCH   6   7
ENDBRANCH   5   6
ENDBRANCH   4   5
ENDBRANCH   2   4
TORSDOF 4
ENDMDL
MODEL      146
REMARK 921   NORMALIZED FREE ENERGY PREDICTED BY IDOCK:   -2.86 KCAL/MOL
REMARK 922        TOTAL FREE ENERGY PREDICTED BY IDOCK:   -4.12 KCAL/MOL
REMARK 923 INTER-LIGAND FREE ENERGY PREDICTED BY IDOCK:   -3.80 KCAL/MOL
REMARK 924 INTRA-LIGAND FREE ENERGY PREDICTED BY IDOCK:   -0.32 KCAL/MOL
REMARK 927      BINDING AFFINITY PREDICTED BY RF-SCORE:    0.00 PKD
ROOT
HETATM    1  C   UNL     1      -6.521  10.590  66.810  1.00  0.00    -0.081 C  
HETATM    2  N   UNL     1      -6.086  10.993  68.139  1.00  0.00    -0.049 NA 
HETATM    3  H   UNL     1      -6.835  11.456  68.654  1.00  0.00     0.000 HD 
ENDROOT
BRANCH   2   4
HETATM    4  C   UNL     1      -5.542   9.860  68.889  1.00  0.00    -0.035 C  
BRANCH   4   5
HETATM    5  C   UNL     1      -6.021   9.944  70.343  1.00  0.00    -0.075 C  
BRANCH   5   6
HETATM    6  C   UNL     1      -6.933   8.759  70.707  1.00  0.00    -0.066 C  
BRANCH   6   7
HETATM    7  C   UNL     1      -8.389   8.831  70.172  1.00  0.00    -0.131 C  
HETATM    8  C   UNL     1      -8.783  10.317  69.832  1.00  0.00     0.010 C  
HETATM    9  C   UNL     1     -10.254  10.422  69.334  1.00  0.00    -0.257 C  
HETATM   10  C   UNL     1     -10.901   9.025  69.303  1.00  0.00    -0.131 C  
HETATM   11  C   UNL     1     -10.793   8.487  70.728  1.00  0.00    -0.268 A  
HETATM   12  C   UNL     1     -10.013   8.162  68.414  1.00  0.00    -0.210 A  
HETATM   13  C   UNL     1     -11.877   8.118  71.517  1.00  0.00    -0.332 A  
HETATM   14  C   UNL     1     -10.443   7.528  67.252  1.00  0.00    -0.391 A  
HETATM   15  C   UNL     1      -9.541   6.732  66.548  1.00  0.00    -0.191 A  
HETATM   16  C   UNL     1     -11.637   7.638  72.802  1.00  0.00    -0.334 A  
HETATM   17  C   UNL     1     -10.328   7.531  73.288  1.00  0.00    -0.412 A  
HETATM   18  C   UNL     1      -8.236   6.551  67.022  1.00  0.00    -0.113 A  
HETATM   19  C   UNL     1      -7.811   7.174  68.199  1.00  0.00    -0.118 A  
HETATM   20  C   UNL     1      -9.235   7.898  72.494  1.00  0.00    -0.250 A  
HETATM   21  C   UNL     1      -8.679   8.020  68.885  1.00  0.00    -0.131 A  
HETATM   22  C   UNL     1      -9.458   8.384  71.210  1.00  0.00    -0.240 A  
ENDBRANCH   6   7
ENDBRANCH   5   6
ENDBRANCH   4   5
ENDBRANCH   2   4
TORSDOF 4
ENDMDL
MODEL      147
REMARK 921   NORMALIZED FREE ENERGY PREDICTED BY IDOCK:   -2.84 KCAL/MOL
REMARK 922        TOTAL FREE ENERGY PREDICTED BY IDOCK:   -4.09 KCAL/MOL
REMARK 923 INTER-LIGAND FREE ENERGY PREDICTED BY IDOCK:   -4.57 KCAL/MOL
REMARK 924 INTRA-LIGAND FREE ENERGY PREDICTED BY IDOCK:    0.47 KCAL/MOL
REMARK 927      BINDING AFFINITY PREDICTED BY RF-SCORE:    0.00 PKD
ROOT
HETATM    1  C   UNL     1      -8.748   2.863  65.746  1.00  0.00    -0.128 C  
HETATM    2  N   UNL     1      -9.740   3.385  66.674  1.00  0.00    -0.412 NA 
HETATM    3  H   UNL     1      -9.768   2.842  67.537  1.00  0.00     0.000 HD 
ENDROOT
BRANCH   2   4
HETATM    4  C   UNL     1      -9.524   4.808  66.943  1.00  0.00    -0.155 C  
BRANCH   4   5
HETATM    5  C   UNL     1      -8.954   4.970  68.357  1.00  0.00    -0.123 C  
BRANCH   5   6
HETATM    6  C   UNL     1      -8.090   6.239  68.475  1.00  0.00    -0.109 C  
BRANCH   6   7
HETATM    7  C   UNL     1      -8.728   7.429  69.240  1.00  0.00    -0.137 C  
HETATM    8  C   UNL     1      -7.626   8.259  69.996  1.00  0.00    -0.072 C  
HETATM    9  C   UNL     1      -8.245   9.435  70.807  1.00  0.00    -0.173 C  
HETATM   10  C   UNL     1      -9.774   9.454  70.621  1.00  0.00    -0.336 C  
HETATM   11  C   UNL     1     -10.266   8.085  71.088  1.00  0.00    -0.225 A  
HETATM   12  C   UNL     1     -10.021   9.548  69.120  1.00  0.00    -0.185 A  
HETATM   13  C   UNL     1     -11.174   7.883  72.121  1.00  0.00    -0.363 A  
HETATM   14  C   UNL     1     -10.718  10.582  68.501  1.00  0.00    -0.259 A  
HETATM   15  C   UNL     1     -10.911  10.529  67.122  1.00  0.00    -0.319 A  
HETATM   16  C   UNL     1     -11.541   6.579  72.444  1.00  0.00    -0.292 A  
HETATM   17  C   UNL     1     -11.003   5.494  71.739  1.00  0.00    -0.249 A  
HETATM   18  C   UNL     1     -10.438   9.440  66.381  1.00  0.00    -0.165 A  
HETATM   19  C   UNL     1      -9.755   8.393  67.006  1.00  0.00    -0.268 A  
HETATM   20  C   UNL     1     -10.091   5.696  70.696  1.00  0.00    -0.274 A  
HETATM   21  C   UNL     1      -9.501   8.455  68.374  1.00  0.00    -0.145 A  
HETATM   22  C   UNL     1      -9.711   6.993  70.365  1.00  0.00    -0.178 A  
ENDBRANCH   6   7
ENDBRANCH   5   6
ENDBRANCH   4   5
ENDBRANCH   2   4
TORSDOF 4
ENDMDL
MODEL      148
REMARK 921   NORMALIZED FREE ENERGY PREDICTED BY IDOCK:   -2.84 KCAL/MOL
REMARK 922        TOTAL FREE ENERGY PREDICTED BY IDOCK:   -4.09 KCAL/MOL
REMARK 923 INTER-LIGAND FREE ENERGY PREDICTED BY IDOCK:   -3.83 KCAL/MOL
REMARK 924 INTRA-LIGAND FREE ENERGY PREDICTED BY IDOCK:   -0.26 KCAL/MOL
REMARK 927      BINDING AFFINITY PREDICTED BY RF-SCORE:    0.00 PKD
ROOT
HETATM    1  C   UNL     1     -10.621   7.503  73.479  1.00  0.00    -0.292 C  
HETATM    2  N   UNL     1     -11.862   7.516  72.719  1.00  0.00    -0.581 NA 
HETATM    3  H   UNL     1     -12.428   8.335  72.940  1.00  0.00     0.000 HD 
ENDROOT
BRANCH   2   4
HETATM    4  C   UNL     1     -11.608   7.412  71.281  1.00  0.00    -0.280 C  
BRANCH   4   5
HETATM    5  C   UNL     1     -11.116   5.996  70.959  1.00  0.00    -0.348 C  
BRANCH   5   6
HETATM    6  C   UNL     1     -10.829   5.826  69.456  1.00  0.00    -0.410 C  
BRANCH   6   7
HETATM    7  C   UNL     1      -9.502   5.106  69.094  1.00  0.00    -0.188 C  
HETATM    8  C   UNL     1      -9.344   3.780  69.928  1.00  0.00    -0.248 C  
HETATM    9  C   UNL     1      -8.000   3.059  69.614  1.00  0.00    -0.055 C  
HETATM   10  C   UNL     1      -7.212   3.853  68.555  1.00  0.00    -0.055 C  
HETATM   11  C   UNL     1      -7.015   5.249  69.144  1.00  0.00    -0.056 A  
HETATM   12  C   UNL     1      -8.133   3.986  67.348  1.00  0.00    -0.091 A  
HETATM   13  C   UNL     1      -5.779   5.838  69.380  1.00  0.00    -0.012 A  
HETATM   14  C   UNL     1      -7.836   3.506  66.075  1.00  0.00    -0.089 A  
HETATM   15  C   UNL     1      -8.748   3.729  65.044  1.00  0.00    -0.115 A  
HETATM   16  C   UNL     1      -5.741   7.121  69.920  1.00  0.00    -0.023 A  
HETATM   17  C   UNL     1      -6.929   7.802  70.219  1.00  0.00    -0.050 A  
HETATM   18  C   UNL     1      -9.924   4.449  65.281  1.00  0.00    -0.214 A  
HETATM   19  C   UNL     1     -10.213   4.947  66.556  1.00  0.00    -0.305 A  
HETATM   20  C   UNL     1      -8.175   7.211  69.979  1.00  0.00    -0.136 A  
HETATM   21  C   UNL     1      -9.343   4.685  67.611  1.00  0.00    -0.170 A  
HETATM   22  C   UNL     1      -8.229   5.928  69.444  1.00  0.00    -0.113 A  
ENDBRANCH   6   7
ENDBRANCH   5   6
ENDBRANCH   4   5
ENDBRANCH   2   4
TORSDOF 4
ENDMDL
MODEL      149
REMARK 921   NORMALIZED FREE ENERGY PREDICTED BY IDOCK:   -2.84 KCAL/MOL
REMARK 922        TOTAL FREE ENERGY PREDICTED BY IDOCK:   -4.09 KCAL/MOL
REMARK 923 INTER-LIGAND FREE ENERGY PREDICTED BY IDOCK:   -3.66 KCAL/MOL
REMARK 924 INTRA-LIGAND FREE ENERGY PREDICTED BY IDOCK:   -0.43 KCAL/MOL
REMARK 927      BINDING AFFINITY PREDICTED BY RF-SCORE:    0.00 PKD
ROOT
HETATM    1  C   UNL     1     -12.057  12.355  64.389  1.00  0.00    -0.426 C  
HETATM    2  N   UNL     1     -11.026  11.572  63.723  1.00  0.00    -0.397 NA 
HETATM    3  H   UNL     1     -10.813  11.945  62.798  1.00  0.00     0.000 HD 
ENDROOT
BRANCH   2   4
HETATM    4  C   UNL     1      -9.821  11.464  64.547  1.00  0.00    -0.260 C  
BRANCH   4   5
HETATM    5  C   UNL     1      -9.431   9.987  64.675  1.00  0.00    -0.367 C  
BRANCH   5   6
HETATM    6  C   UNL     1      -8.676   9.715  65.989  1.00  0.00    -0.155 C  
BRANCH   6   7
HETATM    7  C   UNL     1      -9.135   8.467  66.791  1.00  0.00    -0.186 C  
HETATM    8  C   UNL     1     -10.642   8.132  66.484  1.00  0.00     0.128 C  
HETATM    9  C   UNL     1     -11.139   6.910  67.309  1.00  0.00    -0.355 C  
HETATM   10  C   UNL     1      -9.996   6.367  68.187  1.00  0.00    -0.143 C  
HETATM   11  C   UNL     1      -9.556   7.537  69.065  1.00  0.00    -0.153 A  
HETATM   12  C   UNL     1      -8.848   6.040  67.240  1.00  0.00    -0.107 A  
HETATM   13  C   UNL     1      -9.581   7.535  70.454  1.00  0.00    -0.168 A  
HETATM   14  C   UNL     1      -8.285   4.775  67.093  1.00  0.00    -0.106 A  
HETATM   15  C   UNL     1      -7.210   4.616  66.221  1.00  0.00    -0.076 A  
HETATM   16  C   UNL     1      -9.147   8.671  71.133  1.00  0.00    -0.263 A  
HETATM   17  C   UNL     1      -8.694   9.792  70.426  1.00  0.00    -0.106 A  
HETATM   18  C   UNL     1      -6.688   5.716  65.531  1.00  0.00    -0.041 A  
HETATM   19  C   UNL     1      -7.242   6.990  65.694  1.00  0.00    -0.073 A  
HETATM   20  C   UNL     1      -8.664   9.795  69.027  1.00  0.00    -0.148 A  
HETATM   21  C   UNL     1      -8.353   7.159  66.515  1.00  0.00    -0.117 A  
HETATM   22  C   UNL     1      -9.099   8.669  68.333  1.00  0.00    -0.138 A  
ENDBRANCH   6   7
ENDBRANCH   5   6
ENDBRANCH   4   5
ENDBRANCH   2   4
TORSDOF 4
ENDMDL
MODEL      150
REMARK 921   NORMALIZED FREE ENERGY PREDICTED BY IDOCK:   -2.81 KCAL/MOL
REMARK 922        TOTAL FREE ENERGY PREDICTED BY IDOCK:   -4.06 KCAL/MOL
REMARK 923 INTER-LIGAND FREE ENERGY PREDICTED BY IDOCK:   -3.61 KCAL/MOL
REMARK 924 INTRA-LIGAND FREE ENERGY PREDICTED BY IDOCK:   -0.45 KCAL/MOL
REMARK 927      BINDING AFFINITY PREDICTED BY RF-SCORE:    0.00 PKD
ROOT
HETATM    1  C   UNL     1     -12.278  13.968  66.060  1.00  0.00    -0.458 C  
HETATM    2  N   UNL     1     -11.036  14.597  66.485  1.00  0.00    -0.313 NA 
HETATM    3  H   UNL     1     -11.206  15.500  66.928  1.00  0.00     0.000 HD 
ENDROOT
BRANCH   2   4
HETATM    4  C   UNL     1     -10.259  13.712  67.355  1.00  0.00    -0.241 C  
BRANCH   4   5
HETATM    5  C   UNL     1     -10.335  12.281  66.811  1.00  0.00    -0.238 C  
BRANCH   5   6
HETATM    6  C   UNL     1      -9.935  11.248  67.880  1.00  0.00    -0.189 C  
BRANCH   6   7
HETATM    7  C   UNL     1      -8.797  10.268  67.489  1.00  0.00    -0.128 C  
HETATM    8  C   UNL     1      -8.106  10.725  66.150  1.00  0.00    -0.160 C  
HETATM    9  C   UNL     1      -6.988   9.735  65.712  1.00  0.00    -0.103 C  
HETATM   10  C   UNL     1      -6.869   8.589  66.735  1.00  0.00    -0.069 C  
HETATM   11  C   UNL     1      -8.251   7.939  66.791  1.00  0.00    -0.116 A  
HETATM   12  C   UNL     1      -6.611   9.246  68.085  1.00  0.00    -0.059 A  
HETATM   13  C   UNL     1      -8.509   6.606  66.493  1.00  0.00    -0.121 A  
HETATM   14  C   UNL     1      -5.485   9.015  68.870  1.00  0.00    -0.037 A  
HETATM   15  C   UNL     1      -5.388   9.649  70.108  1.00  0.00    -0.032 A  
HETATM   16  C   UNL     1      -9.818   6.140  66.588  1.00  0.00    -0.202 A  
HETATM   17  C   UNL     1     -10.853   7.001  66.976  1.00  0.00    -0.413 A  
HETATM   18  C   UNL     1      -6.420  10.477  70.563  1.00  0.00    -0.071 A  
HETATM   19  C   UNL     1      -7.559  10.694  69.782  1.00  0.00    -0.054 A  
HETATM   20  C   UNL     1     -10.594   8.343  67.280  1.00  0.00    -0.328 A  
HETATM   21  C   UNL     1      -7.649  10.117  68.518  1.00  0.00    -0.088 A  
HETATM   22  C   UNL     1      -9.292   8.825  67.185  1.00  0.00    -0.188 A  
ENDBRANCH   6   7
ENDBRANCH   5   6
ENDBRANCH   4   5
ENDBRANCH   2   4
TORSDOF 4
ENDMDL
MODEL      151
REMARK 921   NORMALIZED FREE ENERGY PREDICTED BY IDOCK:   -2.80 KCAL/MOL
REMARK 922        TOTAL FREE ENERGY PREDICTED BY IDOCK:   -4.04 KCAL/MOL
REMARK 923 INTER-LIGAND FREE ENERGY PREDICTED BY IDOCK:   -3.61 KCAL/MOL
REMARK 924 INTRA-LIGAND FREE ENERGY PREDICTED BY IDOCK:   -0.42 KCAL/MOL
REMARK 927      BINDING AFFINITY PREDICTED BY RF-SCORE:    0.00 PKD
ROOT
HETATM    1  C   UNL     1     -11.931  13.081  66.114  1.00  0.00    -0.427 C  
HETATM    2  N   UNL     1     -10.586  13.626  66.231  1.00  0.00    -0.286 NA 
HETATM    3  H   UNL     1     -10.581  14.500  66.757  1.00  0.00     0.000 HD 
ENDROOT
BRANCH   2   4
HETATM    4  C   UNL     1      -9.662  12.649  66.808  1.00  0.00    -0.240 C  
BRANCH   4   5
HETATM    5  C   UNL     1     -10.090  11.240  66.380  1.00  0.00    -0.260 C  
BRANCH   5   6
HETATM    6  C   UNL     1     -10.188  10.290  67.587  1.00  0.00    -0.247 C  
BRANCH   6   7
HETATM    7  C   UNL     1      -9.428   8.943  67.456  1.00  0.00    -0.172 C  
HETATM    8  C   UNL     1      -9.568   8.364  65.999  1.00  0.00    -0.196 C  
HETATM    9  C   UNL     1      -8.849   6.991  65.853  1.00  0.00    -0.126 C  
HETATM   10  C   UNL     1      -8.188   6.598  67.188  1.00  0.00    -0.113 C  
HETATM   11  C   UNL     1      -9.317   6.572  68.217  1.00  0.00    -0.118 A  
HETATM   12  C   UNL     1      -7.253   7.743  67.556  1.00  0.00    -0.091 A  
HETATM   13  C   UNL     1      -9.681   5.456  68.962  1.00  0.00    -0.208 A  
HETATM   14  C   UNL     1      -5.879   7.610  67.736  1.00  0.00    -0.036 A  
HETATM   15  C   UNL     1      -5.139   8.730  68.112  1.00  0.00    -0.034 A  
HETATM   16  C   UNL     1     -10.730   5.571  69.871  1.00  0.00    -0.358 A  
HETATM   17  C   UNL     1     -11.404   6.789  70.029  1.00  0.00    -0.396 A  
HETATM   18  C   UNL     1      -5.774   9.957  68.334  1.00  0.00    -0.042 A  
HETATM   19  C   UNL     1      -7.157  10.086  68.170  1.00  0.00    -0.080 A  
HETATM   20  C   UNL     1     -11.036   7.915  69.283  1.00  0.00     0.114 A  
HETATM   21  C   UNL     1      -7.905   8.994  67.739  1.00  0.00    -0.101 A  
HETATM   22  C   UNL     1      -9.993   7.815  68.367  1.00  0.00    -0.195 A  
ENDBRANCH   6   7
ENDBRANCH   5   6
ENDBRANCH   4   5
ENDBRANCH   2   4
TORSDOF 4
ENDMDL
MODEL      152
REMARK 921   NORMALIZED FREE ENERGY PREDICTED BY IDOCK:   -2.79 KCAL/MOL
REMARK 922        TOTAL FREE ENERGY PREDICTED BY IDOCK:   -4.03 KCAL/MOL
REMARK 923 INTER-LIGAND FREE ENERGY PREDICTED BY IDOCK:   -4.57 KCAL/MOL
REMARK 924 INTRA-LIGAND FREE ENERGY PREDICTED BY IDOCK:    0.54 KCAL/MOL
REMARK 927      BINDING AFFINITY PREDICTED BY RF-SCORE:    0.00 PKD
ROOT
HETATM    1  C   UNL     1      -5.159  11.557  67.144  1.00  0.00    -0.079 C  
HETATM    2  N   UNL     1      -6.227  10.596  67.377  1.00  0.00    -0.056 NA 
HETATM    3  H   UNL     1      -6.139  10.154  68.292  1.00  0.00     0.000 HD 
ENDROOT
BRANCH   2   4
HETATM    4  C   UNL     1      -7.544  11.209  67.203  1.00  0.00    -0.125 C  
BRANCH   4   5
HETATM    5  C   UNL     1      -7.979  11.849  68.526  1.00  0.00    -0.137 C  
BRANCH   5   6
HETATM    6  C   UNL     1      -9.492  11.688  68.760  1.00  0.00    -0.068 C  
BRANCH   6   7
HETATM    7  C   UNL     1     -10.340  12.984  68.647  1.00  0.00    -0.203 C  
HETATM    8  C   UNL     1     -11.388  13.066  69.818  1.00  0.00    -0.114 C  
HETATM    9  C   UNL     1     -12.281  14.337  69.703  1.00  0.00    -0.371 C  
HETATM   10  C   UNL     1     -11.866  15.162  68.471  1.00  0.00    -0.307 C  
HETATM   11  C   UNL     1     -12.011  14.222  67.275  1.00  0.00    -0.439 A  
HETATM   12  C   UNL     1     -10.383  15.469  68.641  1.00  0.00    -0.219 A  
HETATM   13  C   UNL     1     -12.841  14.456  66.184  1.00  0.00     0.114 A  
HETATM   14  C   UNL     1      -9.848  16.752  68.707  1.00  0.00    -0.264 A  
HETATM   15  C   UNL     1      -8.466  16.898  68.823  1.00  0.00    -0.244 A  
HETATM   16  C   UNL     1     -12.876  13.516  65.157  1.00  0.00    -0.381 A  
HETATM   17  C   UNL     1     -12.090  12.359  65.225  1.00  0.00    -0.451 A  
HETATM   18  C   UNL     1      -7.634  15.774  68.842  1.00  0.00    -0.181 A  
HETATM   19  C   UNL     1      -8.171  14.485  68.757  1.00  0.00    -0.146 A  
HETATM   20  C   UNL     1     -11.251  12.124  66.320  1.00  0.00    -0.382 A  
HETATM   21  C   UNL     1      -9.552  14.316  68.700  1.00  0.00    -0.192 A  
HETATM   22  C   UNL     1     -11.208  13.051  67.357  1.00  0.00    -0.325 A  
ENDBRANCH   6   7
ENDBRANCH   5   6
ENDBRANCH   4   5
ENDBRANCH   2   4
TORSDOF 4
ENDMDL
MODEL      153
REMARK 921   NORMALIZED FREE ENERGY PREDICTED BY IDOCK:   -2.77 KCAL/MOL
REMARK 922        TOTAL FREE ENERGY PREDICTED BY IDOCK:   -4.01 KCAL/MOL
REMARK 923 INTER-LIGAND FREE ENERGY PREDICTED BY IDOCK:   -3.57 KCAL/MOL
REMARK 924 INTRA-LIGAND FREE ENERGY PREDICTED BY IDOCK:   -0.43 KCAL/MOL
REMARK 927      BINDING AFFINITY PREDICTED BY RF-SCORE:    0.00 PKD
ROOT
HETATM    1  C   UNL     1      -7.449   1.971  66.686  1.00  0.00    -0.065 C  
HETATM    2  N   UNL     1      -7.129   3.157  67.467  1.00  0.00    -0.053 NA 
HETATM    3  H   UNL     1      -7.820   3.895  67.327  1.00  0.00     0.000 HD 
ENDROOT
BRANCH   2   4
HETATM    4  C   UNL     1      -6.969   2.836  68.886  1.00  0.00    -0.044 C  
BRANCH   4   5
HETATM    5  C   UNL     1      -7.967   3.663  69.704  1.00  0.00    -0.056 C  
BRANCH   5   6
HETATM    6  C   UNL     1      -7.824   5.168  69.412  1.00  0.00    -0.080 C  
BRANCH   6   7
HETATM    7  C   UNL     1      -8.919   6.086  70.020  1.00  0.00    -0.149 C  
HETATM    8  C   UNL     1     -10.287   5.318  70.137  1.00  0.00    -0.354 C  
HETATM    9  C   UNL     1     -11.413   6.231  70.706  1.00  0.00    -0.383 C  
HETATM   10  C   UNL     1     -10.852   7.633  71.007  1.00  0.00    -0.255 C  
HETATM   11  C   UNL     1     -10.283   8.144  69.684  1.00  0.00    -0.205 A  
HETATM   12  C   UNL     1      -9.685   7.430  71.966  1.00  0.00    -0.182 A  
HETATM   13  C   UNL     1     -10.703   9.301  69.039  1.00  0.00    -0.189 A  
HETATM   14  C   UNL     1      -9.610   7.983  73.241  1.00  0.00    -0.322 A  
HETATM   15  C   UNL     1      -8.467   7.754  74.006  1.00  0.00    -0.304 A  
HETATM   16  C   UNL     1     -10.096   9.655  67.837  1.00  0.00    -0.222 A  
HETATM   17  C   UNL     1      -9.081   8.859  67.291  1.00  0.00    -0.153 A  
HETATM   18  C   UNL     1      -7.404   7.008  73.485  1.00  0.00    -0.081 A  
HETATM   19  C   UNL     1      -7.472   6.469  72.196  1.00  0.00    -0.092 A  
HETATM   20  C   UNL     1      -8.654   7.695  67.942  1.00  0.00    -0.122 A  
HETATM   21  C   UNL     1      -8.629   6.637  71.439  1.00  0.00    -0.125 A  
HETATM   22  C   UNL     1      -9.254   7.325  69.141  1.00  0.00    -0.139 A  
ENDBRANCH   6   7
ENDBRANCH   5   6
ENDBRANCH   4   5
ENDBRANCH   2   4
TORSDOF 4
ENDMDL
MODEL      154
REMARK 921   NORMALIZED FREE ENERGY PREDICTED BY IDOCK:   -2.76 KCAL/MOL
REMARK 922        TOTAL FREE ENERGY PREDICTED BY IDOCK:   -4.00 KCAL/MOL
REMARK 923 INTER-LIGAND FREE ENERGY PREDICTED BY IDOCK:   -3.72 KCAL/MOL
REMARK 924 INTRA-LIGAND FREE ENERGY PREDICTED BY IDOCK:   -0.28 KCAL/MOL
REMARK 927      BINDING AFFINITY PREDICTED BY RF-SCORE:    0.00 PKD
ROOT
HETATM    1  C   UNL     1     -11.164   8.626  71.980  1.00  0.00    -0.364 C  
HETATM    2  N   UNL     1     -12.020   8.267  70.858  1.00  0.00    -0.439 NA 
HETATM    3  H   UNL     1     -11.758   8.774  70.012  1.00  0.00     0.000 HD 
ENDROOT
BRANCH   2   4
HETATM    4  C   UNL     1     -12.029   6.821  70.635  1.00  0.00    -0.362 C  
BRANCH   4   5
HETATM    5  C   UNL     1     -11.037   6.479  69.517  1.00  0.00    -0.425 C  
BRANCH   5   6
HETATM    6  C   UNL     1     -10.548   7.745  68.790  1.00  0.00    -0.161 C  
BRANCH   6   7
HETATM    7  C   UNL     1      -9.154   7.647  68.115  1.00  0.00    -0.132 C  
HETATM    8  C   UNL     1      -8.874   6.176  67.628  1.00  0.00    -0.103 C  
HETATM    9  C   UNL     1      -7.463   6.041  66.984  1.00  0.00    -0.084 C  
HETATM   10  C   UNL     1      -6.746   7.405  66.996  1.00  0.00    -0.069 C  
HETATM   11  C   UNL     1      -6.693   7.832  68.462  1.00  0.00    -0.058 A  
HETATM   12  C   UNL     1      -7.664   8.376  66.264  1.00  0.00    -0.094 A  
HETATM   13  C   UNL     1      -5.523   8.085  69.168  1.00  0.00    -0.030 A  
HETATM   14  C   UNL     1      -7.309   9.080  65.117  1.00  0.00    -0.096 A  
HETATM   15  C   UNL     1      -8.227   9.972  64.565  1.00  0.00    -0.164 A  
HETATM   16  C   UNL     1      -5.617   8.472  70.503  1.00  0.00    -0.027 A  
HETATM   17  C   UNL     1      -6.869   8.602  71.119  1.00  0.00    -0.071 A  
HETATM   18  C   UNL     1      -9.471  10.175  65.173  1.00  0.00    -0.319 A  
HETATM   19  C   UNL     1      -9.820   9.482  66.336  1.00  0.00    -0.320 A  
HETATM   20  C   UNL     1      -8.048   8.351  70.409  1.00  0.00    -0.109 A  
HETATM   21  C   UNL     1      -8.939   8.544  66.870  1.00  0.00    -0.166 A  
HETATM   22  C   UNL     1      -7.971   7.959  69.075  1.00  0.00    -0.122 A  
ENDBRANCH   6   7
ENDBRANCH   5   6
ENDBRANCH   4   5
ENDBRANCH   2   4
TORSDOF 4
ENDMDL
MODEL      155
REMARK 921   NORMALIZED FREE ENERGY PREDICTED BY IDOCK:   -2.76 KCAL/MOL
REMARK 922        TOTAL FREE ENERGY PREDICTED BY IDOCK:   -3.99 KCAL/MOL
REMARK 923 INTER-LIGAND FREE ENERGY PREDICTED BY IDOCK:   -3.95 KCAL/MOL
REMARK 924 INTRA-LIGAND FREE ENERGY PREDICTED BY IDOCK:   -0.04 KCAL/MOL
REMARK 927      BINDING AFFINITY PREDICTED BY RF-SCORE:    0.00 PKD
ROOT
HETATM    1  C   UNL     1     -14.367   8.614  71.864  1.00  0.00    -0.405 C  
HETATM    2  N   UNL     1     -13.634   9.434  70.909  1.00  0.00    -0.574 NA 
HETATM    3  H   UNL     1     -14.239  10.131  70.475  1.00  0.00     0.000 HD 
ENDROOT
BRANCH   2   4
HETATM    4  C   UNL     1     -12.460  10.052  71.527  1.00  0.00    -0.419 C  
BRANCH   4   5
HETATM    5  C   UNL     1     -11.196   9.531  70.834  1.00  0.00    -0.411 C  
BRANCH   5   6
HETATM    6  C   UNL     1     -10.265   8.809  71.826  1.00  0.00    -0.408 C  
BRANCH   6   7
HETATM    7  C   UNL     1      -9.112   7.981  71.198  1.00  0.00    -0.172 C  
HETATM    8  C   UNL     1      -9.680   6.728  70.434  1.00  0.00    -0.183 C  
HETATM    9  C   UNL     1      -8.540   5.856  69.830  1.00  0.00    -0.129 C  
HETATM   10  C   UNL     1      -7.171   6.488  70.147  1.00  0.00    -0.080 C  
HETATM   11  C   UNL     1      -7.102   6.586  71.670  1.00  0.00    -0.081 A  
HETATM   12  C   UNL     1      -7.216   7.907  69.593  1.00  0.00    -0.070 A  
HETATM   13  C   UNL     1      -6.132   5.977  72.457  1.00  0.00    -0.041 A  
HETATM   14  C   UNL     1      -6.344   8.402  68.627  1.00  0.00    -0.053 A  
HETATM   15  C   UNL     1      -6.465   9.734  68.234  1.00  0.00    -0.056 A  
HETATM   16  C   UNL     1      -6.184   6.150  73.838  1.00  0.00    -0.065 A  
HETATM   17  C   UNL     1      -7.196   6.925  74.419  1.00  0.00    -0.101 A  
HETATM   18  C   UNL     1      -7.426  10.563  68.823  1.00  0.00    -0.097 A  
HETATM   19  C   UNL     1      -8.290  10.069  69.806  1.00  0.00    -0.187 A  
HETATM   20  C   UNL     1      -8.172   7.543  73.628  1.00  0.00    -0.190 A  
HETATM   21  C   UNL     1      -8.224   8.727  70.171  1.00  0.00    -0.117 A  
HETATM   22  C   UNL     1      -8.136   7.375  72.247  1.00  0.00    -0.113 A  
ENDBRANCH   6   7
ENDBRANCH   5   6
ENDBRANCH   4   5
ENDBRANCH   2   4
TORSDOF 4
ENDMDL
MODEL      156
REMARK 921   NORMALIZED FREE ENERGY PREDICTED BY IDOCK:   -2.73 KCAL/MOL
REMARK 922        TOTAL FREE ENERGY PREDICTED BY IDOCK:   -3.95 KCAL/MOL
REMARK 923 INTER-LIGAND FREE ENERGY PREDICTED BY IDOCK:   -3.46 KCAL/MOL
REMARK 924 INTRA-LIGAND FREE ENERGY PREDICTED BY IDOCK:   -0.49 KCAL/MOL
REMARK 927      BINDING AFFINITY PREDICTED BY RF-SCORE:    0.00 PKD
ROOT
HETATM    1  C   UNL     1      -6.463  11.437  66.360  1.00  0.00    -0.029 C  
HETATM    2  N   UNL     1      -5.345  11.848  67.198  1.00  0.00    -0.109 NA 
HETATM    3  H   UNL     1      -5.175  12.851  67.130  1.00  0.00     0.000 HD 
ENDROOT
BRANCH   2   4
HETATM    4  C   UNL     1      -5.538  11.430  68.587  1.00  0.00    -0.042 C  
BRANCH   4   5
HETATM    5  C   UNL     1      -5.743   9.911  68.631  1.00  0.00    -0.038 C  
BRANCH   5   6
HETATM    6  C   UNL     1      -6.838   9.519  69.639  1.00  0.00    -0.063 C  
BRANCH   6   7
HETATM    7  C   UNL     1      -8.182   9.036  69.031  1.00  0.00    -0.119 C  
HETATM    8  C   UNL     1      -7.942   8.318  67.651  1.00  0.00    -0.118 C  
HETATM    9  C   UNL     1      -9.280   7.861  66.999  1.00  0.00    -0.181 C  
HETATM   10  C   UNL     1     -10.464   8.235  67.911  1.00  0.00    -0.259 C  
HETATM   11  C   UNL     1     -10.380   9.749  68.099  1.00  0.00    -0.241 A  
HETATM   12  C   UNL     1     -10.186   7.584  69.261  1.00  0.00    -0.201 A  
HETATM   13  C   UNL     1     -11.380  10.645  67.741  1.00  0.00    -0.320 A  
HETATM   14  C   UNL     1     -11.023   6.655  69.873  1.00  0.00    -0.373 A  
HETATM   15  C   UNL     1     -10.675   6.164  71.130  1.00  0.00    -0.312 A  
HETATM   16  C   UNL     1     -11.176  12.003  67.971  1.00  0.00    -0.316 A  
HETATM   17  C   UNL     1      -9.984  12.454  68.553  1.00  0.00    -0.175 A  
HETATM   18  C   UNL     1      -9.522   6.623  71.775  1.00  0.00    -0.151 A  
HETATM   19  C   UNL     1      -8.691   7.571  71.168  1.00  0.00    -0.136 A  
HETATM   20  C   UNL     1      -8.977  11.553  68.918  1.00  0.00     0.029 A  
HETATM   21  C   UNL     1      -8.990   8.030  69.888  1.00  0.00    -0.145 A  
HETATM   22  C   UNL     1      -9.164  10.193  68.690  1.00  0.00    -0.157 A  
ENDBRANCH   6   7
ENDBRANCH   5   6
ENDBRANCH   4   5
ENDBRANCH   2   4
TORSDOF 4
ENDMDL
MODEL      157
REMARK 921   NORMALIZED FREE ENERGY PREDICTED BY IDOCK:   -2.71 KCAL/MOL
REMARK 922        TOTAL FREE ENERGY PREDICTED BY IDOCK:   -3.93 KCAL/MOL
REMARK 923 INTER-LIGAND FREE ENERGY PREDICTED BY IDOCK:   -4.25 KCAL/MOL
REMARK 924 INTRA-LIGAND FREE ENERGY PREDICTED BY IDOCK:    0.32 KCAL/MOL
REMARK 927      BINDING AFFINITY PREDICTED BY RF-SCORE:    0.00 PKD
ROOT
HETATM    1  C   UNL     1      -9.918   4.565  65.457  1.00  0.00    -0.215 C  
HETATM    2  N   UNL     1      -9.976   4.575  66.911  1.00  0.00    -0.212 NA 
HETATM    3  H   UNL     1     -10.504   3.780  67.270  1.00  0.00     0.000 HD 
ENDROOT
BRANCH   2   4
HETATM    4  C   UNL     1      -8.637   4.639  67.499  1.00  0.00    -0.103 C  
BRANCH   4   5
HETATM    5  C   UNL     1      -8.235   6.107  67.676  1.00  0.00    -0.113 C  
BRANCH   5   6
HETATM    6  C   UNL     1      -7.506   6.336  69.012  1.00  0.00    -0.091 C  
BRANCH   6   7
HETATM    7  C   UNL     1      -8.308   7.094  70.105  1.00  0.00    -0.137 C  
HETATM    8  C   UNL     1      -7.334   7.811  71.112  1.00  0.00    -0.066 C  
HETATM    9  C   UNL     1      -8.113   8.544  72.243  1.00  0.00    -0.150 C  
HETATM   10  C   UNL     1      -9.630   8.365  72.039  1.00  0.00    -0.344 C  
HETATM   11  C   UNL     1      -9.872   6.857  72.030  1.00  0.00    -0.172 A  
HETATM   12  C   UNL     1      -9.938   8.892  70.642  1.00  0.00    -0.265 A  
HETATM   13  C   UNL     1     -10.699   6.186  72.923  1.00  0.00    -0.274 A  
HETATM   14  C   UNL     1     -10.817   9.937  70.371  1.00  0.00    -0.380 A  
HETATM   15  C   UNL     1     -11.043  10.297  69.044  1.00  0.00    -0.277 A  
HETATM   16  C   UNL     1     -10.834   4.805  72.802  1.00  0.00    -0.280 A  
HETATM   17  C   UNL     1     -10.147   4.109  71.798  1.00  0.00    -0.212 A  
HETATM   18  C   UNL     1     -10.421   9.598  68.004  1.00  0.00    -0.276 A  
HETATM   19  C   UNL     1      -9.553   8.535  68.276  1.00  0.00    -0.156 A  
HETATM   20  C   UNL     1      -9.316   4.784  70.896  1.00  0.00    -0.209 A  
HETATM   21  C   UNL     1      -9.268   8.198  69.596  1.00  0.00    -0.155 A  
HETATM   22  C   UNL     1      -9.167   6.163  71.007  1.00  0.00    -0.166 A  
ENDBRANCH   6   7
ENDBRANCH   5   6
ENDBRANCH   4   5
ENDBRANCH   2   4
TORSDOF 4
ENDMDL
MODEL      158
REMARK 921   NORMALIZED FREE ENERGY PREDICTED BY IDOCK:   -2.71 KCAL/MOL
REMARK 922        TOTAL FREE ENERGY PREDICTED BY IDOCK:   -3.93 KCAL/MOL
REMARK 923 INTER-LIGAND FREE ENERGY PREDICTED BY IDOCK:   -4.05 KCAL/MOL
REMARK 924 INTRA-LIGAND FREE ENERGY PREDICTED BY IDOCK:    0.12 KCAL/MOL
REMARK 927      BINDING AFFINITY PREDICTED BY RF-SCORE:    0.00 PKD
ROOT
HETATM    1  C   UNL     1     -10.347   4.088  73.735  1.00  0.00    -0.175 C  
HETATM    2  N   UNL     1     -10.122   4.782  72.475  1.00  0.00    -0.175 NA 
HETATM    3  H   UNL     1     -10.986   5.180  72.107  1.00  0.00     0.000 HD 
ENDROOT
BRANCH   2   4
HETATM    4  C   UNL     1      -9.077   5.800  72.606  1.00  0.00    -0.131 C  
BRANCH   4   5
HETATM    5  C   UNL     1      -9.503   7.057  71.839  1.00  0.00    -0.148 C  
BRANCH   5   6
HETATM    6  C   UNL     1      -8.410   7.515  70.856  1.00  0.00    -0.114 C  
BRANCH   6   7
HETATM    7  C   UNL     1      -8.891   7.892  69.429  1.00  0.00    -0.145 C  
HETATM    8  C   UNL     1      -7.705   8.483  68.580  1.00  0.00    -0.103 C  
HETATM    9  C   UNL     1      -8.172   8.909  67.157  1.00  0.00    -0.103 C  
HETATM   10  C   UNL     1      -9.673   8.611  66.984  1.00  0.00    -0.262 C  
HETATM   11  C   UNL     1     -10.380   9.382  68.097  1.00  0.00    -0.255 A  
HETATM   12  C   UNL     1      -9.849   7.123  67.268  1.00  0.00    -0.217 A  
HETATM   13  C   UNL     1     -11.345  10.361  67.890  1.00  0.00    -0.248 A  
HETATM   14  C   UNL     1     -10.361   6.204  66.357  1.00  0.00    -0.102 A  
HETATM   15  C   UNL     1     -10.510   4.876  66.754  1.00  0.00    -0.237 A  
HETATM   16  C   UNL     1     -11.913  10.986  68.997  1.00  0.00    -0.364 A  
HETATM   17  C   UNL     1     -11.518  10.633  70.294  1.00  0.00    -0.422 A  
HETATM   18  C   UNL     1     -10.178   4.485  68.056  1.00  0.00     0.047 A  
HETATM   19  C   UNL     1      -9.681   5.413  68.977  1.00  0.00    -0.208 A  
HETATM   20  C   UNL     1     -10.549   9.645  70.505  1.00  0.00    -0.369 A  
HETATM   21  C   UNL     1      -9.470   6.731  68.581  1.00  0.00    -0.132 A  
HETATM   22  C   UNL     1      -9.968   9.014  69.409  1.00  0.00    -0.191 A  
ENDBRANCH   6   7
ENDBRANCH   5   6
ENDBRANCH   4   5
ENDBRANCH   2   4
TORSDOF 4
ENDMDL
MODEL      159
REMARK 921   NORMALIZED FREE ENERGY PREDICTED BY IDOCK:   -2.71 KCAL/MOL
REMARK 922        TOTAL FREE ENERGY PREDICTED BY IDOCK:   -3.93 KCAL/MOL
REMARK 923 INTER-LIGAND FREE ENERGY PREDICTED BY IDOCK:   -3.42 KCAL/MOL
REMARK 924 INTRA-LIGAND FREE ENERGY PREDICTED BY IDOCK:   -0.51 KCAL/MOL
REMARK 927      BINDING AFFINITY PREDICTED BY RF-SCORE:    0.00 PKD
ROOT
HETATM    1  C   UNL     1     -13.719   8.571  71.752  1.00  0.00    -0.407 C  
HETATM    2  N   UNL     1     -12.330   8.143  71.672  1.00  0.00    -0.303 NA 
HETATM    3  H   UNL     1     -11.738   8.675  72.310  1.00  0.00     0.000 HD 
ENDROOT
BRANCH   2   4
HETATM    4  C   UNL     1     -12.201   6.702  71.897  1.00  0.00    -0.335 C  
BRANCH   4   5
HETATM    5  C   UNL     1     -10.808   6.247  71.448  1.00  0.00    -0.312 C  
BRANCH   5   6
HETATM    6  C   UNL     1     -10.464   6.783  70.046  1.00  0.00    -0.241 C  
BRANCH   6   7
HETATM    7  C   UNL     1      -9.208   7.690  69.953  1.00  0.00    -0.147 C  
HETATM    8  C   UNL     1      -8.863   8.308  71.359  1.00  0.00    -0.204 C  
HETATM    9  C   UNL     1      -7.631   9.257  71.284  1.00  0.00     0.012 C  
HETATM   10  C   UNL     1      -7.091   9.305  69.842  1.00  0.00    -0.064 C  
HETATM   11  C   UNL     1      -8.258   9.777  68.978  1.00  0.00    -0.121 A  
HETATM   12  C   UNL     1      -6.779   7.864  69.454  1.00  0.00    -0.039 A  
HETATM   13  C   UNL     1      -8.246  10.924  68.193  1.00  0.00    -0.121 A  
HETATM   14  C   UNL     1      -5.520   7.406  69.078  1.00  0.00    -0.018 A  
HETATM   15  C   UNL     1      -5.376   6.070  68.706  1.00  0.00    -0.007 A  
HETATM   16  C   UNL     1      -9.380  11.238  67.449  1.00  0.00    -0.168 A  
HETATM   17  C   UNL     1     -10.510  10.411  67.491  1.00  0.00    -0.292 A  
HETATM   18  C   UNL     1      -6.485   5.217  68.682  1.00  0.00    -0.040 A  
HETATM   19  C   UNL     1      -7.753   5.683  69.042  1.00  0.00    -0.089 A  
HETATM   20  C   UNL     1     -10.523   9.253  68.278  1.00  0.00    -0.260 A  
HETATM   21  C   UNL     1      -7.907   6.999  69.473  1.00  0.00    -0.119 A  
HETATM   22  C   UNL     1      -9.399   8.928  69.031  1.00  0.00    -0.144 A  
ENDBRANCH   6   7
ENDBRANCH   5   6
ENDBRANCH   4   5
ENDBRANCH   2   4
TORSDOF 4
ENDMDL
MODEL      160
REMARK 921   NORMALIZED FREE ENERGY PREDICTED BY IDOCK:   -2.70 KCAL/MOL
REMARK 922        TOTAL FREE ENERGY PREDICTED BY IDOCK:   -3.92 KCAL/MOL
REMARK 923 INTER-LIGAND FREE ENERGY PREDICTED BY IDOCK:   -3.48 KCAL/MOL
REMARK 924 INTRA-LIGAND FREE ENERGY PREDICTED BY IDOCK:   -0.44 KCAL/MOL
REMARK 927      BINDING AFFINITY PREDICTED BY RF-SCORE:    0.00 PKD
ROOT
HETATM    1  C   UNL     1      -7.108  12.673  67.942  1.00  0.00    -0.113 C  
HETATM    2  N   UNL     1      -7.693  11.954  66.820  1.00  0.00    -0.330 NA 
HETATM    3  H   UNL     1      -6.975  11.522  66.238  1.00  0.00     0.000 HD 
ENDROOT
BRANCH   2   4
HETATM    4  C   UNL     1      -8.680  10.972  67.271  1.00  0.00    -0.129 C  
BRANCH   4   5
HETATM    5  C   UNL     1      -7.956   9.819  67.974  1.00  0.00    -0.097 C  
BRANCH   5   6
HETATM    6  C   UNL     1      -8.498   9.596  69.397  1.00  0.00    -0.156 C  
BRANCH   6   7
HETATM    7  C   UNL     1      -8.682   8.118  69.833  1.00  0.00    -0.138 C  
HETATM    8  C   UNL     1      -8.791   7.177  68.575  1.00  0.00    -0.125 C  
HETATM    9  C   UNL     1      -9.019   5.692  68.985  1.00  0.00    -0.117 C  
HETATM   10  C   UNL     1      -9.057   5.569  70.520  1.00  0.00    -0.171 C  
HETATM   11  C   UNL     1     -10.182   6.493  70.981  1.00  0.00    -0.218 A  
HETATM   12  C   UNL     1      -7.742   6.151  71.027  1.00  0.00    -0.102 A  
HETATM   13  C   UNL     1     -11.299   6.079  71.698  1.00  0.00    -0.313 A  
HETATM   14  C   UNL     1      -6.807   5.443  71.776  1.00  0.00    -0.065 A  
HETATM   15  C   UNL     1      -5.660   6.103  72.216  1.00  0.00    -0.032 A  
HETATM   16  C   UNL     1     -12.252   7.028  72.060  1.00  0.00    -0.317 A  
HETATM   17  C   UNL     1     -12.085   8.374  71.708  1.00  0.00    -0.379 A  
HETATM   18  C   UNL     1      -5.473   7.461  71.935  1.00  0.00    -0.036 A  
HETATM   19  C   UNL     1      -6.422   8.176  71.198  1.00  0.00    -0.039 A  
HETATM   20  C   UNL     1     -10.959   8.793  70.990  1.00  0.00    -0.328 A  
HETATM   21  C   UNL     1      -7.545   7.521  70.700  1.00  0.00    -0.085 A  
HETATM   22  C   UNL     1     -10.000   7.856  70.616  1.00  0.00    -0.188 A  
ENDBRANCH   6   7
ENDBRANCH   5   6
ENDBRANCH   4   5
ENDBRANCH   2   4
TORSDOF 4
ENDMDL
MODEL      161
REMARK 921   NORMALIZED FREE ENERGY PREDICTED BY IDOCK:   -2.69 KCAL/MOL
REMARK 922        TOTAL FREE ENERGY PREDICTED BY IDOCK:   -3.90 KCAL/MOL
REMARK 923 INTER-LIGAND FREE ENERGY PREDICTED BY IDOCK:   -3.36 KCAL/MOL
REMARK 924 INTRA-LIGAND FREE ENERGY PREDICTED BY IDOCK:   -0.54 KCAL/MOL
REMARK 927      BINDING AFFINITY PREDICTED BY RF-SCORE:    0.00 PKD
ROOT
HETATM    1  C   UNL     1      -5.333   2.937  67.954  1.00  0.00    -0.013 C  
HETATM    2  N   UNL     1      -5.963   4.036  68.671  1.00  0.00    -0.026 NA 
HETATM    3  H   UNL     1      -6.791   4.377  68.181  1.00  0.00     0.000 HD 
ENDROOT
BRANCH   2   4
HETATM    4  C   UNL     1      -6.274   3.664  70.053  1.00  0.00    -0.027 C  
BRANCH   4   5
HETATM    5  C   UNL     1      -7.740   4.002  70.346  1.00  0.00    -0.045 C  
BRANCH   5   6
HETATM    6  C   UNL     1      -7.901   5.463  70.805  1.00  0.00    -0.095 C  
BRANCH   6   7
HETATM    7  C   UNL     1      -8.897   6.328  69.986  1.00  0.00    -0.142 C  
HETATM    8  C   UNL     1      -9.807   5.420  69.079  1.00  0.00    -0.231 C  
HETATM    9  C   UNL     1     -10.787   6.267  68.215  1.00  0.00    -0.397 C  
HETATM   10  C   UNL     1     -10.589   7.766  68.512  1.00  0.00    -0.153 C  
HETATM   11  C   UNL     1      -9.121   8.059  68.207  1.00  0.00    -0.135 A  
HETATM   12  C   UNL     1     -10.794   7.934  70.013  1.00  0.00    -0.238 A  
HETATM   13  C   UNL     1      -8.680   8.983  67.268  1.00  0.00    -0.122 A  
HETATM   14  C   UNL     1     -11.764   8.749  70.588  1.00  0.00    -0.194 A  
HETATM   15  C   UNL     1     -11.821   8.849  71.977  1.00  0.00    -0.438 A  
HETATM   16  C   UNL     1      -7.309   9.155  67.091  1.00  0.00    -0.087 A  
HETATM   17  C   UNL     1      -6.395   8.409  67.848  1.00  0.00    -0.056 A  
HETATM   18  C   UNL     1     -10.897   8.164  72.775  1.00  0.00    -0.390 A  
HETATM   19  C   UNL     1      -9.910   7.360  72.196  1.00  0.00    -0.205 A  
HETATM   20  C   UNL     1      -6.838   7.481  68.797  1.00  0.00    -0.065 A  
HETATM   21  C   UNL     1      -9.874   7.202  70.813  1.00  0.00    -0.180 A  
HETATM   22  C   UNL     1      -8.205   7.294  68.982  1.00  0.00    -0.125 A  
ENDBRANCH   6   7
ENDBRANCH   5   6
ENDBRANCH   4   5
ENDBRANCH   2   4
TORSDOF 4
ENDMDL
MODEL      162
REMARK 921   NORMALIZED FREE ENERGY PREDICTED BY IDOCK:   -2.68 KCAL/MOL
REMARK 922        TOTAL FREE ENERGY PREDICTED BY IDOCK:   -3.89 KCAL/MOL
REMARK 923 INTER-LIGAND FREE ENERGY PREDICTED BY IDOCK:   -4.23 KCAL/MOL
REMARK 924 INTRA-LIGAND FREE ENERGY PREDICTED BY IDOCK:    0.34 KCAL/MOL
REMARK 927      BINDING AFFINITY PREDICTED BY RF-SCORE:    0.00 PKD
ROOT
HETATM    1  C   UNL     1     -10.204   2.346  72.976  1.00  0.00    -0.136 C  
HETATM    2  N   UNL     1     -11.228   3.276  73.428  1.00  0.00    -0.185 NA 
HETATM    3  H   UNL     1     -11.907   2.818  74.036  1.00  0.00     0.000 HD 
ENDROOT
BRANCH   2   4
HETATM    4  C   UNL     1     -10.637   4.449  74.074  1.00  0.00    -0.270 C  
BRANCH   4   5
HETATM    5  C   UNL     1     -10.544   5.589  73.053  1.00  0.00    -0.274 C  
BRANCH   5   6
HETATM    6  C   UNL     1      -9.088   6.045  72.848  1.00  0.00    -0.131 C  
BRANCH   6   7
HETATM    7  C   UNL     1      -8.865   7.156  71.787  1.00  0.00    -0.129 C  
HETATM    8  C   UNL     1      -8.632   6.527  70.363  1.00  0.00    -0.146 C  
HETATM    9  C   UNL     1      -8.363   7.620  69.287  1.00  0.00    -0.134 C  
HETATM   10  C   UNL     1      -8.419   9.018  69.932  1.00  0.00    -0.139 C  
HETATM   11  C   UNL     1      -7.369   9.005  71.042  1.00  0.00    -0.125 A  
HETATM   12  C   UNL     1      -9.789   9.130  70.591  1.00  0.00    -0.308 A  
HETATM   13  C   UNL     1      -6.284   9.870  71.111  1.00  0.00     0.016 A  
HETATM   14  C   UNL     1     -10.738  10.098  70.274  1.00  0.00    -0.352 A  
HETATM   15  C   UNL     1     -11.939  10.117  70.981  1.00  0.00    -0.474 A  
HETATM   16  C   UNL     1      -5.401   9.752  72.182  1.00  0.00    -0.014 A  
HETATM   17  C   UNL     1      -5.606   8.779  73.168  1.00  0.00    -0.084 A  
HETATM   18  C   UNL     1     -12.170   9.199  72.011  1.00  0.00    -0.443 A  
HETATM   19  C   UNL     1     -11.209   8.239  72.342  1.00  0.00    -0.451 A  
HETATM   20  C   UNL     1      -6.701   7.909  73.103  1.00  0.00    -0.092 A  
HETATM   21  C   UNL     1     -10.027   8.166  71.609  1.00  0.00    -0.252 A  
HETATM   22  C   UNL     1      -7.590   8.012  72.037  1.00  0.00    -0.108 A  
ENDBRANCH   6   7
ENDBRANCH   5   6
ENDBRANCH   4   5
ENDBRANCH   2   4
TORSDOF 4
ENDMDL
MODEL      163
REMARK 921   NORMALIZED FREE ENERGY PREDICTED BY IDOCK:   -2.61 KCAL/MOL
REMARK 922        TOTAL FREE ENERGY PREDICTED BY IDOCK:   -3.80 KCAL/MOL
REMARK 923 INTER-LIGAND FREE ENERGY PREDICTED BY IDOCK:   -4.31 KCAL/MOL
REMARK 924 INTRA-LIGAND FREE ENERGY PREDICTED BY IDOCK:    0.51 KCAL/MOL
REMARK 927      BINDING AFFINITY PREDICTED BY RF-SCORE:    0.00 PKD
ROOT
HETATM    1  C   UNL     1      -8.519   3.112  66.269  1.00  0.00    -0.106 C  
HETATM    2  N   UNL     1      -9.761   3.401  66.972  1.00  0.00    -0.376 NA 
HETATM    3  H   UNL     1     -10.109   2.581  67.468  1.00  0.00     0.000 HD 
ENDROOT
BRANCH   2   4
HETATM    4  C   UNL     1      -9.611   4.547  67.871  1.00  0.00    -0.157 C  
BRANCH   4   5
HETATM    5  C   UNL     1      -8.742   4.137  69.065  1.00  0.00    -0.123 C  
BRANCH   5   6
HETATM    6  C   UNL     1      -7.996   5.345  69.660  1.00  0.00    -0.095 C  
BRANCH   6   7
HETATM    7  C   UNL     1      -8.619   5.969  70.938  1.00  0.00    -0.131 C  
HETATM    8  C   UNL     1      -7.495   6.489  71.908  1.00  0.00    -0.092 C  
HETATM    9  C   UNL     1      -8.093   7.082  73.218  1.00  0.00    -0.112 C  
HETATM   10  C   UNL     1      -9.630   7.000  73.178  1.00  0.00    -0.196 C  
HETATM   11  C   UNL     1      -9.962   5.521  72.989  1.00  0.00    -0.196 A  
HETATM   12  C   UNL     1     -10.065   7.737  71.918  1.00  0.00    -0.231 A  
HETATM   13  C   UNL     1     -10.720   4.762  73.873  1.00  0.00    -0.362 A  
HETATM   14  C   UNL     1     -10.905   8.847  71.906  1.00  0.00    -0.433 A  
HETATM   15  C   UNL     1     -11.262   9.407  70.680  1.00  0.00    -0.345 A  
HETATM   16  C   UNL     1     -10.950   3.421  73.578  1.00  0.00    -0.328 A  
HETATM   17  C   UNL     1     -10.426   2.850  72.410  1.00  0.00    -0.087 A  
HETATM   18  C   UNL     1     -10.807   8.841  69.484  1.00  0.00    -0.151 A  
HETATM   19  C   UNL     1      -9.978   7.714  69.496  1.00  0.00    -0.182 A  
HETATM   20  C   UNL     1      -9.666   3.613  71.516  1.00  0.00    -0.238 A  
HETATM   21  C   UNL     1      -9.563   7.176  70.711  1.00  0.00    -0.168 A  
HETATM   22  C   UNL     1      -9.423   4.954  71.800  1.00  0.00    -0.199 A  
ENDBRANCH   6   7
ENDBRANCH   5   6
ENDBRANCH   4   5
ENDBRANCH   2   4
TORSDOF 4
ENDMDL
MODEL      164
REMARK 921   NORMALIZED FREE ENERGY PREDICTED BY IDOCK:   -2.57 KCAL/MOL
REMARK 922        TOTAL FREE ENERGY PREDICTED BY IDOCK:   -3.75 KCAL/MOL
REMARK 923 INTER-LIGAND FREE ENERGY PREDICTED BY IDOCK:   -4.39 KCAL/MOL
REMARK 924 INTRA-LIGAND FREE ENERGY PREDICTED BY IDOCK:    0.63 KCAL/MOL
REMARK 927      BINDING AFFINITY PREDICTED BY RF-SCORE:    0.00 PKD
ROOT
HETATM    1  C   UNL     1      -6.016  16.911  69.853  1.00  0.00    -0.219 C  
HETATM    2  N   UNL     1      -6.087  15.509  70.238  1.00  0.00    -0.126 NA 
HETATM    3  H   UNL     1      -7.001  15.274  70.627  1.00  0.00     0.000 HD 
ENDROOT
BRANCH   2   4
HETATM    4  C   UNL     1      -5.738  14.630  69.121  1.00  0.00    -0.095 C  
BRANCH   4   5
HETATM    5  C   UNL     1      -6.962  14.461  68.213  1.00  0.00    -0.113 C  
BRANCH   5   6
HETATM    6  C   UNL     1      -7.219  15.725  67.372  1.00  0.00    -0.235 C  
BRANCH   6   7
HETATM    7  C   UNL     1      -8.706  16.051  67.070  1.00  0.00    -0.236 C  
HETATM    8  C   UNL     1      -9.230  15.188  65.862  1.00  0.00    -0.193 C  
HETATM    9  C   UNL     1     -10.708  15.527  65.511  1.00  0.00    -0.395 C  
HETATM   10  C   UNL     1     -11.242  16.610  66.468  1.00  0.00     0.437 C  
HETATM   11  C   UNL     1     -10.303  17.804  66.306  1.00  0.00    -0.358 A  
HETATM   12  C   UNL     1     -11.057  16.063  67.878  1.00  0.00    -0.307 A  
HETATM   13  C   UNL     1     -10.702  19.071  65.897  1.00  0.00    -0.404 A  
HETATM   14  C   UNL     1     -12.093  15.860  68.785  1.00  0.00    -0.016 A  
HETATM   15  C   UNL     1     -11.786  15.391  70.062  1.00  0.00    -0.349 A  
HETATM   16  C   UNL     1      -9.741  20.075  65.794  1.00  0.00    -0.271 A  
HETATM   17  C   UNL     1      -8.400  19.809  66.099  1.00  0.00    -0.368 A  
HETATM   18  C   UNL     1     -10.456  15.160  70.431  1.00  0.00    -0.107 A  
HETATM   19  C   UNL     1      -9.413  15.383  69.525  1.00  0.00    -0.250 A  
HETATM   20  C   UNL     1      -7.997  18.534  66.515  1.00  0.00    -0.295 A  
HETATM   21  C   UNL     1      -9.704  15.794  68.227  1.00  0.00    -0.201 A  
HETATM   22  C   UNL     1      -8.944  17.520  66.618  1.00  0.00    -0.283 A  
ENDBRANCH   6   7
ENDBRANCH   5   6
ENDBRANCH   4   5
ENDBRANCH   2   4
TORSDOF 4
ENDMDL
MODEL      165
REMARK 921   NORMALIZED FREE ENERGY PREDICTED BY IDOCK:   -2.56 KCAL/MOL
REMARK 922        TOTAL FREE ENERGY PREDICTED BY IDOCK:   -3.74 KCAL/MOL
REMARK 923 INTER-LIGAND FREE ENERGY PREDICTED BY IDOCK:   -3.91 KCAL/MOL
REMARK 924 INTRA-LIGAND FREE ENERGY PREDICTED BY IDOCK:    0.17 KCAL/MOL
REMARK 927      BINDING AFFINITY PREDICTED BY RF-SCORE:    0.00 PKD
ROOT
HETATM    1  C   UNL     1      -8.979   2.482  66.315  1.00  0.00    -0.120 C  
HETATM    2  N   UNL     1      -8.591   3.443  67.337  1.00  0.00    -0.101 NA 
HETATM    3  H   UNL     1      -9.369   4.049  67.596  1.00  0.00     0.000 HD 
ENDROOT
BRANCH   2   4
HETATM    4  C   UNL     1      -8.019   2.775  68.508  1.00  0.00    -0.053 C  
BRANCH   4   5
HETATM    5  C   UNL     1      -8.096   3.720  69.712  1.00  0.00    -0.062 C  
BRANCH   5   6
HETATM    6  C   UNL     1      -9.087   3.205  70.772  1.00  0.00    -0.186 C  
BRANCH   6   7
HETATM    7  C   UNL     1      -9.414   4.183  71.932  1.00  0.00    -0.201 C  
HETATM    8  C   UNL     1     -10.257   3.462  73.047  1.00  0.00    -0.236 C  
HETATM    9  C   UNL     1     -10.635   4.434  74.203  1.00  0.00    -0.329 C  
HETATM   10  C   UNL     1     -10.055   5.833  73.925  1.00  0.00    -0.233 C  
HETATM   11  C   UNL     1     -10.632   6.260  72.576  1.00  0.00    -0.239 A  
HETATM   12  C   UNL     1      -8.553   5.646  73.748  1.00  0.00    -0.119 A  
HETATM   13  C   UNL     1     -11.409   7.394  72.373  1.00  0.00    -0.341 A  
HETATM   14  C   UNL     1      -7.585   6.260  74.538  1.00  0.00    -0.099 A  
HETATM   15  C   UNL     1      -6.240   6.038  74.246  1.00  0.00    -0.069 A  
HETATM   16  C   UNL     1     -11.870   7.669  71.088  1.00  0.00    -0.314 A  
HETATM   17  C   UNL     1     -11.554   6.817  70.022  1.00  0.00    -0.367 A  
HETATM   18  C   UNL     1      -5.874   5.237  73.159  1.00  0.00    -0.023 A  
HETATM   19  C   UNL     1      -6.846   4.635  72.354  1.00  0.00    -0.056 A  
HETATM   20  C   UNL     1     -10.768   5.676  70.223  1.00  0.00    -0.364 A  
HETATM   21  C   UNL     1      -8.194   4.797  72.664  1.00  0.00    -0.111 A  
HETATM   22  C   UNL     1     -10.303   5.385  71.503  1.00  0.00    -0.289 A  
ENDBRANCH   6   7
ENDBRANCH   5   6
ENDBRANCH   4   5
ENDBRANCH   2   4
TORSDOF 4
ENDMDL
MODEL      166
REMARK 921   NORMALIZED FREE ENERGY PREDICTED BY IDOCK:   -2.53 KCAL/MOL
REMARK 922        TOTAL FREE ENERGY PREDICTED BY IDOCK:   -3.71 KCAL/MOL
REMARK 923 INTER-LIGAND FREE ENERGY PREDICTED BY IDOCK:   -3.25 KCAL/MOL
REMARK 924 INTRA-LIGAND FREE ENERGY PREDICTED BY IDOCK:   -0.46 KCAL/MOL
REMARK 927      BINDING AFFINITY PREDICTED BY RF-SCORE:    0.00 PKD
ROOT
HETATM    1  C   UNL     1     -10.847   4.693  73.977  1.00  0.00    -0.263 C  
HETATM    2  N   UNL     1     -10.425   4.738  72.584  1.00  0.00    -0.198 NA 
HETATM    3  H   UNL     1     -10.952   5.433  72.056  1.00  0.00     0.000 HD 
ENDROOT
BRANCH   2   4
HETATM    4  C   UNL     1      -8.982   4.959  72.470  1.00  0.00    -0.132 C  
BRANCH   4   5
HETATM    5  C   UNL     1      -8.725   6.079  71.455  1.00  0.00    -0.132 C  
BRANCH   5   6
HETATM    6  C   UNL     1      -8.276   5.515  70.095  1.00  0.00    -0.102 C  
BRANCH   6   7
HETATM    7  C   UNL     1      -9.059   6.024  68.855  1.00  0.00    -0.121 C  
HETATM    8  C   UNL     1     -10.587   6.194  69.194  1.00  0.00    -0.345 C  
HETATM    9  C   UNL     1     -11.403   6.663  67.954  1.00  0.00    -0.065 C  
HETATM   10  C   UNL     1     -10.467   6.841  66.744  1.00  0.00    -0.298 C  
HETATM   11  C   UNL     1      -9.796   5.484  66.536  1.00  0.00    -0.194 A  
HETATM   12  C   UNL     1      -9.390   7.828  67.178  1.00  0.00    -0.185 A  
HETATM   13  C   UNL     1      -9.883   4.730  65.372  1.00  0.00    -0.125 A  
HETATM   14  C   UNL     1      -9.144   9.048  66.554  1.00  0.00    -0.202 A  
HETATM   15  C   UNL     1      -8.101   9.844  67.024  1.00  0.00    -0.110 A  
HETATM   16  C   UNL     1      -9.219   3.508  65.314  1.00  0.00    -0.153 A  
HETATM   17  C   UNL     1      -8.476   3.050  66.410  1.00  0.00    -0.107 A  
HETATM   18  C   UNL     1      -7.297   9.407  68.083  1.00  0.00    -0.078 A  
HETATM   19  C   UNL     1      -7.533   8.173  68.697  1.00  0.00    -0.098 A  
HETATM   20  C   UNL     1      -8.383   3.809  67.582  1.00  0.00    -0.098 A  
HETATM   21  C   UNL     1      -8.606   7.389  68.280  1.00  0.00    -0.124 A  
HETATM   22  C   UNL     1      -9.046   5.031  67.658  1.00  0.00    -0.121 A  
ENDBRANCH   6   7
ENDBRANCH   5   6
ENDBRANCH   4   5
ENDBRANCH   2   4
TORSDOF 4
ENDMDL
MODEL      167
REMARK 921   NORMALIZED FREE ENERGY PREDICTED BY IDOCK:   -2.53 KCAL/MOL
REMARK 922        TOTAL FREE ENERGY PREDICTED BY IDOCK:   -3.70 KCAL/MOL
REMARK 923 INTER-LIGAND FREE ENERGY PREDICTED BY IDOCK:   -3.31 KCAL/MOL
REMARK 924 INTRA-LIGAND FREE ENERGY PREDICTED BY IDOCK:   -0.39 KCAL/MOL
REMARK 927      BINDING AFFINITY PREDICTED BY RF-SCORE:    0.00 PKD
ROOT
HETATM    1  C   UNL     1     -10.160   2.769  64.050  1.00  0.00    -0.126 C  
HETATM    2  N   UNL     1      -9.922   3.843  65.003  1.00  0.00    -0.260 NA 
HETATM    3  H   UNL     1     -10.784   4.337  65.233  1.00  0.00     0.000 HD 
ENDROOT
BRANCH   2   4
HETATM    4  C   UNL     1      -9.249   3.350  66.206  1.00  0.00    -0.159 C  
BRANCH   4   5
HETATM    5  C   UNL     1      -9.138   4.493  67.222  1.00  0.00    -0.138 C  
BRANCH   5   6
HETATM    6  C   UNL     1      -9.419   4.003  68.654  1.00  0.00    -0.220 C  
BRANCH   6   7
HETATM    7  C   UNL     1      -8.964   4.949  69.798  1.00  0.00    -0.138 C  
HETATM    8  C   UNL     1      -7.787   5.876  69.318  1.00  0.00    -0.095 C  
HETATM    9  C   UNL     1      -7.284   6.806  70.461  1.00  0.00    -0.073 C  
HETATM   10  C   UNL     1      -8.103   6.557  71.742  1.00  0.00    -0.104 C  
HETATM   11  C   UNL     1      -7.930   5.073  72.062  1.00  0.00    -0.111 A  
HETATM   12  C   UNL     1      -9.562   6.783  71.366  1.00  0.00    -0.170 A  
HETATM   13  C   UNL     1      -7.390   4.579  73.243  1.00  0.00    -0.081 A  
HETATM   14  C   UNL     1     -10.390   7.733  71.959  1.00  0.00    -0.267 A  
HETATM   15  C   UNL     1     -11.721   7.812  71.553  1.00  0.00    -0.312 A  
HETATM   16  C   UNL     1      -7.292   3.200  73.409  1.00  0.00    -0.051 A  
HETATM   17  C   UNL     1      -7.732   2.330  72.402  1.00  0.00    -0.052 A  
HETATM   18  C   UNL     1     -12.220   6.930  70.588  1.00  0.00    -0.311 A  
HETATM   19  C   UNL     1     -11.394   5.964  70.006  1.00  0.00    -0.219 A  
HETATM   20  C   UNL     1      -8.280   2.826  71.214  1.00  0.00    -0.075 A  
HETATM   21  C   UNL     1     -10.047   5.907  70.356  1.00  0.00    -0.259 A  
HETATM   22  C   UNL     1      -8.380   4.202  71.031  1.00  0.00    -0.092 A  
ENDBRANCH   6   7
ENDBRANCH   5   6
ENDBRANCH   4   5
ENDBRANCH   2   4
TORSDOF 4
ENDMDL
MODEL      168
REMARK 921   NORMALIZED FREE ENERGY PREDICTED BY IDOCK:   -2.50 KCAL/MOL
REMARK 922        TOTAL FREE ENERGY PREDICTED BY IDOCK:   -3.68 KCAL/MOL
REMARK 923 INTER-LIGAND FREE ENERGY PREDICTED BY IDOCK:   -3.19 KCAL/MOL
REMARK 924 INTRA-LIGAND FREE ENERGY PREDICTED BY IDOCK:   -0.49 KCAL/MOL
REMARK 927      BINDING AFFINITY PREDICTED BY RF-SCORE:    0.00 PKD
ROOT
HETATM    1  C   UNL     1      -7.868  12.902  66.908  1.00  0.00     0.119 C  
HETATM    2  N   UNL     1      -6.751  12.051  66.525  1.00  0.00    -0.376 NA 
HETATM    3  H   UNL     1      -5.908  12.598  66.347  1.00  0.00     0.000 HD 
ENDROOT
BRANCH   2   4
HETATM    4  C   UNL     1      -6.510  11.005  67.520  1.00  0.00    -0.063 C  
BRANCH   4   5
HETATM    5  C   UNL     1      -7.845  10.599  68.154  1.00  0.00    -0.110 C  
BRANCH   5   6
HETATM    6  C   UNL     1      -7.715   9.288  68.951  1.00  0.00    -0.079 C  
BRANCH   6   7
HETATM    7  C   UNL     1      -8.551   8.088  68.429  1.00  0.00    -0.127 C  
HETATM    8  C   UNL     1      -9.729   8.589  67.513  1.00  0.00    -0.209 C  
HETATM    9  C   UNL     1     -10.609   7.407  67.010  1.00  0.00    -0.414 C  
HETATM   10  C   UNL     1     -10.057   6.073  67.548  1.00  0.00    -0.190 C  
HETATM   11  C   UNL     1     -10.056   6.209  69.069  1.00  0.00    -0.213 A  
HETATM   12  C   UNL     1      -8.606   5.996  67.089  1.00  0.00    -0.106 A  
HETATM   13  C   UNL     1     -10.753   5.375  69.936  1.00  0.00    -0.292 A  
HETATM   14  C   UNL     1      -8.089   4.985  66.284  1.00  0.00    -0.108 A  
HETATM   15  C   UNL     1      -6.731   5.006  65.967  1.00  0.00    -0.053 A  
HETATM   16  C   UNL     1     -10.663   5.608  71.306  1.00  0.00    -0.312 A  
HETATM   17  C   UNL     1      -9.884   6.663  71.798  1.00  0.00    -0.171 A  
HETATM   18  C   UNL     1      -5.901   6.010  66.477  1.00  0.00    -0.017 A  
HETATM   19  C   UNL     1      -6.417   7.015  67.302  1.00  0.00    -0.053 A  
HETATM   20  C   UNL     1      -9.178   7.502  70.927  1.00  0.00    -0.153 A  
HETATM   21  C   UNL     1      -7.781   7.044  67.581  1.00  0.00    -0.112 A  
HETATM   22  C   UNL     1      -9.261   7.285  69.555  1.00  0.00    -0.149 A  
ENDBRANCH   6   7
ENDBRANCH   5   6
ENDBRANCH   4   5
ENDBRANCH   2   4
TORSDOF 4
ENDMDL
MODEL      169
REMARK 921   NORMALIZED FREE ENERGY PREDICTED BY IDOCK:   -2.50 KCAL/MOL
REMARK 922        TOTAL FREE ENERGY PREDICTED BY IDOCK:   -3.67 KCAL/MOL
REMARK 923 INTER-LIGAND FREE ENERGY PREDICTED BY IDOCK:   -3.23 KCAL/MOL
REMARK 924 INTRA-LIGAND FREE ENERGY PREDICTED BY IDOCK:   -0.45 KCAL/MOL
REMARK 927      BINDING AFFINITY PREDICTED BY RF-SCORE:    0.00 PKD
ROOT
HETATM    1  C   UNL     1     -12.378   9.125  71.865  1.00  0.00    -0.385 C  
HETATM    2  N   UNL     1     -11.801   9.061  70.531  1.00  0.00    -0.462 NA 
HETATM    3  H   UNL     1     -12.389   9.536  69.846  1.00  0.00     0.000 HD 
ENDROOT
BRANCH   2   4
HETATM    4  C   UNL     1     -10.433   9.581  70.514  1.00  0.00    -0.296 C  
BRANCH   4   5
HETATM    5  C   UNL     1      -9.455   8.416  70.323  1.00  0.00    -0.168 C  
BRANCH   5   6
HETATM    6  C   UNL     1      -9.613   7.770  68.934  1.00  0.00    -0.154 C  
BRANCH   6   7
HETATM    7  C   UNL     1      -8.320   7.670  68.080  1.00  0.00    -0.124 C  
HETATM    8  C   UNL     1      -7.101   8.315  68.838  1.00  0.00    -0.066 C  
HETATM    9  C   UNL     1      -5.801   8.266  67.984  1.00  0.00    -0.042 C  
HETATM   10  C   UNL     1      -6.083   7.579  66.634  1.00  0.00    -0.044 C  
HETATM   11  C   UNL     1      -7.195   8.395  65.978  1.00  0.00    -0.073 A  
HETATM   12  C   UNL     1      -6.651   6.204  66.965  1.00  0.00    -0.059 A  
HETATM   13  C   UNL     1      -7.085   9.032  64.747  1.00  0.00    -0.092 A  
HETATM   14  C   UNL     1      -6.078   4.999  66.568  1.00  0.00    -0.031 A  
HETATM   15  C   UNL     1      -6.720   3.808  66.902  1.00  0.00    -0.046 A  
HETATM   16  C   UNL     1      -8.180   9.743  64.262  1.00  0.00    -0.160 A  
HETATM   17  C   UNL     1      -9.367   9.814  65.002  1.00  0.00    -0.325 A  
HETATM   18  C   UNL     1      -7.935   3.828  67.595  1.00  0.00    -0.085 A  
HETATM   19  C   UNL     1      -8.521   5.039  67.977  1.00  0.00    -0.103 A  
HETATM   20  C   UNL     1      -9.481   9.170  66.240  1.00  0.00    -0.299 A  
HETATM   21  C   UNL     1      -7.866   6.238  67.705  1.00  0.00    -0.106 A  
HETATM   22  C   UNL     1      -8.394   8.459  66.741  1.00  0.00    -0.109 A  
ENDBRANCH   6   7
ENDBRANCH   5   6
ENDBRANCH   4   5
ENDBRANCH   2   4
TORSDOF 4
ENDMDL
MODEL      170
REMARK 921   NORMALIZED FREE ENERGY PREDICTED BY IDOCK:   -2.48 KCAL/MOL
REMARK 922        TOTAL FREE ENERGY PREDICTED BY IDOCK:   -3.65 KCAL/MOL
REMARK 923 INTER-LIGAND FREE ENERGY PREDICTED BY IDOCK:   -3.05 KCAL/MOL
REMARK 924 INTRA-LIGAND FREE ENERGY PREDICTED BY IDOCK:   -0.60 KCAL/MOL
REMARK 927      BINDING AFFINITY PREDICTED BY RF-SCORE:    0.00 PKD
ROOT
HETATM    1  C   UNL     1      -6.717   1.876  68.721  1.00  0.00    -0.029 C  
HETATM    2  N   UNL     1      -6.085   2.957  67.979  1.00  0.00    -0.024 NA 
HETATM    3  H   UNL     1      -6.750   3.428  67.364  1.00  0.00     0.000 HD 
ENDROOT
BRANCH   2   4
HETATM    4  C   UNL     1      -5.421   3.905  68.876  1.00  0.00    -0.013 C  
BRANCH   4   5
HETATM    5  C   UNL     1      -6.239   5.200  68.931  1.00  0.00    -0.030 C  
BRANCH   5   6
HETATM    6  C   UNL     1      -6.730   5.617  67.532  1.00  0.00    -0.059 C  
BRANCH   6   7
HETATM    7  C   UNL     1      -8.250   5.901  67.401  1.00  0.00    -0.105 C  
HETATM    8  C   UNL     1      -9.005   5.512  68.726  1.00  0.00    -0.120 C  
HETATM    9  C   UNL     1     -10.539   5.747  68.606  1.00  0.00    -0.305 C  
HETATM   10  C   UNL     1     -10.877   6.314  67.214  1.00  0.00    -0.457 C  
HETATM   11  C   UNL     1     -10.352   5.289  66.211  1.00  0.00    -0.287 A  
HETATM   12  C   UNL     1     -10.048   7.583  67.056  1.00  0.00    -0.332 A  
HETATM   13  C   UNL     1     -11.138   4.626  65.275  1.00  0.00     0.108 A  
HETATM   14  C   UNL     1     -10.582   8.850  66.839  1.00  0.00    -0.254 A  
HETATM   15  C   UNL     1      -9.712   9.926  66.670  1.00  0.00    -0.252 A  
HETATM   16  C   UNL     1     -10.530   3.715  64.415  1.00  0.00    -0.186 A  
HETATM   17  C   UNL     1      -9.152   3.473  64.494  1.00  0.00    -0.130 A  
HETATM   18  C   UNL     1      -8.327   9.727  66.689  1.00  0.00    -0.124 A  
HETATM   19  C   UNL     1      -7.791   8.451  66.888  1.00  0.00    -0.095 A  
HETATM   20  C   UNL     1      -8.358   4.142  65.433  1.00  0.00    -0.109 A  
HETATM   21  C   UNL     1      -8.643   7.373  67.117  1.00  0.00    -0.118 A  
HETATM   22  C   UNL     1      -8.952   5.052  66.303  1.00  0.00    -0.127 A  
ENDBRANCH   6   7
ENDBRANCH   5   6
ENDBRANCH   4   5
ENDBRANCH   2   4
TORSDOF 4
ENDMDL
MODEL      171
REMARK 921   NORMALIZED FREE ENERGY PREDICTED BY IDOCK:   -2.42 KCAL/MOL
REMARK 922        TOTAL FREE ENERGY PREDICTED BY IDOCK:   -3.57 KCAL/MOL
REMARK 923 INTER-LIGAND FREE ENERGY PREDICTED BY IDOCK:   -3.28 KCAL/MOL
REMARK 924 INTRA-LIGAND FREE ENERGY PREDICTED BY IDOCK:   -0.29 KCAL/MOL
REMARK 927      BINDING AFFINITY PREDICTED BY RF-SCORE:    0.00 PKD
ROOT
HETATM    1  C   UNL     1      -9.426   3.748  69.251  1.00  0.00    -0.182 C  
HETATM    2  N   UNL     1      -9.013   4.707  68.236  1.00  0.00    -0.109 NA 
HETATM    3  H   UNL     1      -8.105   4.463  67.839  1.00  0.00     0.000 HD 
ENDROOT
BRANCH   2   4
HETATM    4  C   UNL     1     -10.031   4.854  67.195  1.00  0.00    -0.197 C  
BRANCH   4   5
HETATM    5  C   UNL     1     -10.862   6.111  67.480  1.00  0.00    -0.422 C  
BRANCH   5   6
HETATM    6  C   UNL     1     -10.067   7.394  67.175  1.00  0.00    -0.314 C  
BRANCH   6   7
HETATM    7  C   UNL     1      -9.990   8.436  68.324  1.00  0.00    -0.214 C  
HETATM    8  C   UNL     1     -11.284   8.374  69.217  1.00  0.00     0.273 C  
HETATM    9  C   UNL     1     -11.251   9.439  70.352  1.00  0.00    -0.309 C  
HETATM   10  C   UNL     1      -9.940  10.245  70.280  1.00  0.00     0.051 C  
HETATM   11  C   UNL     1      -9.910  10.863  68.883  1.00  0.00    -0.203 A  
HETATM   12  C   UNL     1      -8.809   9.227  70.362  1.00  0.00    -0.271 A  
HETATM   13  C   UNL     1      -9.852  12.227  68.625  1.00  0.00    -0.098 A  
HETATM   14  C   UNL     1      -7.831   9.216  71.353  1.00  0.00    -0.002 A  
HETATM   15  C   UNL     1      -6.824   8.254  71.292  1.00  0.00    -0.059 A  
HETATM   16  C   UNL     1      -9.826  12.657  67.301  1.00  0.00    -0.206 A  
HETATM   17  C   UNL     1      -9.857  11.730  66.251  1.00  0.00    -0.245 A  
HETATM   18  C   UNL     1      -6.782   7.339  70.235  1.00  0.00    -0.051 A  
HETATM   19  C   UNL     1      -7.753   7.363  69.229  1.00  0.00    -0.107 A  
HETATM   20  C   UNL     1      -9.911  10.355  66.509  1.00  0.00    -0.271 A  
HETATM   21  C   UNL     1      -8.801   8.278  69.303  1.00  0.00    -0.143 A  
HETATM   22  C   UNL     1      -9.942   9.909  67.827  1.00  0.00    -0.201 A  
ENDBRANCH   6   7
ENDBRANCH   5   6
ENDBRANCH   4   5
ENDBRANCH   2   4
TORSDOF 4
ENDMDL
MODEL      172
REMARK 921   NORMALIZED FREE ENERGY PREDICTED BY IDOCK:   -2.41 KCAL/MOL
REMARK 922        TOTAL FREE ENERGY PREDICTED BY IDOCK:   -3.55 KCAL/MOL
REMARK 923 INTER-LIGAND FREE ENERGY PREDICTED BY IDOCK:   -3.14 KCAL/MOL
REMARK 924 INTRA-LIGAND FREE ENERGY PREDICTED BY IDOCK:   -0.41 KCAL/MOL
REMARK 927      BINDING AFFINITY PREDICTED BY RF-SCORE:    0.00 PKD
ROOT
HETATM    1  C   UNL     1      -9.337   1.965  69.997  1.00  0.00    -0.097 C  
HETATM    2  N   UNL     1      -8.553   2.612  68.954  1.00  0.00    -0.068 NA 
HETATM    3  H   UNL     1      -8.064   1.928  68.376  1.00  0.00     0.000 HD 
ENDROOT
BRANCH   2   4
HETATM    4  C   UNL     1      -9.380   3.507  68.143  1.00  0.00    -0.180 C  
BRANCH   4   5
HETATM    5  C   UNL     1      -9.196   4.946  68.638  1.00  0.00    -0.159 C  
BRANCH   5   6
HETATM    6  C   UNL     1      -8.337   5.772  67.663  1.00  0.00    -0.104 C  
BRANCH   6   7
HETATM    7  C   UNL     1      -8.772   7.248  67.455  1.00  0.00    -0.121 C  
HETATM    8  C   UNL     1     -10.308   7.421  67.748  1.00  0.00    -0.273 C  
HETATM    9  C   UNL     1     -10.779   8.885  67.505  1.00  0.00    -0.223 C  
HETATM   10  C   UNL     1      -9.589   9.753  67.057  1.00  0.00    -0.218 C  
HETATM   11  C   UNL     1      -9.042   9.087  65.796  1.00  0.00    -0.272 A  
HETATM   12  C   UNL     1      -8.531   9.623  68.146  1.00  0.00    -0.118 A  
HETATM   13  C   UNL     1      -8.957   9.702  64.552  1.00  0.00    -0.278 A  
HETATM   14  C   UNL     1      -8.023  10.690  68.882  1.00  0.00    -0.132 A  
HETATM   15  C   UNL     1      -7.026  10.443  69.824  1.00  0.00    -0.138 A  
HETATM   16  C   UNL     1      -8.433   8.980  63.483  1.00  0.00    -0.173 A  
HETATM   17  C   UNL     1      -8.001   7.659  63.660  1.00  0.00    -0.089 A  
HETATM   18  C   UNL     1      -6.524   9.149  70.001  1.00  0.00    -0.044 A  
HETATM   19  C   UNL     1      -7.021   8.080  69.248  1.00  0.00    -0.056 A  
HETATM   20  C   UNL     1      -8.082   7.040  64.913  1.00  0.00    -0.107 A  
HETATM   21  C   UNL     1      -8.058   8.296  68.344  1.00  0.00    -0.127 A  
HETATM   22  C   UNL     1      -8.607   7.746  65.990  1.00  0.00    -0.166 A  
ENDBRANCH   6   7
ENDBRANCH   5   6
ENDBRANCH   4   5
ENDBRANCH   2   4
TORSDOF 4
ENDMDL
MODEL      173
REMARK 921   NORMALIZED FREE ENERGY PREDICTED BY IDOCK:   -2.35 KCAL/MOL
REMARK 922        TOTAL FREE ENERGY PREDICTED BY IDOCK:   -3.48 KCAL/MOL
REMARK 923 INTER-LIGAND FREE ENERGY PREDICTED BY IDOCK:   -3.80 KCAL/MOL
REMARK 924 INTRA-LIGAND FREE ENERGY PREDICTED BY IDOCK:    0.32 KCAL/MOL
REMARK 927      BINDING AFFINITY PREDICTED BY RF-SCORE:    0.00 PKD
ROOT
HETATM    1  C   UNL     1      -5.715   8.892  73.087  1.00  0.00    -0.081 C  
HETATM    2  N   UNL     1      -6.963   8.454  73.695  1.00  0.00    -0.225 NA 
HETATM    3  H   UNL     1      -7.311   9.137  74.368  1.00  0.00     0.000 HD 
ENDROOT
BRANCH   2   4
HETATM    4  C   UNL     1      -7.970   8.140  72.681  1.00  0.00    -0.146 C  
BRANCH   4   5
HETATM    5  C   UNL     1      -7.268   7.844  71.351  1.00  0.00    -0.065 C  
BRANCH   5   6
HETATM    6  C   UNL     1      -7.644   6.452  70.812  1.00  0.00    -0.096 C  
BRANCH   6   7
HETATM    7  C   UNL     1      -8.799   6.411  69.777  1.00  0.00    -0.142 C  
HETATM    8  C   UNL     1     -10.185   6.214  70.497  1.00  0.00    -0.251 C  
HETATM    9  C   UNL     1     -11.357   6.128  69.476  1.00  0.00    -0.426 C  
HETATM   10  C   UNL     1     -10.818   6.277  68.041  1.00  0.00    -0.409 C  
HETATM   11  C   UNL     1      -9.793   5.159  67.865  1.00  0.00    -0.199 A  
HETATM   12  C   UNL     1     -10.068   7.603  68.002  1.00  0.00    -0.226 A  
HETATM   13  C   UNL     1      -9.871   4.161  66.900  1.00  0.00    -0.197 A  
HETATM   14  C   UNL     1     -10.386   8.662  67.156  1.00  0.00    -0.369 A  
HETATM   15  C   UNL     1      -9.594   9.809  67.190  1.00  0.00    -0.211 A  
HETATM   16  C   UNL     1      -8.864   3.200  66.848  1.00  0.00    -0.156 A  
HETATM   17  C   UNL     1      -7.794   3.242  67.751  1.00  0.00    -0.075 A  
HETATM   18  C   UNL     1      -8.483   9.879  68.037  1.00  0.00    -0.117 A  
HETATM   19  C   UNL     1      -8.153   8.807  68.873  1.00  0.00    -0.114 A  
HETATM   20  C   UNL     1      -7.711   4.248  68.720  1.00  0.00    -0.066 A  
HETATM   21  C   UNL     1      -8.965   7.676  68.897  1.00  0.00    -0.137 A  
HETATM   22  C   UNL     1      -8.712   5.213  68.789  1.00  0.00    -0.092 A  
ENDBRANCH   6   7
ENDBRANCH   5   6
ENDBRANCH   4   5
ENDBRANCH   2   4
TORSDOF 4
ENDMDL
MODEL      174
REMARK 921   NORMALIZED FREE ENERGY PREDICTED BY IDOCK:   -2.34 KCAL/MOL
REMARK 922        TOTAL FREE ENERGY PREDICTED BY IDOCK:   -3.47 KCAL/MOL
REMARK 923 INTER-LIGAND FREE ENERGY PREDICTED BY IDOCK:   -2.93 KCAL/MOL
REMARK 924 INTRA-LIGAND FREE ENERGY PREDICTED BY IDOCK:   -0.54 KCAL/MOL
REMARK 927      BINDING AFFINITY PREDICTED BY RF-SCORE:    0.00 PKD
ROOT
HETATM    1  C   UNL     1     -10.959   8.452  71.985  1.00  0.00    -0.323 C  
HETATM    2  N   UNL     1     -11.239   7.600  70.838  1.00  0.00    -0.264 NA 
HETATM    3  H   UNL     1     -10.471   7.612  70.168  1.00  0.00     0.000 HD 
ENDROOT
BRANCH   2   4
HETATM    4  C   UNL     1     -11.567   6.236  71.254  1.00  0.00    -0.274 C  
BRANCH   4   5
HETATM    5  C   UNL     1     -10.612   5.257  70.559  1.00  0.00    -0.272 C  
BRANCH   5   6
HETATM    6  C   UNL     1     -10.304   5.698  69.117  1.00  0.00    -0.328 C  
BRANCH   6   7
HETATM    7  C   UNL     1      -8.823   5.571  68.668  1.00  0.00    -0.108 C  
HETATM    8  C   UNL     1      -7.885   5.337  69.909  1.00  0.00    -0.080 C  
HETATM    9  C   UNL     1      -6.387   5.249  69.491  1.00  0.00    -0.034 C  
HETATM   10  C   UNL     1      -6.258   5.404  67.964  1.00  0.00    -0.034 C  
HETATM   11  C   UNL     1      -6.891   6.754  67.629  1.00  0.00    -0.080 A  
HETATM   12  C   UNL     1      -7.131   4.317  67.348  1.00  0.00    -0.067 A  
HETATM   13  C   UNL     1      -6.226   7.806  67.012  1.00  0.00    -0.053 A  
HETATM   14  C   UNL     1      -6.662   3.318  66.500  1.00  0.00    -0.048 A  
HETATM   15  C   UNL     1      -7.573   2.406  65.969  1.00  0.00    -0.068 A  
HETATM   16  C   UNL     1      -6.924   8.985  66.761  1.00  0.00    -0.081 A  
HETATM   17  C   UNL     1      -8.272   9.104  67.125  1.00  0.00    -0.113 A  
HETATM   18  C   UNL     1      -8.937   2.515  66.262  1.00  0.00    -0.126 A  
HETATM   19  C   UNL     1      -9.410   3.530  67.099  1.00  0.00    -0.229 A  
HETATM   20  C   UNL     1      -8.945   8.043  67.744  1.00  0.00    -0.133 A  
HETATM   21  C   UNL     1      -8.509   4.416  67.685  1.00  0.00    -0.100 A  
HETATM   22  C   UNL     1      -8.260   6.861  68.006  1.00  0.00    -0.115 A  
ENDBRANCH   6   7
ENDBRANCH   5   6
ENDBRANCH   4   5
ENDBRANCH   2   4
TORSDOF 4
ENDMDL
MODEL      175
REMARK 921   NORMALIZED FREE ENERGY PREDICTED BY IDOCK:   -2.33 KCAL/MOL
REMARK 922        TOTAL FREE ENERGY PREDICTED BY IDOCK:   -3.46 KCAL/MOL
REMARK 923 INTER-LIGAND FREE ENERGY PREDICTED BY IDOCK:   -3.64 KCAL/MOL
REMARK 924 INTRA-LIGAND FREE ENERGY PREDICTED BY IDOCK:    0.18 KCAL/MOL
REMARK 927      BINDING AFFINITY PREDICTED BY RF-SCORE:    0.00 PKD
ROOT
HETATM    1  C   UNL     1     -12.679  13.320  64.270  1.00  0.00    -0.072 C  
HETATM    2  N   UNL     1     -12.007  12.455  63.311  1.00  0.00    -0.727 NA 
HETATM    3  H   UNL     1     -12.268  12.686  62.352  1.00  0.00     0.000 HD 
ENDROOT
BRANCH   2   4
HETATM    4  C   UNL     1     -10.555  12.483  63.493  1.00  0.00    -0.355 C  
BRANCH   4   5
HETATM    5  C   UNL     1     -10.048  11.052  63.707  1.00  0.00    -0.420 C  
BRANCH   5   6
HETATM    6  C   UNL     1      -8.573  11.036  64.147  1.00  0.00     0.155 C  
BRANCH   6   7
HETATM    7  C   UNL     1      -8.177   9.927  65.159  1.00  0.00    -0.144 C  
HETATM    8  C   UNL     1      -6.784  10.248  65.818  1.00  0.00    -0.120 C  
HETATM    9  C   UNL     1      -6.343   9.128  66.806  1.00  0.00    -0.066 C  
HETATM   10  C   UNL     1      -7.416   8.025  66.864  1.00  0.00    -0.091 C  
HETATM   11  C   UNL     1      -7.574   7.524  65.430  1.00  0.00    -0.095 A  
HETATM   12  C   UNL     1      -8.717   8.714  67.260  1.00  0.00    -0.133 A  
HETATM   13  C   UNL     1      -7.359   6.212  65.024  1.00  0.00    -0.073 A  
HETATM   14  C   UNL     1      -9.456   8.405  68.398  1.00  0.00    -0.145 A  
HETATM   15  C   UNL     1     -10.653   9.083  68.626  1.00  0.00    -0.194 A  
HETATM   16  C   UNL     1      -7.542   5.888  63.682  1.00  0.00    -0.082 A  
HETATM   17  C   UNL     1      -7.936   6.868  62.761  1.00  0.00    -0.093 A  
HETATM   18  C   UNL     1     -11.115  10.033  67.709  1.00  0.00    -0.246 A  
HETATM   19  C   UNL     1     -10.381  10.330  66.556  1.00  0.00    -0.276 A  
HETATM   20  C   UNL     1      -8.157   8.189  63.169  1.00  0.00    -0.127 A  
HETATM   21  C   UNL     1      -9.155   9.706  66.340  1.00  0.00    -0.191 A  
HETATM   22  C   UNL     1      -7.973   8.530  64.505  1.00  0.00    -0.145 A  
ENDBRANCH   6   7
ENDBRANCH   5   6
ENDBRANCH   4   5
ENDBRANCH   2   4
TORSDOF 4
ENDMDL
MODEL      176
REMARK 921   NORMALIZED FREE ENERGY PREDICTED BY IDOCK:   -2.26 KCAL/MOL
REMARK 922        TOTAL FREE ENERGY PREDICTED BY IDOCK:   -3.37 KCAL/MOL
REMARK 923 INTER-LIGAND FREE ENERGY PREDICTED BY IDOCK:   -3.71 KCAL/MOL
REMARK 924 INTRA-LIGAND FREE ENERGY PREDICTED BY IDOCK:    0.34 KCAL/MOL
REMARK 927      BINDING AFFINITY PREDICTED BY RF-SCORE:    0.00 PKD
ROOT
HETATM    1  C   UNL     1      -9.831   4.076  64.155  1.00  0.00    -0.167 C  
HETATM    2  N   UNL     1     -10.187   4.614  65.460  1.00  0.00    -0.369 NA 
HETATM    3  H   UNL     1     -10.931   4.071  65.898  1.00  0.00     0.000 HD 
ENDROOT
BRANCH   2   4
HETATM    4  C   UNL     1      -9.016   4.721  66.332  1.00  0.00    -0.113 C  
BRANCH   4   5
HETATM    5  C   UNL     1      -9.246   5.847  67.346  1.00  0.00    -0.108 C  
BRANCH   5   6
HETATM    6  C   UNL     1      -9.093   5.343  68.793  1.00  0.00    -0.135 C  
BRANCH   6   7
HETATM    7  C   UNL     1      -8.822   6.431  69.867  1.00  0.00    -0.142 C  
HETATM    8  C   UNL     1      -8.073   5.814  71.106  1.00  0.00    -0.117 C  
HETATM    9  C   UNL     1      -7.827   6.876  72.218  1.00  0.00    -0.093 C  
HETATM   10  C   UNL     1      -8.381   8.242  71.772  1.00  0.00    -0.193 C  
HETATM   11  C   UNL     1      -9.864   8.015  71.485  1.00  0.00    -0.217 A  
HETATM   12  C   UNL     1      -7.698   8.570  70.449  1.00  0.00    -0.080 A  
HETATM   13  C   UNL     1     -10.903   8.676  72.128  1.00  0.00    -0.424 A  
HETATM   14  C   UNL     1      -6.910   9.696  70.229  1.00  0.00    -0.107 A  
HETATM   15  C   UNL     1      -6.374   9.902  68.959  1.00  0.00    -0.040 A  
HETATM   16  C   UNL     1     -12.214   8.375  71.767  1.00  0.00    -0.377 A  
HETATM   17  C   UNL     1     -12.477   7.423  70.773  1.00  0.00    -0.130 A  
HETATM   18  C   UNL     1      -6.650   9.007  67.919  1.00  0.00    -0.060 A  
HETATM   19  C   UNL     1      -7.457   7.886  68.137  1.00  0.00    -0.107 A  
HETATM   20  C   UNL     1     -11.431   6.759  70.121  1.00  0.00    -0.404 A  
HETATM   21  C   UNL     1      -7.954   7.631  69.412  1.00  0.00    -0.125 A  
HETATM   22  C   UNL     1     -10.116   7.045  70.474  1.00  0.00    -0.202 A  
ENDBRANCH   6   7
ENDBRANCH   5   6
ENDBRANCH   4   5
ENDBRANCH   2   4
TORSDOF 4
ENDMDL
MODEL      177
REMARK 921   NORMALIZED FREE ENERGY PREDICTED BY IDOCK:   -2.22 KCAL/MOL
REMARK 922        TOTAL FREE ENERGY PREDICTED BY IDOCK:   -3.33 KCAL/MOL
REMARK 923 INTER-LIGAND FREE ENERGY PREDICTED BY IDOCK:   -3.68 KCAL/MOL
REMARK 924 INTRA-LIGAND FREE ENERGY PREDICTED BY IDOCK:    0.35 KCAL/MOL
REMARK 927      BINDING AFFINITY PREDICTED BY RF-SCORE:    0.00 PKD
ROOT
HETATM    1  C   UNL     1     -12.354  12.395  63.880  1.00  0.00    -0.508 C  
HETATM    2  N   UNL     1     -11.565  13.128  64.859  1.00  0.00    -0.312 NA 
HETATM    3  H   UNL     1     -11.714  14.134  64.783  1.00  0.00     0.000 HD 
ENDROOT
BRANCH   2   4
HETATM    4  C   UNL     1     -11.822  12.650  66.218  1.00  0.00    -0.410 C  
BRANCH   4   5
HETATM    5  C   UNL     1     -11.237  11.241  66.374  1.00  0.00    -0.190 C  
BRANCH   5   6
HETATM    6  C   UNL     1      -9.914  11.264  67.161  1.00  0.00    -0.219 C  
BRANCH   6   7
HETATM    7  C   UNL     1      -8.817  10.279  66.677  1.00  0.00    -0.148 C  
HETATM    8  C   UNL     1      -7.459  10.548  67.425  1.00  0.00    -0.094 C  
HETATM    9  C   UNL     1      -6.329   9.600  66.926  1.00  0.00    -0.066 C  
HETATM   10  C   UNL     1      -6.877   8.652  65.842  1.00  0.00    -0.068 C  
HETATM   11  C   UNL     1      -7.425   9.556  64.740  1.00  0.00    -0.112 A  
HETATM   12  C   UNL     1      -8.057   7.921  66.472  1.00  0.00    -0.107 A  
HETATM   13  C   UNL     1      -6.985   9.549  63.422  1.00  0.00    -0.101 A  
HETATM   14  C   UNL     1      -8.141   6.539  66.615  1.00  0.00    -0.110 A  
HETATM   15  C   UNL     1      -9.295   5.990  67.171  1.00  0.00    -0.121 A  
HETATM   16  C   UNL     1      -7.574  10.425  62.514  1.00  0.00    -0.158 A  
HETATM   17  C   UNL     1      -8.592  11.296  62.925  1.00  0.00    -0.038 A  
HETATM   18  C   UNL     1     -10.360   6.814  67.549  1.00  0.00    -0.267 A  
HETATM   19  C   UNL     1     -10.284   8.201  67.388  1.00  0.00    -0.327 A  
HETATM   20  C   UNL     1      -9.040  11.302  64.251  1.00  0.00     0.024 A  
HETATM   21  C   UNL     1      -9.117   8.773  66.888  1.00  0.00    -0.169 A  
HETATM   22  C   UNL     1      -8.458  10.435  65.171  1.00  0.00    -0.177 A  
ENDBRANCH   6   7
ENDBRANCH   5   6
ENDBRANCH   4   5
ENDBRANCH   2   4
TORSDOF 4
ENDMDL
MODEL      178
REMARK 921   NORMALIZED FREE ENERGY PREDICTED BY IDOCK:   -2.20 KCAL/MOL
REMARK 922        TOTAL FREE ENERGY PREDICTED BY IDOCK:   -3.30 KCAL/MOL
REMARK 923 INTER-LIGAND FREE ENERGY PREDICTED BY IDOCK:   -3.72 KCAL/MOL
REMARK 924 INTRA-LIGAND FREE ENERGY PREDICTED BY IDOCK:    0.42 KCAL/MOL
REMARK 927      BINDING AFFINITY PREDICTED BY RF-SCORE:    0.00 PKD
ROOT
HETATM    1  C   UNL     1     -10.112  15.911  68.848  1.00  0.00    -0.225 C  
HETATM    2  N   UNL     1     -10.510  16.123  67.464  1.00  0.00    -0.297 NA 
HETATM    3  H   UNL     1      -9.707  16.332  66.872  1.00  0.00     0.000 HD 
ENDROOT
BRANCH   2   4
HETATM    4  C   UNL     1     -11.275  14.986  66.949  1.00  0.00    -0.323 C  
BRANCH   4   5
HETATM    5  C   UNL     1     -10.836  13.713  67.681  1.00  0.00    -0.268 C  
BRANCH   5   6
HETATM    6  C   UNL     1     -10.036  12.777  66.756  1.00  0.00    -0.239 C  
BRANCH   6   7
HETATM    7  C   UNL     1      -9.008  11.847  67.453  1.00  0.00    -0.173 C  
HETATM    8  C   UNL     1      -8.247  10.966  66.394  1.00  0.00    -0.163 C  
HETATM    9  C   UNL     1      -7.239   9.992  67.072  1.00  0.00    -0.090 C  
HETATM   10  C   UNL     1      -7.267  10.185  68.600  1.00  0.00    -0.080 C  
HETATM   11  C   UNL     1      -8.713   9.933  69.023  1.00  0.00    -0.151 A  
HETATM   12  C   UNL     1      -6.960  11.657  68.850  1.00  0.00    -0.109 A  
HETATM   13  C   UNL     1      -9.113   8.951  69.920  1.00  0.00    -0.166 A  
HETATM   14  C   UNL     1      -5.881  12.120  69.598  1.00  0.00    -0.107 A  
HETATM   15  C   UNL     1      -5.735  13.493  69.787  1.00  0.00    -0.110 A  
HETATM   16  C   UNL     1     -10.467   8.830  70.222  1.00  0.00    -0.231 A  
HETATM   17  C   UNL     1     -11.406   9.686  69.630  1.00  0.00    -0.113 A  
HETATM   18  C   UNL     1      -6.675  14.385  69.260  1.00  0.00    -0.126 A  
HETATM   19  C   UNL     1      -7.770  13.918  68.525  1.00  0.00    -0.139 A  
HETATM   20  C   UNL     1     -11.005  10.679  68.729  1.00  0.00    -0.292 A  
HETATM   21  C   UNL     1      -7.902  12.555  68.276  1.00  0.00    -0.144 A  
HETATM   22  C   UNL     1      -9.656  10.809  68.414  1.00  0.00    -0.177 A  
ENDBRANCH   6   7
ENDBRANCH   5   6
ENDBRANCH   4   5
ENDBRANCH   2   4
TORSDOF 4
ENDMDL
MODEL      179
REMARK 921   NORMALIZED FREE ENERGY PREDICTED BY IDOCK:   -2.20 KCAL/MOL
REMARK 922        TOTAL FREE ENERGY PREDICTED BY IDOCK:   -3.30 KCAL/MOL
REMARK 923 INTER-LIGAND FREE ENERGY PREDICTED BY IDOCK:   -3.90 KCAL/MOL
REMARK 924 INTRA-LIGAND FREE ENERGY PREDICTED BY IDOCK:    0.60 KCAL/MOL
REMARK 927      BINDING AFFINITY PREDICTED BY RF-SCORE:    0.00 PKD
ROOT
HETATM    1  C   UNL     1      -6.794   8.553  74.472  1.00  0.00    -0.163 C  
HETATM    2  N   UNL     1      -8.138   8.377  73.943  1.00  0.00    -0.372 NA 
HETATM    3  H   UNL     1      -8.609   9.272  73.811  1.00  0.00     0.000 HD 
ENDROOT
BRANCH   2   4
HETATM    4  C   UNL     1      -8.128   7.590  72.709  1.00  0.00    -0.109 C  
BRANCH   4   5
HETATM    5  C   UNL     1      -9.504   6.945  72.513  1.00  0.00    -0.154 C  
BRANCH   5   6
HETATM    6  C   UNL     1     -10.165   7.414  71.203  1.00  0.00    -0.199 C  
BRANCH   6   7
HETATM    7  C   UNL     1      -9.862   6.559  69.944  1.00  0.00    -0.185 C  
HETATM    8  C   UNL     1     -11.046   6.650  68.912  1.00  0.00    -0.312 C  
HETATM    9  C   UNL     1     -10.785   5.767  67.656  1.00  0.00    -0.313 C  
HETATM   10  C   UNL     1      -9.421   5.063  67.782  1.00  0.00    -0.159 C  
HETATM   11  C   UNL     1      -9.490   4.253  69.075  1.00  0.00    -0.242 A  
HETATM   12  C   UNL     1      -8.388   6.166  67.981  1.00  0.00    -0.117 A  
HETATM   13  C   UNL     1      -9.334   2.874  69.152  1.00  0.00    -0.211 A  
HETATM   14  C   UNL     1      -7.310   6.397  67.131  1.00  0.00    -0.083 A  
HETATM   15  C   UNL     1      -6.412   7.415  67.447  1.00  0.00    -0.060 A  
HETATM   16  C   UNL     1      -9.418   2.259  70.399  1.00  0.00    -0.166 A  
HETATM   17  C   UNL     1      -9.654   3.019  71.552  1.00  0.00    -0.225 A  
HETATM   18  C   UNL     1      -6.576   8.167  68.615  1.00  0.00    -0.058 A  
HETATM   19  C   UNL     1      -7.648   7.922  69.479  1.00  0.00    -0.099 A  
HETATM   20  C   UNL     1      -9.808   4.409  71.477  1.00  0.00    -0.259 A  
HETATM   21  C   UNL     1      -8.589   6.950  69.151  1.00  0.00    -0.128 A  
HETATM   22  C   UNL     1      -9.732   5.037  70.238  1.00  0.00    -0.285 A  
ENDBRANCH   6   7
ENDBRANCH   5   6
ENDBRANCH   4   5
ENDBRANCH   2   4
TORSDOF 4
ENDMDL
MODEL      180
REMARK 921   NORMALIZED FREE ENERGY PREDICTED BY IDOCK:   -2.11 KCAL/MOL
REMARK 922        TOTAL FREE ENERGY PREDICTED BY IDOCK:   -3.19 KCAL/MOL
REMARK 923 INTER-LIGAND FREE ENERGY PREDICTED BY IDOCK:   -3.80 KCAL/MOL
REMARK 924 INTRA-LIGAND FREE ENERGY PREDICTED BY IDOCK:    0.61 KCAL/MOL
REMARK 927      BINDING AFFINITY PREDICTED BY RF-SCORE:    0.00 PKD
ROOT
HETATM    1  C   UNL     1      -9.862   7.967  72.153  1.00  0.00    -0.223 C  
HETATM    2  N   UNL     1     -11.107   7.220  72.048  1.00  0.00    -0.238 NA 
HETATM    3  H   UNL     1     -11.815   7.582  72.687  1.00  0.00     0.000 HD 
ENDROOT
BRANCH   2   4
HETATM    4  C   UNL     1     -11.596   7.189  70.669  1.00  0.00    -0.314 C  
BRANCH   4   5
HETATM    5  C   UNL     1     -10.828   6.117  69.888  1.00  0.00    -0.420 C  
BRANCH   5   6
HETATM    6  C   UNL     1     -11.146   6.179  68.383  1.00  0.00    -0.343 C  
BRANCH   6   7
HETATM    7  C   UNL     1      -9.974   6.599  67.455  1.00  0.00    -0.171 C  
HETATM    8  C   UNL     1     -10.240   8.020  66.833  1.00  0.00    -0.385 C  
HETATM    9  C   UNL     1      -9.098   8.447  65.865  1.00  0.00    -0.225 C  
HETATM   10  C   UNL     1      -8.019   7.349  65.806  1.00  0.00    -0.118 C  
HETATM   11  C   UNL     1      -8.741   6.082  65.352  1.00  0.00    -0.090 A  
HETATM   12  C   UNL     1      -7.555   7.130  67.241  1.00  0.00    -0.104 A  
HETATM   13  C   UNL     1      -8.428   5.364  64.205  1.00  0.00    -0.085 A  
HETATM   14  C   UNL     1      -6.245   7.300  67.680  1.00  0.00    -0.046 A  
HETATM   15  C   UNL     1      -5.942   7.027  69.012  1.00  0.00    -0.022 A  
HETATM   16  C   UNL     1      -9.167   4.220  63.908  1.00  0.00    -0.143 A  
HETATM   17  C   UNL     1     -10.204   3.805  64.753  1.00  0.00    -0.155 A  
HETATM   18  C   UNL     1      -6.932   6.559  69.883  1.00  0.00    -0.066 A  
HETATM   19  C   UNL     1      -8.244   6.370  69.438  1.00  0.00    -0.118 A  
HETATM   20  C   UNL     1     -10.518   4.525  65.912  1.00  0.00    -0.262 A  
HETATM   21  C   UNL     1      -8.580   6.693  68.125  1.00  0.00    -0.115 A  
HETATM   22  C   UNL     1      -9.793   5.672  66.220  1.00  0.00    -0.156 A  
ENDBRANCH   6   7
ENDBRANCH   5   6
ENDBRANCH   4   5
ENDBRANCH   2   4
TORSDOF 4
ENDMDL
MODEL      181
REMARK 921   NORMALIZED FREE ENERGY PREDICTED BY IDOCK:   -2.04 KCAL/MOL
REMARK 922        TOTAL FREE ENERGY PREDICTED BY IDOCK:   -3.10 KCAL/MOL
REMARK 923 INTER-LIGAND FREE ENERGY PREDICTED BY IDOCK:   -2.56 KCAL/MOL
REMARK 924 INTRA-LIGAND FREE ENERGY PREDICTED BY IDOCK:   -0.54 KCAL/MOL
REMARK 927      BINDING AFFINITY PREDICTED BY RF-SCORE:    0.00 PKD
ROOT
HETATM    1  C   UNL     1      -7.772  10.817  66.606  1.00  0.00    -0.141 C  
HETATM    2  N   UNL     1      -6.817  11.367  67.557  1.00  0.00    -0.080 NA 
HETATM    3  H   UNL     1      -7.287  11.864  68.314  1.00  0.00     0.000 HD 
ENDROOT
BRANCH   2   4
HETATM    4  C   UNL     1      -5.920  10.331  68.073  1.00  0.00    -0.044 C  
BRANCH   4   5
HETATM    5  C   UNL     1      -5.973  10.338  69.605  1.00  0.00    -0.046 C  
BRANCH   5   6
HETATM    6  C   UNL     1      -6.154   8.918  70.169  1.00  0.00    -0.037 C  
BRANCH   6   7
HETATM    7  C   UNL     1      -7.617   8.409  70.277  1.00  0.00    -0.068 C  
HETATM    8  C   UNL     1      -8.629   9.614  70.243  1.00  0.00    -0.234 C  
HETATM    9  C   UNL     1     -10.102   9.134  70.392  1.00  0.00    -0.264 C  
HETATM   10  C   UNL     1     -10.145   7.599  70.518  1.00  0.00    -0.189 C  
HETATM   11  C   UNL     1      -9.282   7.258  71.731  1.00  0.00    -0.153 A  
HETATM   12  C   UNL     1      -9.444   7.050  69.281  1.00  0.00    -0.147 A  
HETATM   13  C   UNL     1      -9.737   6.585  72.859  1.00  0.00    -0.164 A  
HETATM   14  C   UNL     1     -10.041   6.208  68.347  1.00  0.00    -0.186 A  
HETATM   15  C   UNL     1      -9.277   5.741  67.279  1.00  0.00    -0.110 A  
HETATM   16  C   UNL     1      -8.842   6.335  73.896  1.00  0.00    -0.131 A  
HETATM   17  C   UNL     1      -7.508   6.754  73.800  1.00  0.00    -0.083 A  
HETATM   18  C   UNL     1      -7.927   6.089  67.168  1.00  0.00    -0.102 A  
HETATM   19  C   UNL     1      -7.322   6.920  68.117  1.00  0.00    -0.097 A  
HETATM   20  C   UNL     1      -7.047   7.428  72.663  1.00  0.00    -0.069 A  
HETATM   21  C   UNL     1      -8.083   7.444  69.159  1.00  0.00    -0.120 A  
HETATM   22  C   UNL     1      -7.931   7.690  71.621  1.00  0.00    -0.095 A  
ENDBRANCH   6   7
ENDBRANCH   5   6
ENDBRANCH   4   5
ENDBRANCH   2   4
TORSDOF 4
ENDMDL
MODEL      182
REMARK 921   NORMALIZED FREE ENERGY PREDICTED BY IDOCK:   -2.03 KCAL/MOL
REMARK 922        TOTAL FREE ENERGY PREDICTED BY IDOCK:   -3.10 KCAL/MOL
REMARK 923 INTER-LIGAND FREE ENERGY PREDICTED BY IDOCK:   -2.64 KCAL/MOL
REMARK 924 INTRA-LIGAND FREE ENERGY PREDICTED BY IDOCK:   -0.46 KCAL/MOL
REMARK 927      BINDING AFFINITY PREDICTED BY RF-SCORE:    0.00 PKD
ROOT
HETATM    1  C   UNL     1     -11.733   6.702  71.175  1.00  0.00    -0.346 C  
HETATM    2  N   UNL     1     -11.568   6.547  69.737  1.00  0.00    -0.609 NA 
HETATM    3  H   UNL     1     -12.259   7.092  69.221  1.00  0.00     0.000 HD 
ENDROOT
BRANCH   2   4
HETATM    4  C   UNL     1     -10.205   6.874  69.317  1.00  0.00    -0.186 C  
BRANCH   4   5
HETATM    5  C   UNL     1     -10.054   8.397  69.245  1.00  0.00    -0.202 C  
BRANCH   5   6
HETATM    6  C   UNL     1      -8.574   8.815  69.171  1.00  0.00    -0.128 C  
BRANCH   6   7
HETATM    7  C   UNL     1      -8.108   9.438  67.828  1.00  0.00    -0.107 C  
HETATM    8  C   UNL     1      -9.322  10.088  67.066  1.00  0.00    -0.180 C  
HETATM    9  C   UNL     1      -8.890  10.684  65.694  1.00  0.00    -0.201 C  
HETATM   10  C   UNL     1      -7.378  10.475  65.483  1.00  0.00    -0.106 C  
HETATM   11  C   UNL     1      -7.151   8.967  65.575  1.00  0.00    -0.080 A  
HETATM   12  C   UNL     1      -6.686  11.121  66.677  1.00  0.00    -0.137 A  
HETATM   13  C   UNL     1      -6.612   8.187  64.560  1.00  0.00    -0.064 A  
HETATM   14  C   UNL     1      -5.762  12.158  66.585  1.00  0.00     0.279 A  
HETATM   15  C   UNL     1      -5.169  12.635  67.752  1.00  0.00    -0.105 A  
HETATM   16  C   UNL     1      -6.456   6.820  64.777  1.00  0.00    -0.042 A  
HETATM   17  C   UNL     1      -6.836   6.246  65.997  1.00  0.00    -0.057 A  
HETATM   18  C   UNL     1      -5.476  12.059  68.990  1.00  0.00    -0.051 A  
HETATM   19  C   UNL     1      -6.391  11.005  69.080  1.00  0.00    -0.057 A  
HETATM   20  C   UNL     1      -7.376   7.031  67.023  1.00  0.00    -0.086 A  
HETATM   21  C   UNL     1      -7.038  10.553  67.933  1.00  0.00    -0.083 A  
HETATM   22  C   UNL     1      -7.543   8.397  66.819  1.00  0.00    -0.090 A  
ENDBRANCH   6   7
ENDBRANCH   5   6
ENDBRANCH   4   5
ENDBRANCH   2   4
TORSDOF 4
ENDMDL
MODEL      183
REMARK 921   NORMALIZED FREE ENERGY PREDICTED BY IDOCK:   -2.03 KCAL/MOL
REMARK 922        TOTAL FREE ENERGY PREDICTED BY IDOCK:   -3.08 KCAL/MOL
REMARK 923 INTER-LIGAND FREE ENERGY PREDICTED BY IDOCK:   -3.43 KCAL/MOL
REMARK 924 INTRA-LIGAND FREE ENERGY PREDICTED BY IDOCK:    0.34 KCAL/MOL
REMARK 927      BINDING AFFINITY PREDICTED BY RF-SCORE:    0.00 PKD
ROOT
HETATM    1  C   UNL     1      -6.272  14.563  69.848  1.00  0.00    -0.150 C  
HETATM    2  N   UNL     1      -5.214  14.107  68.959  1.00  0.00    -0.077 NA 
HETATM    3  H   UNL     1      -4.868  13.186  69.231  1.00  0.00     0.000 HD 
ENDROOT
BRANCH   2   4
HETATM    4  C   UNL     1      -5.646  14.125  67.560  1.00  0.00     0.182 C  
BRANCH   4   5
HETATM    5  C   UNL     1      -7.167  13.940  67.504  1.00  0.00    -0.178 C  
BRANCH   5   6
HETATM    6  C   UNL     1      -7.549  12.603  66.842  1.00  0.00     0.113 C  
BRANCH   6   7
HETATM    7  C   UNL     1      -8.671  11.792  67.543  1.00  0.00    -0.159 C  
HETATM    8  C   UNL     1      -9.519  10.989  66.488  1.00  0.00    -0.211 C  
HETATM    9  C   UNL     1     -10.679  10.200  67.162  1.00  0.00    -0.286 C  
HETATM   10  C   UNL     1     -10.652  10.423  68.686  1.00  0.00    -0.234 C  
HETATM   11  C   UNL     1     -10.766  11.934  68.885  1.00  0.00    -0.236 A  
HETATM   12  C   UNL     1      -9.267   9.997  69.156  1.00  0.00    -0.196 A  
HETATM   13  C   UNL     1     -11.784  12.562  69.594  1.00  0.00    -0.372 A  
HETATM   14  C   UNL     1      -9.027   8.991  70.088  1.00  0.00    -0.200 A  
HETATM   15  C   UNL     1      -7.712   8.724  70.465  1.00  0.00    -0.089 A  
HETATM   16  C   UNL     1     -11.766  13.950  69.701  1.00  0.00    -0.370 A  
HETATM   17  C   UNL     1     -10.740  14.697  69.106  1.00  0.00    -0.263 A  
HETATM   18  C   UNL     1      -6.657   9.477  69.938  1.00  0.00    -0.059 A  
HETATM   19  C   UNL     1      -6.900  10.501  69.016  1.00  0.00    -0.068 A  
HETATM   20  C   UNL     1      -9.712  14.065  68.396  1.00  0.00    -0.223 A  
HETATM   21  C   UNL     1      -8.201  10.744  68.583  1.00  0.00    -0.139 A  
HETATM   22  C   UNL     1      -9.719  12.679  68.275  1.00  0.00    -0.216 A  
ENDBRANCH   6   7
ENDBRANCH   5   6
ENDBRANCH   4   5
ENDBRANCH   2   4
TORSDOF 4
ENDMDL
MODEL      184
REMARK 921   NORMALIZED FREE ENERGY PREDICTED BY IDOCK:   -2.01 KCAL/MOL
REMARK 922        TOTAL FREE ENERGY PREDICTED BY IDOCK:   -3.06 KCAL/MOL
REMARK 923 INTER-LIGAND FREE ENERGY PREDICTED BY IDOCK:   -3.20 KCAL/MOL
REMARK 924 INTRA-LIGAND FREE ENERGY PREDICTED BY IDOCK:    0.14 KCAL/MOL
REMARK 927      BINDING AFFINITY PREDICTED BY RF-SCORE:    0.00 PKD
ROOT
HETATM    1  C   UNL     1     -13.010   6.386  72.522  1.00  0.00     0.451 C  
HETATM    2  N   UNL     1     -12.601   6.780  71.182  1.00  0.00    -0.320 NA 
HETATM    3  H   UNL     1     -13.146   7.573  70.843  1.00  0.00     0.000 HD 
ENDROOT
BRANCH   2   4
HETATM    4  C   UNL     1     -11.164   7.051  71.121  1.00  0.00    -0.270 C  
BRANCH   4   5
HETATM    5  C   UNL     1     -10.876   7.958  69.919  1.00  0.00    -0.221 C  
BRANCH   5   6
HETATM    6  C   UNL     1      -9.443   8.520  69.966  1.00  0.00    -0.165 C  
BRANCH   6   7
HETATM    7  C   UNL     1      -9.097   9.593  68.899  1.00  0.00    -0.144 C  
HETATM    8  C   UNL     1      -8.853   8.923  67.496  1.00  0.00    -0.135 C  
HETATM    9  C   UNL     1      -8.462   9.974  66.416  1.00  0.00    -0.132 C  
HETATM   10  C   UNL     1      -8.440  11.383  67.037  1.00  0.00    -0.159 C  
HETATM   11  C   UNL     1      -7.439  11.313  68.189  1.00  0.00    -0.091 A  
HETATM   12  C   UNL     1      -9.823  11.607  67.637  1.00  0.00    -0.195 A  
HETATM   13  C   UNL     1      -6.296  12.097  68.291  1.00  0.00    -0.053 A  
HETATM   14  C   UNL     1     -10.684  12.636  67.266  1.00  0.00    -0.259 A  
HETATM   15  C   UNL     1     -11.908  12.756  67.922  1.00  0.00    -0.392 A  
HETATM   16  C   UNL     1      -5.469  11.934  69.399  1.00  0.00    -0.064 A  
HETATM   17  C   UNL     1      -5.785  10.997  70.391  1.00  0.00    -0.130 A  
HETATM   18  C   UNL     1     -12.248  11.876  68.956  1.00  0.00    -0.103 A  
HETATM   19  C   UNL     1     -11.374  10.854  69.341  1.00  0.00    -0.347 A  
HETATM   20  C   UNL     1      -6.938  10.209  70.292  1.00  0.00    -0.150 A  
HETATM   21  C   UNL     1     -10.172  10.681  68.659  1.00  0.00    -0.196 A  
HETATM   22  C   UNL     1      -7.773  10.357  69.189  1.00  0.00    -0.126 A  
ENDBRANCH   6   7
ENDBRANCH   5   6
ENDBRANCH   4   5
ENDBRANCH   2   4
TORSDOF 4
ENDMDL
MODEL      185
REMARK 921   NORMALIZED FREE ENERGY PREDICTED BY IDOCK:   -1.98 KCAL/MOL
REMARK 922        TOTAL FREE ENERGY PREDICTED BY IDOCK:   -3.03 KCAL/MOL
REMARK 923 INTER-LIGAND FREE ENERGY PREDICTED BY IDOCK:   -3.65 KCAL/MOL
REMARK 924 INTRA-LIGAND FREE ENERGY PREDICTED BY IDOCK:    0.62 KCAL/MOL
REMARK 927      BINDING AFFINITY PREDICTED BY RF-SCORE:    0.00 PKD
ROOT
HETATM    1  C   UNL     1      -9.728   6.297  74.549  1.00  0.00    -0.295 C  
HETATM    2  N   UNL     1      -9.692   7.631  73.967  1.00  0.00    -0.368 NA 
HETATM    3  H   UNL     1     -10.306   8.273  74.467  1.00  0.00     0.000 HD 
ENDROOT
BRANCH   2   4
HETATM    4  C   UNL     1      -8.323   8.145  73.893  1.00  0.00    -0.248 C  
BRANCH   4   5
HETATM    5  C   UNL     1      -8.029   8.584  72.454  1.00  0.00    -0.122 C  
BRANCH   5   6
HETATM    6  C   UNL     1      -7.221   7.517  71.693  1.00  0.00    -0.067 C  
BRANCH   6   7
HETATM    7  C   UNL     1      -7.802   7.071  70.324  1.00  0.00    -0.105 C  
HETATM    8  C   UNL     1      -6.688   7.094  69.213  1.00  0.00    -0.049 C  
HETATM    9  C   UNL     1      -7.255   6.691  67.820  1.00  0.00    -0.091 C  
HETATM   10  C   UNL     1      -8.757   6.368  67.937  1.00  0.00    -0.115 C  
HETATM   11  C   UNL     1      -9.409   7.628  68.502  1.00  0.00    -0.147 A  
HETATM   12  C   UNL     1      -8.878   5.272  68.988  1.00  0.00    -0.111 A  
HETATM   13  C   UNL     1     -10.409   8.354  67.865  1.00  0.00    -0.279 A  
HETATM   14  C   UNL     1      -9.426   4.014  68.754  1.00  0.00    -0.226 A  
HETATM   15  C   UNL     1      -9.516   3.112  69.813  1.00  0.00    -0.198 A  
HETATM   16  C   UNL     1     -10.920   9.486  68.495  1.00  0.00    -0.109 A  
HETATM   17  C   UNL     1     -10.433   9.883  69.748  1.00  0.00    -0.292 A  
HETATM   18  C   UNL     1      -9.092   3.480  71.095  1.00  0.00    -0.177 A  
HETATM   19  C   UNL     1      -8.560   4.751  71.334  1.00  0.00    -0.125 A  
HETATM   20  C   UNL     1      -9.429   9.151  70.393  1.00  0.00    -0.269 A  
HETATM   21  C   UNL     1      -8.407   5.645  70.277  1.00  0.00    -0.112 A  
HETATM   22  C   UNL     1      -8.905   8.020  69.774  1.00  0.00    -0.144 A  
ENDBRANCH   6   7
ENDBRANCH   5   6
ENDBRANCH   4   5
ENDBRANCH   2   4
TORSDOF 4
ENDMDL
MODEL      186
REMARK 921   NORMALIZED FREE ENERGY PREDICTED BY IDOCK:   -1.94 KCAL/MOL
REMARK 922        TOTAL FREE ENERGY PREDICTED BY IDOCK:   -2.98 KCAL/MOL
REMARK 923 INTER-LIGAND FREE ENERGY PREDICTED BY IDOCK:   -2.79 KCAL/MOL
REMARK 924 INTRA-LIGAND FREE ENERGY PREDICTED BY IDOCK:   -0.19 KCAL/MOL
REMARK 927      BINDING AFFINITY PREDICTED BY RF-SCORE:    0.00 PKD
ROOT
HETATM    1  C   UNL     1     -12.720   8.587  72.197  1.00  0.00    -0.373 C  
HETATM    2  N   UNL     1     -12.709   8.330  70.765  1.00  0.00    -0.454 NA 
HETATM    3  H   UNL     1     -11.940   8.815  70.303  1.00  0.00     0.000 HD 
ENDROOT
BRANCH   2   4
HETATM    4  C   UNL     1     -12.684   6.894  70.481  1.00  0.00     0.191 C  
BRANCH   4   5
HETATM    5  C   UNL     1     -11.895   6.651  69.189  1.00  0.00     0.329 C  
BRANCH   5   6
HETATM    6  C   UNL     1     -10.562   5.935  69.469  1.00  0.00    -0.378 C  
BRANCH   6   7
HETATM    7  C   UNL     1      -9.451   6.796  70.130  1.00  0.00    -0.159 C  
HETATM    8  C   UNL     1      -9.639   8.316  69.770  1.00  0.00    -0.171 C  
HETATM    9  C   UNL     1      -8.513   9.197  70.386  1.00  0.00    -0.222 C  
HETATM   10  C   UNL     1      -7.538   8.317  71.191  1.00  0.00    -0.082 C  
HETATM   11  C   UNL     1      -7.008   7.277  70.206  1.00  0.00    -0.060 A  
HETATM   12  C   UNL     1      -8.380   7.585  72.229  1.00  0.00    -0.123 A  
HETATM   13  C   UNL     1      -5.667   7.110  69.881  1.00  0.00    -0.023 A  
HETATM   14  C   UNL     1      -8.195   7.685  73.605  1.00  0.00    -0.218 A  
HETATM   15  C   UNL     1      -9.008   6.931  74.449  1.00  0.00    -0.232 A  
HETATM   16  C   UNL     1      -5.319   6.118  68.967  1.00  0.00    -0.004 A  
HETATM   17  C   UNL     1      -6.303   5.307  68.388  1.00  0.00    -0.035 A  
HETATM   18  C   UNL     1      -9.971   6.066  73.917  1.00  0.00    -0.224 A  
HETATM   19  C   UNL     1     -10.145   5.952  72.534  1.00  0.00    -0.204 A  
HETATM   20  C   UNL     1      -7.654   5.471  68.717  1.00  0.00    -0.083 A  
HETATM   21  C   UNL     1      -9.382   6.740  71.676  1.00  0.00    -0.151 A  
HETATM   22  C   UNL     1      -8.019   6.461  69.625  1.00  0.00    -0.116 A  
ENDBRANCH   6   7
ENDBRANCH   5   6
ENDBRANCH   4   5
ENDBRANCH   2   4
TORSDOF 4
ENDMDL
MODEL      187
REMARK 921   NORMALIZED FREE ENERGY PREDICTED BY IDOCK:   -1.94 KCAL/MOL
REMARK 922        TOTAL FREE ENERGY PREDICTED BY IDOCK:   -2.98 KCAL/MOL
REMARK 923 INTER-LIGAND FREE ENERGY PREDICTED BY IDOCK:   -3.18 KCAL/MOL
REMARK 924 INTRA-LIGAND FREE ENERGY PREDICTED BY IDOCK:    0.20 KCAL/MOL
REMARK 927      BINDING AFFINITY PREDICTED BY RF-SCORE:    0.00 PKD
ROOT
HETATM    1  C   UNL     1     -10.789   9.915  68.932  1.00  0.00    -0.210 C  
HETATM    2  N   UNL     1     -10.642   9.811  67.488  1.00  0.00    -0.263 NA 
HETATM    3  H   UNL     1     -11.492  10.101  67.003  1.00  0.00     0.000 HD 
ENDROOT
BRANCH   2   4
HETATM    4  C   UNL     1      -9.474  10.555  67.014  1.00  0.00    -0.163 C  
BRANCH   4   5
HETATM    5  C   UNL     1      -8.925  11.410  68.162  1.00  0.00    -0.169 C  
BRANCH   5   6
HETATM    6  C   UNL     1      -8.308  12.722  67.644  1.00  0.00    -0.175 C  
BRANCH   6   7
HETATM    7  C   UNL     1      -9.311  13.849  67.279  1.00  0.00    -0.231 C  
HETATM    8  C   UNL     1     -10.192  13.432  66.044  1.00  0.00    -0.301 C  
HETATM    9  C   UNL     1     -11.178  14.564  65.632  1.00  0.00    -0.335 C  
HETATM   10  C   UNL     1     -11.015  15.773  66.572  1.00  0.00    -0.165 C  
HETATM   11  C   UNL     1      -9.549  16.190  66.459  1.00  0.00    -0.285 A  
HETATM   12  C   UNL     1     -11.240  15.249  67.985  1.00  0.00    -0.330 A  
HETATM   13  C   UNL     1      -9.115  17.443  66.041  1.00  0.00    -0.086 A  
HETATM   14  C   UNL     1     -12.233  15.708  68.845  1.00  0.00    -0.043 A  
HETATM   15  C   UNL     1     -12.308  15.174  70.130  1.00  0.00    -0.385 A  
HETATM   16  C   UNL     1      -7.747  17.693  65.986  1.00  0.00    -0.228 A  
HETATM   17  C   UNL     1      -6.827  16.700  66.347  1.00  0.00    -0.004 A  
HETATM   18  C   UNL     1     -11.380  14.217  70.555  1.00  0.00    -0.056 A  
HETATM   19  C   UNL     1     -10.370  13.770  69.697  1.00  0.00     0.487 A  
HETATM   20  C   UNL     1      -7.262  15.439  66.772  1.00  0.00     0.313 A  
HETATM   21  C   UNL     1     -10.314  14.248  68.390  1.00  0.00    -0.247 A  
HETATM   22  C   UNL     1      -8.627  15.171  66.827  1.00  0.00    -0.297 A  
ENDBRANCH   6   7
ENDBRANCH   5   6
ENDBRANCH   4   5
ENDBRANCH   2   4
TORSDOF 4
ENDMDL
MODEL      188
REMARK 921   NORMALIZED FREE ENERGY PREDICTED BY IDOCK:   -1.90 KCAL/MOL
REMARK 922        TOTAL FREE ENERGY PREDICTED BY IDOCK:   -2.93 KCAL/MOL
REMARK 923 INTER-LIGAND FREE ENERGY PREDICTED BY IDOCK:   -3.08 KCAL/MOL
REMARK 924 INTRA-LIGAND FREE ENERGY PREDICTED BY IDOCK:    0.16 KCAL/MOL
REMARK 927      BINDING AFFINITY PREDICTED BY RF-SCORE:    0.00 PKD
ROOT
HETATM    1  C   UNL     1      -9.882   4.857  65.754  1.00  0.00    -0.168 C  
HETATM    2  N   UNL     1      -9.875   4.605  67.188  1.00  0.00    -0.195 NA 
HETATM    3  H   UNL     1      -9.729   3.617  67.393  1.00  0.00     0.000 HD 
ENDROOT
BRANCH   2   4
HETATM    4  C   UNL     1      -8.893   5.446  67.874  1.00  0.00    -0.105 C  
BRANCH   4   5
HETATM    5  C   UNL     1      -9.481   6.848  68.069  1.00  0.00    -0.124 C  
BRANCH   5   6
HETATM    6  C   UNL     1      -8.640   7.680  69.054  1.00  0.00    -0.136 C  
BRANCH   6   7
HETATM    7  C   UNL     1      -8.316   9.133  68.613  1.00  0.00    -0.126 C  
HETATM    8  C   UNL     1      -7.283   9.796  69.598  1.00  0.00    -0.097 C  
HETATM    9  C   UNL     1      -6.973  11.269  69.202  1.00  0.00    -0.114 C  
HETATM   10  C   UNL     1      -7.765  11.652  67.938  1.00  0.00    -0.126 C  
HETATM   11  C   UNL     1      -9.235  11.426  68.285  1.00  0.00    -0.183 A  
HETATM   12  C   UNL     1      -7.380  10.637  66.869  1.00  0.00    -0.114 A  
HETATM   13  C   UNL     1     -10.214  12.412  68.253  1.00  0.00    -0.230 A  
HETATM   14  C   UNL     1      -6.792  10.962  65.650  1.00  0.00     0.054 A  
HETATM   15  C   UNL     1      -6.526   9.942  64.739  1.00  0.00    -0.120 A  
HETATM   16  C   UNL     1     -11.521  12.069  68.592  1.00  0.00    -0.350 A  
HETATM   17  C   UNL     1     -11.839  10.755  68.956  1.00  0.00    -0.325 A  
HETATM   18  C   UNL     1      -6.873   8.619  65.035  1.00  0.00    -0.072 A  
HETATM   19  C   UNL     1      -7.481   8.295  66.252  1.00  0.00    -0.079 A  
HETATM   20  C   UNL     1     -10.855   9.759  68.985  1.00  0.00    -0.223 A  
HETATM   21  C   UNL     1      -7.702   9.291  67.199  1.00  0.00    -0.095 A  
HETATM   22  C   UNL     1      -9.544  10.087  68.654  1.00  0.00    -0.158 A  
ENDBRANCH   6   7
ENDBRANCH   5   6
ENDBRANCH   4   5
ENDBRANCH   2   4
TORSDOF 4
ENDMDL
MODEL      189
REMARK 921   NORMALIZED FREE ENERGY PREDICTED BY IDOCK:   -1.84 KCAL/MOL
REMARK 922        TOTAL FREE ENERGY PREDICTED BY IDOCK:   -2.86 KCAL/MOL
REMARK 923 INTER-LIGAND FREE ENERGY PREDICTED BY IDOCK:   -3.30 KCAL/MOL
REMARK 924 INTRA-LIGAND FREE ENERGY PREDICTED BY IDOCK:    0.44 KCAL/MOL
REMARK 927      BINDING AFFINITY PREDICTED BY RF-SCORE:    0.00 PKD
ROOT
HETATM    1  C   UNL     1     -10.620   6.325  73.982  1.00  0.00    -0.172 C  
HETATM    2  N   UNL     1      -9.905   7.566  73.721  1.00  0.00    -0.348 NA 
HETATM    3  H   UNL     1     -10.141   8.284  74.406  1.00  0.00     0.000 HD 
ENDROOT
BRANCH   2   4
HETATM    4  C   UNL     1      -8.460   7.345  73.652  1.00  0.00    -0.161 C  
BRANCH   4   5
HETATM    5  C   UNL     1      -7.983   7.593  72.216  1.00  0.00    -0.123 C  
BRANCH   5   6
HETATM    6  C   UNL     1      -7.110   6.433  71.703  1.00  0.00    -0.081 C  
BRANCH   6   7
HETATM    7  C   UNL     1      -7.811   5.420  70.758  1.00  0.00    -0.095 C  
HETATM    8  C   UNL     1      -6.793   4.851  69.701  1.00  0.00    -0.052 C  
HETATM    9  C   UNL     1      -7.482   3.864  68.713  1.00  0.00    -0.054 C  
HETATM   10  C   UNL     1      -8.973   3.717  69.068  1.00  0.00    -0.179 C  
HETATM   11  C   UNL     1      -9.555   5.128  69.002  1.00  0.00    -0.204 A  
HETATM   12  C   UNL     1      -9.023   3.263  70.522  1.00  0.00    -0.164 A  
HETATM   13  C   UNL     1     -10.593   5.514  68.163  1.00  0.00    -0.207 A  
HETATM   14  C   UNL     1      -9.608   2.077  70.956  1.00  0.00    -0.196 A  
HETATM   15  C   UNL     1      -9.624   1.796  72.322  1.00  0.00    -0.165 A  
HETATM   16  C   UNL     1     -11.032   6.835  68.205  1.00  0.00    -0.277 A  
HETATM   17  C   UNL     1     -10.436   7.755  69.079  1.00  0.00    -0.215 A  
HETATM   18  C   UNL     1      -9.088   2.707  73.239  1.00  0.00    -0.094 A  
HETATM   19  C   UNL     1      -8.517   3.908  72.804  1.00  0.00    -0.099 A  
HETATM   20  C   UNL     1      -9.394   7.366  69.928  1.00  0.00    -0.154 A  
HETATM   21  C   UNL     1      -8.439   4.180  71.440  1.00  0.00    -0.111 A  
HETATM   22  C   UNL     1      -8.941   6.051  69.894  1.00  0.00    -0.144 A  
ENDBRANCH   6   7
ENDBRANCH   5   6
ENDBRANCH   4   5
ENDBRANCH   2   4
TORSDOF 4
ENDMDL
MODEL      190
REMARK 921   NORMALIZED FREE ENERGY PREDICTED BY IDOCK:   -1.79 KCAL/MOL
REMARK 922        TOTAL FREE ENERGY PREDICTED BY IDOCK:   -2.79 KCAL/MOL
REMARK 923 INTER-LIGAND FREE ENERGY PREDICTED BY IDOCK:   -3.56 KCAL/MOL
REMARK 924 INTRA-LIGAND FREE ENERGY PREDICTED BY IDOCK:    0.76 KCAL/MOL
REMARK 927      BINDING AFFINITY PREDICTED BY RF-SCORE:    0.00 PKD
ROOT
HETATM    1  C   UNL     1     -10.388  10.122  66.015  1.00  0.00    -0.164 C  
HETATM    2  N   UNL     1      -9.813   9.786  67.309  1.00  0.00    -0.172 NA 
HETATM    3  H   UNL     1      -9.293  10.570  67.702  1.00  0.00     0.000 HD 
ENDROOT
BRANCH   2   4
HETATM    4  C   UNL     1     -10.835   9.302  68.238  1.00  0.00    -0.080 C  
BRANCH   4   5
HETATM    5  C   UNL     1     -10.638   9.979  69.599  1.00  0.00    -0.278 C  
BRANCH   5   6
HETATM    6  C   UNL     1     -10.974   9.024  70.759  1.00  0.00    -0.315 C  
BRANCH   6   7
HETATM    7  C   UNL     1      -9.775   8.256  71.377  1.00  0.00    -0.237 C  
HETATM    8  C   UNL     1      -9.859   8.267  72.949  1.00  0.00    -0.303 C  
HETATM    9  C   UNL     1      -8.644   7.539  73.596  1.00  0.00    -0.242 C  
HETATM   10  C   UNL     1      -7.708   7.000  72.498  1.00  0.00    -0.093 C  
HETATM   11  C   UNL     1      -7.300   8.215  71.667  1.00  0.00    -0.088 A  
HETATM   12  C   UNL     1      -8.562   6.099  71.613  1.00  0.00    -0.134 A  
HETATM   13  C   UNL     1      -5.990   8.644  71.487  1.00  0.00    -0.050 A  
HETATM   14  C   UNL     1      -8.313   4.747  71.395  1.00  0.00    -0.108 A  
HETATM   15  C   UNL     1      -9.148   4.043  70.528  1.00  0.00    -0.182 A  
HETATM   16  C   UNL     1      -5.757   9.769  70.700  1.00  0.00    -0.066 A  
HETATM   17  C   UNL     1      -6.824  10.454  70.103  1.00  0.00    -0.155 A  
HETATM   18  C   UNL     1     -10.195   4.694  69.868  1.00  0.00    -0.156 A  
HETATM   19  C   UNL     1     -10.433   6.057  70.072  1.00  0.00    -0.313 A  
HETATM   20  C   UNL     1      -8.143  10.021  70.280  1.00  0.00    -0.010 A  
HETATM   21  C   UNL     1      -9.647   6.765  70.978  1.00  0.00    -0.175 A  
HETATM   22  C   UNL     1      -8.393   8.901  71.068  1.00  0.00    -0.233 A  
ENDBRANCH   6   7
ENDBRANCH   5   6
ENDBRANCH   4   5
ENDBRANCH   2   4
TORSDOF 4
ENDMDL
MODEL      191
REMARK 921   NORMALIZED FREE ENERGY PREDICTED BY IDOCK:   -1.75 KCAL/MOL
REMARK 922        TOTAL FREE ENERGY PREDICTED BY IDOCK:   -2.75 KCAL/MOL
REMARK 923 INTER-LIGAND FREE ENERGY PREDICTED BY IDOCK:   -3.31 KCAL/MOL
REMARK 924 INTRA-LIGAND FREE ENERGY PREDICTED BY IDOCK:    0.56 KCAL/MOL
REMARK 927      BINDING AFFINITY PREDICTED BY RF-SCORE:    0.00 PKD
ROOT
HETATM    1  C   UNL     1     -10.460   8.596  67.797  1.00  0.00    -0.224 C  
HETATM    2  N   UNL     1      -9.410   7.928  67.041  1.00  0.00    -0.151 NA 
HETATM    3  H   UNL     1      -9.072   8.511  66.276  1.00  0.00     0.000 HD 
ENDROOT
BRANCH   2   4
HETATM    4  C   UNL     1      -8.315   7.499  67.913  1.00  0.00    -0.123 C  
BRANCH   4   5
HETATM    5  C   UNL     1      -7.852   6.102  67.486  1.00  0.00    -0.102 C  
BRANCH   5   6
HETATM    6  C   UNL     1      -8.959   5.052  67.695  1.00  0.00    -0.115 C  
BRANCH   6   7
HETATM    7  C   UNL     1      -8.954   4.321  69.065  1.00  0.00    -0.157 C  
HETATM    8  C   UNL     1      -9.499   2.853  68.913  1.00  0.00    -0.174 C  
HETATM    9  C   UNL     1      -9.545   2.111  70.281  1.00  0.00    -0.089 C  
HETATM   10  C   UNL     1      -9.024   3.035  71.398  1.00  0.00    -0.156 C  
HETATM   11  C   UNL     1      -9.918   4.274  71.362  1.00  0.00    -0.238 A  
HETATM   12  C   UNL     1      -7.622   3.463  70.980  1.00  0.00    -0.043 A  
HETATM   13  C   UNL     1     -10.695   4.717  72.426  1.00  0.00    -0.216 A  
HETATM   14  C   UNL     1      -6.470   3.217  71.721  1.00  0.00    -0.015 A  
HETATM   15  C   UNL     1      -5.251   3.698  71.247  1.00  0.00     0.000 A  
HETATM   16  C   UNL     1     -11.464   5.866  72.259  1.00  0.00    -0.351 A  
HETATM   17  C   UNL     1     -11.452   6.560  71.042  1.00  0.00    -0.392 A  
HETATM   18  C   UNL     1      -5.195   4.442  70.063  1.00  0.00    -0.004 A  
HETATM   19  C   UNL     1      -6.355   4.705  69.328  1.00  0.00    -0.031 A  
HETATM   20  C   UNL     1     -10.667   6.117  69.971  1.00  0.00    -0.370 A  
HETATM   21  C   UNL     1      -7.574   4.183  69.754  1.00  0.00    -0.053 A  
HETATM   22  C   UNL     1      -9.897   4.968  70.120  1.00  0.00    -0.303 A  
ENDBRANCH   6   7
ENDBRANCH   5   6
ENDBRANCH   4   5
ENDBRANCH   2   4
TORSDOF 4
ENDMDL
MODEL      192
REMARK 921   NORMALIZED FREE ENERGY PREDICTED BY IDOCK:   -1.72 KCAL/MOL
REMARK 922        TOTAL FREE ENERGY PREDICTED BY IDOCK:   -2.70 KCAL/MOL
REMARK 923 INTER-LIGAND FREE ENERGY PREDICTED BY IDOCK:   -3.18 KCAL/MOL
REMARK 924 INTRA-LIGAND FREE ENERGY PREDICTED BY IDOCK:    0.47 KCAL/MOL
REMARK 927      BINDING AFFINITY PREDICTED BY RF-SCORE:    0.00 PKD
ROOT
HETATM    1  C   UNL     1      -8.206   5.686  66.228  1.00  0.00    -0.108 C  
HETATM    2  N   UNL     1      -8.459   5.719  64.795  1.00  0.00    -0.251 NA 
HETATM    3  H   UNL     1      -9.427   5.971  64.592  1.00  0.00     0.000 HD 
ENDROOT
BRANCH   2   4
HETATM    4  C   UNL     1      -7.519   6.605  64.107  1.00  0.00    -0.097 C  
BRANCH   4   5
HETATM    5  C   UNL     1      -7.930   8.061  64.353  1.00  0.00    -0.145 C  
BRANCH   5   6
HETATM    6  C   UNL     1      -6.767   8.885  64.936  1.00  0.00    -0.069 C  
BRANCH   6   7
HETATM    7  C   UNL     1      -7.164  10.042  65.892  1.00  0.00    -0.115 C  
HETATM    8  C   UNL     1      -5.987  11.077  66.030  1.00  0.00    -0.109 C  
HETATM    9  C   UNL     1      -6.344  12.227  67.017  1.00  0.00    -0.054 C  
HETATM   10  C   UNL     1      -7.768  12.025  67.568  1.00  0.00    -0.155 C  
HETATM   11  C   UNL     1      -7.764  10.650  68.233  1.00  0.00    -0.107 A  
HETATM   12  C   UNL     1      -8.688  11.950  66.355  1.00  0.00    -0.118 A  
HETATM   13  C   UNL     1      -8.051  10.421  69.573  1.00  0.00    -0.145 A  
HETATM   14  C   UNL     1      -9.747  12.822  66.116  1.00  0.00    -0.246 A  
HETATM   15  C   UNL     1     -10.541  12.621  64.988  1.00  0.00    -0.329 A  
HETATM   16  C   UNL     1      -8.015   9.113  70.052  1.00  0.00    -0.113 A  
HETATM   17  C   UNL     1      -7.695   8.052  69.196  1.00  0.00    -0.099 A  
HETATM   18  C   UNL     1     -10.294  11.543  64.130  1.00  0.00    -0.386 A  
HETATM   19  C   UNL     1      -9.241  10.657  64.381  1.00  0.00    -0.267 A  
HETATM   20  C   UNL     1      -7.409   8.280  67.844  1.00  0.00    -0.096 A  
HETATM   21  C   UNL     1      -8.401  10.874  65.470  1.00  0.00    -0.079 A  
HETATM   22  C   UNL     1      -7.437   9.581  67.352  1.00  0.00    -0.091 A  
ENDBRANCH   6   7
ENDBRANCH   5   6
ENDBRANCH   4   5
ENDBRANCH   2   4
TORSDOF 4
ENDMDL
MODEL      193
REMARK 921   NORMALIZED FREE ENERGY PREDICTED BY IDOCK:   -1.69 KCAL/MOL
REMARK 922        TOTAL FREE ENERGY PREDICTED BY IDOCK:   -2.67 KCAL/MOL
REMARK 923 INTER-LIGAND FREE ENERGY PREDICTED BY IDOCK:   -2.37 KCAL/MOL
REMARK 924 INTRA-LIGAND FREE ENERGY PREDICTED BY IDOCK:   -0.29 KCAL/MOL
REMARK 927      BINDING AFFINITY PREDICTED BY RF-SCORE:    0.00 PKD
ROOT
HETATM    1  C   UNL     1      -5.876   9.000  74.401  1.00  0.00    -0.107 C  
HETATM    2  N   UNL     1      -7.312   8.761  74.410  1.00  0.00    -0.416 NA 
HETATM    3  H   UNL     1      -7.832   9.615  74.609  1.00  0.00     0.000 HD 
ENDROOT
BRANCH   2   4
HETATM    4  C   UNL     1      -7.758   8.141  73.162  1.00  0.00    -0.153 C  
BRANCH   4   5
HETATM    5  C   UNL     1      -7.735   9.190  72.044  1.00  0.00     0.387 C  
BRANCH   5   6
HETATM    6  C   UNL     1      -7.650   8.532  70.655  1.00  0.00    -0.076 C  
BRANCH   6   7
HETATM    7  C   UNL     1      -8.965   8.512  69.829  1.00  0.00    -0.145 C  
HETATM    8  C   UNL     1     -10.208   8.293  70.769  1.00  0.00    -0.219 C  
HETATM    9  C   UNL     1     -11.537   8.227  69.961  1.00  0.00     0.194 C  
HETATM   10  C   UNL     1     -11.249   8.412  68.459  1.00  0.00     0.520 C  
HETATM   11  C   UNL     1     -10.269   7.301  68.085  1.00  0.00    -0.222 A  
HETATM   12  C   UNL     1     -10.515   9.741  68.325  1.00  0.00    -0.255 A  
HETATM   13  C   UNL     1     -10.511   6.326  67.125  1.00  0.00    -0.327 A  
HETATM   14  C   UNL     1     -10.971  10.818  67.570  1.00  0.00    -0.372 A  
HETATM   15  C   UNL     1     -10.185  11.967  67.496  1.00  0.00    -0.212 A  
HETATM   16  C   UNL     1      -9.528   5.370  66.879  1.00  0.00    -0.138 A  
HETATM   17  C   UNL     1      -8.320   5.394  67.588  1.00  0.00    -0.099 A  
HETATM   18  C   UNL     1      -8.946  12.020  68.144  1.00  0.00    -0.190 A  
HETATM   19  C   UNL     1      -8.480  10.930  68.886  1.00  0.00    -0.142 A  
HETATM   20  C   UNL     1      -8.073   6.378  68.553  1.00  0.00    -0.110 A  
HETATM   21  C   UNL     1      -9.277   9.796  69.021  1.00  0.00    -0.165 A  
HETATM   22  C   UNL     1      -9.047   7.337  68.814  1.00  0.00    -0.127 A  
ENDBRANCH   6   7
ENDBRANCH   5   6
ENDBRANCH   4   5
ENDBRANCH   2   4
TORSDOF 4
ENDMDL
MODEL      194
REMARK 921   NORMALIZED FREE ENERGY PREDICTED BY IDOCK:   -1.67 KCAL/MOL
REMARK 922        TOTAL FREE ENERGY PREDICTED BY IDOCK:   -2.65 KCAL/MOL
REMARK 923 INTER-LIGAND FREE ENERGY PREDICTED BY IDOCK:   -2.23 KCAL/MOL
REMARK 924 INTRA-LIGAND FREE ENERGY PREDICTED BY IDOCK:   -0.42 KCAL/MOL
REMARK 927      BINDING AFFINITY PREDICTED BY RF-SCORE:    0.00 PKD
ROOT
HETATM    1  C   UNL     1      -9.531   1.904  70.946  1.00  0.00    -0.129 C  
HETATM    2  N   UNL     1      -8.764   2.585  69.913  1.00  0.00    -0.060 NA 
HETATM    3  H   UNL     1      -8.291   1.921  69.300  1.00  0.00     0.000 HD 
ENDROOT
BRANCH   2   4
HETATM    4  C   UNL     1      -9.601   3.515  69.152  1.00  0.00    -0.079 C  
BRANCH   4   5
HETATM    5  C   UNL     1      -9.471   4.917  69.757  1.00  0.00    -0.223 C  
BRANCH   5   6
HETATM    6  C   UNL     1      -8.359   5.728  69.069  1.00  0.00    -0.101 C  
BRANCH   6   7
HETATM    7  C   UNL     1      -8.130   7.165  69.609  1.00  0.00    -0.129 C  
HETATM    8  C   UNL     1      -9.452   7.738  70.242  1.00  0.00    -0.160 C  
HETATM    9  C   UNL     1      -9.260   9.196  70.754  1.00  0.00    -0.321 C  
HETATM   10  C   UNL     1      -7.811   9.656  70.504  1.00  0.00    -0.150 C  
HETATM   11  C   UNL     1      -7.588   9.520  68.999  1.00  0.00    -0.075 A  
HETATM   12  C   UNL     1      -6.914   8.639  71.200  1.00  0.00    -0.078 A  
HETATM   13  C   UNL     1      -7.243  10.568  68.154  1.00  0.00    -0.087 A  
HETATM   14  C   UNL     1      -6.010   8.950  72.211  1.00  0.00    -0.066 A  
HETATM   15  C   UNL     1      -5.216   7.933  72.738  1.00  0.00    -0.036 A  
HETATM   16  C   UNL     1      -7.065  10.305  66.798  1.00  0.00    -0.094 A  
HETATM   17  C   UNL     1      -7.231   9.007  66.298  1.00  0.00    -0.090 A  
HETATM   18  C   UNL     1      -5.308   6.630  72.236  1.00  0.00    -0.036 A  
HETATM   19  C   UNL     1      -6.204   6.322  71.207  1.00  0.00    -0.044 A  
HETATM   20  C   UNL     1      -7.575   7.949  67.148  1.00  0.00    -0.100 A  
HETATM   21  C   UNL     1      -7.046   7.311  70.707  1.00  0.00    -0.065 A  
HETATM   22  C   UNL     1      -7.760   8.196  68.505  1.00  0.00    -0.112 A  
ENDBRANCH   6   7
ENDBRANCH   5   6
ENDBRANCH   4   5
ENDBRANCH   2   4
TORSDOF 4
ENDMDL
MODEL      195
REMARK 921   NORMALIZED FREE ENERGY PREDICTED BY IDOCK:   -1.65 KCAL/MOL
REMARK 922        TOTAL FREE ENERGY PREDICTED BY IDOCK:   -2.63 KCAL/MOL
REMARK 923 INTER-LIGAND FREE ENERGY PREDICTED BY IDOCK:   -3.23 KCAL/MOL
REMARK 924 INTRA-LIGAND FREE ENERGY PREDICTED BY IDOCK:    0.61 KCAL/MOL
REMARK 927      BINDING AFFINITY PREDICTED BY RF-SCORE:    0.00 PKD
ROOT
HETATM    1  C   UNL     1      -5.771   8.993  74.473  1.00  0.00    -0.127 C  
HETATM    2  N   UNL     1      -7.204   8.735  74.436  1.00  0.00    -0.401 NA 
HETATM    3  H   UNL     1      -7.741   9.601  74.487  1.00  0.00     0.000 HD 
ENDROOT
BRANCH   2   4
HETATM    4  C   UNL     1      -7.574   7.943  73.262  1.00  0.00    -0.131 C  
BRANCH   4   5
HETATM    5  C   UNL     1      -7.415   8.806  72.005  1.00  0.00    -0.022 C  
BRANCH   5   6
HETATM    6  C   UNL     1      -7.289   7.939  70.739  1.00  0.00    -0.061 C  
BRANCH   6   7
HETATM    7  C   UNL     1      -8.534   7.900  69.813  1.00  0.00    -0.132 C  
HETATM    8  C   UNL     1      -8.887   9.343  69.295  1.00  0.00    -0.150 C  
HETATM    9  C   UNL     1     -10.160   9.338  68.398  1.00  0.00    -0.215 C  
HETATM   10  C   UNL     1     -10.702   7.903  68.263  1.00  0.00    -0.088 C  
HETATM   11  C   UNL     1     -10.978   7.428  69.688  1.00  0.00    -0.186 A  
HETATM   12  C   UNL     1      -9.558   7.063  67.708  1.00  0.00    -0.138 A  
HETATM   13  C   UNL     1     -12.221   7.023  70.159  1.00  0.00     0.045 A  
HETATM   14  C   UNL     1      -9.608   6.358  66.509  1.00  0.00    -0.185 A  
HETATM   15  C   UNL     1      -8.505   5.593  66.132  1.00  0.00    -0.128 A  
HETATM   16  C   UNL     1     -12.334   6.610  71.484  1.00  0.00    -0.365 A  
HETATM   17  C   UNL     1     -11.213   6.603  72.324  1.00  0.00    -0.303 A  
HETATM   18  C   UNL     1      -7.382   5.513  66.963  1.00  0.00    -0.080 A  
HETATM   19  C   UNL     1      -7.339   6.206  68.177  1.00  0.00    -0.085 A  
HETATM   20  C   UNL     1      -9.959   7.007  71.851  1.00  0.00    -0.179 A  
HETATM   21  C   UNL     1      -8.407   7.022  68.543  1.00  0.00    -0.121 A  
HETATM   22  C   UNL     1      -9.831   7.427  70.531  1.00  0.00    -0.180 A  
ENDBRANCH   6   7
ENDBRANCH   5   6
ENDBRANCH   4   5
ENDBRANCH   2   4
TORSDOF 4
ENDMDL
MODEL      196
REMARK 921   NORMALIZED FREE ENERGY PREDICTED BY IDOCK:   -1.55 KCAL/MOL
REMARK 922        TOTAL FREE ENERGY PREDICTED BY IDOCK:   -2.50 KCAL/MOL
REMARK 923 INTER-LIGAND FREE ENERGY PREDICTED BY IDOCK:   -3.02 KCAL/MOL
REMARK 924 INTRA-LIGAND FREE ENERGY PREDICTED BY IDOCK:    0.52 KCAL/MOL
REMARK 927      BINDING AFFINITY PREDICTED BY RF-SCORE:    0.00 PKD
ROOT
HETATM    1  C   UNL     1      -7.524   7.905  74.548  1.00  0.00    -0.182 C  
HETATM    2  N   UNL     1      -8.643   7.833  73.621  1.00  0.00    -0.214 NA 
HETATM    3  H   UNL     1      -9.130   8.727  73.552  1.00  0.00     0.000 HD 
ENDROOT
BRANCH   2   4
HETATM    4  C   UNL     1      -8.217   7.352  72.305  1.00  0.00    -0.101 C  
BRANCH   4   5
HETATM    5  C   UNL     1      -9.337   7.609  71.290  1.00  0.00    -0.161 C  
BRANCH   5   6
HETATM    6  C   UNL     1      -8.881   8.570  70.178  1.00  0.00    -0.138 C  
BRANCH   6   7
HETATM    7  C   UNL     1      -8.235   7.909  68.930  1.00  0.00    -0.126 C  
HETATM    8  C   UNL     1      -6.665   7.966  69.022  1.00  0.00    -0.049 C  
HETATM    9  C   UNL     1      -5.991   7.347  67.762  1.00  0.00    -0.035 C  
HETATM   10  C   UNL     1      -7.069   6.839  66.785  1.00  0.00    -0.072 C  
HETATM   11  C   UNL     1      -7.938   8.053  66.460  1.00  0.00    -0.102 A  
HETATM   12  C   UNL     1      -7.925   5.852  67.569  1.00  0.00    -0.102 A  
HETATM   13  C   UNL     1      -8.130   8.567  65.183  1.00  0.00    -0.142 A  
HETATM   14  C   UNL     1      -8.098   4.515  67.226  1.00  0.00    -0.101 A  
HETATM   15  C   UNL     1      -8.942   3.725  68.004  1.00  0.00    -0.161 A  
HETATM   16  C   UNL     1      -8.953   9.679  65.026  1.00  0.00    -0.255 A  
HETATM   17  C   UNL     1      -9.575  10.266  66.136  1.00  0.00    -0.248 A  
HETATM   18  C   UNL     1      -9.626   4.278  69.092  1.00  0.00    -0.249 A  
HETATM   19  C   UNL     1      -9.467   5.627  69.426  1.00  0.00    -0.169 A  
HETATM   20  C   UNL     1      -9.386   9.748  67.422  1.00  0.00    -0.155 A  
HETATM   21  C   UNL     1      -8.583   6.418  68.696  1.00  0.00    -0.123 A  
HETATM   22  C   UNL     1      -8.563   8.639  67.596  1.00  0.00    -0.136 A  
ENDBRANCH   6   7
ENDBRANCH   5   6
ENDBRANCH   4   5
ENDBRANCH   2   4
TORSDOF 4
ENDMDL
MODEL      197
REMARK 921   NORMALIZED FREE ENERGY PREDICTED BY IDOCK:   -1.43 KCAL/MOL
REMARK 922        TOTAL FREE ENERGY PREDICTED BY IDOCK:   -2.35 KCAL/MOL
REMARK 923 INTER-LIGAND FREE ENERGY PREDICTED BY IDOCK:   -2.87 KCAL/MOL
REMARK 924 INTRA-LIGAND FREE ENERGY PREDICTED BY IDOCK:    0.52 KCAL/MOL
REMARK 927      BINDING AFFINITY PREDICTED BY RF-SCORE:    0.00 PKD
ROOT
HETATM    1  C   UNL     1      -5.741   9.061  74.512  1.00  0.00    -0.127 C  
HETATM    2  N   UNL     1      -7.154   8.820  74.256  1.00  0.00    -0.387 NA 
HETATM    3  H   UNL     1      -7.707   9.667  74.383  1.00  0.00     0.000 HD 
ENDROOT
BRANCH   2   4
HETATM    4  C   UNL     1      -7.365   8.237  72.929  1.00  0.00    -0.104 C  
BRANCH   4   5
HETATM    5  C   UNL     1      -8.870   8.127  72.663  1.00  0.00    -0.285 C  
BRANCH   5   6
HETATM    6  C   UNL     1      -9.177   8.110  71.155  1.00  0.00    -0.185 C  
BRANCH   6   7
HETATM    7  C   UNL     1      -9.438   6.714  70.529  1.00  0.00    -0.171 C  
HETATM    8  C   UNL     1     -10.531   5.933  71.349  1.00  0.00    -0.291 C  
HETATM    9  C   UNL     1     -10.781   4.511  70.766  1.00  0.00     0.494 C  
HETATM   10  C   UNL     1      -9.887   4.283  69.532  1.00  0.00    -0.224 C  
HETATM   11  C   UNL     1      -8.452   4.483  70.018  1.00  0.00    -0.088 A  
HETATM   12  C   UNL     1     -10.208   5.410  68.558  1.00  0.00    -0.237 A  
HETATM   13  C   UNL     1      -7.455   3.517  69.952  1.00  0.00    -0.045 A  
HETATM   14  C   UNL     1     -10.693   5.219  67.267  1.00  0.00    -0.111 A  
HETATM   15  C   UNL     1     -10.908   6.334  66.459  1.00  0.00    -0.137 A  
HETATM   16  C   UNL     1      -6.185   3.833  70.429  1.00  0.00    -0.023 A  
HETATM   17  C   UNL     1      -5.921   5.101  70.963  1.00  0.00    -0.021 A  
HETATM   18  C   UNL     1     -10.610   7.618  66.929  1.00  0.00    -0.359 A  
HETATM   19  C   UNL     1     -10.104   7.808  68.219  1.00  0.00    -0.221 A  
HETATM   20  C   UNL     1      -6.923   6.076  71.027  1.00  0.00    -0.068 A  
HETATM   21  C   UNL     1      -9.938   6.712  69.062  1.00  0.00    -0.162 A  
HETATM   22  C   UNL     1      -8.198   5.775  70.559  1.00  0.00    -0.118 A  
ENDBRANCH   6   7
ENDBRANCH   5   6
ENDBRANCH   4   5
ENDBRANCH   2   4
TORSDOF 4
ENDMDL
MODEL      198
REMARK 921   NORMALIZED FREE ENERGY PREDICTED BY IDOCK:   -1.36 KCAL/MOL
REMARK 922        TOTAL FREE ENERGY PREDICTED BY IDOCK:   -2.27 KCAL/MOL
REMARK 923 INTER-LIGAND FREE ENERGY PREDICTED BY IDOCK:   -2.55 KCAL/MOL
REMARK 924 INTRA-LIGAND FREE ENERGY PREDICTED BY IDOCK:    0.29 KCAL/MOL
REMARK 927      BINDING AFFINITY PREDICTED BY RF-SCORE:    0.00 PKD
ROOT
HETATM    1  C   UNL     1     -10.920   9.747  68.341  1.00  0.00    -0.152 C  
HETATM    2  N   UNL     1     -11.402   9.631  66.972  1.00  0.00     0.019 NA 
HETATM    3  H   UNL     1     -12.421   9.604  66.935  1.00  0.00     0.000 HD 
ENDROOT
BRANCH   2   4
HETATM    4  C   UNL     1     -10.864  10.697  66.125  1.00  0.00     0.001 C  
BRANCH   4   5
HETATM    5  C   UNL     1      -9.884  11.544  66.945  1.00  0.00    -0.220 C  
BRANCH   5   6
HETATM    6  C   UNL     1     -10.127  13.050  66.734  1.00  0.00    -0.247 C  
BRANCH   6   7
HETATM    7  C   UNL     1      -9.481  13.997  67.781  1.00  0.00    -0.209 C  
HETATM    8  C   UNL     1     -10.434  14.188  69.019  1.00  0.00    -0.193 C  
HETATM    9  C   UNL     1      -9.828  15.168  70.066  1.00  0.00     0.003 C  
HETATM   10  C   UNL     1      -8.449  15.662  69.588  1.00  0.00    -0.076 C  
HETATM   11  C   UNL     1      -8.692  16.318  68.230  1.00  0.00    -0.190 A  
HETATM   12  C   UNL     1      -7.605  14.414  69.357  1.00  0.00     0.015 A  
HETATM   13  C   UNL     1      -8.405  17.644  67.932  1.00  0.00    -0.235 A  
HETATM   14  C   UNL     1      -6.408  14.141  70.013  1.00  0.00    -0.135 A  
HETATM   15  C   UNL     1      -5.709  12.982  69.681  1.00  0.00    -0.103 A  
HETATM   16  C   UNL     1      -8.673  18.115  66.649  1.00  0.00    -0.279 A  
HETATM   17  C   UNL     1      -9.221  17.265  65.679  1.00  0.00     0.364 A  
HETATM   18  C   UNL     1      -6.189  12.127  68.682  1.00  0.00    -0.059 A  
HETATM   19  C   UNL     1      -7.382  12.412  68.009  1.00  0.00    -0.108 A  
HETATM   20  C   UNL     1      -9.507  15.927  65.977  1.00  0.00    -0.389 A  
HETATM   21  C   UNL     1      -8.124  13.534  68.368  1.00  0.00    -0.145 A  
HETATM   22  C   UNL     1      -9.249  15.443  67.256  1.00  0.00    -0.217 A  
ENDBRANCH   6   7
ENDBRANCH   5   6
ENDBRANCH   4   5
ENDBRANCH   2   4
TORSDOF 4
ENDMDL
MODEL      199
REMARK 921   NORMALIZED FREE ENERGY PREDICTED BY IDOCK:   -1.35 KCAL/MOL
REMARK 922        TOTAL FREE ENERGY PREDICTED BY IDOCK:   -2.25 KCAL/MOL
REMARK 923 INTER-LIGAND FREE ENERGY PREDICTED BY IDOCK:   -2.47 KCAL/MOL
REMARK 924 INTRA-LIGAND FREE ENERGY PREDICTED BY IDOCK:    0.22 KCAL/MOL
REMARK 927      BINDING AFFINITY PREDICTED BY RF-SCORE:    0.00 PKD
ROOT
HETATM    1  C   UNL     1      -5.881   9.163  74.048  1.00  0.00    -0.025 C  
HETATM    2  N   UNL     1      -7.190   8.603  73.748  1.00  0.00    -0.361 NA 
HETATM    3  H   UNL     1      -7.903   9.330  73.685  1.00  0.00     0.000 HD 
ENDROOT
BRANCH   2   4
HETATM    4  C   UNL     1      -7.155   7.783  72.536  1.00  0.00    -0.082 C  
BRANCH   4   5
HETATM    5  C   UNL     1      -8.337   6.807  72.556  1.00  0.00    -0.113 C  
BRANCH   5   6
HETATM    6  C   UNL     1      -9.118   6.840  71.229  1.00  0.00    -0.150 C  
BRANCH   6   7
HETATM    7  C   UNL     1      -8.577   5.924  70.098  1.00  0.00    -0.134 C  
HETATM    8  C   UNL     1      -7.185   6.444  69.579  1.00  0.00    -0.078 C  
HETATM    9  C   UNL     1      -6.640   5.566  68.415  1.00  0.00    -0.049 C  
HETATM   10  C   UNL     1      -7.625   4.421  68.113  1.00  0.00    -0.068 C  
HETATM   11  C   UNL     1      -8.954   5.095  67.779  1.00  0.00    -0.114 A  
HETATM   12  C   UNL     1      -7.808   3.659  69.421  1.00  0.00    -0.053 A  
HETATM   13  C   UNL     1      -9.630   4.951  66.572  1.00  0.00    -0.176 A  
HETATM   14  C   UNL     1      -7.511   2.310  69.593  1.00  0.00    -0.043 A  
HETATM   15  C   UNL     1      -7.762   1.720  70.831  1.00  0.00    -0.032 A  
HETATM   16  C   UNL     1     -10.838   5.621  66.399  1.00  0.00    -0.172 A  
HETATM   17  C   UNL     1     -11.361   6.423  67.422  1.00  0.00    -0.092 A  
HETATM   18  C   UNL     1      -8.332   2.466  71.869  1.00  0.00    -0.065 A  
HETATM   19  C   UNL     1      -8.647   3.817  71.689  1.00  0.00    -0.113 A  
HETATM   20  C   UNL     1     -10.684   6.565  68.639  1.00  0.00    -0.323 A  
HETATM   21  C   UNL     1      -8.350   4.439  70.479  1.00  0.00    -0.086 A  
HETATM   22  C   UNL     1      -9.472   5.906  68.826  1.00  0.00    -0.143 A  
ENDBRANCH   6   7
ENDBRANCH   5   6
ENDBRANCH   4   5
ENDBRANCH   2   4
TORSDOF 4
ENDMDL
MODEL      200
REMARK 921   NORMALIZED FREE ENERGY PREDICTED BY IDOCK:   -1.08 KCAL/MOL
REMARK 922        TOTAL FREE ENERGY PREDICTED BY IDOCK:   -1.92 KCAL/MOL
REMARK 923 INTER-LIGAND FREE ENERGY PREDICTED BY IDOCK:   -2.57 KCAL/MOL
REMARK 924 INTRA-LIGAND FREE ENERGY PREDICTED BY IDOCK:    0.65 KCAL/MOL
REMARK 927      BINDING AFFINITY PREDICTED BY RF-SCORE:    0.00 PKD
ROOT
HETATM    1  C   UNL     1      -8.220   4.071  70.941  1.00  0.00    -0.067 C  
HETATM    2  N   UNL     1      -8.500   5.063  69.913  1.00  0.00    -0.087 NA 
HETATM    3  H   UNL     1      -8.532   4.640  68.985  1.00  0.00     0.000 HD 
ENDROOT
BRANCH   2   4
HETATM    4  C   UNL     1      -9.726   5.806  70.207  1.00  0.00    -0.175 C  
BRANCH   4   5
HETATM    5  C   UNL     1      -9.477   7.299  69.968  1.00  0.00    -0.161 C  
BRANCH   5   6
HETATM    6  C   UNL     1     -10.321   7.831  68.795  1.00  0.00    -0.219 C  
BRANCH   6   7
HETATM    7  C   UNL     1      -9.538   8.207  67.508  1.00  0.00    -0.196 C  
HETATM    8  C   UNL     1     -10.455   9.015  66.516  1.00  0.00    -0.192 C  
HETATM    9  C   UNL     1      -9.706   9.369  65.198  1.00  0.00    -0.106 C  
HETATM   10  C   UNL     1      -8.263   8.832  65.253  1.00  0.00    -0.145 C  
HETATM   11  C   UNL     1      -8.389   7.327  65.480  1.00  0.00    -0.137 A  
HETATM   12  C   UNL     1      -7.629   9.438  66.500  1.00  0.00    -0.093 A  
HETATM   13  C   UNL     1      -7.891   6.355  64.621  1.00  0.00    -0.112 A  
HETATM   14  C   UNL     1      -6.495  10.246  66.492  1.00  0.00    -0.080 A  
HETATM   15  C   UNL     1      -5.990  10.705  67.707  1.00  0.00    -0.043 A  
HETATM   16  C   UNL     1      -8.073   5.014  64.950  1.00  0.00    -0.112 A  
HETATM   17  C   UNL     1      -8.744   4.655  66.126  1.00  0.00    -0.114 A  
HETATM   18  C   UNL     1      -6.594  10.331  68.913  1.00  0.00    -0.052 A  
HETATM   19  C   UNL     1      -7.722   9.503  68.921  1.00  0.00    -0.076 A  
HETATM   20  C   UNL     1      -9.243   5.633  66.995  1.00  0.00    -0.117 A  
HETATM   21  C   UNL     1      -8.277   9.083  67.715  1.00  0.00    -0.109 A  
HETATM   22  C   UNL     1      -9.074   6.977  66.678  1.00  0.00    -0.175 A  
ENDBRANCH   6   7
ENDBRANCH   5   6
ENDBRANCH   4   5
ENDBRANCH   2   4
TORSDOF 4
ENDMDL
MODEL      201
REMARK 921   NORMALIZED FREE ENERGY PREDICTED BY IDOCK:   -1.06 KCAL/MOL
REMARK 922        TOTAL FREE ENERGY PREDICTED BY IDOCK:   -1.89 KCAL/MOL
REMARK 923 INTER-LIGAND FREE ENERGY PREDICTED BY IDOCK:   -2.83 KCAL/MOL
REMARK 924 INTRA-LIGAND FREE ENERGY PREDICTED BY IDOCK:    0.94 KCAL/MOL
REMARK 927      BINDING AFFINITY PREDICTED BY RF-SCORE:    0.00 PKD
ROOT
HETATM    1  C   UNL     1     -10.888  10.484  70.913  1.00  0.00     0.466 C  
HETATM    2  N   UNL     1     -12.223  10.899  70.507  1.00  0.00    -0.336 NA 
HETATM    3  H   UNL     1     -12.944  10.339  70.962  1.00  0.00     0.000 HD 
ENDROOT
BRANCH   2   4
HETATM    4  C   UNL     1     -12.431  12.329  70.736  1.00  0.00    -0.265 C  
BRANCH   4   5
HETATM    5  C   UNL     1     -12.271  13.079  69.408  1.00  0.00    -0.167 C  
BRANCH   5   6
HETATM    6  C   UNL     1     -12.282  12.113  68.210  1.00  0.00     0.173 C  
BRANCH   6   7
HETATM    7  C   UNL     1     -10.979  12.058  67.368  1.00  0.00    -0.311 C  
HETATM    8  C   UNL     1     -10.341  10.621  67.424  1.00  0.00    -0.262 C  
HETATM    9  C   UNL     1      -9.009  10.550  66.622  1.00  0.00    -0.155 C  
HETATM   10  C   UNL     1      -8.705  11.919  65.985  1.00  0.00     0.056 C  
HETATM   11  C   UNL     1      -8.649  12.912  67.144  1.00  0.00    -0.198 A  
HETATM   12  C   UNL     1      -9.917  12.272  65.131  1.00  0.00    -0.236 A  
HETATM   13  C   UNL     1      -7.541  13.688  67.466  1.00  0.00    -0.180 A  
HETATM   14  C   UNL     1      -9.873  12.501  63.758  1.00  0.00    -0.015 A  
HETATM   15  C   UNL     1     -11.048  12.856  63.099  1.00  0.00     0.315 A  
HETATM   16  C   UNL     1      -7.626  14.558  68.550  1.00  0.00    -0.123 A  
HETATM   17  C   UNL     1      -8.806  14.648  69.299  1.00  0.00     0.039 A  
HETATM   18  C   UNL     1     -12.242  13.010  63.812  1.00  0.00    -0.536 A  
HETATM   19  C   UNL     1     -12.282  12.798  65.194  1.00  0.00    -0.530 A  
HETATM   20  C   UNL     1      -9.924  13.871  68.974  1.00  0.00     0.011 A  
HETATM   21  C   UNL     1     -11.132  12.386  65.861  1.00  0.00    -0.349 A  
HETATM   22  C   UNL     1      -9.854  12.993  67.897  1.00  0.00    -0.224 A  
ENDBRANCH   6   7
ENDBRANCH   5   6
ENDBRANCH   4   5
ENDBRANCH   2   4
TORSDOF 4
ENDMDL
MODEL      202
REMARK 921   NORMALIZED FREE ENERGY PREDICTED BY IDOCK:    0.74 KCAL/MOL
REMARK 922        TOTAL FREE ENERGY PREDICTED BY IDOCK:    0.32 KCAL/MOL
REMARK 923 INTER-LIGAND FREE ENERGY PREDICTED BY IDOCK:   -1.25 KCAL/MOL
REMARK 924 INTRA-LIGAND FREE ENERGY PREDICTED BY IDOCK:    1.57 KCAL/MOL
REMARK 927      BINDING AFFINITY PREDICTED BY RF-SCORE:    0.00 PKD
ROOT
HETATM    1  C   UNL     1     -10.875   9.934  64.981  1.00  0.00     1.617 C  
HETATM    2  N   UNL     1     -10.108   9.700  66.195  1.00  0.00    -0.277 NA 
HETATM    3  H   UNL     1      -9.901  10.573  66.681  1.00  0.00     0.000 HD 
ENDROOT
BRANCH   2   4
HETATM    4  C   UNL     1     -10.779   8.743  67.076  1.00  0.00    -0.116 C  
BRANCH   4   5
HETATM    5  C   UNL     1     -10.802   9.304  68.502  1.00  0.00    -0.119 C  
BRANCH   5   6
HETATM    6  C   UNL     1     -10.779   8.178  69.552  1.00  0.00    -0.180 C  
BRANCH   6   7
HETATM    7  C   UNL     1      -9.597   7.177  69.451  1.00  0.00    -0.153 C  
HETATM    8  C   UNL     1      -9.438   6.368  70.792  1.00  0.00    -0.179 C  
HETATM    9  C   UNL     1      -8.231   5.386  70.732  1.00  0.00    -0.115 C  
HETATM   10  C   UNL     1      -7.542   5.482  69.357  1.00  0.00    -0.078 C  
HETATM   11  C   UNL     1      -7.128   6.944  69.202  1.00  0.00    -0.084 A  
HETATM   12  C   UNL     1      -8.620   5.192  68.319  1.00  0.00    -0.098 A  
HETATM   13  C   UNL     1      -5.821   7.378  69.019  1.00  0.00    -0.022 A  
HETATM   14  C   UNL     1      -8.566   4.148  67.400  1.00  0.00    -0.105 A  
HETATM   15  C   UNL     1      -9.599   4.016  66.473  1.00  0.00    -0.223 A  
HETATM   16  C   UNL     1      -5.582   8.744  68.887  1.00  0.00    -0.040 A  
HETATM   17  C   UNL     1      -6.641   9.659  68.938  1.00  0.00    -0.046 A  
HETATM   18  C   UNL     1     -10.653   4.936  66.450  1.00  0.00    -0.276 A  
HETATM   19  C   UNL     1     -10.697   5.996  67.362  1.00  0.00    -0.393 A  
HETATM   20  C   UNL     1      -7.959   9.223  69.119  1.00  0.00    -0.097 A  
HETATM   21  C   UNL     1      -9.705   6.111  68.332  1.00  0.00    -0.133 A  
HETATM   22  C   UNL     1      -8.214   7.862  69.256  1.00  0.00    -0.128 A  
ENDBRANCH   6   7
ENDBRANCH   5   6
ENDBRANCH   4   5
ENDBRANCH   2   4
TORSDOF 4
ENDMDL
MODEL      203
REMARK 921   NORMALIZED FREE ENERGY PREDICTED BY IDOCK:    2.13 KCAL/MOL
REMARK 922        TOTAL FREE ENERGY PREDICTED BY IDOCK:    2.04 KCAL/MOL
REMARK 923 INTER-LIGAND FREE ENERGY PREDICTED BY IDOCK:   -0.89 KCAL/MOL
REMARK 924 INTRA-LIGAND FREE ENERGY PREDICTED BY IDOCK:    2.93 KCAL/MOL
REMARK 927      BINDING AFFINITY PREDICTED BY RF-SCORE:    0.00 PKD
ROOT
HETATM    1  C   UNL     1      -6.163  18.035  68.105  1.00  0.00    -0.180 C  
HETATM    2  N   UNL     1      -6.441  16.642  67.785  1.00  0.00    -0.137 NA 
HETATM    3  H   UNL     1      -5.784  16.279  67.094  1.00  0.00     0.000 HD 
ENDROOT
BRANCH   2   4
HETATM    4  C   UNL     1      -6.465  15.812  68.990  1.00  0.00    -0.130 C  
BRANCH   4   5
HETATM    5  C   UNL     1      -7.758  16.091  69.766  1.00  0.00     0.230 C  
BRANCH   5   6
HETATM    6  C   UNL     1      -8.938  15.274  69.208  1.00  0.00    -0.241 C  
BRANCH   6   7
HETATM    7  C   UNL     1      -9.429  15.668  67.789  1.00  0.00    -0.208 C  
HETATM    8  C   UNL     1      -8.213  15.813  66.800  1.00  0.00    -0.302 C  
HETATM    9  C   UNL     1      -8.676  16.250  65.379  1.00  0.00     1.236 C  
HETATM   10  C   UNL     1     -10.208  16.402  65.348  1.00  0.00    -0.218 C  
HETATM   11  C   UNL     1     -10.545  17.431  66.426  1.00  0.00    -0.192 A  
HETATM   12  C   UNL     1     -10.780  15.061  65.793  1.00  0.00    -0.351 A  
HETATM   13  C   UNL     1     -11.199  18.635  66.191  1.00  0.00     0.673 A  
HETATM   14  C   UNL     1     -11.626  14.271  65.020  1.00  0.00    -0.367 A  
HETATM   15  C   UNL     1     -12.114  13.082  65.560  1.00  0.00    -0.501 A  
HETATM   16  C   UNL     1     -11.447  19.483  67.268  1.00  0.00     0.520 A  
HETATM   17  C   UNL     1     -11.044  19.127  68.561  1.00  0.00     0.890 A  
HETATM   18  C   UNL     1     -11.783  12.709  66.867  1.00  0.00    -0.453 A  
HETATM   19  C   UNL     1     -10.947  13.512  67.650  1.00  0.00    -0.280 A  
HETATM   20  C   UNL     1     -10.388  17.913  68.800  1.00  0.00    -0.311 A  
HETATM   21  C   UNL     1     -10.403  14.674  67.109  1.00  0.00    -0.265 A  
HETATM   22  C   UNL     1     -10.129  17.057  67.735  1.00  0.00    -0.302 A  
ENDBRANCH   6   7
ENDBRANCH   5   6
ENDBRANCH   4   5
ENDBRANCH   2   4
TORSDOF 4
ENDMDL
MODEL      204
REMARK 921   NORMALIZED FREE ENERGY PREDICTED BY IDOCK:    8.49 KCAL/MOL
REMARK 922        TOTAL FREE ENERGY PREDICTED BY IDOCK:    9.89 KCAL/MOL
REMARK 923 INTER-LIGAND FREE ENERGY PREDICTED BY IDOCK:   -0.77 KCAL/MOL
REMARK 924 INTRA-LIGAND FREE ENERGY PREDICTED BY IDOCK:   10.66 KCAL/MOL
REMARK 927      BINDING AFFINITY PREDICTED BY RF-SCORE:    0.00 PKD
ROOT
HETATM    1  C   UNL     1      -8.535  15.692  65.698  1.00  0.00     1.212 C  
HETATM    2  N   UNL     1      -8.624  14.600  66.656  1.00  0.00    -0.433 NA 
HETATM    3  H   UNL     1      -7.801  14.561  67.257  1.00  0.00     0.000 HD 
ENDROOT
BRANCH   2   4
HETATM    4  C   UNL     1      -9.857  14.678  67.442  1.00  0.00    -0.222 C  
BRANCH   4   5
HETATM    5  C   UNL     1      -9.596  14.113  68.843  1.00  0.00    -0.053 C  
BRANCH   5   6
HETATM    6  C   UNL     1      -8.274  13.325  68.896  1.00  0.00     0.199 C  
BRANCH   6   7
HETATM    7  C   UNL     1      -8.263  11.965  68.149  1.00  0.00    -0.158 C  
HETATM    8  C   UNL     1      -6.794  11.415  68.018  1.00  0.00    -0.067 C  
HETATM    9  C   UNL     1      -6.750  10.070  67.234  1.00  0.00    -0.074 C  
HETATM   10  C   UNL     1      -8.175   9.655  66.821  1.00  0.00    -0.113 C  
HETATM   11  C   UNL     1      -8.719  10.812  65.986  1.00  0.00    -0.190 A  
HETATM   12  C   UNL     1      -8.989   9.588  68.108  1.00  0.00    -0.123 A  
HETATM   13  C   UNL     1      -9.142  10.703  64.667  1.00  0.00    -0.238 A  
HETATM   14  C   UNL     1      -9.633   8.445  68.572  1.00  0.00    -0.155 A  
HETATM   15  C   UNL     1     -10.383   8.526  69.745  1.00  0.00    -0.212 A  
HETATM   16  C   UNL     1      -9.621  11.841  64.022  1.00  0.00    -0.118 A  
HETATM   17  C   UNL     1      -9.673  13.070  64.692  1.00  0.00     0.120 A  
HETATM   18  C   UNL     1     -10.509   9.743  70.423  1.00  0.00    -0.358 A  
HETATM   19  C   UNL     1      -9.877  10.896  69.945  1.00  0.00     0.484 A  
HETATM   20  C   UNL     1      -9.251  13.181  66.022  1.00  0.00     0.078 A  
HETATM   21  C   UNL     1      -9.076  10.823  68.808  1.00  0.00    -0.180 A  
HETATM   22  C   UNL     1      -8.766  12.055  66.679  1.00  0.00    -0.171 A  
ENDBRANCH   6   7
ENDBRANCH   5   6
ENDBRANCH   4   5
ENDBRANCH   2   4
TORSDOF 4
ENDMDL
MODEL      205
REMARK 921   NORMALIZED FREE ENERGY PREDICTED BY IDOCK:   10.42 KCAL/MOL
REMARK 922        TOTAL FREE ENERGY PREDICTED BY IDOCK:   12.27 KCAL/MOL
REMARK 923 INTER-LIGAND FREE ENERGY PREDICTED BY IDOCK:   10.65 KCAL/MOL
REMARK 924 INTRA-LIGAND FREE ENERGY PREDICTED BY IDOCK:    1.62 KCAL/MOL
REMARK 927      BINDING AFFINITY PREDICTED BY RF-SCORE:    0.00 PKD
ROOT
HETATM    1  C   UNL     1     -10.492  19.572  70.910  1.00  0.00     2.238 C  
HETATM    2  N   UNL     1      -9.217  20.167  70.536  1.00  0.00     1.100 NA 
HETATM    3  H   UNL     1      -8.854  20.769  71.275  1.00  0.00     0.000 HD 
ENDROOT
BRANCH   2   4
HETATM    4  C   UNL     1      -8.243  19.145  70.151  1.00  0.00     1.386 C  
BRANCH   4   5
HETATM    5  C   UNL     1      -7.810  19.385  68.700  1.00  0.00    -0.399 C  
BRANCH   5   6
HETATM    6  C   UNL     1      -7.628  18.060  67.939  1.00  0.00    -0.231 C  
BRANCH   6   7
HETATM    7  C   UNL     1      -8.098  16.779  68.679  1.00  0.00    -0.251 C  
HETATM    8  C   UNL     1      -7.941  16.948  70.236  1.00  0.00     2.500 C  
HETATM    9  C   UNL     1      -8.367  15.660  71.000  1.00  0.00     3.263 C  
HETATM   10  C   UNL     1      -8.837  14.586  70.002  1.00  0.00     0.969 C  
HETATM   11  C   UNL     1      -7.660  14.355  69.056  1.00  0.00    -0.106 A  
HETATM   12  C   UNL     1      -9.963  15.219  69.193  1.00  0.00    -0.238 A  
HETATM   13  C   UNL     1      -7.022  13.134  68.874  1.00  0.00    -0.093 A  
HETATM   14  C   UNL     1     -11.263  14.725  69.134  1.00  0.00    -0.287 A  
HETATM   15  C   UNL     1     -12.193  15.374  68.323  1.00  0.00     0.209 A  
HETATM   16  C   UNL     1      -5.959  13.061  67.977  1.00  0.00    -0.112 A  
HETATM   17  C   UNL     1      -5.545  14.198  67.272  1.00  0.00     0.582 A  
HETATM   18  C   UNL     1     -11.813  16.483  67.559  1.00  0.00     0.833 A  
HETATM   19  C   UNL     1     -10.502  16.968  67.604  1.00  0.00    -0.343 A  
HETATM   20  C   UNL     1      -6.189  15.428  67.450  1.00  0.00    -0.035 A  
HETATM   21  C   UNL     1      -9.575  16.369  68.452  1.00  0.00    -0.219 A  
HETATM   22  C   UNL     1      -7.249  15.519  68.347  1.00  0.00    -0.114 A  
ENDBRANCH   6   7
ENDBRANCH   5   6
ENDBRANCH   4   5
ENDBRANCH   2   4
TORSDOF 4
ENDMDL
MODEL      206
REMARK 921   NORMALIZED FREE ENERGY PREDICTED BY IDOCK:   18.19 KCAL/MOL
REMARK 922        TOTAL FREE ENERGY PREDICTED BY IDOCK:   21.86 KCAL/MOL
REMARK 923 INTER-LIGAND FREE ENERGY PREDICTED BY IDOCK:   13.25 KCAL/MOL
REMARK 924 INTRA-LIGAND FREE ENERGY PREDICTED BY IDOCK:    8.60 KCAL/MOL
REMARK 927      BINDING AFFINITY PREDICTED BY RF-SCORE:    0.00 PKD
ROOT
HETATM    1  C   UNL     1      -7.676  19.063  69.067  1.00  0.00    -0.253 C  
HETATM    2  N   UNL     1      -7.034  17.895  69.652  1.00  0.00     0.026 NA 
HETATM    3  H   UNL     1      -6.964  17.975  70.667  1.00  0.00     0.000 HD 
ENDROOT
BRANCH   2   4
HETATM    4  C   UNL     1      -7.712  16.659  69.258  1.00  0.00    -0.110 C  
BRANCH   4   5
HETATM    5  C   UNL     1      -8.818  16.348  70.273  1.00  0.00     1.893 C  
BRANCH   5   6
HETATM    6  C   UNL     1      -8.943  14.834  70.525  1.00  0.00     1.650 C  
BRANCH   6   7
HETATM    7  C   UNL     1      -8.603  13.914  69.322  1.00  0.00     0.490 C  
HETATM    8  C   UNL     1      -7.331  13.042  69.631  1.00  0.00     0.622 C  
HETATM    9  C   UNL     1      -6.943  12.139  68.423  1.00  0.00    -0.078 C  
HETATM   10  C   UNL     1      -7.937  12.353  67.266  1.00  0.00    -0.178 C  
HETATM   11  C   UNL     1      -7.878  13.843  66.939  1.00  0.00     0.275 A  
HETATM   12  C   UNL     1      -9.321  12.058  67.833  1.00  0.00    -0.190 A  
HETATM   13  C   UNL     1      -7.524  14.365  65.700  1.00  0.00     6.298 A  
HETATM   14  C   UNL     1     -10.176  11.072  67.347  1.00  0.00    -0.229 A  
HETATM   15  C   UNL     1     -11.435  10.930  67.928  1.00  0.00    -0.344 A  
HETATM   16  C   UNL     1      -7.513  15.748  65.535  1.00  0.00     4.236 A  
HETATM   17  C   UNL     1      -7.853  16.594  66.599  1.00  0.00    -0.316 A  
HETATM   18  C   UNL     1     -11.841  11.785  68.958  1.00  0.00    -0.379 A  
HETATM   19  C   UNL     1     -10.989  12.787  69.433  1.00  0.00    -0.041 A  
HETATM   20  C   UNL     1      -8.213  16.070  67.846  1.00  0.00    -0.154 A  
HETATM   21  C   UNL     1      -9.706  12.908  68.906  1.00  0.00     0.181 A  
HETATM   22  C   UNL     1      -8.224  14.691  68.028  1.00  0.00    -0.145 A  
ENDBRANCH   6   7
ENDBRANCH   5   6
ENDBRANCH   4   5
ENDBRANCH   2   4
TORSDOF 4
ENDMDL
MODEL      207
REMARK 921   NORMALIZED FREE ENERGY PREDICTED BY IDOCK:   18.64 KCAL/MOL
REMARK 922        TOTAL FREE ENERGY PREDICTED BY IDOCK:   22.41 KCAL/MOL
REMARK 923 INTER-LIGAND FREE ENERGY PREDICTED BY IDOCK:   20.21 KCAL/MOL
REMARK 924 INTRA-LIGAND FREE ENERGY PREDICTED BY IDOCK:    2.21 KCAL/MOL
REMARK 927      BINDING AFFINITY PREDICTED BY RF-SCORE:    0.00 PKD
ROOT
HETATM    1  C   UNL     1      -9.445  11.999  70.971  1.00  0.00     9.541 C  
HETATM    2  N   UNL     1     -10.645  12.671  70.493  1.00  0.00     1.948 NA 
HETATM    3  H   UNL     1     -11.351  12.742  71.225  1.00  0.00     0.000 HD 
ENDROOT
BRANCH   2   4
HETATM    4  C   UNL     1     -10.332  13.983  69.923  1.00  0.00     0.662 C  
BRANCH   4   5
HETATM    5  C   UNL     1      -8.815  14.098  69.734  1.00  0.00     1.079 C  
BRANCH   5   6
HETATM    6  C   UNL     1      -8.374  13.556  68.362  1.00  0.00    -0.140 C  
BRANCH   6   7
HETATM    7  C   UNL     1      -8.942  14.297  67.122  1.00  0.00    -0.237 C  
HETATM    8  C   UNL     1      -8.179  13.862  65.816  1.00  0.00     2.573 C  
HETATM    9  C   UNL     1      -8.702  14.624  64.563  1.00  0.00     6.186 C  
HETATM   10  C   UNL     1      -9.838  15.583  64.966  1.00  0.00     0.076 C  
HETATM   11  C   UNL     1      -9.240  16.513  66.021  1.00  0.00    -0.295 A  
HETATM   12  C   UNL     1     -10.897  14.727  65.649  1.00  0.00    -0.344 A  
HETATM   13  C   UNL     1      -9.165  17.896  65.903  1.00  0.00     0.122 A  
HETATM   14  C   UNL     1     -12.213  14.606  65.210  1.00  0.00    -0.249 A  
HETATM   15  C   UNL     1     -13.097  13.821  65.949  1.00  0.00    -0.016 A  
HETATM   16  C   UNL     1      -8.597  18.626  66.943  1.00  0.00    -0.284 A  
HETATM   17  C   UNL     1      -8.113  17.977  68.086  1.00  0.00    -0.276 A  
HETATM   18  C   UNL     1     -12.675  13.195  67.127  1.00  0.00     0.880 A  
HETATM   19  C   UNL     1     -11.358  13.333  67.577  1.00  0.00    -0.329 A  
HETATM   20  C   UNL     1      -8.192  16.585  68.209  1.00  0.00    -0.185 A  
HETATM   21  C   UNL     1     -10.444  14.064  66.822  1.00  0.00    -0.277 A  
HETATM   22  C   UNL     1      -8.752  15.840  67.176  1.00  0.00    -0.228 A  
ENDBRANCH   6   7
ENDBRANCH   5   6
ENDBRANCH   4   5
ENDBRANCH   2   4
TORSDOF 4
ENDMDL
MODEL      208
REMARK 921   NORMALIZED FREE ENERGY PREDICTED BY IDOCK:   20.03 KCAL/MOL
REMARK 922        TOTAL FREE ENERGY PREDICTED BY IDOCK:   24.13 KCAL/MOL
REMARK 923 INTER-LIGAND FREE ENERGY PREDICTED BY IDOCK:   21.23 KCAL/MOL
REMARK 924 INTRA-LIGAND FREE ENERGY PREDICTED BY IDOCK:    2.90 KCAL/MOL
REMARK 927      BINDING AFFINITY PREDICTED BY RF-SCORE:    0.00 PKD
ROOT
HETATM    1  C   UNL     1     -10.766  19.723  71.720  1.00  0.00     4.536 C  
HETATM    2  N   UNL     1      -9.351  19.797  71.383  1.00  0.00     1.927 NA 
HETATM    3  H   UNL     1      -8.810  20.223  72.136  1.00  0.00     0.000 HD 
ENDROOT
BRANCH   2   4
HETATM    4  C   UNL     1      -8.819  18.484  71.017  1.00  0.00     5.919 C  
BRANCH   4   5
HETATM    5  C   UNL     1      -7.651  18.670  70.042  1.00  0.00     1.071 C  
BRANCH   5   6
HETATM    6  C   UNL     1      -7.788  17.749  68.816  1.00  0.00    -0.251 C  
BRANCH   6   7
HETATM    7  C   UNL     1      -9.228  17.277  68.476  1.00  0.00    -0.273 C  
HETATM    8  C   UNL     1     -10.222  17.642  69.640  1.00  0.00     0.231 C  
HETATM    9  C   UNL     1     -11.666  17.142  69.343  1.00  0.00     1.487 C  
HETATM   10  C   UNL     1     -11.708  16.439  67.973  1.00  0.00     0.219 C  
HETATM   11  C   UNL     1     -10.690  15.303  68.059  1.00  0.00    -0.268 A  
HETATM   12  C   UNL     1     -11.188  17.450  66.958  1.00  0.00     0.472 A  
HETATM   13  C   UNL     1     -10.994  13.957  67.888  1.00  0.00    -0.265 A  
HETATM   14  C   UNL     1     -11.917  17.913  65.866  1.00  0.00     4.084 A  
HETATM   15  C   UNL     1     -11.311  18.809  64.986  1.00  0.00     2.121 A  
HETATM   16  C   UNL     1      -9.967  13.021  67.990  1.00  0.00    -0.233 A  
HETATM   17  C   UNL     1      -8.655  13.432  68.259  1.00  0.00    -0.169 A  
HETATM   18  C   UNL     1      -9.985  19.208  65.183  1.00  0.00     1.536 A  
HETATM   19  C   UNL     1      -9.247  18.728  66.270  1.00  0.00    -0.255 A  
HETATM   20  C   UNL     1      -8.347  14.787  68.428  1.00  0.00    -0.154 A  
HETATM   21  C   UNL     1      -9.853  17.879  67.192  1.00  0.00    -0.308 A  
HETATM   22  C   UNL     1      -9.362  15.734  68.334  1.00  0.00    -0.196 A  
ENDBRANCH   6   7
ENDBRANCH   5   6
ENDBRANCH   4   5
ENDBRANCH   2   4
TORSDOF 4
ENDMDL
MODEL      209
REMARK 921   NORMALIZED FREE ENERGY PREDICTED BY IDOCK:   21.71 KCAL/MOL
REMARK 922        TOTAL FREE ENERGY PREDICTED BY IDOCK:   26.20 KCAL/MOL
REMARK 923 INTER-LIGAND FREE ENERGY PREDICTED BY IDOCK:    9.29 KCAL/MOL
REMARK 924 INTRA-LIGAND FREE ENERGY PREDICTED BY IDOCK:   16.91 KCAL/MOL
REMARK 927      BINDING AFFINITY PREDICTED BY RF-SCORE:    0.00 PKD
ROOT
HETATM    1  C   UNL     1      -6.117  17.413  68.042  1.00  0.00    -0.150 C  
HETATM    2  N   UNL     1      -5.824  16.227  68.834  1.00  0.00    -0.121 NA 
HETATM    3  H   UNL     1      -5.275  15.550  68.304  1.00  0.00     0.000 HD 
ENDROOT
BRANCH   2   4
HETATM    4  C   UNL     1      -5.171  16.576  70.097  1.00  0.00    -0.184 C  
BRANCH   4   5
HETATM    5  C   UNL     1      -6.239  16.984  71.118  1.00  0.00     1.696 C  
BRANCH   5   6
HETATM    6  C   UNL     1      -7.511  16.128  70.977  1.00  0.00     3.523 C  
BRANCH   6   7
HETATM    7  C   UNL     1      -7.910  15.735  69.529  1.00  0.00    -0.151 C  
HETATM    8  C   UNL     1      -6.631  15.460  68.655  1.00  0.00    -0.098 C  
HETATM    9  C   UNL     1      -7.002  15.104  67.186  1.00  0.00     0.019 C  
HETATM   10  C   UNL     1      -8.533  15.111  67.014  1.00  0.00    -0.259 C  
HETATM   11  C   UNL     1      -8.990  16.511  67.421  1.00  0.00    -0.207 A  
HETATM   12  C   UNL     1      -9.082  14.127  68.040  1.00  0.00    -0.191 A  
HETATM   13  C   UNL     1      -9.672  17.391  66.590  1.00  0.00    -0.296 A  
HETATM   14  C   UNL     1      -9.836  13.000  67.724  1.00  0.00    -0.224 A  
HETATM   15  C   UNL     1     -10.316  12.201  68.761  1.00  0.00    -0.168 A  
HETATM   16  C   UNL     1     -10.034  18.640  67.090  1.00  0.00    -0.360 A  
HETATM   17  C   UNL     1      -9.715  18.998  68.406  1.00  0.00    -0.442 A  
HETATM   18  C   UNL     1     -10.068  12.546  70.094  1.00  0.00     2.792 A  
HETATM   19  C   UNL     1      -9.326  13.689  70.411  1.00  0.00     3.891 A  
HETATM   20  C   UNL     1      -9.031  18.111  69.246  1.00  0.00     0.251 A  
HETATM   21  C   UNL     1      -8.789  14.467  69.389  1.00  0.00     0.214 A  
HETATM   22  C   UNL     1      -8.658  16.861  68.760  1.00  0.00    -0.246 A  
ENDBRANCH   6   7
ENDBRANCH   5   6
ENDBRANCH   4   5
ENDBRANCH   2   4
TORSDOF 4
ENDMDL
MODEL      210
REMARK 921   NORMALIZED FREE ENERGY PREDICTED BY IDOCK:   38.86 KCAL/MOL
REMARK 922        TOTAL FREE ENERGY PREDICTED BY IDOCK:   47.36 KCAL/MOL
REMARK 923 INTER-LIGAND FREE ENERGY PREDICTED BY IDOCK:   10.70 KCAL/MOL
REMARK 924 INTRA-LIGAND FREE ENERGY PREDICTED BY IDOCK:   36.66 KCAL/MOL
REMARK 927      BINDING AFFINITY PREDICTED BY RF-SCORE:    0.00 PKD
ROOT
HETATM    1  C   UNL     1      -6.186  17.323  68.050  1.00  0.00    -0.142 C  
HETATM    2  N   UNL     1      -5.954  16.267  69.024  1.00  0.00    -0.129 NA 
HETATM    3  H   UNL     1      -5.276  15.586  68.682  1.00  0.00     0.000 HD 
ENDROOT
BRANCH   2   4
HETATM    4  C   UNL     1      -5.556  16.815  70.322  1.00  0.00    -0.198 C  
BRANCH   4   5
HETATM    5  C   UNL     1      -6.746  17.559  70.938  1.00  0.00     2.539 C  
BRANCH   5   6
HETATM    6  C   UNL     1      -8.082  17.082  70.340  1.00  0.00     3.208 C  
BRANCH   6   7
HETATM    7  C   UNL     1      -8.061  15.691  69.651  1.00  0.00    -0.067 C  
HETATM    8  C   UNL     1      -7.679  14.565  70.683  1.00  0.00     1.557 C  
HETATM    9  C   UNL     1      -7.609  13.164  70.007  1.00  0.00     1.679 C  
HETATM   10  C   UNL     1      -7.952  13.284  68.511  1.00  0.00    -0.097 C  
HETATM   11  C   UNL     1      -6.943  14.274  67.932  1.00  0.00    -0.174 A  
HETATM   12  C   UNL     1      -9.330  13.931  68.439  1.00  0.00    -0.201 A  
HETATM   13  C   UNL     1      -6.051  13.983  66.907  1.00  0.00     1.610 A  
HETATM   14  C   UNL     1     -10.445  13.345  67.845  1.00  0.00    -0.243 A  
HETATM   15  C   UNL     1     -11.640  14.060  67.809  1.00  0.00    -0.378 A  
HETATM   16  C   UNL     1      -5.184  14.982  66.471  1.00  0.00     2.722 A  
HETATM   17  C   UNL     1      -5.214  16.255  67.055  1.00  0.00     0.064 A  
HETATM   18  C   UNL     1     -11.707  15.356  68.333  1.00  0.00    -0.332 A  
HETATM   19  C   UNL     1     -10.582  15.952  68.912  1.00  0.00    -0.244 A  
HETATM   20  C   UNL     1      -6.115  16.551  68.085  1.00  0.00    -0.127 A  
HETATM   21  C   UNL     1      -9.394  15.232  69.011  1.00  0.00    -0.231 A  
HETATM   22  C   UNL     1      -6.984  15.562  68.535  1.00  0.00    -0.114 A  
ENDBRANCH   6   7
ENDBRANCH   5   6
ENDBRANCH   4   5
ENDBRANCH   2   4
TORSDOF 4
ENDMDL
