MODEL        1
REMARK 921   NORMALIZED FREE ENERGY PREDICTED BY IDOCK:   -8.40 KCAL/MOL
REMARK 922        TOTAL FREE ENERGY PREDICTED BY IDOCK:  -12.88 KCAL/MOL
REMARK 923 INTER-LIGAND FREE ENERGY PREDICTED BY IDOCK:  -11.34 KCAL/MOL
REMARK 924 INTRA-LIGAND FREE ENERGY PREDICTED BY IDOCK:   -1.54 KCAL/MOL
REMARK 927      BINDING AFFINITY PREDICTED BY RF-SCORE:    0.00 PKD
ROOT
HETATM    1  C   UNL     1     -10.457   5.464  66.272  1.00  0.00    -0.277 C  
HETATM    2  C   UNL     1      -9.250   5.589  67.218  1.00  0.00    -0.110 C  
HETATM    3  C   UNL     1      -8.982   7.024  67.560  1.00  0.00    -0.117 A  
HETATM    4  C   UNL     1      -7.991   5.014  66.557  1.00  0.00    -0.107 C  
HETATM    5  N   UNL     1      -8.444   7.870  66.708  1.00  0.00    -0.126 NA 
HETATM    6  N   UNL     1      -7.984   8.928  67.413  1.00  0.00    -0.101 NA 
HETATM    7  C   UNL     1      -8.331   8.781  68.674  1.00  0.00    -0.128 A  
HETATM    8  N   UNL     1      -9.085   7.628  68.808  1.00  0.00    -0.140 NA 
HETATM    9  C   UNL     1      -7.929   9.757  69.707  1.00  0.00    -0.169 C  
ENDROOT
BRANCH   8  10
HETATM   10  C   UNL     1      -9.753   7.037  69.987  1.00  0.00    -0.170 C  
HETATM   11  C   UNL     1      -9.191   7.407  71.380  1.00  0.00    -0.148 C  
HETATM   12  C   UNL     1     -10.183   7.886  72.458  1.00  0.00    -0.278 C  
HETATM   13  C   UNL     1     -10.744   6.637  73.134  1.00  0.00    -0.306 C  
HETATM   14  C   UNL     1     -11.866   6.229  72.193  1.00  0.00    -0.365 C  
HETATM   15  C   UNL     1     -12.030   7.437  71.224  1.00  0.00    -0.313 C  
HETATM   16  C   UNL     1     -11.305   7.143  69.902  1.00  0.00    -0.199 C  
HETATM   17  N   UNL     1     -11.415   8.546  71.967  1.00  0.00    -0.336 NA 
BRANCH  17  18
HETATM   18  C   UNL     1     -11.223   9.891  71.315  1.00  0.00    -0.286 C  
BRANCH  18  19
HETATM   19  C   UNL     1     -12.489  10.751  70.863  1.00  0.00    -0.500 C  
HETATM   20  C   UNL     1     -12.380  12.302  70.395  1.00  0.00    -0.228 C  
BRANCH  20  21
HETATM   21  C   UNL     1     -12.557  13.607  71.232  1.00  0.00    -0.435 A  
HETATM   22  C   UNL     1     -12.650  16.044  72.762  1.00  0.00    -0.565 A  
HETATM   23  C   UNL     1     -11.731  14.740  70.943  1.00  0.00    -0.360 A  
HETATM   24  C   UNL     1     -13.461  14.945  73.077  1.00  0.00    -0.496 A  
HETATM   25  C   UNL     1     -13.412  13.746  72.330  1.00  0.00    -0.638 A  
HETATM   26  C   UNL     1     -11.776  15.937  71.687  1.00  0.00    -0.563 A  
ENDBRANCH  20  21
BRANCH  20  27
HETATM   27  N   UNL     1     -11.263  12.473  69.476  1.00  0.00    -0.467 N  
HETATM   28  H   UNL     1     -10.466  13.051  69.739  1.00  0.00     0.000 HD 
HETATM   29  C   UNL     1     -11.293  11.853  68.256  1.00  0.00    -0.277 C  
HETATM   30  O   UNL     1     -12.270  11.204  67.886  1.00  0.00    -0.521 OA 
BRANCH  29  31
HETATM   31  C   UNL     1     -10.110  12.108  67.332  1.00  0.00    -0.208 C  
HETATM   32  C   UNL     1     -11.339  12.036  65.139  1.00  0.00    -0.359 C  
HETATM   33  C   UNL     1     -10.189  11.450  65.951  1.00  0.00    -0.292 C  
HETATM   34  C   UNL     1     -11.260  13.549  65.032  1.00  0.00    -0.322 C  
HETATM   35  F   UNL     1     -12.372  14.021  64.420  1.00  0.00    -0.421 F  
HETATM   36  F   UNL     1     -10.208  13.883  64.239  1.00  0.00    -0.441 F  
HETATM   37  C   UNL     1     -11.096  14.244  66.363  1.00  0.00    -0.325 C  
HETATM   38  C   UNL     1      -9.951  13.623  67.159  1.00  0.00    -0.247 C  
ENDBRANCH  29  31
ENDBRANCH  20  27
ENDBRANCH  18  19
ENDBRANCH  17  18
ENDBRANCH   8  10
TORSDOF 6
ENDMDL
MODEL        2
REMARK 921   NORMALIZED FREE ENERGY PREDICTED BY IDOCK:   -8.32 KCAL/MOL
REMARK 922        TOTAL FREE ENERGY PREDICTED BY IDOCK:  -12.78 KCAL/MOL
REMARK 923 INTER-LIGAND FREE ENERGY PREDICTED BY IDOCK:  -10.84 KCAL/MOL
REMARK 924 INTRA-LIGAND FREE ENERGY PREDICTED BY IDOCK:   -1.94 KCAL/MOL
REMARK 927      BINDING AFFINITY PREDICTED BY RF-SCORE:    0.00 PKD
ROOT
HETATM    1  C   UNL     1     -10.482   4.966  66.422  1.00  0.00    -0.325 C  
HETATM    2  C   UNL     1      -9.253   5.202  67.318  1.00  0.00    -0.119 C  
HETATM    3  C   UNL     1      -9.092   6.658  67.635  1.00  0.00    -0.112 A  
HETATM    4  C   UNL     1      -7.977   4.725  66.611  1.00  0.00    -0.103 C  
HETATM    5  N   UNL     1      -8.660   7.536  66.755  1.00  0.00    -0.122 NA 
HETATM    6  N   UNL     1      -8.263   8.636  67.430  1.00  0.00    -0.105 NA 
HETATM    7  C   UNL     1      -8.546   8.477  68.706  1.00  0.00    -0.131 A  
HETATM    8  N   UNL     1      -9.196   7.268  68.880  1.00  0.00    -0.142 NA 
HETATM    9  C   UNL     1      -8.187   9.496  69.712  1.00  0.00    -0.156 C  
ENDROOT
BRANCH   8  10
HETATM   10  C   UNL     1      -9.765   6.638  70.091  1.00  0.00    -0.164 C  
HETATM   11  C   UNL     1      -9.074   6.942  71.441  1.00  0.00    -0.148 C  
HETATM   12  C   UNL     1      -9.954   7.391  72.623  1.00  0.00    -0.194 C  
HETATM   13  C   UNL     1     -10.475   6.122  73.296  1.00  0.00    -0.261 C  
HETATM   14  C   UNL     1     -11.685   5.770  72.447  1.00  0.00    -0.281 C  
HETATM   15  C   UNL     1     -11.914   7.019  71.546  1.00  0.00    -0.334 C  
HETATM   16  C   UNL     1     -11.317   6.770  70.152  1.00  0.00    -0.404 C  
HETATM   17  N   UNL     1     -11.214   8.089  72.273  1.00  0.00    -0.313 NA 
BRANCH  17  18
HETATM   18  C   UNL     1     -11.057   9.456  71.660  1.00  0.00    -0.339 C  
BRANCH  18  19
HETATM   19  C   UNL     1     -12.304  10.173  70.968  1.00  0.00    -0.474 C  
HETATM   20  C   UNL     1     -12.236  11.684  70.379  1.00  0.00    -0.347 C  
BRANCH  20  21
HETATM   21  C   UNL     1     -12.616  13.034  71.062  1.00  0.00    -0.386 A  
HETATM   22  C   UNL     1     -13.094  15.598  72.282  1.00  0.00    -0.538 A  
HETATM   23  C   UNL     1     -12.061  14.254  70.556  1.00  0.00    -0.413 A  
HETATM   24  C   UNL     1     -13.639  14.419  72.808  1.00  0.00    -0.531 A  
HETATM   25  C   UNL     1     -13.400  13.159  72.213  1.00  0.00    -0.621 A  
HETATM   26  C   UNL     1     -12.296  15.512  71.148  1.00  0.00    -0.468 A  
ENDBRANCH  20  21
BRANCH  20  27
HETATM   27  N   UNL     1     -11.018  11.868  69.603  1.00  0.00    -0.467 N  
HETATM   28  H   UNL     1     -10.130  12.038  70.074  1.00  0.00     0.000 HD 
HETATM   29  C   UNL     1     -11.074  11.813  68.236  1.00  0.00    -0.240 C  
HETATM   30  O   UNL     1     -12.141  11.675  67.640  1.00  0.00    -0.615 OA 
BRANCH  29  31
HETATM   31  C   UNL     1      -9.769  12.053  67.490  1.00  0.00    -0.188 C  
HETATM   32  C   UNL     1     -10.579  13.828  65.903  1.00  0.00    -0.289 C  
HETATM   33  C   UNL     1      -9.908  12.464  66.020  1.00  0.00    -0.268 C  
HETATM   34  C   UNL     1      -9.867  14.896  66.717  1.00  0.00    -0.246 C  
HETATM   35  F   UNL     1     -10.581  16.046  66.682  1.00  0.00    -0.306 F  
HETATM   36  F   UNL     1      -8.667  15.166  66.139  1.00  0.00    -0.306 F  
HETATM   37  C   UNL     1      -9.630  14.505  68.155  1.00  0.00    -0.212 C  
HETATM   38  C   UNL     1      -8.975  13.128  68.239  1.00  0.00    -0.175 C  
ENDBRANCH  29  31
ENDBRANCH  20  27
ENDBRANCH  18  19
ENDBRANCH  17  18
ENDBRANCH   8  10
TORSDOF 6
ENDMDL
MODEL        3
REMARK 921   NORMALIZED FREE ENERGY PREDICTED BY IDOCK:   -8.30 KCAL/MOL
REMARK 922        TOTAL FREE ENERGY PREDICTED BY IDOCK:  -12.76 KCAL/MOL
REMARK 923 INTER-LIGAND FREE ENERGY PREDICTED BY IDOCK:  -11.04 KCAL/MOL
REMARK 924 INTRA-LIGAND FREE ENERGY PREDICTED BY IDOCK:   -1.71 KCAL/MOL
REMARK 927      BINDING AFFINITY PREDICTED BY RF-SCORE:    0.00 PKD
ROOT
HETATM    1  C   UNL     1      -7.794   3.979  72.527  1.00  0.00    -0.082 C  
HETATM    2  C   UNL     1      -8.895   4.032  71.454  1.00  0.00    -0.145 C  
HETATM    3  C   UNL     1     -10.041   4.886  71.903  1.00  0.00    -0.199 A  
HETATM    4  C   UNL     1      -9.434   2.622  71.171  1.00  0.00    -0.223 C  
HETATM    5  N   UNL     1     -10.905   4.497  72.817  1.00  0.00    -0.190 NA 
HETATM    6  N   UNL     1     -11.997   5.286  72.715  1.00  0.00    -0.115 NA 
HETATM    7  C   UNL     1     -11.764   6.220  71.817  1.00  0.00    -0.299 A  
HETATM    8  N   UNL     1     -10.469   6.086  71.346  1.00  0.00    -0.223 NA 
HETATM    9  C   UNL     1     -12.793   7.212  71.446  1.00  0.00    -0.431 C  
ENDROOT
BRANCH   8  10
HETATM   10  C   UNL     1      -9.700   6.896  70.377  1.00  0.00    -0.172 C  
HETATM   11  C   UNL     1     -10.473   7.485  69.173  1.00  0.00    -0.220 C  
HETATM   12  C   UNL     1     -10.299   8.984  68.863  1.00  0.00    -0.215 C  
HETATM   13  C   UNL     1      -9.052   9.115  67.990  1.00  0.00    -0.136 C  
HETATM   14  C   UNL     1      -7.931   9.134  69.017  1.00  0.00    -0.101 C  
HETATM   15  C   UNL     1      -8.652   9.300  70.387  1.00  0.00    -0.219 C  
HETATM   16  C   UNL     1      -8.772   7.933  71.079  1.00  0.00    -0.138 C  
HETATM   17  N   UNL     1      -9.959   9.856  70.012  1.00  0.00    -0.255 NA 
BRANCH  17  18
HETATM   18  C   UNL     1     -11.043  10.030  71.044  1.00  0.00    -0.271 C  
BRANCH  18  19
HETATM   19  C   UNL     1     -12.338  10.900  70.708  1.00  0.00    -0.487 C  
HETATM   20  C   UNL     1     -12.268  12.479  70.339  1.00  0.00    -0.286 C  
BRANCH  20  21
HETATM   21  C   UNL     1     -12.420  13.725  71.266  1.00  0.00    -0.428 A  
HETATM   22  C   UNL     1     -12.472  16.070  72.935  1.00  0.00    -0.596 A  
HETATM   23  C   UNL     1     -11.720  14.930  70.938  1.00  0.00    -0.374 A  
HETATM   24  C   UNL     1     -13.156  14.899  73.289  1.00  0.00    -0.585 A  
HETATM   25  C   UNL     1     -13.127  13.745  72.473  1.00  0.00    -0.517 A  
HETATM   26  C   UNL     1     -11.746  16.083  71.751  1.00  0.00    -0.593 A  
ENDBRANCH  20  21
BRANCH  20  27
HETATM   27  N   UNL     1     -11.199  12.726  69.382  1.00  0.00    -0.430 N  
HETATM   28  H   UNL     1     -10.348  13.204  69.674  1.00  0.00     0.000 HD 
HETATM   29  C   UNL     1     -11.345  12.309  68.085  1.00  0.00    -0.295 C  
HETATM   30  O   UNL     1     -12.386  11.788  67.689  1.00  0.00    -0.327 OA 
BRANCH  29  31
HETATM   31  C   UNL     1     -10.204  12.635  67.132  1.00  0.00    -0.230 C  
HETATM   32  C   UNL     1     -11.541  12.817  65.011  1.00  0.00    -0.372 C  
HETATM   33  C   UNL     1     -10.368  12.127  65.696  1.00  0.00    -0.289 C  
HETATM   34  C   UNL     1     -11.429  14.332  65.056  1.00  0.00    -0.364 C  
HETATM   35  F   UNL     1     -12.557  14.887  64.555  1.00  0.00    -0.455 F  
HETATM   36  F   UNL     1     -10.410  14.725  64.247  1.00  0.00    -0.193 F  
HETATM   37  C   UNL     1     -11.181  14.880  66.441  1.00  0.00    -0.331 C  
HETATM   38  C   UNL     1     -10.013  14.156  67.107  1.00  0.00    -0.255 C  
ENDBRANCH  29  31
ENDBRANCH  20  27
ENDBRANCH  18  19
ENDBRANCH  17  18
ENDBRANCH   8  10
TORSDOF 6
ENDMDL
MODEL        4
REMARK 921   NORMALIZED FREE ENERGY PREDICTED BY IDOCK:   -8.03 KCAL/MOL
REMARK 922        TOTAL FREE ENERGY PREDICTED BY IDOCK:  -12.39 KCAL/MOL
REMARK 923 INTER-LIGAND FREE ENERGY PREDICTED BY IDOCK:  -11.12 KCAL/MOL
REMARK 924 INTRA-LIGAND FREE ENERGY PREDICTED BY IDOCK:   -1.28 KCAL/MOL
REMARK 927      BINDING AFFINITY PREDICTED BY RF-SCORE:    0.00 PKD
ROOT
HETATM    1  C   UNL     1      -7.888   3.804  72.715  1.00  0.00    -0.074 C  
HETATM    2  C   UNL     1      -9.053   3.764  71.711  1.00  0.00    -0.164 C  
HETATM    3  C   UNL     1     -10.100   4.776  72.063  1.00  0.00    -0.195 A  
HETATM    4  C   UNL     1      -9.712   2.377  71.713  1.00  0.00    -0.220 C  
HETATM    5  N   UNL     1     -10.926   4.624  73.077  1.00  0.00    -0.247 NA 
HETATM    6  N   UNL     1     -11.961   5.473  72.896  1.00  0.00    -0.118 NA 
HETATM    7  C   UNL     1     -11.722   6.215  71.835  1.00  0.00    -0.279 A  
HETATM    8  N   UNL     1     -10.476   5.894  71.327  1.00  0.00    -0.224 NA 
HETATM    9  C   UNL     1     -12.699   7.211  71.351  1.00  0.00    -0.433 C  
ENDROOT
BRANCH   8  10
HETATM   10  C   UNL     1      -9.718   6.457  70.189  1.00  0.00    -0.166 C  
HETATM   11  C   UNL     1     -10.534   7.020  69.001  1.00  0.00    -0.219 C  
HETATM   12  C   UNL     1     -10.183   8.428  68.482  1.00  0.00    -0.201 C  
HETATM   13  C   UNL     1      -9.042   8.260  67.481  1.00  0.00    -0.148 C  
HETATM   14  C   UNL     1      -7.817   8.218  68.380  1.00  0.00    -0.118 C  
HETATM   15  C   UNL     1      -8.339   8.650  69.782  1.00  0.00    -0.123 C  
HETATM   16  C   UNL     1      -8.574   7.407  70.654  1.00  0.00    -0.141 C  
HETATM   17  N   UNL     1      -9.588   9.360  69.469  1.00  0.00    -0.170 NA 
BRANCH  17  18
HETATM   18  C   UNL     1     -10.505   9.819  70.572  1.00  0.00    -0.301 C  
BRANCH  18  19
HETATM   19  C   UNL     1     -11.875  10.559  70.221  1.00  0.00    -0.418 C  
HETATM   20  C   UNL     1     -11.950  12.130  69.819  1.00  0.00    -0.302 C  
BRANCH  20  21
HETATM   21  C   UNL     1     -12.217  13.374  70.722  1.00  0.00    -0.409 A  
HETATM   22  C   UNL     1     -12.931  15.592  72.413  1.00  0.00    -0.532 A  
HETATM   23  C   UNL     1     -13.076  13.241  71.860  1.00  0.00    -0.483 A  
HETATM   24  C   UNL     1     -12.099  15.755  71.298  1.00  0.00    -0.487 A  
HETATM   25  C   UNL     1     -11.752  14.668  70.463  1.00  0.00    -0.345 A  
HETATM   26  C   UNL     1     -13.426  14.324  72.693  1.00  0.00    -0.623 A  
ENDBRANCH  20  21
BRANCH  20  27
HETATM   27  N   UNL     1     -10.908  12.454  68.856  1.00  0.00    -0.319 N  
HETATM   28  H   UNL     1     -10.053  12.919  69.161  1.00  0.00     0.000 HD 
HETATM   29  C   UNL     1     -11.084  12.131  67.537  1.00  0.00    -0.275 C  
HETATM   30  O   UNL     1     -12.131  11.630  67.130  1.00  0.00    -0.575 OA 
BRANCH  29  31
HETATM   31  C   UNL     1      -9.970  12.535  66.582  1.00  0.00    -0.243 C  
HETATM   32  C   UNL     1     -10.529  10.975  64.690  1.00  0.00    -0.398 C  
HETATM   33  C   UNL     1      -9.445  11.427  65.662  1.00  0.00    -0.253 C  
HETATM   34  C   UNL     1     -11.111  12.131  63.894  1.00  0.00    -0.404 C  
HETATM   35  F   UNL     1     -12.154  11.692  63.150  1.00  0.00    -0.536 F  
HETATM   36  F   UNL     1     -10.174  12.583  63.020  1.00  0.00    -0.311 F  
HETATM   37  C   UNL     1     -11.567  13.288  64.750  1.00  0.00    -0.364 C  
HETATM   38  C   UNL     1     -10.468  13.704  65.725  1.00  0.00    -0.296 C  
ENDBRANCH  29  31
ENDBRANCH  20  27
ENDBRANCH  18  19
ENDBRANCH  17  18
ENDBRANCH   8  10
TORSDOF 6
ENDMDL
MODEL        5
REMARK 921   NORMALIZED FREE ENERGY PREDICTED BY IDOCK:   -7.97 KCAL/MOL
REMARK 922        TOTAL FREE ENERGY PREDICTED BY IDOCK:  -12.31 KCAL/MOL
REMARK 923 INTER-LIGAND FREE ENERGY PREDICTED BY IDOCK:  -11.10 KCAL/MOL
REMARK 924 INTRA-LIGAND FREE ENERGY PREDICTED BY IDOCK:   -1.21 KCAL/MOL
REMARK 927      BINDING AFFINITY PREDICTED BY RF-SCORE:    0.00 PKD
ROOT
HETATM    1  C   UNL     1     -13.358   7.555  71.122  1.00  0.00    -0.229 C  
HETATM    2  C   UNL     1     -12.171   8.526  71.252  1.00  0.00    -0.310 C  
HETATM    3  C   UNL     1     -11.022   7.878  71.963  1.00  0.00    -0.274 A  
HETATM    4  C   UNL     1     -12.584   9.771  72.050  1.00  0.00    -0.432 C  
HETATM    5  N   UNL     1     -11.021   7.653  73.259  1.00  0.00    -0.368 NA 
HETATM    6  N   UNL     1      -9.743   7.436  73.640  1.00  0.00    -0.282 NA 
HETATM    7  C   UNL     1      -8.978   7.422  72.569  1.00  0.00    -0.132 A  
HETATM    8  N   UNL     1      -9.767   7.580  71.443  1.00  0.00    -0.167 NA 
HETATM    9  C   UNL     1      -7.514   7.252  72.665  1.00  0.00    -0.080 C  
ENDROOT
BRANCH   8  10
HETATM   10  C   UNL     1      -9.418   7.588  70.006  1.00  0.00    -0.161 C  
HETATM   11  C   UNL     1     -10.579   7.739  68.995  1.00  0.00    -0.179 C  
HETATM   12  C   UNL     1     -10.441   8.800  67.886  1.00  0.00    -0.216 C  
HETATM   13  C   UNL     1      -9.669   8.148  66.740  1.00  0.00    -0.303 C  
HETATM   14  C   UNL     1      -8.223   8.323  67.175  1.00  0.00    -0.119 C  
HETATM   15  C   UNL     1      -8.288   9.307  68.380  1.00  0.00    -0.119 C  
HETATM   16  C   UNL     1      -8.208   8.520  69.697  1.00  0.00    -0.115 C  
HETATM   17  N   UNL     1      -9.588   9.970  68.201  1.00  0.00    -0.138 NA 
BRANCH  17  18
HETATM   18  C   UNL     1     -10.122  10.906  69.253  1.00  0.00    -0.140 C  
BRANCH  18  19
HETATM   19  C   UNL     1     -11.452  11.744  68.981  1.00  0.00    -0.358 C  
HETATM   20  C   UNL     1     -11.611  13.305  69.397  1.00  0.00    -0.305 C  
BRANCH  20  21
HETATM   21  C   UNL     1     -12.211  13.931  70.694  1.00  0.00    -0.443 A  
HETATM   22  C   UNL     1     -13.097  15.145  73.150  1.00  0.00    -0.625 A  
HETATM   23  C   UNL     1     -11.632  15.129  71.224  1.00  0.00    -0.406 A  
HETATM   24  C   UNL     1     -13.673  13.964  72.663  1.00  0.00    -0.582 A  
HETATM   25  C   UNL     1     -13.235  13.364  71.460  1.00  0.00    -0.395 A  
HETATM   26  C   UNL     1     -12.066  15.730  72.425  1.00  0.00    -0.588 A  
ENDBRANCH  20  21
BRANCH  20  27
HETATM   27  N   UNL     1     -10.423  14.053  69.013  1.00  0.00    -0.371 N  
HETATM   28  H   UNL     1      -9.603  14.062  69.619  1.00  0.00     0.000 HD 
HETATM   29  C   UNL     1     -10.414  14.744  67.830  1.00  0.00    -0.246 C  
HETATM   30  O   UNL     1     -11.410  14.804  67.111  1.00  0.00    -0.337 OA 
BRANCH  29  31
HETATM   31  C   UNL     1      -9.152  15.534  67.513  1.00  0.00    -0.198 C  
HETATM   32  C   UNL     1     -10.202  17.358  66.137  1.00  0.00    -0.334 C  
HETATM   33  C   UNL     1      -9.144  16.262  66.164  1.00  0.00    -0.377 C  
HETATM   34  C   UNL     1     -10.060  18.330  67.296  1.00  0.00    -0.355 C  
HETATM   35  F   UNL     1     -11.100  19.196  67.295  1.00  0.00    -0.536 F  
HETATM   36  F   UNL     1      -8.936  19.073  67.116  1.00  0.00    -0.278 F  
HETATM   37  C   UNL     1      -9.978  17.657  68.645  1.00  0.00    -0.367 C  
HETATM   38  C   UNL     1      -8.924  16.553  68.634  1.00  0.00    -0.236 C  
ENDBRANCH  29  31
ENDBRANCH  20  27
ENDBRANCH  18  19
ENDBRANCH  17  18
ENDBRANCH   8  10
TORSDOF 6
ENDMDL
MODEL        6
REMARK 921   NORMALIZED FREE ENERGY PREDICTED BY IDOCK:   -7.96 KCAL/MOL
REMARK 922        TOTAL FREE ENERGY PREDICTED BY IDOCK:  -12.29 KCAL/MOL
REMARK 923 INTER-LIGAND FREE ENERGY PREDICTED BY IDOCK:  -10.74 KCAL/MOL
REMARK 924 INTRA-LIGAND FREE ENERGY PREDICTED BY IDOCK:   -1.55 KCAL/MOL
REMARK 927      BINDING AFFINITY PREDICTED BY RF-SCORE:    0.00 PKD
ROOT
HETATM    1  C   UNL     1      -6.509  19.753  64.887  1.00  0.00    -0.292 C  
HETATM    2  C   UNL     1      -6.830  19.648  66.388  1.00  0.00    -0.219 C  
HETATM    3  C   UNL     1      -8.267  19.280  66.605  1.00  0.00    -0.293 A  
HETATM    4  C   UNL     1      -6.572  20.991  67.085  1.00  0.00    -0.424 C  
HETATM    5  N   UNL     1      -9.255  20.129  66.419  1.00  0.00    -0.333 NA 
HETATM    6  N   UNL     1     -10.343  19.640  67.054  1.00  0.00    -0.428 NA 
HETATM    7  C   UNL     1     -10.055  18.450  67.536  1.00  0.00    -0.357 A  
HETATM    8  N   UNL     1      -8.763  18.112  67.171  1.00  0.00    -0.244 NA 
HETATM    9  C   UNL     1     -11.033  17.677  68.328  1.00  0.00    -0.053 C  
ENDROOT
BRANCH   8  10
HETATM   10  C   UNL     1      -7.978  16.882  67.410  1.00  0.00    -0.170 C  
HETATM   11  C   UNL     1      -7.654  16.521  68.880  1.00  0.00    -0.238 C  
HETATM   12  C   UNL     1      -7.947  15.086  69.356  1.00  0.00    -0.170 C  
HETATM   13  C   UNL     1      -6.729  14.239  68.991  1.00  0.00    -0.106 C  
HETATM   14  C   UNL     1      -6.999  13.880  67.539  1.00  0.00    -0.162 C  
HETATM   15  C   UNL     1      -8.475  14.310  67.293  1.00  0.00    -0.210 C  
HETATM   16  C   UNL     1      -8.507  15.672  66.583  1.00  0.00    -0.323 C  
HETATM   17  N   UNL     1      -9.037  14.371  68.650  1.00  0.00    -0.194 NA 
BRANCH  17  18
HETATM   18  C   UNL     1     -10.426  14.904  68.881  1.00  0.00    -0.242 C  
BRANCH  18  19
HETATM   19  C   UNL     1     -11.698  14.047  68.440  1.00  0.00    -0.389 C  
HETATM   20  C   UNL     1     -11.577  12.608  67.698  1.00  0.00    -0.357 C  
BRANCH  20  21
HETATM   21  C   UNL     1     -11.584  12.271  66.175  1.00  0.00    -0.450 A  
HETATM   22  C   UNL     1     -11.360  11.634  63.376  1.00  0.00    -0.380 A  
HETATM   23  C   UNL     1     -10.645  11.317  65.666  1.00  0.00    -0.303 A  
HETATM   24  C   UNL     1     -12.279  12.583  63.844  1.00  0.00    -0.590 A  
HETATM   25  C   UNL     1     -12.386  12.901  65.217  1.00  0.00    -0.544 A  
HETATM   26  C   UNL     1     -10.535  10.999  64.296  1.00  0.00    -0.427 A  
ENDBRANCH  20  21
BRANCH  20  27
HETATM   27  N   UNL     1     -10.581  11.780  68.364  1.00  0.00    -0.208 N  
HETATM   28  H   UNL     1      -9.598  11.852  68.107  1.00  0.00     0.000 HD 
HETATM   29  C   UNL     1     -10.977  10.903  69.340  1.00  0.00    -0.252 C  
HETATM   30  O   UNL     1     -12.163  10.749  69.625  1.00  0.00    -0.318 OA 
BRANCH  29  31
HETATM   31  C   UNL     1      -9.888  10.043  69.965  1.00  0.00    -0.247 C  
HETATM   32  C   UNL     1     -11.322   8.110  70.690  1.00  0.00    -0.256 C  
HETATM   33  C   UNL     1     -10.324   9.168  71.145  1.00  0.00    -0.387 C  
HETATM   34  C   UNL     1     -10.793   7.271  69.539  1.00  0.00    -0.209 C  
HETATM   35  F   UNL     1     -11.767   6.443  69.093  1.00  0.00    -0.420 F  
HETATM   36  F   UNL     1      -9.788   6.477  69.995  1.00  0.00    -0.164 F  
HETATM   37  C   UNL     1     -10.271   8.088  68.383  1.00  0.00    -0.239 C  
HETATM   38  C   UNL     1      -9.289   9.150  68.872  1.00  0.00    -0.146 C  
ENDBRANCH  29  31
ENDBRANCH  20  27
ENDBRANCH  18  19
ENDBRANCH  17  18
ENDBRANCH   8  10
TORSDOF 6
ENDMDL
MODEL        7
REMARK 921   NORMALIZED FREE ENERGY PREDICTED BY IDOCK:   -7.90 KCAL/MOL
REMARK 922        TOTAL FREE ENERGY PREDICTED BY IDOCK:  -12.21 KCAL/MOL
REMARK 923 INTER-LIGAND FREE ENERGY PREDICTED BY IDOCK:  -10.89 KCAL/MOL
REMARK 924 INTRA-LIGAND FREE ENERGY PREDICTED BY IDOCK:   -1.32 KCAL/MOL
REMARK 927      BINDING AFFINITY PREDICTED BY RF-SCORE:    0.00 PKD
ROOT
HETATM    1  C   UNL     1      -7.764   5.689  71.563  1.00  0.00    -0.107 C  
HETATM    2  C   UNL     1      -9.146   5.726  70.888  1.00  0.00    -0.157 C  
HETATM    3  C   UNL     1      -9.938   6.911  71.350  1.00  0.00    -0.181 A  
HETATM    4  C   UNL     1      -9.943   4.459  71.231  1.00  0.00    -0.245 C  
HETATM    5  N   UNL     1     -10.484   6.983  72.545  1.00  0.00    -0.207 NA 
HETATM    6  N   UNL     1     -11.422   7.954  72.513  1.00  0.00    -0.375 NA 
HETATM    7  C   UNL     1     -11.380   8.547  71.338  1.00  0.00    -0.271 A  
HETATM    8  N   UNL     1     -10.356   7.996  70.587  1.00  0.00    -0.200 NA 
HETATM    9  C   UNL     1     -12.323   9.626  70.980  1.00  0.00    -0.396 C  
ENDROOT
BRANCH   8  10
HETATM   10  C   UNL     1      -9.858   8.329  69.235  1.00  0.00    -0.186 C  
HETATM   11  C   UNL     1     -10.909   8.703  68.163  1.00  0.00    -0.018 C  
HETATM   12  C   UNL     1     -10.683   9.987  67.342  1.00  0.00    -0.274 C  
HETATM   13  C   UNL     1      -9.777   9.611  66.171  1.00  0.00    -0.317 C  
HETATM   14  C   UNL     1      -8.390   9.687  66.788  1.00  0.00    -0.117 C  
HETATM   15  C   UNL     1      -8.608  10.373  68.169  1.00  0.00    -0.125 C  
HETATM   16  C   UNL     1      -8.646   9.308  69.277  1.00  0.00    -0.139 C  
HETATM   17  N   UNL     1      -9.898  11.057  68.003  1.00  0.00    -0.167 NA 
BRANCH  17  18
HETATM   18  C   UNL     1     -10.565  11.730  69.174  1.00  0.00    -0.069 C  
BRANCH  18  19
HETATM   19  C   UNL     1     -11.862  12.632  68.949  1.00  0.00    -0.345 C  
HETATM   20  C   UNL     1     -11.938  14.192  69.390  1.00  0.00    -0.337 C  
BRANCH  20  21
HETATM   21  C   UNL     1     -12.473  14.827  70.711  1.00  0.00    -0.402 A  
HETATM   22  C   UNL     1     -13.271  15.905  73.259  1.00  0.00    -0.698 A  
HETATM   23  C   UNL     1     -11.540  15.360  71.658  1.00  0.00    -0.492 A  
HETATM   24  C   UNL     1     -14.205  15.377  72.357  1.00  0.00    -0.584 A  
HETATM   25  C   UNL     1     -13.814  14.842  71.108  1.00  0.00    -0.428 A  
HETATM   26  C   UNL     1     -11.927  15.893  72.906  1.00  0.00    -0.609 A  
ENDBRANCH  20  21
BRANCH  20  27
HETATM   27  N   UNL     1     -10.726  14.890  68.983  1.00  0.00    -0.239 N  
HETATM   28  H   UNL     1      -9.996  15.093  69.665  1.00  0.00     0.000 HD 
HETATM   29  C   UNL     1     -10.575  15.273  67.676  1.00  0.00    -0.270 C  
HETATM   30  O   UNL     1     -11.467  15.100  66.847  1.00  0.00    -0.314 OA 
BRANCH  29  31
HETATM   31  C   UNL     1      -9.301  16.032  67.332  1.00  0.00    -0.220 C  
HETATM   32  C   UNL     1     -10.360  18.099  66.366  1.00  0.00    -0.404 C  
HETATM   33  C   UNL     1      -9.385  16.955  66.111  1.00  0.00    -0.268 C  
HETATM   34  C   UNL     1     -10.025  18.874  67.629  1.00  0.00    -0.349 C  
HETATM   35  F   UNL     1     -10.996  19.785  67.874  1.00  0.00    -0.499 F  
HETATM   36  F   UNL     1      -8.877  19.573  67.429  1.00  0.00    -0.307 F  
HETATM   37  C   UNL     1      -9.849  18.001  68.848  1.00  0.00    -0.321 C  
HETATM   38  C   UNL     1      -8.883  16.855  68.555  1.00  0.00    -0.251 C  
ENDBRANCH  29  31
ENDBRANCH  20  27
ENDBRANCH  18  19
ENDBRANCH  17  18
ENDBRANCH   8  10
TORSDOF 6
ENDMDL
MODEL        8
REMARK 921   NORMALIZED FREE ENERGY PREDICTED BY IDOCK:   -7.89 KCAL/MOL
REMARK 922        TOTAL FREE ENERGY PREDICTED BY IDOCK:  -12.20 KCAL/MOL
REMARK 923 INTER-LIGAND FREE ENERGY PREDICTED BY IDOCK:  -10.26 KCAL/MOL
REMARK 924 INTRA-LIGAND FREE ENERGY PREDICTED BY IDOCK:   -1.95 KCAL/MOL
REMARK 927      BINDING AFFINITY PREDICTED BY RF-SCORE:    0.00 PKD
ROOT
HETATM    1  C   UNL     1     -10.238   8.190  68.833  1.00  0.00    -0.221 C  
HETATM    2  C   UNL     1     -10.657   9.667  68.939  1.00  0.00    -0.239 C  
HETATM    3  C   UNL     1      -9.511  10.575  68.611  1.00  0.00    -0.172 A  
HETATM    4  C   UNL     1     -11.126   9.989  70.365  1.00  0.00    -0.393 C  
HETATM    5  N   UNL     1      -8.499  10.770  69.429  1.00  0.00    -0.054 NA 
HETATM    6  N   UNL     1      -7.862  11.895  69.037  1.00  0.00     0.023 NA 
HETATM    7  C   UNL     1      -8.415  12.330  67.924  1.00  0.00    -0.165 A  
HETATM    8  N   UNL     1      -9.407  11.448  67.534  1.00  0.00    -0.162 NA 
HETATM    9  C   UNL     1      -7.966  13.577  67.272  1.00  0.00    -0.125 C  
ENDROOT
BRANCH   8  10
HETATM   10  C   UNL     1     -10.288  11.442  66.346  1.00  0.00    -0.242 C  
HETATM   11  C   UNL     1     -11.712  12.024  66.516  1.00  0.00    -0.330 C  
HETATM   12  C   UNL     1     -12.201  13.059  65.485  1.00  0.00    -0.469 C  
HETATM   13  C   UNL     1     -12.776  12.275  64.307  1.00  0.00    -0.413 C  
HETATM   14  C   UNL     1     -11.537  11.952  63.488  1.00  0.00    -0.537 C  
HETATM   15  C   UNL     1     -10.408  12.820  64.118  1.00  0.00    -0.376 C  
HETATM   16  C   UNL     1      -9.561  11.960  65.068  1.00  0.00    -0.110 C  
HETATM   17  N   UNL     1     -11.152  13.873  64.825  1.00  0.00    -0.365 NA 
BRANCH  17  18
HETATM   18  C   UNL     1     -10.432  14.855  65.712  1.00  0.00    -0.330 C  
BRANCH  18  19
HETATM   19  C   UNL     1     -11.260  15.859  66.635  1.00  0.00     0.061 C  
HETATM   20  C   UNL     1     -10.851  16.186  68.171  1.00  0.00    -0.329 C  
BRANCH  20  21
HETATM   21  C   UNL     1     -11.349  15.524  69.494  1.00  0.00    -0.317 A  
HETATM   22  C   UNL     1     -12.426  14.186  71.804  1.00  0.00    -0.360 A  
HETATM   23  C   UNL     1     -11.774  14.157  69.474  1.00  0.00    -0.364 A  
HETATM   24  C   UNL     1     -12.031  15.530  71.849  1.00  0.00    -0.506 A  
HETATM   25  C   UNL     1     -11.507  16.189  70.714  1.00  0.00    -0.408 A  
HETATM   26  C   UNL     1     -12.299  13.496  70.605  1.00  0.00    -0.432 A  
ENDBRANCH  20  21
BRANCH  20  27
HETATM   27  N   UNL     1      -9.419  16.430  68.270  1.00  0.00    -0.213 N  
HETATM   28  H   UNL     1      -8.757  15.667  68.133  1.00  0.00     0.000 HD 
HETATM   29  C   UNL     1      -8.968  17.693  68.550  1.00  0.00    -0.289 C  
HETATM   30  O   UNL     1      -9.745  18.617  68.785  1.00  0.00    -0.360 OA 
BRANCH  29  31
HETATM   31  C   UNL     1      -7.461  17.866  68.676  1.00  0.00    -0.280 C  
HETATM   32  C   UNL     1      -6.865  17.658  66.242  1.00  0.00    -0.322 C  
HETATM   33  C   UNL     1      -6.615  17.114  67.644  1.00  0.00    -0.164 C  
HETATM   34  C   UNL     1      -6.646  19.159  66.156  1.00  0.00    -0.212 C  
HETATM   35  F   UNL     1      -7.011  19.603  64.930  1.00  0.00    -0.272 F  
HETATM   36  F   UNL     1      -5.319  19.421  66.284  1.00  0.00    -0.153 F  
HETATM   37  C   UNL     1      -7.393  19.943  67.208  1.00  0.00    -0.292 C  
HETATM   38  C   UNL     1      -7.137  19.362  68.597  1.00  0.00    -0.364 C  
ENDBRANCH  29  31
ENDBRANCH  20  27
ENDBRANCH  18  19
ENDBRANCH  17  18
ENDBRANCH   8  10
TORSDOF 6
ENDMDL
MODEL        9
REMARK 921   NORMALIZED FREE ENERGY PREDICTED BY IDOCK:   -7.73 KCAL/MOL
REMARK 922        TOTAL FREE ENERGY PREDICTED BY IDOCK:  -11.98 KCAL/MOL
REMARK 923 INTER-LIGAND FREE ENERGY PREDICTED BY IDOCK:  -11.02 KCAL/MOL
REMARK 924 INTRA-LIGAND FREE ENERGY PREDICTED BY IDOCK:   -0.95 KCAL/MOL
REMARK 927      BINDING AFFINITY PREDICTED BY RF-SCORE:    0.00 PKD
ROOT
HETATM    1  C   UNL     1      -6.494   8.547  70.284  1.00  0.00    -0.038 C  
HETATM    2  C   UNL     1      -7.919   8.981  69.898  1.00  0.00    -0.103 C  
HETATM    3  C   UNL     1      -8.452   8.139  68.779  1.00  0.00    -0.126 A  
HETATM    4  C   UNL     1      -7.925  10.445  69.436  1.00  0.00    -0.161 C  
HETATM    5  N   UNL     1      -8.042   8.264  67.534  1.00  0.00    -0.120 NA 
HETATM    6  N   UNL     1      -8.957   7.670  66.737  1.00  0.00    -0.137 NA 
HETATM    7  C   UNL     1      -9.868   7.094  67.491  1.00  0.00    -0.151 A  
HETATM    8  N   UNL     1      -9.528   7.259  68.823  1.00  0.00    -0.143 NA 
HETATM    9  C   UNL     1     -11.033   6.400  66.906  1.00  0.00    -0.413 C  
ENDROOT
BRANCH   8  10
HETATM   10  C   UNL     1     -10.177   6.770  70.058  1.00  0.00    -0.191 C  
HETATM   11  C   UNL     1      -9.516   7.150  71.405  1.00  0.00    -0.162 C  
HETATM   12  C   UNL     1     -10.409   7.750  72.507  1.00  0.00    -0.268 C  
HETATM   13  C   UNL     1     -11.030   6.577  73.264  1.00  0.00    -0.224 C  
HETATM   14  C   UNL     1     -12.228   6.223  72.399  1.00  0.00    -0.128 C  
HETATM   15  C   UNL     1     -12.348   7.401  71.387  1.00  0.00    -0.361 C  
HETATM   16  C   UNL     1     -11.719   6.997  70.044  1.00  0.00    -0.185 C  
HETATM   17  N   UNL     1     -11.611   8.487  72.049  1.00  0.00    -0.336 NA 
BRANCH  17  18
HETATM   18  C   UNL     1     -11.349   9.784  71.329  1.00  0.00    -0.375 C  
BRANCH  18  19
HETATM   19  C   UNL     1     -12.567  10.705  70.867  1.00  0.00    -0.503 C  
HETATM   20  C   UNL     1     -12.378  12.248  70.400  1.00  0.00    -0.228 C  
BRANCH  20  21
HETATM   21  C   UNL     1     -12.497  13.561  71.235  1.00  0.00    -0.388 A  
HETATM   22  C   UNL     1     -12.485  16.013  72.743  1.00  0.00    -0.582 A  
HETATM   23  C   UNL     1     -11.703  14.695  70.870  1.00  0.00    -0.335 A  
HETATM   24  C   UNL     1     -13.262  14.914  73.131  1.00  0.00    -0.568 A  
HETATM   25  C   UNL     1     -13.265  13.707  72.395  1.00  0.00    -0.584 A  
HETATM   26  C   UNL     1     -11.697  15.900  71.604  1.00  0.00    -0.563 A  
ENDBRANCH  20  21
BRANCH  20  27
HETATM   27  N   UNL     1     -11.248  12.364  69.489  1.00  0.00    -0.461 N  
HETATM   28  H   UNL     1     -10.405  12.859  69.777  1.00  0.00     0.000 HD 
HETATM   29  C   UNL     1     -11.326  11.803  68.242  1.00  0.00    -0.282 C  
HETATM   30  O   UNL     1     -12.354  11.257  67.845  1.00  0.00    -0.363 OA 
BRANCH  29  31
HETATM   31  C   UNL     1     -10.123  11.997  67.331  1.00  0.00    -0.206 C  
HETATM   32  C   UNL     1     -11.327  11.952  65.124  1.00  0.00    -0.328 C  
HETATM   33  C   UNL     1     -10.213  11.327  65.956  1.00  0.00    -0.295 C  
HETATM   34  C   UNL     1     -11.182  13.460  65.002  1.00  0.00    -0.317 C  
HETATM   35  F   UNL     1     -12.264  13.972  64.370  1.00  0.00    -0.412 F  
HETATM   36  F   UNL     1     -10.107  13.739  64.218  1.00  0.00    -0.438 F  
HETATM   37  C   UNL     1     -11.004  14.162  66.326  1.00  0.00    -0.303 C  
HETATM   38  C   UNL     1      -9.896  13.501  67.143  1.00  0.00    -0.245 C  
ENDBRANCH  29  31
ENDBRANCH  20  27
ENDBRANCH  18  19
ENDBRANCH  17  18
ENDBRANCH   8  10
TORSDOF 6
ENDMDL
MODEL       10
REMARK 921   NORMALIZED FREE ENERGY PREDICTED BY IDOCK:   -7.71 KCAL/MOL
REMARK 922        TOTAL FREE ENERGY PREDICTED BY IDOCK:  -11.96 KCAL/MOL
REMARK 923 INTER-LIGAND FREE ENERGY PREDICTED BY IDOCK:  -10.61 KCAL/MOL
REMARK 924 INTRA-LIGAND FREE ENERGY PREDICTED BY IDOCK:   -1.34 KCAL/MOL
REMARK 927      BINDING AFFINITY PREDICTED BY RF-SCORE:    0.00 PKD
ROOT
HETATM    1  C   UNL     1      -6.502   9.441  68.898  1.00  0.00    -0.047 C  
HETATM    2  C   UNL     1      -8.003   9.416  68.561  1.00  0.00    -0.093 C  
HETATM    3  C   UNL     1      -8.381   8.131  67.887  1.00  0.00    -0.129 A  
HETATM    4  C   UNL     1      -8.358  10.571  67.614  1.00  0.00    -0.114 C  
HETATM    5  N   UNL     1      -8.062   7.860  66.639  1.00  0.00    -0.105 NA 
HETATM    6  N   UNL     1      -8.853   6.847  66.222  1.00  0.00    -0.145 NA 
HETATM    7  C   UNL     1      -9.579   6.429  67.238  1.00  0.00    -0.125 A  
HETATM    8  N   UNL     1      -9.227   7.141  68.372  1.00  0.00    -0.134 NA 
HETATM    9  C   UNL     1     -10.581   5.356  67.084  1.00  0.00    -0.274 C  
ENDROOT
BRANCH   8  10
HETATM   10  C   UNL     1      -9.697   7.032  69.770  1.00  0.00    -0.168 C  
HETATM   11  C   UNL     1      -8.909   7.818  70.846  1.00  0.00    -0.142 C  
HETATM   12  C   UNL     1      -9.704   8.700  71.827  1.00  0.00    -0.291 C  
HETATM   13  C   UNL     1     -10.158   7.795  72.971  1.00  0.00    -0.382 C  
HETATM   14  C   UNL     1     -11.424   7.166  72.413  1.00  0.00    -0.303 C  
HETATM   15  C   UNL     1     -11.735   7.979  71.122  1.00  0.00    -0.284 C  
HETATM   16  C   UNL     1     -11.241   7.205  69.890  1.00  0.00    -0.241 C  
HETATM   17  N   UNL     1     -10.995   9.233  71.331  1.00  0.00    -0.335 NA 
BRANCH  17  18
HETATM   18  C   UNL     1     -10.901  10.258  70.231  1.00  0.00    -0.286 C  
BRANCH  18  19
HETATM   19  C   UNL     1     -12.160  11.172  69.876  1.00  0.00    -0.418 C  
HETATM   20  C   UNL     1     -12.085  12.792  69.813  1.00  0.00    -0.237 C  
BRANCH  20  21
HETATM   21  C   UNL     1     -12.403  13.845  70.920  1.00  0.00    -0.451 A  
HETATM   22  C   UNL     1     -12.760  15.847  72.959  1.00  0.00    -0.611 A  
HETATM   23  C   UNL     1     -11.719  15.103  70.904  1.00  0.00    -0.378 A  
HETATM   24  C   UNL     1     -13.432  14.618  73.007  1.00  0.00    -0.450 A  
HETATM   25  C   UNL     1     -13.253  13.632  72.010  1.00  0.00    -0.522 A  
HETATM   26  C   UNL     1     -11.894  16.089  71.899  1.00  0.00    -0.619 A  
ENDBRANCH  20  21
BRANCH  20  27
HETATM   27  N   UNL     1     -10.898  13.213  69.082  1.00  0.00    -0.428 N  
HETATM   28  H   UNL     1      -9.998  13.276  69.555  1.00  0.00     0.000 HD 
HETATM   29  C   UNL     1     -11.001  13.525  67.752  1.00  0.00    -0.266 C  
HETATM   30  O   UNL     1     -12.086  13.521  67.171  1.00  0.00    -0.378 OA 
BRANCH  29  31
HETATM   31  C   UNL     1      -9.729  13.994  67.062  1.00  0.00    -0.256 C  
HETATM   32  C   UNL     1     -10.696  15.943  65.801  1.00  0.00    -0.325 C  
HETATM   33  C   UNL     1      -9.916  14.639  65.684  1.00  0.00    -0.381 C  
HETATM   34  C   UNL     1     -10.063  16.910  66.788  1.00  0.00    -0.294 C  
HETATM   35  F   UNL     1     -10.867  17.987  66.949  1.00  0.00    -0.340 F  
HETATM   36  F   UNL     1      -8.895  17.371  66.268  1.00  0.00    -0.261 F  
HETATM   37  C   UNL     1      -9.779  16.299  68.139  1.00  0.00    -0.227 C  
HETATM   38  C   UNL     1      -9.014  14.986  67.986  1.00  0.00    -0.173 C  
ENDBRANCH  29  31
ENDBRANCH  20  27
ENDBRANCH  18  19
ENDBRANCH  17  18
ENDBRANCH   8  10
TORSDOF 6
ENDMDL
MODEL       11
REMARK 921   NORMALIZED FREE ENERGY PREDICTED BY IDOCK:   -7.71 KCAL/MOL
REMARK 922        TOTAL FREE ENERGY PREDICTED BY IDOCK:  -11.95 KCAL/MOL
REMARK 923 INTER-LIGAND FREE ENERGY PREDICTED BY IDOCK:  -10.48 KCAL/MOL
REMARK 924 INTRA-LIGAND FREE ENERGY PREDICTED BY IDOCK:   -1.47 KCAL/MOL
REMARK 927      BINDING AFFINITY PREDICTED BY RF-SCORE:    0.00 PKD
ROOT
HETATM    1  C   UNL     1      -6.803   5.605  72.670  1.00  0.00    -0.078 C  
HETATM    2  C   UNL     1      -8.186   5.270  72.085  1.00  0.00    -0.114 C  
HETATM    3  C   UNL     1      -9.184   6.335  72.426  1.00  0.00    -0.138 A  
HETATM    4  C   UNL     1      -8.698   3.939  72.651  1.00  0.00    -0.106 C  
HETATM    5  N   UNL     1      -9.692   6.475  73.632  1.00  0.00    -0.174 NA 
HETATM    6  N   UNL     1     -10.808   7.230  73.524  1.00  0.00    -0.338 NA 
HETATM    7  C   UNL     1     -10.926   7.638  72.278  1.00  0.00    -0.279 A  
HETATM    8  N   UNL     1      -9.839   7.191  71.548  1.00  0.00    -0.172 NA 
HETATM    9  C   UNL     1     -12.079   8.447  71.833  1.00  0.00    -0.398 C  
ENDROOT
BRANCH   8  10
HETATM   10  C   UNL     1      -9.464   7.409  70.134  1.00  0.00    -0.165 C  
HETATM   11  C   UNL     1     -10.614   7.538  69.106  1.00  0.00    -0.204 C  
HETATM   12  C   UNL     1     -10.585   8.730  68.131  1.00  0.00    -0.147 C  
HETATM   13  C   UNL     1      -9.716   8.314  66.946  1.00  0.00    -0.291 C  
HETATM   14  C   UNL     1      -8.312   8.609  67.447  1.00  0.00    -0.116 C  
HETATM   15  C   UNL     1      -8.522   9.430  68.754  1.00  0.00    -0.122 C  
HETATM   16  C   UNL     1      -8.372   8.509  69.975  1.00  0.00    -0.123 C  
HETATM   17  N   UNL     1      -9.889   9.949  68.606  1.00  0.00    -0.154 NA 
BRANCH  17  18
HETATM   18  C   UNL     1     -10.556  10.683  69.740  1.00  0.00    -0.184 C  
BRANCH  18  19
HETATM   19  C   UNL     1     -11.846  11.582  69.464  1.00  0.00    -0.419 C  
HETATM   20  C   UNL     1     -11.839  13.200  69.603  1.00  0.00    -0.324 C  
BRANCH  20  21
HETATM   21  C   UNL     1     -12.227  14.094  70.821  1.00  0.00    -0.435 A  
HETATM   22  C   UNL     1     -13.167  15.741  72.988  1.00  0.00    -0.671 A  
HETATM   23  C   UNL     1     -13.493  13.893  71.460  1.00  0.00    -0.383 A  
HETATM   24  C   UNL     1     -11.929  15.969  72.372  1.00  0.00    -0.644 A  
HETATM   25  C   UNL     1     -11.469  15.165  71.304  1.00  0.00    -0.395 A  
HETATM   26  C   UNL     1     -13.956  14.695  72.524  1.00  0.00    -0.518 A  
ENDBRANCH  20  21
BRANCH  20  27
HETATM   27  N   UNL     1     -10.656  13.755  68.962  1.00  0.00    -0.379 N  
HETATM   28  H   UNL     1      -9.772  13.806  69.468  1.00  0.00     0.000 HD 
HETATM   29  C   UNL     1     -10.738  14.211  67.672  1.00  0.00    -0.257 C  
HETATM   30  O   UNL     1     -11.805  14.223  67.060  1.00  0.00    -0.394 OA 
BRANCH  29  31
HETATM   31  C   UNL     1      -9.472  14.814  67.081  1.00  0.00    -0.233 C  
HETATM   32  C   UNL     1     -10.534  16.685  65.779  1.00  0.00    -0.324 C  
HETATM   33  C   UNL     1      -9.625  15.464  65.701  1.00  0.00    -0.323 C  
HETATM   34  C   UNL     1     -10.068  17.688  66.820  1.00  0.00    -0.334 C  
HETATM   35  F   UNL     1     -10.982  18.680  66.937  1.00  0.00    -0.420 F  
HETATM   36  F   UNL     1      -8.917  18.270  66.391  1.00  0.00    -0.269 F  
HETATM   37  C   UNL     1      -9.821  17.082  68.180  1.00  0.00    -0.273 C  
HETATM   38  C   UNL     1      -8.923  15.851  68.066  1.00  0.00    -0.182 C  
ENDBRANCH  29  31
ENDBRANCH  20  27
ENDBRANCH  18  19
ENDBRANCH  17  18
ENDBRANCH   8  10
TORSDOF 6
ENDMDL
MODEL       12
REMARK 921   NORMALIZED FREE ENERGY PREDICTED BY IDOCK:   -7.64 KCAL/MOL
REMARK 922        TOTAL FREE ENERGY PREDICTED BY IDOCK:  -11.86 KCAL/MOL
REMARK 923 INTER-LIGAND FREE ENERGY PREDICTED BY IDOCK:  -11.17 KCAL/MOL
REMARK 924 INTRA-LIGAND FREE ENERGY PREDICTED BY IDOCK:   -0.68 KCAL/MOL
REMARK 927      BINDING AFFINITY PREDICTED BY RF-SCORE:    0.00 PKD
ROOT
HETATM    1  C   UNL     1     -11.038   9.912  71.449  1.00  0.00    -0.207 C  
HETATM    2  C   UNL     1      -9.996   8.883  70.977  1.00  0.00    -0.324 C  
HETATM    3  C   UNL     1     -10.603   7.909  70.013  1.00  0.00    -0.242 A  
HETATM    4  C   UNL     1      -9.448   8.090  72.172  1.00  0.00    -0.264 C  
HETATM    5  N   UNL     1     -11.426   6.953  70.388  1.00  0.00    -0.327 NA 
HETATM    6  N   UNL     1     -11.479   6.041  69.393  1.00  0.00    -0.252 NA 
HETATM    7  C   UNL     1     -10.777   6.484  68.372  1.00  0.00    -0.279 A  
HETATM    8  N   UNL     1     -10.288   7.744  68.669  1.00  0.00    -0.202 NA 
HETATM    9  C   UNL     1     -10.606   5.683  67.143  1.00  0.00    -0.344 C  
ENDROOT
BRANCH   8  10
HETATM   10  C   UNL     1      -9.492   8.692  67.859  1.00  0.00    -0.139 C  
HETATM   11  C   UNL     1     -10.231   9.465  66.741  1.00  0.00    -0.320 C  
HETATM   12  C   UNL     1     -10.048  10.993  66.672  1.00  0.00    -0.220 C  
HETATM   13  C   UNL     1      -8.777  11.253  65.866  1.00  0.00    -0.146 C  
HETATM   14  C   UNL     1      -7.686  11.106  66.913  1.00  0.00    -0.148 C  
HETATM   15  C   UNL     1      -8.444  11.060  68.272  1.00  0.00    -0.138 C  
HETATM   16  C   UNL     1      -8.584   9.603  68.739  1.00  0.00    -0.125 C  
HETATM   17  N   UNL     1      -9.741  11.674  67.952  1.00  0.00    -0.174 NA 
BRANCH  17  18
HETATM   18  C   UNL     1     -10.852  11.690  68.969  1.00  0.00    -0.203 C  
BRANCH  18  19
HETATM   19  C   UNL     1     -12.076  12.701  68.804  1.00  0.00    -0.155 C  
HETATM   20  C   UNL     1     -12.023  14.241  69.316  1.00  0.00    -0.335 C  
BRANCH  20  21
HETATM   21  C   UNL     1     -12.492  14.853  70.672  1.00  0.00    -0.411 A  
HETATM   22  C   UNL     1     -13.176  15.870  73.278  1.00  0.00    -0.698 A  
HETATM   23  C   UNL     1     -11.509  15.250  71.636  1.00  0.00    -0.471 A  
HETATM   24  C   UNL     1     -14.158  15.475  72.359  1.00  0.00    -0.627 A  
HETATM   25  C   UNL     1     -13.824  14.971  71.082  1.00  0.00    -0.468 A  
HETATM   26  C   UNL     1     -11.840  15.752  72.912  1.00  0.00    -0.568 A  
ENDBRANCH  20  21
BRANCH  20  27
HETATM   27  N   UNL     1     -10.764  14.859  68.924  1.00  0.00    -0.236 N  
HETATM   28  H   UNL     1     -10.004  14.949  69.597  1.00  0.00     0.000 HD 
HETATM   29  C   UNL     1     -10.609  15.319  67.643  1.00  0.00    -0.270 C  
HETATM   30  O   UNL     1     -11.531  15.283  66.829  1.00  0.00    -0.259 OA 
BRANCH  29  31
HETATM   31  C   UNL     1      -9.282  15.988  67.315  1.00  0.00    -0.215 C  
HETATM   32  C   UNL     1     -10.183  18.116  66.323  1.00  0.00    -0.401 C  
HETATM   33  C   UNL     1      -9.283  16.908  66.089  1.00  0.00    -0.270 C  
HETATM   34  C   UNL     1      -9.817  18.874  67.588  1.00  0.00    -0.331 C  
HETATM   35  F   UNL     1     -10.727  19.851  67.813  1.00  0.00    -0.518 F  
HETATM   36  F   UNL     1      -8.621  19.493  67.403  1.00  0.00    -0.302 F  
HETATM   37  C   UNL     1      -9.718  17.998  68.814  1.00  0.00    -0.336 C  
HETATM   38  C   UNL     1      -8.827  16.788  68.541  1.00  0.00    -0.248 C  
ENDBRANCH  29  31
ENDBRANCH  20  27
ENDBRANCH  18  19
ENDBRANCH  17  18
ENDBRANCH   8  10
TORSDOF 6
ENDMDL
MODEL       13
REMARK 921   NORMALIZED FREE ENERGY PREDICTED BY IDOCK:   -7.63 KCAL/MOL
REMARK 922        TOTAL FREE ENERGY PREDICTED BY IDOCK:  -11.85 KCAL/MOL
REMARK 923 INTER-LIGAND FREE ENERGY PREDICTED BY IDOCK:  -10.87 KCAL/MOL
REMARK 924 INTRA-LIGAND FREE ENERGY PREDICTED BY IDOCK:   -0.98 KCAL/MOL
REMARK 927      BINDING AFFINITY PREDICTED BY RF-SCORE:    0.00 PKD
ROOT
HETATM    1  C   UNL     1     -10.046  18.818  66.223  1.00  0.00    -0.447 C  
HETATM    2  C   UNL     1      -9.448  17.523  66.801  1.00  0.00    -0.282 C  
HETATM    3  C   UNL     1     -10.421  16.846  67.718  1.00  0.00    -0.340 A  
HETATM    4  C   UNL     1      -8.176  17.833  67.603  1.00  0.00    -0.230 C  
HETATM    5  N   UNL     1     -10.697  17.295  68.923  1.00  0.00    -0.265 NA 
HETATM    6  N   UNL     1     -11.278  16.291  69.616  1.00  0.00    -0.329 NA 
HETATM    7  C   UNL     1     -11.454  15.265  68.809  1.00  0.00    -0.331 A  
HETATM    8  N   UNL     1     -11.031  15.609  67.537  1.00  0.00    -0.320 NA 
HETATM    9  C   UNL     1     -12.027  13.992  69.289  1.00  0.00    -0.396 C  
ENDROOT
BRANCH   8  10
HETATM   10  C   UNL     1     -11.055  14.850  66.268  1.00  0.00    -0.340 C  
HETATM   11  C   UNL     1      -9.860  13.910  65.981  1.00  0.00    -0.306 C  
HETATM   12  C   UNL     1     -10.162  12.461  65.554  1.00  0.00    -0.274 C  
HETATM   13  C   UNL     1     -10.375  12.478  64.042  1.00  0.00    -0.429 C  
HETATM   14  C   UNL     1     -11.834  12.886  63.918  1.00  0.00    -0.541 C  
HETATM   15  C   UNL     1     -12.397  12.786  65.366  1.00  0.00    -0.470 C  
HETATM   16  C   UNL     1     -12.438  14.183  66.005  1.00  0.00    -0.454 C  
HETATM   17  N   UNL     1     -11.442  11.890  66.035  1.00  0.00    -0.362 NA 
BRANCH  17  18
HETATM   18  C   UNL     1     -11.534  11.644  67.518  1.00  0.00    -0.289 C  
BRANCH  18  19
HETATM   19  C   UNL     1     -10.213  11.346  68.364  1.00  0.00    -0.206 C  
HETATM   20  C   UNL     1      -9.860   9.878  68.959  1.00  0.00    -0.190 C  
BRANCH  20  21
HETATM   21  C   UNL     1     -10.164   9.277  70.367  1.00  0.00    -0.284 A  
HETATM   22  C   UNL     1     -10.553   8.009  72.923  1.00  0.00    -0.399 A  
HETATM   23  C   UNL     1      -9.082   8.777  71.161  1.00  0.00    -0.285 A  
HETATM   24  C   UNL     1     -11.632   8.476  72.160  1.00  0.00    -0.447 A  
HETATM   25  C   UNL     1     -11.443   9.094  70.903  1.00  0.00    -0.357 A  
HETATM   26  C   UNL     1      -9.268   8.158  72.416  1.00  0.00    -0.292 A  
ENDBRANCH  20  21
BRANCH  20  27
HETATM   27  N   UNL     1     -10.085   8.856  67.947  1.00  0.00    -0.194 N  
HETATM   28  H   UNL     1     -11.030   8.652  67.623  1.00  0.00     0.000 HD 
HETATM   29  C   UNL     1      -9.017   8.170  67.431  1.00  0.00    -0.137 C  
HETATM   30  O   UNL     1      -7.874   8.349  67.849  1.00  0.00    -0.104 OA 
BRANCH  29  31
HETATM   31  C   UNL     1      -9.331   7.091  66.405  1.00  0.00    -0.182 C  
HETATM   32  C   UNL     1      -8.309   5.135  67.611  1.00  0.00    -0.105 C  
HETATM   33  C   UNL     1      -8.322   5.941  66.317  1.00  0.00    -0.117 C  
HETATM   34  C   UNL     1      -9.692   4.635  67.996  1.00  0.00    -0.140 C  
HETATM   35  F   UNL     1      -9.640   4.045  69.213  1.00  0.00    -0.215 F  
HETATM   36  F   UNL     1     -10.076   3.674  67.115  1.00  0.00    -0.173 F  
HETATM   37  C   UNL     1     -10.744   5.717  68.015  1.00  0.00    -0.290 C  
HETATM   38  C   UNL     1     -10.719   6.518  66.715  1.00  0.00    -0.344 C  
ENDBRANCH  29  31
ENDBRANCH  20  27
ENDBRANCH  18  19
ENDBRANCH  17  18
ENDBRANCH   8  10
TORSDOF 6
ENDMDL
MODEL       14
REMARK 921   NORMALIZED FREE ENERGY PREDICTED BY IDOCK:   -7.62 KCAL/MOL
REMARK 922        TOTAL FREE ENERGY PREDICTED BY IDOCK:  -11.84 KCAL/MOL
REMARK 923 INTER-LIGAND FREE ENERGY PREDICTED BY IDOCK:  -11.36 KCAL/MOL
REMARK 924 INTRA-LIGAND FREE ENERGY PREDICTED BY IDOCK:   -0.48 KCAL/MOL
REMARK 927      BINDING AFFINITY PREDICTED BY RF-SCORE:    0.00 PKD
ROOT
HETATM    1  C   UNL     1      -8.477  17.412  68.162  1.00  0.00    -0.241 C  
HETATM    2  C   UNL     1      -8.009  16.587  66.950  1.00  0.00    -0.260 C  
HETATM    3  C   UNL     1      -7.795  15.152  67.327  1.00  0.00    -0.211 A  
HETATM    4  C   UNL     1      -6.684  17.139  66.407  1.00  0.00    -0.271 C  
HETATM    5  N   UNL     1      -6.765  14.749  68.041  1.00  0.00    -0.128 NA 
HETATM    6  N   UNL     1      -6.649  13.413  67.878  1.00  0.00    -0.132 NA 
HETATM    7  C   UNL     1      -7.662  12.983  67.155  1.00  0.00    -0.039 A  
HETATM    8  N   UNL     1      -8.503  14.045  66.874  1.00  0.00    -0.138 NA 
HETATM    9  C   UNL     1      -7.788  11.564  66.765  1.00  0.00    -0.146 C  
ENDROOT
BRANCH   8  10
HETATM   10  C   UNL     1      -9.790  14.097  66.147  1.00  0.00    -0.308 C  
HETATM   11  C   UNL     1     -10.047  13.007  65.079  1.00  0.00    -0.234 C  
HETATM   12  C   UNL     1     -11.386  12.247  65.126  1.00  0.00    -0.329 C  
HETATM   13  C   UNL     1     -12.402  13.089  64.358  1.00  0.00    -0.442 C  
HETATM   14  C   UNL     1     -12.862  14.090  65.406  1.00  0.00    -0.442 C  
HETATM   15  C   UNL     1     -12.283  13.552  66.748  1.00  0.00    -0.340 C  
HETATM   16  C   UNL     1     -11.000  14.318  67.104  1.00  0.00    -0.305 C  
HETATM   17  N   UNL     1     -12.028  12.134  66.457  1.00  0.00    -0.631 NA 
BRANCH  17  18
HETATM   18  C   UNL     1     -11.313  11.263  67.457  1.00  0.00    -0.288 C  
BRANCH  18  19
HETATM   19  C   UNL     1     -10.743  11.895  68.807  1.00  0.00    -0.257 C  
HETATM   20  C   UNL     1     -11.572  11.886  70.203  1.00  0.00    -0.167 C  
BRANCH  20  21
HETATM   21  C   UNL     1     -12.512  12.975  70.808  1.00  0.00    -0.384 A  
HETATM   22  C   UNL     1     -14.067  15.137  71.901  1.00  0.00    -0.649 A  
HETATM   23  C   UNL     1     -12.436  14.316  70.313  1.00  0.00    -0.422 A  
HETATM   24  C   UNL     1     -14.151  13.836  72.415  1.00  0.00    -0.593 A  
HETATM   25  C   UNL     1     -13.384  12.775  71.883  1.00  0.00    -0.510 A  
HETATM   26  C   UNL     1     -13.199  15.378  70.842  1.00  0.00    -0.512 A  
ENDBRANCH  20  21
BRANCH  20  27
HETATM   27  N   UNL     1     -12.154  10.572  70.435  1.00  0.00    -0.304 N  
HETATM   28  H   UNL     1     -13.162  10.436  70.362  1.00  0.00     0.000 HD 
HETATM   29  C   UNL     1     -11.338   9.519  70.752  1.00  0.00    -0.321 C  
HETATM   30  O   UNL     1     -10.127   9.667  70.912  1.00  0.00    -0.279 OA 
BRANCH  29  31
HETATM   31  C   UNL     1     -12.019   8.184  71.019  1.00  0.00    -0.257 C  
HETATM   32  C   UNL     1     -10.019   6.689  70.727  1.00  0.00    -0.201 C  
HETATM   33  C   UNL     1     -11.443   6.979  70.268  1.00  0.00    -0.333 C  
HETATM   34  C   UNL     1      -9.922   6.506  72.232  1.00  0.00    -0.163 C  
HETATM   35  F   UNL     1      -8.623   6.385  72.594  1.00  0.00    -0.122 F  
HETATM   36  F   UNL     1     -10.530   5.341  72.577  1.00  0.00    -0.218 F  
HETATM   37  C   UNL     1     -10.552   7.628  73.022  1.00  0.00    -0.433 C  
HETATM   38  C   UNL     1     -11.969   7.907  72.525  1.00  0.00    -0.349 C  
ENDBRANCH  29  31
ENDBRANCH  20  27
ENDBRANCH  18  19
ENDBRANCH  17  18
ENDBRANCH   8  10
TORSDOF 6
ENDMDL
MODEL       15
REMARK 921   NORMALIZED FREE ENERGY PREDICTED BY IDOCK:   -7.52 KCAL/MOL
REMARK 922        TOTAL FREE ENERGY PREDICTED BY IDOCK:  -11.69 KCAL/MOL
REMARK 923 INTER-LIGAND FREE ENERGY PREDICTED BY IDOCK:  -10.54 KCAL/MOL
REMARK 924 INTRA-LIGAND FREE ENERGY PREDICTED BY IDOCK:   -1.15 KCAL/MOL
REMARK 927      BINDING AFFINITY PREDICTED BY RF-SCORE:    0.00 PKD
ROOT
HETATM    1  C   UNL     1      -8.024  19.180  68.328  1.00  0.00    -0.361 C  
HETATM    2  C   UNL     1      -9.442  19.021  67.754  1.00  0.00    -0.353 C  
HETATM    3  C   UNL     1      -9.615  17.676  67.115  1.00  0.00    -0.278 A  
HETATM    4  C   UNL     1      -9.710  20.091  66.686  1.00  0.00    -0.566 C  
HETATM    5  N   UNL     1      -9.074  17.361  65.957  1.00  0.00    -0.516 NA 
HETATM    6  N   UNL     1      -9.715  16.269  65.486  1.00  0.00    -0.487 NA 
HETATM    7  C   UNL     1     -10.571  15.853  66.396  1.00  0.00    -0.297 A  
HETATM    8  N   UNL     1     -10.462  16.651  67.521  1.00  0.00    -0.312 NA 
HETATM    9  C   UNL     1     -11.459  14.699  66.153  1.00  0.00    -0.339 C  
ENDROOT
BRANCH   8  10
HETATM   10  C   UNL     1     -11.151  16.584  68.828  1.00  0.00    -0.309 C  
HETATM   11  C   UNL     1     -12.534  15.891  68.867  1.00  0.00     0.524 C  
HETATM   12  C   UNL     1     -12.777  14.818  69.946  1.00  0.00    -0.087 C  
HETATM   13  C   UNL     1     -13.228  15.551  71.208  1.00  0.00    -0.588 C  
HETATM   14  C   UNL     1     -11.908  15.971  71.835  1.00  0.00    -0.619 C  
HETATM   15  C   UNL     1     -10.823  15.197  71.029  1.00  0.00    -0.074 C  
HETATM   16  C   UNL     1     -10.200  16.123  69.974  1.00  0.00    -0.060 C  
HETATM   17  N   UNL     1     -11.580  14.089  70.428  1.00  0.00    -0.198 NA 
BRANCH  17  18
HETATM   18  C   UNL     1     -10.928  13.169  69.429  1.00  0.00     0.001 C  
BRANCH  18  19
HETATM   19  C   UNL     1     -11.815  12.152  68.577  1.00  0.00    -0.365 C  
HETATM   20  C   UNL     1     -11.402  10.599  68.349  1.00  0.00    -0.283 C  
BRANCH  20  21
HETATM   21  C   UNL     1     -10.613   9.943  67.173  1.00  0.00    -0.295 A  
HETATM   22  C   UNL     1      -9.032   8.615  65.167  1.00  0.00    -0.111 A  
HETATM   23  C   UNL     1     -10.198   8.577  67.287  1.00  0.00    -0.346 A  
HETATM   24  C   UNL     1      -9.412   9.958  65.036  1.00  0.00    -0.343 A  
HETATM   25  C   UNL     1     -10.184  10.612  66.022  1.00  0.00    -0.309 A  
HETATM   26  C   UNL     1      -9.426   7.922  66.304  1.00  0.00    -0.220 A  
ENDBRANCH  20  21
BRANCH  20  27
HETATM   27  N   UNL     1     -10.968  10.004  69.604  1.00  0.00    -0.250 N  
HETATM   28  H   UNL     1     -10.001   9.704  69.724  1.00  0.00     0.000 HD 
HETATM   29  C   UNL     1     -11.869   9.850  70.625  1.00  0.00    -0.303 C  
HETATM   30  O   UNL     1     -13.055  10.142  70.486  1.00  0.00    -0.288 OA 
BRANCH  29  31
HETATM   31  C   UNL     1     -11.354   9.185  71.893  1.00  0.00    -0.416 C  
HETATM   32  C   UNL     1     -12.305   6.888  71.512  1.00  0.00    -0.420 C  
HETATM   33  C   UNL     1     -12.237   8.073  72.469  1.00  0.00    -0.294 C  
HETATM   34  C   UNL     1     -10.927   6.368  71.136  1.00  0.00    -0.275 C  
HETATM   35  F   UNL     1     -11.045   5.410  70.187  1.00  0.00    -0.355 F  
HETATM   36  F   UNL     1     -10.368   5.772  72.222  1.00  0.00    -0.207 F  
HETATM   37  C   UNL     1      -9.987   7.441  70.642  1.00  0.00    -0.186 C  
HETATM   38  C   UNL     1      -9.957   8.621  71.612  1.00  0.00    -0.353 C  
ENDBRANCH  29  31
ENDBRANCH  20  27
ENDBRANCH  18  19
ENDBRANCH  17  18
ENDBRANCH   8  10
TORSDOF 6
ENDMDL
MODEL       16
REMARK 921   NORMALIZED FREE ENERGY PREDICTED BY IDOCK:   -7.31 KCAL/MOL
REMARK 922        TOTAL FREE ENERGY PREDICTED BY IDOCK:  -11.42 KCAL/MOL
REMARK 923 INTER-LIGAND FREE ENERGY PREDICTED BY IDOCK:   -9.40 KCAL/MOL
REMARK 924 INTRA-LIGAND FREE ENERGY PREDICTED BY IDOCK:   -2.02 KCAL/MOL
REMARK 927      BINDING AFFINITY PREDICTED BY RF-SCORE:    0.00 PKD
ROOT
HETATM    1  C   UNL     1     -10.531  18.534  66.011  1.00  0.00    -0.433 C  
HETATM    2  C   UNL     1      -9.754  17.240  66.309  1.00  0.00    -0.282 C  
HETATM    3  C   UNL     1     -10.451  16.425  67.356  1.00  0.00    -0.309 A  
HETATM    4  C   UNL     1      -8.345  17.568  66.822  1.00  0.00    -0.277 C  
HETATM    5  N   UNL     1     -10.456  16.754  68.630  1.00  0.00    -0.310 NA 
HETATM    6  N   UNL     1     -10.810  15.659  69.338  1.00  0.00    -0.242 NA 
HETATM    7  C   UNL     1     -11.122  14.694  68.500  1.00  0.00    -0.260 A  
HETATM    8  N   UNL     1     -11.028  15.169  67.203  1.00  0.00    -0.322 NA 
HETATM    9  C   UNL     1     -11.506  13.349  68.974  1.00  0.00    -0.348 C  
ENDROOT
BRANCH   8  10
HETATM   10  C   UNL     1     -11.314  14.516  65.907  1.00  0.00    -0.341 C  
HETATM   11  C   UNL     1     -10.108  13.972  65.105  1.00  0.00    -0.343 C  
HETATM   12  C   UNL     1     -10.180  12.527  64.576  1.00  0.00    -0.307 C  
HETATM   13  C   UNL     1     -10.912  12.581  63.236  1.00  0.00    -0.248 C  
HETATM   14  C   UNL     1     -12.372  12.567  63.656  1.00  0.00    -0.618 C  
HETATM   15  C   UNL     1     -12.345  12.219  65.174  1.00  0.00    -0.205 C  
HETATM   16  C   UNL     1     -12.495  13.504  66.004  1.00  0.00    -0.456 C  
HETATM   17  N   UNL     1     -11.028  11.589  65.348  1.00  0.00    -0.260 NA 
BRANCH  17  18
HETATM   18  C   UNL     1     -10.525  11.232  66.723  1.00  0.00    -0.248 C  
BRANCH  18  19
HETATM   19  C   UNL     1      -8.992  10.848  66.942  1.00  0.00    -0.158 C  
HETATM   20  C   UNL     1      -8.204  11.122  68.334  1.00  0.00    -0.144 C  
BRANCH  20  21
HETATM   21  C   UNL     1      -7.327  12.342  68.756  1.00  0.00    -0.076 A  
HETATM   22  C   UNL     1      -5.684  14.489  69.747  1.00  0.00    -0.104 A  
HETATM   23  C   UNL     1      -6.199  12.128  69.612  1.00  0.00    -0.131 A  
HETATM   24  C   UNL     1      -6.791  14.729  68.922  1.00  0.00    -0.105 A  
HETATM   25  C   UNL     1      -7.602  13.676  68.440  1.00  0.00    -0.132 A  
HETATM   26  C   UNL     1      -5.388  13.176  70.096  1.00  0.00    -0.107 A  
ENDBRANCH  20  21
BRANCH  20  27
HETATM   27  N   UNL     1      -9.023  10.710  69.466  1.00  0.00    -0.405 N  
HETATM   28  H   UNL     1      -9.794  11.297  69.783  1.00  0.00     0.000 HD 
HETATM   29  C   UNL     1      -8.750   9.527  70.100  1.00  0.00    -0.230 C  
HETATM   30  O   UNL     1      -7.787   8.832  69.780  1.00  0.00    -0.084 OA 
BRANCH  29  31
HETATM   31  C   UNL     1      -9.622   9.180  71.298  1.00  0.00    -0.331 C  
HETATM   32  C   UNL     1     -11.701   8.509  70.052  1.00  0.00     0.301 C  
HETATM   33  C   UNL     1     -11.124   9.427  71.123  1.00  0.00    -0.432 C  
HETATM   34  C   UNL     1     -11.405   7.044  70.325  1.00  0.00    -0.295 C  
HETATM   35  F   UNL     1     -11.822   6.292  69.279  1.00  0.00    -0.445 F  
HETATM   36  F   UNL     1     -12.126   6.640  71.405  1.00  0.00    -0.345 F  
HETATM   37  C   UNL     1      -9.946   6.758  70.589  1.00  0.00    -0.201 C  
HETATM   38  C   UNL     1      -9.394   7.706  71.651  1.00  0.00    -0.165 C  
ENDBRANCH  29  31
ENDBRANCH  20  27
ENDBRANCH  18  19
ENDBRANCH  17  18
ENDBRANCH   8  10
TORSDOF 6
ENDMDL
MODEL       17
REMARK 921   NORMALIZED FREE ENERGY PREDICTED BY IDOCK:   -7.31 KCAL/MOL
REMARK 922        TOTAL FREE ENERGY PREDICTED BY IDOCK:  -11.41 KCAL/MOL
REMARK 923 INTER-LIGAND FREE ENERGY PREDICTED BY IDOCK:  -10.08 KCAL/MOL
REMARK 924 INTRA-LIGAND FREE ENERGY PREDICTED BY IDOCK:   -1.33 KCAL/MOL
REMARK 927      BINDING AFFINITY PREDICTED BY RF-SCORE:    0.00 PKD
ROOT
HETATM    1  C   UNL     1     -11.544   6.350  70.288  1.00  0.00    -0.451 C  
HETATM    2  C   UNL     1     -10.660   7.208  71.209  1.00  0.00    -0.230 C  
HETATM    3  C   UNL     1      -9.461   6.438  71.674  1.00  0.00    -0.153 A  
HETATM    4  C   UNL     1     -11.450   7.650  72.449  1.00  0.00    -0.392 C  
HETATM    5  N   UNL     1      -9.533   5.484  72.577  1.00  0.00    -0.145 NA 
HETATM    6  N   UNL     1      -8.286   5.269  73.050  1.00  0.00    -0.111 NA 
HETATM    7  C   UNL     1      -7.439   6.010  72.368  1.00  0.00    -0.099 A  
HETATM    8  N   UNL     1      -8.126   6.696  71.382  1.00  0.00    -0.111 NA 
HETATM    9  C   UNL     1      -5.997   6.030  72.684  1.00  0.00    -0.038 C  
ENDROOT
BRANCH   8  10
HETATM   10  C   UNL     1      -7.649   7.613  70.325  1.00  0.00    -0.089 C  
HETATM   11  C   UNL     1      -8.434   7.630  68.992  1.00  0.00    -0.132 C  
HETATM   12  C   UNL     1      -8.865   8.994  68.420  1.00  0.00    -0.134 C  
HETATM   13  C   UNL     1      -7.687   9.530  67.610  1.00  0.00    -0.095 C  
HETATM   14  C   UNL     1      -6.820  10.179  68.677  1.00  0.00    -0.057 C  
HETATM   15  C   UNL     1      -7.715  10.208  69.951  1.00  0.00    -0.160 C  
HETATM   16  C   UNL     1      -7.341   9.038  70.874  1.00  0.00    -0.119 C  
HETATM   17  N   UNL     1      -9.075  10.080  69.407  1.00  0.00    -0.203 NA 
BRANCH  17  18
HETATM   18  C   UNL     1     -10.255   9.910  70.327  1.00  0.00    -0.264 C  
BRANCH  18  19
HETATM   19  C   UNL     1     -11.680  10.505  69.923  1.00  0.00    -0.372 C  
HETATM   20  C   UNL     1     -11.909  12.068  69.550  1.00  0.00    -0.326 C  
BRANCH  20  21
HETATM   21  C   UNL     1     -12.355  13.252  70.464  1.00  0.00    -0.389 A  
HETATM   22  C   UNL     1     -13.379  15.319  72.187  1.00  0.00    -0.519 A  
HETATM   23  C   UNL     1     -13.121  12.975  71.642  1.00  0.00    -0.440 A  
HETATM   24  C   UNL     1     -12.644  15.619  71.033  1.00  0.00    -0.515 A  
HETATM   25  C   UNL     1     -12.145  14.606  70.183  1.00  0.00    -0.385 A  
HETATM   26  C   UNL     1     -13.621  13.985  72.491  1.00  0.00    -0.670 A  
ENDBRANCH  20  21
BRANCH  20  27
HETATM   27  N   UNL     1     -10.864  12.530  68.648  1.00  0.00    -0.242 N  
HETATM   28  H   UNL     1     -10.003  12.928  69.020  1.00  0.00     0.000 HD 
HETATM   29  C   UNL     1     -11.047  12.426  67.295  1.00  0.00    -0.281 C  
HETATM   30  O   UNL     1     -12.102  12.011  66.817  1.00  0.00    -0.613 OA 
BRANCH  29  31
HETATM   31  C   UNL     1      -9.930  12.964  66.413  1.00  0.00    -0.267 C  
HETATM   32  C   UNL     1     -11.059  15.075  65.642  1.00  0.00    -0.349 C  
HETATM   33  C   UNL     1     -10.376  13.786  65.199  1.00  0.00    -0.391 C  
HETATM   34  C   UNL     1     -10.193  15.895  66.584  1.00  0.00    -0.288 C  
HETATM   35  F   UNL     1     -10.899  16.953  67.047  1.00  0.00    -0.293 F  
HETATM   36  F   UNL     1      -9.142  16.404  65.888  1.00  0.00    -0.323 F  
HETATM   37  C   UNL     1      -9.656  15.108  67.755  1.00  0.00    -0.203 C  
HETATM   38  C   UNL     1      -8.996  13.816  67.280  1.00  0.00    -0.227 C  
ENDBRANCH  29  31
ENDBRANCH  20  27
ENDBRANCH  18  19
ENDBRANCH  17  18
ENDBRANCH   8  10
TORSDOF 6
ENDMDL
MODEL       18
REMARK 921   NORMALIZED FREE ENERGY PREDICTED BY IDOCK:   -7.25 KCAL/MOL
REMARK 922        TOTAL FREE ENERGY PREDICTED BY IDOCK:  -11.33 KCAL/MOL
REMARK 923 INTER-LIGAND FREE ENERGY PREDICTED BY IDOCK:   -9.22 KCAL/MOL
REMARK 924 INTRA-LIGAND FREE ENERGY PREDICTED BY IDOCK:   -2.11 KCAL/MOL
REMARK 927      BINDING AFFINITY PREDICTED BY RF-SCORE:    0.00 PKD
ROOT
HETATM    1  C   UNL     1      -7.036  19.465  65.524  1.00  0.00    -0.283 C  
HETATM    2  C   UNL     1      -7.323  19.415  67.035  1.00  0.00    -0.232 C  
HETATM    3  C   UNL     1      -8.532  18.579  67.325  1.00  0.00    -0.258 A  
HETATM    4  C   UNL     1      -7.581  20.828  67.576  1.00  0.00    -0.312 C  
HETATM    5  N   UNL     1      -9.758  18.986  67.072  1.00  0.00    -0.304 NA 
HETATM    6  N   UNL     1     -10.605  18.209  67.782  1.00  0.00    -0.407 NA 
HETATM    7  C   UNL     1      -9.913  17.265  68.384  1.00  0.00    -0.322 A  
HETATM    8  N   UNL     1      -8.581  17.379  68.026  1.00  0.00    -0.233 NA 
HETATM    9  C   UNL     1     -10.557  16.282  69.277  1.00  0.00    -0.293 C  
ENDROOT
BRANCH   8  10
HETATM   10  C   UNL     1      -7.407  16.552  68.378  1.00  0.00    -0.179 C  
HETATM   11  C   UNL     1      -7.460  15.778  69.717  1.00  0.00     0.008 C  
HETATM   12  C   UNL     1      -7.108  14.278  69.703  1.00  0.00    -0.007 C  
HETATM   13  C   UNL     1      -5.589  14.176  69.827  1.00  0.00    -0.101 C  
HETATM   14  C   UNL     1      -5.127  14.363  68.391  1.00  0.00    -0.105 C  
HETATM   15  C   UNL     1      -6.428  14.267  67.540  1.00  0.00    -0.041 C  
HETATM   16  C   UNL     1      -6.919  15.679  67.183  1.00  0.00    -0.169 C  
HETATM   17  N   UNL     1      -7.358  13.558  68.431  1.00  0.00    -0.106 NA 
BRANCH  17  18
HETATM   18  C   UNL     1      -8.806  13.388  68.049  1.00  0.00    -0.183 C  
BRANCH  18  19
HETATM   19  C   UNL     1      -9.588  12.055  68.445  1.00  0.00    -0.190 C  
HETATM   20  C   UNL     1     -11.203  11.992  68.594  1.00  0.00    -0.258 C  
BRANCH  20  21
HETATM   21  C   UNL     1     -12.091  12.163  69.866  1.00  0.00    -0.324 A  
HETATM   22  C   UNL     1     -13.602  12.674  72.263  1.00  0.00    -0.508 A  
HETATM   23  C   UNL     1     -12.456  13.481  70.291  1.00  0.00    -0.309 A  
HETATM   24  C   UNL     1     -13.247  11.374  71.879  1.00  0.00    -0.485 A  
HETATM   25  C   UNL     1     -12.500  11.122  70.705  1.00  0.00    -0.479 A  
HETATM   26  C   UNL     1     -13.200  13.736  71.462  1.00  0.00    -0.417 A  
ENDBRANCH  20  21
BRANCH  20  27
HETATM   27  N   UNL     1     -11.840  12.671  67.474  1.00  0.00    -0.366 N  
HETATM   28  H   UNL     1     -12.325  13.556  67.618  1.00  0.00     0.000 HD 
HETATM   29  C   UNL     1     -11.782  12.111  66.225  1.00  0.00    -0.320 C  
HETATM   30  O   UNL     1     -11.261  11.013  66.035  1.00  0.00    -0.078 OA 
BRANCH  29  31
HETATM   31  C   UNL     1     -12.502  12.856  65.111  1.00  0.00    -0.561 C  
HETATM   32  C   UNL     1     -12.084  15.202  65.912  1.00  0.00     0.283 C  
HETATM   33  C   UNL     1     -13.147  14.188  65.508  1.00  0.00    -0.166 C  
HETATM   34  C   UNL     1     -11.027  15.393  64.837  1.00  0.00    -0.437 C  
HETATM   35  F   UNL     1     -10.043  16.198  65.303  1.00  0.00    -0.341 F  
HETATM   36  F   UNL     1     -11.584  16.035  63.777  1.00  0.00    -0.249 F  
HETATM   37  C   UNL     1     -10.418  14.101  64.349  1.00  0.00    -0.034 C  
HETATM   38  C   UNL     1     -11.508  13.100  63.970  1.00  0.00    -0.455 C  
ENDBRANCH  29  31
ENDBRANCH  20  27
ENDBRANCH  18  19
ENDBRANCH  17  18
ENDBRANCH   8  10
TORSDOF 6
ENDMDL
MODEL       19
REMARK 921   NORMALIZED FREE ENERGY PREDICTED BY IDOCK:   -7.06 KCAL/MOL
REMARK 922        TOTAL FREE ENERGY PREDICTED BY IDOCK:  -11.08 KCAL/MOL
REMARK 923 INTER-LIGAND FREE ENERGY PREDICTED BY IDOCK:   -9.66 KCAL/MOL
REMARK 924 INTRA-LIGAND FREE ENERGY PREDICTED BY IDOCK:   -1.42 KCAL/MOL
REMARK 927      BINDING AFFINITY PREDICTED BY RF-SCORE:    0.00 PKD
ROOT
HETATM    1  C   UNL     1      -7.768   9.982  70.015  1.00  0.00    -0.181 C  
HETATM    2  C   UNL     1      -7.806   8.597  70.683  1.00  0.00    -0.101 C  
HETATM    3  C   UNL     1      -9.173   8.299  71.222  1.00  0.00    -0.163 A  
HETATM    4  C   UNL     1      -6.811   8.538  71.850  1.00  0.00    -0.097 C  
HETATM    5  N   UNL     1      -9.652   8.871  72.306  1.00  0.00    -0.300 NA 
HETATM    6  N   UNL     1     -10.697   8.130  72.736  1.00  0.00    -0.354 NA 
HETATM    7  C   UNL     1     -10.924   7.170  71.864  1.00  0.00    -0.231 A  
HETATM    8  N   UNL     1     -10.048   7.303  70.802  1.00  0.00    -0.190 NA 
HETATM    9  C   UNL     1     -11.980   6.161  72.081  1.00  0.00    -0.314 C  
ENDROOT
BRANCH   8  10
HETATM   10  C   UNL     1      -9.914   6.526  69.551  1.00  0.00    -0.159 C  
HETATM   11  C   UNL     1     -11.095   6.581  68.552  1.00  0.00    -0.347 C  
HETATM   12  C   UNL     1     -10.783   6.889  67.075  1.00  0.00    -0.362 C  
HETATM   13  C   UNL     1     -10.420   5.562  66.411  1.00  0.00    -0.294 C  
HETATM   14  C   UNL     1      -8.948   5.411  66.756  1.00  0.00    -0.112 C  
HETATM   15  C   UNL     1      -8.533   6.795  67.338  1.00  0.00    -0.121 C  
HETATM   16  C   UNL     1      -8.526   6.731  68.873  1.00  0.00    -0.120 C  
HETATM   17  N   UNL     1      -9.569   7.700  66.818  1.00  0.00    -0.195 NA 
BRANCH  17  18
HETATM   18  C   UNL     1      -9.631   9.134  67.273  1.00  0.00    -0.154 C  
BRANCH  18  19
HETATM   19  C   UNL     1     -11.008   9.938  67.208  1.00  0.00    -0.187 C  
HETATM   20  C   UNL     1     -11.248  11.342  67.986  1.00  0.00    -0.287 C  
BRANCH  20  21
HETATM   21  C   UNL     1     -11.865  11.604  69.395  1.00  0.00    -0.408 A  
HETATM   22  C   UNL     1     -13.161  11.915  71.947  1.00  0.00    -0.474 A  
HETATM   23  C   UNL     1     -12.352  10.497  70.161  1.00  0.00    -0.339 A  
HETATM   24  C   UNL     1     -12.706  13.019  71.213  1.00  0.00    -0.385 A  
HETATM   25  C   UNL     1     -12.075  12.868  69.957  1.00  0.00    -0.357 A  
HETATM   26  C   UNL     1     -12.984  10.644  71.414  1.00  0.00    -0.545 A  
ENDBRANCH  20  21
BRANCH  20  27
HETATM   27  N   UNL     1     -10.107  12.226  67.794  1.00  0.00    -0.197 N  
HETATM   28  H   UNL     1      -9.205  11.998  68.211  1.00  0.00     0.000 HD 
HETATM   29  C   UNL     1     -10.254  13.365  67.049  1.00  0.00    -0.249 C  
HETATM   30  O   UNL     1     -11.345  13.698  66.589  1.00  0.00    -0.309 OA 
BRANCH  29  31
HETATM   31  C   UNL     1      -9.029  14.260  66.923  1.00  0.00    -0.255 C  
HETATM   32  C   UNL     1     -10.198  16.486  66.975  1.00  0.00    -0.288 C  
HETATM   33  C   UNL     1      -9.247  15.589  66.192  1.00  0.00    -0.379 C  
HETATM   34  C   UNL     1      -9.740  16.706  68.407  1.00  0.00    -0.243 C  
HETATM   35  F   UNL     1     -10.686  17.395  69.087  1.00  0.00    -0.317 F  
HETATM   36  F   UNL     1      -8.624  17.483  68.400  1.00  0.00    -0.240 F  
HETATM   37  C   UNL     1      -9.430  15.428  69.148  1.00  0.00    -0.242 C  
HETATM   38  C   UNL     1      -8.491  14.544  68.330  1.00  0.00    -0.161 C  
ENDBRANCH  29  31
ENDBRANCH  20  27
ENDBRANCH  18  19
ENDBRANCH  17  18
ENDBRANCH   8  10
TORSDOF 6
ENDMDL
MODEL       20
REMARK 921   NORMALIZED FREE ENERGY PREDICTED BY IDOCK:   -7.06 KCAL/MOL
REMARK 922        TOTAL FREE ENERGY PREDICTED BY IDOCK:  -11.08 KCAL/MOL
REMARK 923 INTER-LIGAND FREE ENERGY PREDICTED BY IDOCK:   -9.70 KCAL/MOL
REMARK 924 INTRA-LIGAND FREE ENERGY PREDICTED BY IDOCK:   -1.37 KCAL/MOL
REMARK 927      BINDING AFFINITY PREDICTED BY RF-SCORE:    0.00 PKD
ROOT
HETATM    1  C   UNL     1      -5.796  11.346  69.985  1.00  0.00    -0.126 C  
HETATM    2  C   UNL     1      -6.956  11.544  68.993  1.00  0.00    -0.112 C  
HETATM    3  C   UNL     1      -6.617  10.972  67.650  1.00  0.00    -0.065 A  
HETATM    4  C   UNL     1      -7.254  13.039  68.812  1.00  0.00    -0.082 C  
HETATM    5  N   UNL     1      -5.769  11.546  66.824  1.00  0.00    -0.129 NA 
HETATM    6  N   UNL     1      -5.973  11.025  65.594  1.00  0.00    -0.067 NA 
HETATM    7  C   UNL     1      -6.867  10.063  65.684  1.00  0.00    -0.114 A  
HETATM    8  N   UNL     1      -7.229   9.900  67.009  1.00  0.00    -0.090 NA 
HETATM    9  C   UNL     1      -7.339   9.330  64.491  1.00  0.00    -0.101 C  
ENDROOT
BRANCH   8  10
HETATM   10  C   UNL     1      -8.148   8.937  67.653  1.00  0.00    -0.106 C  
HETATM   11  C   UNL     1      -8.196   8.927  69.200  1.00  0.00    -0.118 C  
HETATM   12  C   UNL     1      -9.575   8.988  69.883  1.00  0.00    -0.183 C  
HETATM   13  C   UNL     1     -10.095   7.553  69.964  1.00  0.00    -0.199 C  
HETATM   14  C   UNL     1     -10.714   7.349  68.591  1.00  0.00    -0.134 C  
HETATM   15  C   UNL     1     -10.748   8.770  67.955  1.00  0.00    -0.090 C  
HETATM   16  C   UNL     1      -9.560   8.937  66.994  1.00  0.00    -0.232 C  
HETATM   17  N   UNL     1     -10.655   9.660  69.122  1.00  0.00    -0.215 NA 
BRANCH  17  18
HETATM   18  C   UNL     1     -10.499  11.147  68.941  1.00  0.00    -0.207 C  
BRANCH  18  19
HETATM   19  C   UNL     1     -11.787  12.071  68.753  1.00  0.00    -0.358 C  
HETATM   20  C   UNL     1     -11.841  13.618  69.243  1.00  0.00    -0.346 C  
BRANCH  20  21
HETATM   21  C   UNL     1     -12.361  14.216  70.588  1.00  0.00    -0.435 A  
HETATM   22  C   UNL     1     -13.100  15.400  73.106  1.00  0.00    -0.643 A  
HETATM   23  C   UNL     1     -11.851  15.477  71.035  1.00  0.00    -0.427 A  
HETATM   24  C   UNL     1     -13.605  14.157  72.700  1.00  0.00    -0.618 A  
HETATM   25  C   UNL     1     -13.238  13.572  71.467  1.00  0.00    -0.402 A  
HETATM   26  C   UNL     1     -12.214  16.063  72.266  1.00  0.00    -0.604 A  
ENDBRANCH  20  21
BRANCH  20  27
HETATM   27  N   UNL     1     -10.624  14.314  68.851  1.00  0.00    -0.246 N  
HETATM   28  H   UNL     1      -9.836  14.373  69.495  1.00  0.00     0.000 HD 
HETATM   29  C   UNL     1     -10.546  14.890  67.611  1.00  0.00    -0.264 C  
HETATM   30  O   UNL     1     -11.505  14.891  66.840  1.00  0.00    -0.351 OA 
BRANCH  29  31
HETATM   31  C   UNL     1      -9.259  15.634  67.285  1.00  0.00    -0.214 C  
HETATM   32  C   UNL     1     -10.262  17.550  66.000  1.00  0.00    -0.306 C  
HETATM   33  C   UNL     1      -9.254  16.407  65.962  1.00  0.00    -0.328 C  
HETATM   34  C   UNL     1     -10.045  18.473  67.187  1.00  0.00    -0.353 C  
HETATM   35  F   UNL     1     -11.046  19.384  67.244  1.00  0.00    -0.566 F  
HETATM   36  F   UNL     1      -8.894  19.172  67.000  1.00  0.00    -0.278 F  
HETATM   37  C   UNL     1      -9.959  17.751  68.510  1.00  0.00    -0.370 C  
HETATM   38  C   UNL     1      -8.956  16.602  68.433  1.00  0.00    -0.223 C  
ENDBRANCH  29  31
ENDBRANCH  20  27
ENDBRANCH  18  19
ENDBRANCH  17  18
ENDBRANCH   8  10
TORSDOF 6
ENDMDL
MODEL       21
REMARK 921   NORMALIZED FREE ENERGY PREDICTED BY IDOCK:   -7.04 KCAL/MOL
REMARK 922        TOTAL FREE ENERGY PREDICTED BY IDOCK:  -11.05 KCAL/MOL
REMARK 923 INTER-LIGAND FREE ENERGY PREDICTED BY IDOCK:   -9.98 KCAL/MOL
REMARK 924 INTRA-LIGAND FREE ENERGY PREDICTED BY IDOCK:   -1.07 KCAL/MOL
REMARK 927      BINDING AFFINITY PREDICTED BY RF-SCORE:    0.00 PKD
ROOT
HETATM    1  C   UNL     1      -6.583   8.968  68.895  1.00  0.00    -0.052 C  
HETATM    2  C   UNL     1      -8.055   8.520  68.851  1.00  0.00    -0.119 C  
HETATM    3  C   UNL     1      -8.160   7.045  68.610  1.00  0.00    -0.121 A  
HETATM    4  C   UNL     1      -8.799   9.241  67.719  1.00  0.00    -0.121 C  
HETATM    5  N   UNL     1      -7.923   6.495  67.438  1.00  0.00    -0.112 NA 
HETATM    6  N   UNL     1      -8.467   5.258  67.445  1.00  0.00    -0.106 NA 
HETATM    7  C   UNL     1      -8.942   5.010  68.647  1.00  0.00    -0.106 A  
HETATM    8  N   UNL     1      -8.662   6.081  69.477  1.00  0.00    -0.125 NA 
HETATM    9  C   UNL     1      -9.644   3.748  68.958  1.00  0.00    -0.190 C  
ENDROOT
BRANCH   8  10
HETATM   10  C   UNL     1      -8.929   6.289  70.917  1.00  0.00    -0.147 C  
HETATM   11  C   UNL     1      -8.072   7.347  71.652  1.00  0.00    -0.099 C  
HETATM   12  C   UNL     1      -8.798   8.399  72.511  1.00  0.00    -0.225 C  
HETATM   13  C   UNL     1      -9.017   7.775  73.888  1.00  0.00    -0.317 C  
HETATM   14  C   UNL     1     -10.290   6.969  73.687  1.00  0.00    -0.412 C  
HETATM   15  C   UNL     1     -10.838   7.432  72.305  1.00  0.00    -0.247 C  
HETATM   16  C   UNL     1     -10.452   6.409  71.224  1.00  0.00    -0.258 C  
HETATM   17  N   UNL     1     -10.184   8.733  72.105  1.00  0.00    -0.326 NA 
BRANCH  17  18
HETATM   18  C   UNL     1     -10.324   9.468  70.798  1.00  0.00    -0.306 C  
BRANCH  18  19
HETATM   19  C   UNL     1     -11.736  10.073  70.365  1.00  0.00    -0.365 C  
HETATM   20  C   UNL     1     -11.926  11.614  69.890  1.00  0.00    -0.340 C  
BRANCH  20  21
HETATM   21  C   UNL     1     -12.331  12.868  70.725  1.00  0.00    -0.385 A  
HETATM   22  C   UNL     1     -13.292  15.083  72.294  1.00  0.00    -0.497 A  
HETATM   23  C   UNL     1     -13.192  12.705  71.859  1.00  0.00    -0.504 A  
HETATM   24  C   UNL     1     -12.461  15.274  71.182  1.00  0.00    -0.438 A  
HETATM   25  C   UNL     1     -11.994  14.188  70.407  1.00  0.00    -0.400 A  
HETATM   26  C   UNL     1     -13.662  13.787  72.633  1.00  0.00    -0.566 A  
ENDBRANCH  20  21
BRANCH  20  27
HETATM   27  N   UNL     1     -10.878  11.985  68.951  1.00  0.00    -0.266 N  
HETATM   28  H   UNL     1      -9.963  12.280  69.292  1.00  0.00     0.000 HD 
HETATM   29  C   UNL     1     -11.129  11.935  67.605  1.00  0.00    -0.257 C  
HETATM   30  O   UNL     1     -12.241  11.646  67.168  1.00  0.00    -0.365 OA 
BRANCH  29  31
HETATM   31  C   UNL     1      -9.999  12.374  66.685  1.00  0.00    -0.236 C  
HETATM   32  C   UNL     1     -11.375  12.907  64.648  1.00  0.00    -0.361 C  
HETATM   33  C   UNL     1     -10.207  12.093  65.193  1.00  0.00    -0.308 C  
HETATM   34  C   UNL     1     -11.220  14.394  64.919  1.00  0.00    -0.389 C  
HETATM   35  F   UNL     1     -12.343  15.046  64.535  1.00  0.00    -0.436 F  
HETATM   36  F   UNL     1     -10.208  14.880  64.154  1.00  0.00     0.119 F  
HETATM   37  C   UNL     1     -10.929  14.721  66.364  1.00  0.00    -0.331 C  
HETATM   38  C   UNL     1      -9.768  13.876  66.884  1.00  0.00    -0.268 C  
ENDBRANCH  29  31
ENDBRANCH  20  27
ENDBRANCH  18  19
ENDBRANCH  17  18
ENDBRANCH   8  10
TORSDOF 6
ENDMDL
MODEL       22
REMARK 921   NORMALIZED FREE ENERGY PREDICTED BY IDOCK:   -7.03 KCAL/MOL
REMARK 922        TOTAL FREE ENERGY PREDICTED BY IDOCK:  -11.03 KCAL/MOL
REMARK 923 INTER-LIGAND FREE ENERGY PREDICTED BY IDOCK:   -9.75 KCAL/MOL
REMARK 924 INTRA-LIGAND FREE ENERGY PREDICTED BY IDOCK:   -1.28 KCAL/MOL
REMARK 927      BINDING AFFINITY PREDICTED BY RF-SCORE:    0.00 PKD
ROOT
HETATM    1  C   UNL     1     -10.565  19.597  68.029  1.00  0.00    -0.458 C  
HETATM    2  C   UNL     1      -9.854  18.856  66.884  1.00  0.00    -0.371 C  
HETATM    3  C   UNL     1      -8.891  17.840  67.419  1.00  0.00    -0.240 A  
HETATM    4  C   UNL     1      -9.066  19.846  66.014  1.00  0.00    -0.321 C  
HETATM    5  N   UNL     1      -7.739  18.168  67.966  1.00  0.00    -0.248 NA 
HETATM    6  N   UNL     1      -6.961  17.063  67.983  1.00  0.00    -0.161 NA 
HETATM    7  C   UNL     1      -7.666  16.040  67.547  1.00  0.00    -0.153 A  
HETATM    8  N   UNL     1      -8.959  16.458  67.283  1.00  0.00    -0.193 NA 
HETATM    9  C   UNL     1      -7.073  14.696  67.403  1.00  0.00    -0.157 C  
ENDROOT
BRANCH   8  10
HETATM   10  C   UNL     1     -10.147  15.706  66.826  1.00  0.00    -0.272 C  
HETATM   11  C   UNL     1     -10.049  14.986  65.460  1.00  0.00    -0.400 C  
HETATM   12  C   UNL     1     -10.472  13.506  65.387  1.00  0.00    -0.315 C  
HETATM   13  C   UNL     1     -11.984  13.487  65.169  1.00  0.00    -0.391 C  
HETATM   14  C   UNL     1     -12.524  13.638  66.582  1.00  0.00    -0.291 C  
HETATM   15  C   UNL     1     -11.284  13.441  67.503  1.00  0.00    -0.284 C  
HETATM   16  C   UNL     1     -10.748  14.811  67.951  1.00  0.00    -0.259 C  
HETATM   17  N   UNL     1     -10.336  12.724  66.638  1.00  0.00    -0.239 NA 
BRANCH  17  18
HETATM   18  C   UNL     1      -8.925  12.465  67.098  1.00  0.00    -0.195 C  
BRANCH  18  19
HETATM   19  C   UNL     1      -8.656  11.753  68.501  1.00  0.00    -0.123 C  
HETATM   20  C   UNL     1      -9.606  10.574  69.087  1.00  0.00    -0.199 C  
BRANCH  20  21
HETATM   21  C   UNL     1     -10.822  10.670  70.060  1.00  0.00    -0.280 A  
HETATM   22  C   UNL     1     -13.138  10.637  71.770  1.00  0.00    -0.571 A  
HETATM   23  C   UNL     1     -11.307   9.480  70.691  1.00  0.00    -0.364 A  
HETATM   24  C   UNL     1     -12.694  11.815  71.154  1.00  0.00    -0.405 A  
HETATM   25  C   UNL     1     -11.560  11.831  70.310  1.00  0.00    -0.210 A  
HETATM   26  C   UNL     1     -12.439   9.460  71.533  1.00  0.00    -0.450 A  
ENDBRANCH  20  21
BRANCH  20  27
HETATM   27  N   UNL     1      -9.904   9.602  68.045  1.00  0.00    -0.146 N  
HETATM   28  H   UNL     1     -10.743   9.703  67.474  1.00  0.00     0.000 HD 
HETATM   29  C   UNL     1      -9.050   8.552  67.838  1.00  0.00    -0.140 C  
HETATM   30  O   UNL     1      -8.067   8.370  68.554  1.00  0.00    -0.119 OA 
BRANCH  29  31
HETATM   31  C   UNL     1      -9.446   7.555  66.758  1.00  0.00    -0.230 C  
HETATM   32  C   UNL     1      -8.331   5.516  67.720  1.00  0.00    -0.099 C  
HETATM   33  C   UNL     1      -8.448   6.421  66.499  1.00  0.00    -0.118 C  
HETATM   34  C   UNL     1      -9.679   4.979  68.173  1.00  0.00    -0.148 C  
HETATM   35  F   UNL     1      -9.530   4.296  69.332  1.00  0.00    -0.180 F  
HETATM   36  F   UNL     1     -10.133   4.089  67.253  1.00  0.00    -0.221 F  
HETATM   37  C   UNL     1     -10.726   6.050  68.362  1.00  0.00    -0.351 C  
HETATM   38  C   UNL     1     -10.805   6.951  67.132  1.00  0.00    -0.447 C  
ENDBRANCH  29  31
ENDBRANCH  20  27
ENDBRANCH  18  19
ENDBRANCH  17  18
ENDBRANCH   8  10
TORSDOF 6
ENDMDL
MODEL       23
REMARK 921   NORMALIZED FREE ENERGY PREDICTED BY IDOCK:   -6.99 KCAL/MOL
REMARK 922        TOTAL FREE ENERGY PREDICTED BY IDOCK:  -10.99 KCAL/MOL
REMARK 923 INTER-LIGAND FREE ENERGY PREDICTED BY IDOCK:   -9.35 KCAL/MOL
REMARK 924 INTRA-LIGAND FREE ENERGY PREDICTED BY IDOCK:   -1.63 KCAL/MOL
REMARK 927      BINDING AFFINITY PREDICTED BY RF-SCORE:    0.00 PKD
ROOT
HETATM    1  C   UNL     1      -6.834  17.682  66.401  1.00  0.00    -0.297 C  
HETATM    2  C   UNL     1      -7.266  16.601  67.407  1.00  0.00    -0.184 C  
HETATM    3  C   UNL     1      -8.690  16.798  67.829  1.00  0.00    -0.210 A  
HETATM    4  C   UNL     1      -6.385  16.657  68.663  1.00  0.00    -0.148 C  
HETATM    5  N   UNL     1      -9.064  17.757  68.650  1.00  0.00    -0.283 NA 
HETATM    6  N   UNL     1     -10.287  17.437  69.128  1.00  0.00    -0.328 NA 
HETATM    7  C   UNL     1     -10.706  16.345  68.525  1.00  0.00    -0.320 A  
HETATM    8  N   UNL     1      -9.768  15.954  67.586  1.00  0.00    -0.223 NA 
HETATM    9  C   UNL     1     -11.997  15.716  68.871  1.00  0.00    -0.298 C  
ENDROOT
BRANCH   8  10
HETATM   10  C   UNL     1      -9.771  14.837  66.617  1.00  0.00    -0.267 C  
HETATM   11  C   UNL     1      -9.015  13.548  67.019  1.00  0.00    -0.237 C  
HETATM   12  C   UNL     1      -9.749  12.201  66.873  1.00  0.00    -0.206 C  
HETATM   13  C   UNL     1      -9.550  11.741  65.429  1.00  0.00    -0.210 C  
HETATM   14  C   UNL     1     -10.647  12.490  64.690  1.00  0.00    -0.343 C  
HETATM   15  C   UNL     1     -11.548  13.083  65.813  1.00  0.00    -0.356 C  
HETATM   16  C   UNL     1     -11.192  14.561  66.038  1.00  0.00    -0.337 C  
HETATM   17  N   UNL     1     -11.226  12.245  66.978  1.00  0.00    -0.290 NA 
BRANCH  17  18
HETATM   18  C   UNL     1     -11.776  12.581  68.339  1.00  0.00    -0.328 C  
BRANCH  18  19
HETATM   19  C   UNL     1     -11.084  11.994  69.651  1.00  0.00    -0.074 C  
HETATM   20  C   UNL     1     -10.995  10.404  69.964  1.00  0.00    -0.308 C  
BRANCH  20  21
HETATM   21  C   UNL     1     -11.952   9.501  70.804  1.00  0.00    -0.326 A  
HETATM   22  C   UNL     1     -13.699   7.673  72.180  1.00  0.00    -0.138 A  
HETATM   23  C   UNL     1     -11.743   8.084  70.816  1.00  0.00    -0.215 A  
HETATM   24  C   UNL     1     -13.936   9.055  72.173  1.00  0.00    -0.499 A  
HETATM   25  C   UNL     1     -13.081   9.953  71.493  1.00  0.00    -0.516 A  
HETATM   26  C   UNL     1     -12.595   7.185  71.493  1.00  0.00    -0.427 A  
ENDBRANCH  20  21
BRANCH  20  27
HETATM   27  N   UNL     1     -10.579   9.678  68.773  1.00  0.00    -0.215 N  
HETATM   28  H   UNL     1     -11.260   9.439  68.053  1.00  0.00     0.000 HD 
HETATM   29  C   UNL     1      -9.265   9.319  68.626  1.00  0.00    -0.135 C  
HETATM   30  O   UNL     1      -8.435   9.536  69.507  1.00  0.00    -0.129 OA 
BRANCH  29  31
HETATM   31  C   UNL     1      -8.911   8.529  67.374  1.00  0.00    -0.140 C  
HETATM   32  C   UNL     1      -8.698   6.255  68.427  1.00  0.00    -0.116 C  
HETATM   33  C   UNL     1      -7.998   7.317  67.587  1.00  0.00    -0.114 C  
HETATM   34  C   UNL     1     -10.040   5.846  67.842  1.00  0.00    -0.162 C  
HETATM   35  F   UNL     1     -10.671   5.006  68.695  1.00  0.00    -0.175 F  
HETATM   36  F   UNL     1      -9.829   5.149  66.695  1.00  0.00    -0.133 F  
HETATM   37  C   UNL     1     -10.948   7.013  67.534  1.00  0.00    -0.299 C  
HETATM   38  C   UNL     1     -10.212   8.066  66.709  1.00  0.00    -0.367 C  
ENDBRANCH  29  31
ENDBRANCH  20  27
ENDBRANCH  18  19
ENDBRANCH  17  18
ENDBRANCH   8  10
TORSDOF 6
ENDMDL
MODEL       24
REMARK 921   NORMALIZED FREE ENERGY PREDICTED BY IDOCK:   -6.96 KCAL/MOL
REMARK 922        TOTAL FREE ENERGY PREDICTED BY IDOCK:  -10.95 KCAL/MOL
REMARK 923 INTER-LIGAND FREE ENERGY PREDICTED BY IDOCK:   -9.45 KCAL/MOL
REMARK 924 INTRA-LIGAND FREE ENERGY PREDICTED BY IDOCK:   -1.50 KCAL/MOL
REMARK 927      BINDING AFFINITY PREDICTED BY RF-SCORE:    0.00 PKD
ROOT
HETATM    1  C   UNL     1     -11.932  13.149  70.094  1.00  0.00    -0.381 C  
HETATM    2  C   UNL     1     -11.865  14.542  69.444  1.00  0.00    -0.367 C  
HETATM    3  C   UNL     1     -10.455  14.899  69.082  1.00  0.00    -0.244 A  
HETATM    4  C   UNL     1     -12.392  15.610  70.413  1.00  0.00    -0.427 C  
HETATM    5  N   UNL     1      -9.553  15.238  69.978  1.00  0.00    -0.074 NA 
HETATM    6  N   UNL     1      -8.543  15.860  69.332  1.00  0.00    -0.245 NA 
HETATM    7  C   UNL     1      -8.773  15.810  68.037  1.00  0.00    -0.171 A  
HETATM    8  N   UNL     1      -9.934  15.093  67.808  1.00  0.00    -0.224 NA 
HETATM    9  C   UNL     1      -7.865  16.450  67.063  1.00  0.00    -0.247 C  
ENDROOT
BRANCH   8  10
HETATM   10  C   UNL     1     -10.603  14.706  66.547  1.00  0.00    -0.300 C  
HETATM   11  C   UNL     1      -9.872  13.689  65.639  1.00  0.00    -0.196 C  
HETATM   12  C   UNL     1     -10.667  12.473  65.125  1.00  0.00    -0.292 C  
HETATM   13  C   UNL     1     -11.395  12.920  63.859  1.00  0.00    -0.489 C  
HETATM   14  C   UNL     1     -12.645  13.583  64.413  1.00  0.00    -0.233 C  
HETATM   15  C   UNL     1     -12.659  13.203  65.923  1.00  0.00    -0.202 C  
HETATM   16  C   UNL     1     -12.110  14.371  66.757  1.00  0.00    -0.393 C  
HETATM   17  N   UNL     1     -11.791  12.018  65.977  1.00  0.00    -0.531 NA 
BRANCH  17  18
HETATM   18  C   UNL     1     -11.405  11.411  67.301  1.00  0.00    -0.275 C  
BRANCH  18  19
HETATM   19  C   UNL     1     -10.262  10.300  67.371  1.00  0.00    -0.265 C  
HETATM   20  C   UNL     1      -9.257  10.147  68.636  1.00  0.00    -0.157 C  
BRANCH  20  21
HETATM   21  C   UNL     1      -7.835  10.752  68.854  1.00  0.00    -0.136 A  
HETATM   22  C   UNL     1      -5.242  11.987  69.054  1.00  0.00    -0.054 A  
HETATM   23  C   UNL     1      -7.588  12.111  68.477  1.00  0.00    -0.124 A  
HETATM   24  C   UNL     1      -5.451  10.650  69.418  1.00  0.00    -0.037 A  
HETATM   25  C   UNL     1      -6.722  10.041  69.315  1.00  0.00    -0.057 A  
HETATM   26  C   UNL     1      -6.320  12.722  68.577  1.00  0.00    -0.075 A  
ENDBRANCH  20  21
BRANCH  20  27
HETATM   27  N   UNL     1     -10.003  10.223  69.884  1.00  0.00    -0.399 N  
HETATM   28  H   UNL     1     -10.341  11.121  70.228  1.00  0.00     0.000 HD 
HETATM   29  C   UNL     1     -10.248   9.077  70.594  1.00  0.00    -0.229 C  
HETATM   30  O   UNL     1      -9.797   7.990  70.238  1.00  0.00    -0.182 OA 
BRANCH  29  31
HETATM   31  C   UNL     1     -10.999   9.237  71.908  1.00  0.00    -0.284 C  
HETATM   32  C   UNL     1     -13.341   9.230  70.990  1.00  0.00    -0.136 C  
HETATM   33  C   UNL     1     -12.326  10.000  71.828  1.00  0.00    -0.434 C  
HETATM   34  C   UNL     1     -13.544   7.809  71.487  1.00  0.00    -0.331 C  
HETATM   35  F   UNL     1     -14.348   7.137  70.630  1.00  0.00    -0.236 F  
HETATM   36  F   UNL     1     -14.193   7.846  72.681  1.00  0.00    -0.192 F  
HETATM   37  C   UNL     1     -12.258   7.039  71.665  1.00  0.00    -0.395 C  
HETATM   38  C   UNL     1     -11.256   7.843  72.491  1.00  0.00    -0.436 C  
ENDBRANCH  29  31
ENDBRANCH  20  27
ENDBRANCH  18  19
ENDBRANCH  17  18
ENDBRANCH   8  10
TORSDOF 6
ENDMDL
MODEL       25
REMARK 921   NORMALIZED FREE ENERGY PREDICTED BY IDOCK:   -6.96 KCAL/MOL
REMARK 922        TOTAL FREE ENERGY PREDICTED BY IDOCK:  -10.94 KCAL/MOL
REMARK 923 INTER-LIGAND FREE ENERGY PREDICTED BY IDOCK:  -10.21 KCAL/MOL
REMARK 924 INTRA-LIGAND FREE ENERGY PREDICTED BY IDOCK:   -0.74 KCAL/MOL
REMARK 927      BINDING AFFINITY PREDICTED BY RF-SCORE:    0.00 PKD
ROOT
HETATM    1  C   UNL     1      -9.530   2.601  69.032  1.00  0.00    -0.158 C  
HETATM    2  C   UNL     1      -8.747   3.919  68.903  1.00  0.00    -0.132 C  
HETATM    3  C   UNL     1      -9.573   4.970  68.224  1.00  0.00    -0.140 A  
HETATM    4  C   UNL     1      -7.474   3.706  68.074  1.00  0.00    -0.062 C  
HETATM    5  N   UNL     1      -9.824   4.954  66.932  1.00  0.00    -0.178 NA 
HETATM    6  N   UNL     1     -10.236   6.192  66.578  1.00  0.00    -0.153 NA 
HETATM    7  C   UNL     1     -10.339   6.932  67.661  1.00  0.00    -0.205 A  
HETATM    8  N   UNL     1     -10.041   6.160  68.770  1.00  0.00    -0.157 NA 
HETATM    9  C   UNL     1     -10.725   8.356  67.593  1.00  0.00    -0.191 C  
ENDROOT
BRANCH   8  10
HETATM   10  C   UNL     1     -10.053   6.487  70.212  1.00  0.00    -0.179 C  
HETATM   11  C   UNL     1      -9.033   7.539  70.710  1.00  0.00    -0.149 C  
HETATM   12  C   UNL     1      -9.552   8.695  71.587  1.00  0.00    -0.274 C  
HETATM   13  C   UNL     1      -9.570   8.186  73.027  1.00  0.00    -0.336 C  
HETATM   14  C   UNL     1     -10.898   7.450  73.101  1.00  0.00    -0.435 C  
HETATM   15  C   UNL     1     -11.644   7.847  71.793  1.00  0.00    -0.278 C  
HETATM   16  C   UNL     1     -11.496   6.727  70.751  1.00  0.00    -0.392 C  
HETATM   17  N   UNL     1     -10.967   9.086  71.385  1.00  0.00    -0.296 NA 
BRANCH  17  18
HETATM   18  C   UNL     1     -11.285   9.732  70.061  1.00  0.00    -0.251 C  
BRANCH  18  19
HETATM   19  C   UNL     1     -10.306  10.836  69.453  1.00  0.00    -0.207 C  
HETATM   20  C   UNL     1     -10.830  12.070  68.537  1.00  0.00    -0.233 C  
BRANCH  20  21
HETATM   21  C   UNL     1     -10.932  12.181  66.984  1.00  0.00    -0.319 A  
HETATM   22  C   UNL     1     -11.349  12.331  64.139  1.00  0.00    -0.442 A  
HETATM   23  C   UNL     1     -12.122  12.722  66.398  1.00  0.00    -0.370 A  
HETATM   24  C   UNL     1     -10.180  11.784  64.684  1.00  0.00    -0.326 A  
HETATM   25  C   UNL     1      -9.976  11.705  66.080  1.00  0.00    -0.252 A  
HETATM   26  C   UNL     1     -12.329  12.801  65.005  1.00  0.00    -0.559 A  
ENDBRANCH  20  21
BRANCH  20  27
HETATM   27  N   UNL     1     -12.010  12.677  69.136  1.00  0.00    -0.276 N  
HETATM   28  H   UNL     1     -12.932  12.269  68.982  1.00  0.00     0.000 HD 
HETATM   29  C   UNL     1     -11.873  13.800  69.908  1.00  0.00    -0.327 C  
HETATM   30  O   UNL     1     -10.783  14.350  70.056  1.00  0.00    -0.030 OA 
BRANCH  29  31
HETATM   31  C   UNL     1     -13.153  14.401  70.469  1.00  0.00    -0.198 C  
HETATM   32  C   UNL     1     -12.950  13.552  72.828  1.00  0.00    -0.173 C  
HETATM   33  C   UNL     1     -13.832  13.601  71.586  1.00  0.00    -0.256 C  
HETATM   34  C   UNL     1     -12.543  14.937  73.303  1.00  0.00    -0.471 C  
HETATM   35  F   UNL     1     -11.658  14.827  74.321  1.00  0.00    -0.402 F  
HETATM   36  F   UNL     1     -13.635  15.572  73.805  1.00  0.00    -0.383 F  
HETATM   37  C   UNL     1     -11.944  15.800  72.218  1.00  0.00    -0.592 C  
HETATM   38  C   UNL     1     -12.841  15.812  70.982  1.00  0.00    -0.425 C  
ENDBRANCH  29  31
ENDBRANCH  20  27
ENDBRANCH  18  19
ENDBRANCH  17  18
ENDBRANCH   8  10
TORSDOF 6
ENDMDL
MODEL       26
REMARK 921   NORMALIZED FREE ENERGY PREDICTED BY IDOCK:   -6.86 KCAL/MOL
REMARK 922        TOTAL FREE ENERGY PREDICTED BY IDOCK:  -10.81 KCAL/MOL
REMARK 923 INTER-LIGAND FREE ENERGY PREDICTED BY IDOCK:  -10.35 KCAL/MOL
REMARK 924 INTRA-LIGAND FREE ENERGY PREDICTED BY IDOCK:   -0.46 KCAL/MOL
REMARK 927      BINDING AFFINITY PREDICTED BY RF-SCORE:    0.00 PKD
ROOT
HETATM    1  C   UNL     1      -7.130  10.409  65.553  1.00  0.00    -0.133 C  
HETATM    2  C   UNL     1      -7.925  10.997  66.732  1.00  0.00    -0.152 C  
HETATM    3  C   UNL     1      -7.531  12.420  66.988  1.00  0.00    -0.034 A  
HETATM    4  C   UNL     1      -7.658  10.192  68.011  1.00  0.00    -0.088 C  
HETATM    5  N   UNL     1      -6.388  12.754  67.550  1.00  0.00    -0.155 NA 
HETATM    6  N   UNL     1      -6.500  14.028  67.987  1.00  0.00    -0.132 NA 
HETATM    7  C   UNL     1      -7.664  14.508  67.605  1.00  0.00    -0.179 A  
HETATM    8  N   UNL     1      -8.324  13.554  66.849  1.00  0.00    -0.067 NA 
HETATM    9  C   UNL     1      -8.100  15.869  67.975  1.00  0.00    -0.144 C  
ENDROOT
BRANCH   8  10
HETATM   10  C   UNL     1      -9.625  13.601  66.148  1.00  0.00    -0.209 C  
HETATM   11  C   UNL     1      -9.958  12.431  65.191  1.00  0.00    -0.219 C  
HETATM   12  C   UNL     1     -11.329  11.743  65.337  1.00  0.00    -0.222 C  
HETATM   13  C   UNL     1     -12.326  12.559  64.515  1.00  0.00    -0.545 C  
HETATM   14  C   UNL     1     -12.712  13.672  65.476  1.00  0.00    -0.514 C  
HETATM   15  C   UNL     1     -12.125  13.232  66.849  1.00  0.00    -0.332 C  
HETATM   16  C   UNL     1     -10.799  13.966  67.106  1.00  0.00    -0.288 C  
HETATM   17  N   UNL     1     -11.942  11.783  66.686  1.00  0.00    -0.499 NA 
BRANCH  17  18
HETATM   18  C   UNL     1     -11.242  10.974  67.747  1.00  0.00    -0.308 C  
BRANCH  18  19
HETATM   19  C   UNL     1     -10.691  11.687  69.064  1.00  0.00    -0.217 C  
HETATM   20  C   UNL     1     -11.555  11.795  70.434  1.00  0.00    -0.015 C  
BRANCH  20  21
HETATM   21  C   UNL     1     -12.483  12.946  70.935  1.00  0.00    -0.383 A  
HETATM   22  C   UNL     1     -14.009  15.215  71.836  1.00  0.00    -0.629 A  
HETATM   23  C   UNL     1     -12.341  14.254  70.369  1.00  0.00    -0.419 A  
HETATM   24  C   UNL     1     -14.158  13.949  72.417  1.00  0.00    -0.586 A  
HETATM   25  C   UNL     1     -13.406  12.835  71.980  1.00  0.00    -0.565 A  
HETATM   26  C   UNL     1     -13.090  15.368  70.805  1.00  0.00    -0.479 A  
ENDBRANCH  20  21
BRANCH  20  27
HETATM   27  N   UNL     1     -12.176  10.515  70.741  1.00  0.00    -0.336 N  
HETATM   28  H   UNL     1     -13.167  10.366  70.554  1.00  0.00     0.000 HD 
HETATM   29  C   UNL     1     -11.419   9.510  71.284  1.00  0.00    -0.377 C  
HETATM   30  O   UNL     1     -10.238   9.683  71.580  1.00  0.00    -0.145 OA 
BRANCH  29  31
HETATM   31  C   UNL     1     -12.143   8.213  71.614  1.00  0.00    -0.342 C  
HETATM   32  C   UNL     1     -10.851   6.679  70.098  1.00  0.00    -0.330 C  
HETATM   33  C   UNL     1     -12.236   7.193  70.475  1.00  0.00    -0.173 C  
HETATM   34  C   UNL     1     -10.098   6.116  71.292  1.00  0.00    -0.188 C  
HETATM   35  F   UNL     1      -8.833   5.800  70.924  1.00  0.00    -0.132 F  
HETATM   36  F   UNL     1     -10.689   4.956  71.682  1.00  0.00    -0.260 F  
HETATM   37  C   UNL     1     -10.050   7.052  72.475  1.00  0.00    -0.198 C  
HETATM   38  C   UNL     1     -11.448   7.563  72.815  1.00  0.00    -0.352 C  
ENDBRANCH  29  31
ENDBRANCH  20  27
ENDBRANCH  18  19
ENDBRANCH  17  18
ENDBRANCH   8  10
TORSDOF 6
ENDMDL
MODEL       27
REMARK 921   NORMALIZED FREE ENERGY PREDICTED BY IDOCK:   -6.82 KCAL/MOL
REMARK 922        TOTAL FREE ENERGY PREDICTED BY IDOCK:  -10.75 KCAL/MOL
REMARK 923 INTER-LIGAND FREE ENERGY PREDICTED BY IDOCK:   -9.00 KCAL/MOL
REMARK 924 INTRA-LIGAND FREE ENERGY PREDICTED BY IDOCK:   -1.75 KCAL/MOL
REMARK 927      BINDING AFFINITY PREDICTED BY RF-SCORE:    0.00 PKD
ROOT
HETATM    1  C   UNL     1     -11.432   6.477  70.520  1.00  0.00    -0.448 C  
HETATM    2  C   UNL     1     -10.088   5.965  69.973  1.00  0.00    -0.258 C  
HETATM    3  C   UNL     1     -10.030   6.096  68.481  1.00  0.00    -0.147 A  
HETATM    4  C   UNL     1      -9.896   4.484  70.328  1.00  0.00    -0.299 C  
HETATM    5  N   UNL     1     -10.699   5.305  67.670  1.00  0.00    -0.058 NA 
HETATM    6  N   UNL     1     -10.149   5.416  66.440  1.00  0.00    -0.194 NA 
HETATM    7  C   UNL     1      -9.219   6.346  66.473  1.00  0.00    -0.155 A  
HETATM    8  N   UNL     1      -9.181   6.908  67.737  1.00  0.00    -0.121 NA 
HETATM    9  C   UNL     1      -8.401   6.667  65.286  1.00  0.00    -0.112 C  
ENDROOT
BRANCH   8  10
HETATM   10  C   UNL     1      -8.362   8.011  68.285  1.00  0.00    -0.123 C  
HETATM   11  C   UNL     1      -7.328   8.665  67.338  1.00  0.00    -0.089 C  
HETATM   12  C   UNL     1      -7.313  10.202  67.231  1.00  0.00    -0.090 C  
HETATM   13  C   UNL     1      -6.437  10.718  68.372  1.00  0.00    -0.054 C  
HETATM   14  C   UNL     1      -7.404  10.747  69.544  1.00  0.00    -0.125 C  
HETATM   15  C   UNL     1      -8.807  10.520  68.906  1.00  0.00    -0.165 C  
HETATM   16  C   UNL     1      -9.220   9.049  69.071  1.00  0.00    -0.140 C  
HETATM   17  N   UNL     1      -8.598  10.890  67.499  1.00  0.00    -0.126 NA 
BRANCH  17  18
HETATM   18  C   UNL     1      -9.684  10.668  66.479  1.00  0.00    -0.194 C  
BRANCH  18  19
HETATM   19  C   UNL     1     -11.064  11.461  66.593  1.00  0.00    -0.333 C  
HETATM   20  C   UNL     1     -11.262  12.754  67.553  1.00  0.00    -0.289 C  
BRANCH  20  21
HETATM   21  C   UNL     1     -11.799  12.833  69.016  1.00  0.00    -0.344 A  
HETATM   22  C   UNL     1     -12.923  12.787  71.667  1.00  0.00    -0.402 A  
HETATM   23  C   UNL     1     -12.070  11.619  69.727  1.00  0.00    -0.357 A  
HETATM   24  C   UNL     1     -12.681  13.990  70.990  1.00  0.00    -0.431 A  
HETATM   25  C   UNL     1     -12.134  14.013  69.686  1.00  0.00    -0.408 A  
HETATM   26  C   UNL     1     -12.617  11.592  71.027  1.00  0.00    -0.457 A  
ENDBRANCH  20  21
BRANCH  20  27
HETATM   27  N   UNL     1     -10.135  13.665  67.410  1.00  0.00    -0.239 N  
HETATM   28  H   UNL     1      -9.283  13.517  67.949  1.00  0.00     0.000 HD 
HETATM   29  C   UNL     1     -10.229  14.724  66.545  1.00  0.00    -0.276 C  
HETATM   30  O   UNL     1     -11.267  14.964  65.932  1.00  0.00    -0.335 OA 
BRANCH  29  31
HETATM   31  C   UNL     1      -9.027  15.655  66.476  1.00  0.00    -0.343 C  
HETATM   32  C   UNL     1     -10.201  17.805  67.049  1.00  0.00    -0.346 C  
HETATM   33  C   UNL     1      -9.322  17.091  66.028  1.00  0.00    -0.187 C  
HETATM   34  C   UNL     1      -9.610  17.767  68.449  1.00  0.00    -0.323 C  
HETATM   35  F   UNL     1     -10.492  18.295  69.330  1.00  0.00    -0.317 F  
HETATM   36  F   UNL     1      -8.505  18.558  68.484  1.00  0.00    -0.311 F  
HETATM   37  C   UNL     1      -9.222  16.382  68.907  1.00  0.00    -0.259 C  
HETATM   38  C   UNL     1      -8.360  15.687  67.856  1.00  0.00    -0.150 C  
ENDBRANCH  29  31
ENDBRANCH  20  27
ENDBRANCH  18  19
ENDBRANCH  17  18
ENDBRANCH   8  10
TORSDOF 6
ENDMDL
MODEL       28
REMARK 921   NORMALIZED FREE ENERGY PREDICTED BY IDOCK:   -6.82 KCAL/MOL
REMARK 922        TOTAL FREE ENERGY PREDICTED BY IDOCK:  -10.75 KCAL/MOL
REMARK 923 INTER-LIGAND FREE ENERGY PREDICTED BY IDOCK:  -10.58 KCAL/MOL
REMARK 924 INTRA-LIGAND FREE ENERGY PREDICTED BY IDOCK:   -0.17 KCAL/MOL
REMARK 927      BINDING AFFINITY PREDICTED BY RF-SCORE:    0.00 PKD
ROOT
HETATM    1  C   UNL     1     -12.894  14.068  65.319  1.00  0.00    -0.418 C  
HETATM    2  C   UNL     1     -11.434  14.508  65.114  1.00  0.00    -0.368 C  
HETATM    3  C   UNL     1     -10.699  14.553  66.419  1.00  0.00    -0.309 A  
HETATM    4  C   UNL     1     -11.381  15.909  64.489  1.00  0.00    -0.316 C  
HETATM    5  N   UNL     1     -10.892  15.498  67.314  1.00  0.00    -0.313 NA 
HETATM    6  N   UNL     1      -9.840  15.483  68.163  1.00  0.00    -0.215 NA 
HETATM    7  C   UNL     1      -9.060  14.468  67.855  1.00  0.00    -0.191 A  
HETATM    8  N   UNL     1      -9.628  13.757  66.812  1.00  0.00    -0.270 NA 
HETATM    9  C   UNL     1      -7.797  14.215  68.578  1.00  0.00    -0.140 C  
ENDROOT
BRANCH   8  10
HETATM   10  C   UNL     1      -9.190  12.521  66.129  1.00  0.00    -0.073 C  
HETATM   11  C   UNL     1      -8.346  11.517  66.950  1.00  0.00    -0.166 C  
HETATM   12  C   UNL     1      -8.770  10.037  66.944  1.00  0.00    -0.128 C  
HETATM   13  C   UNL     1      -8.136   9.397  65.709  1.00  0.00    -0.114 C  
HETATM   14  C   UNL     1      -9.125   9.751  64.610  1.00  0.00    -0.294 C  
HETATM   15  C   UNL     1     -10.370  10.308  65.361  1.00  0.00    -0.163 C  
HETATM   16  C   UNL     1     -10.347  11.844  65.334  1.00  0.00    -0.306 C  
HETATM   17  N   UNL     1     -10.210   9.769  66.719  1.00  0.00    -0.232 NA 
BRANCH  17  18
HETATM   18  C   UNL     1     -11.136  10.197  67.828  1.00  0.00    -0.227 C  
BRANCH  18  19
HETATM   19  C   UNL     1     -10.576  11.046  69.057  1.00  0.00    -0.258 C  
HETATM   20  C   UNL     1     -11.424  11.289  70.420  1.00  0.00    -0.107 C  
BRANCH  20  21
HETATM   21  C   UNL     1     -12.356  12.477  70.812  1.00  0.00    -0.376 A  
HETATM   22  C   UNL     1     -13.893  14.815  71.494  1.00  0.00    -0.529 A  
HETATM   23  C   UNL     1     -12.235  13.720  70.111  1.00  0.00    -0.425 A  
HETATM   24  C   UNL     1     -14.022  13.615  72.206  1.00  0.00    -0.661 A  
HETATM   25  C   UNL     1     -13.264  12.468  71.876  1.00  0.00    -0.495 A  
HETATM   26  C   UNL     1     -12.989  14.867  70.439  1.00  0.00    -0.272 A  
ENDBRANCH  20  21
BRANCH  20  27
HETATM   27  N   UNL     1     -12.029  10.042  70.866  1.00  0.00    -0.334 N  
HETATM   28  H   UNL     1     -13.025   9.875  70.725  1.00  0.00     0.000 HD 
HETATM   29  C   UNL     1     -11.250   9.094  71.476  1.00  0.00    -0.360 C  
HETATM   30  O   UNL     1     -10.061   9.296  71.717  1.00  0.00    -0.293 OA 
BRANCH  29  31
HETATM   31  C   UNL     1     -11.957   7.833  71.950  1.00  0.00    -0.340 C  
HETATM   32  C   UNL     1     -10.945   6.212  70.315  1.00  0.00    -0.417 C  
HETATM   33  C   UNL     1     -12.245   6.784  70.870  1.00  0.00    -0.386 C  
HETATM   34  C   UNL     1     -10.044   5.658  71.406  1.00  0.00    -0.200 C  
HETATM   35  F   UNL     1      -8.856   5.289  70.871  1.00  0.00    -0.125 F  
HETATM   36  F   UNL     1     -10.607   4.531  71.915  1.00  0.00    -0.256 F  
HETATM   37  C   UNL     1      -9.797   6.625  72.539  1.00  0.00    -0.176 C  
HETATM   38  C   UNL     1     -11.115   7.194  73.059  1.00  0.00    -0.323 C  
ENDBRANCH  29  31
ENDBRANCH  20  27
ENDBRANCH  18  19
ENDBRANCH  17  18
ENDBRANCH   8  10
TORSDOF 6
ENDMDL
MODEL       29
REMARK 921   NORMALIZED FREE ENERGY PREDICTED BY IDOCK:   -6.80 KCAL/MOL
REMARK 922        TOTAL FREE ENERGY PREDICTED BY IDOCK:  -10.72 KCAL/MOL
REMARK 923 INTER-LIGAND FREE ENERGY PREDICTED BY IDOCK:   -8.91 KCAL/MOL
REMARK 924 INTRA-LIGAND FREE ENERGY PREDICTED BY IDOCK:   -1.82 KCAL/MOL
REMARK 927      BINDING AFFINITY PREDICTED BY RF-SCORE:    0.00 PKD
ROOT
HETATM    1  C   UNL     1     -12.531  12.627  65.188  1.00  0.00    -0.531 C  
HETATM    2  C   UNL     1     -11.183  12.067  64.699  1.00  0.00    -0.380 C  
HETATM    3  C   UNL     1     -10.134  12.189  65.762  1.00  0.00    -0.247 A  
HETATM    4  C   UNL     1     -10.701  12.839  63.463  1.00  0.00    -0.232 C  
HETATM    5  N   UNL     1      -9.577  13.337  66.085  1.00  0.00    -0.241 NA 
HETATM    6  N   UNL     1      -8.438  13.067  66.761  1.00  0.00    -0.072 NA 
HETATM    7  C   UNL     1      -8.351  11.766  66.944  1.00  0.00    -0.170 A  
HETATM    8  N   UNL     1      -9.481  11.157  66.426  1.00  0.00    -0.187 NA 
HETATM    9  C   UNL     1      -7.186  11.155  67.614  1.00  0.00    -0.094 C  
ENDROOT
BRANCH   8  10
HETATM   10  C   UNL     1      -9.899   9.739  66.414  1.00  0.00    -0.235 C  
HETATM   11  C   UNL     1      -8.821   8.684  66.071  1.00  0.00    -0.213 C  
HETATM   12  C   UNL     1      -8.671   7.469  67.006  1.00  0.00    -0.127 C  
HETATM   13  C   UNL     1      -9.687   6.425  66.546  1.00  0.00    -0.177 C  
HETATM   14  C   UNL     1     -10.963   6.879  67.236  1.00  0.00    -0.406 C  
HETATM   15  C   UNL     1     -10.499   7.966  68.251  1.00  0.00    -0.164 C  
HETATM   16  C   UNL     1     -10.751   9.364  67.665  1.00  0.00    -0.295 C  
HETATM   17  N   UNL     1      -9.067   7.677  68.419  1.00  0.00    -0.131 NA 
BRANCH  17  18
HETATM   18  C   UNL     1      -8.188   8.604  69.216  1.00  0.00    -0.113 C  
BRANCH  18  19
HETATM   19  C   UNL     1      -8.719   9.238  70.581  1.00  0.00    -0.282 C  
HETATM   20  C   UNL     1      -9.686   8.435  71.608  1.00  0.00    -0.219 C  
BRANCH  20  21
HETATM   21  C   UNL     1     -11.243   8.434  71.712  1.00  0.00    -0.360 A  
HETATM   22  C   UNL     1     -14.118   8.273  71.730  1.00  0.00    -0.510 A  
HETATM   23  C   UNL     1     -11.955   7.206  71.525  1.00  0.00    -0.361 A  
HETATM   24  C   UNL     1     -13.447   9.491  71.902  1.00  0.00    -0.502 A  
HETATM   25  C   UNL     1     -12.036   9.572  71.888  1.00  0.00    -0.381 A  
HETATM   26  C   UNL     1     -13.363   7.121  71.536  1.00  0.00    -0.413 A  
ENDBRANCH  20  21
BRANCH  20  27
HETATM   27  N   UNL     1      -9.195   7.078  71.807  1.00  0.00    -0.142 N  
HETATM   28  H   UNL     1      -9.273   6.389  71.060  1.00  0.00     0.000 HD 
HETATM   29  C   UNL     1      -8.628   6.735  73.005  1.00  0.00    -0.119 C  
HETATM   30  O   UNL     1      -8.580   7.526  73.946  1.00  0.00    -0.174 OA 
BRANCH  29  31
HETATM   31  C   UNL     1      -8.172   5.290  73.155  1.00  0.00    -0.112 C  
HETATM   32  C   UNL     1     -10.100   4.442  74.529  1.00  0.00    -0.258 C  
HETATM   33  C   UNL     1      -8.585   4.592  74.455  1.00  0.00    -0.105 C  
HETATM   34  C   UNL     1     -10.671   3.735  73.311  1.00  0.00    -0.197 C  
HETATM   35  F   UNL     1     -12.024   3.749  73.369  1.00  0.00    -0.260 F  
HETATM   36  F   UNL     1     -10.295   2.429  73.340  1.00  0.00    -0.147 F  
HETATM   37  C   UNL     1     -10.226   4.333  71.998  1.00  0.00    -0.220 C  
HETATM   38  C   UNL     1      -8.707   4.489  71.963  1.00  0.00    -0.128 C  
ENDBRANCH  29  31
ENDBRANCH  20  27
ENDBRANCH  18  19
ENDBRANCH  17  18
ENDBRANCH   8  10
TORSDOF 6
ENDMDL
MODEL       30
REMARK 921   NORMALIZED FREE ENERGY PREDICTED BY IDOCK:   -6.79 KCAL/MOL
REMARK 922        TOTAL FREE ENERGY PREDICTED BY IDOCK:  -10.71 KCAL/MOL
REMARK 923 INTER-LIGAND FREE ENERGY PREDICTED BY IDOCK:   -8.83 KCAL/MOL
REMARK 924 INTRA-LIGAND FREE ENERGY PREDICTED BY IDOCK:   -1.88 KCAL/MOL
REMARK 927      BINDING AFFINITY PREDICTED BY RF-SCORE:    0.00 PKD
ROOT
HETATM    1  C   UNL     1     -10.644   4.866  65.841  1.00  0.00    -0.280 C  
HETATM    2  C   UNL     1      -9.879   4.895  67.176  1.00  0.00    -0.215 C  
HETATM    3  C   UNL     1      -8.689   5.803  67.093  1.00  0.00    -0.108 A  
HETATM    4  C   UNL     1      -9.380   3.489  67.537  1.00  0.00    -0.249 C  
HETATM    5  N   UNL     1      -7.595   5.485  66.435  1.00  0.00    -0.090 NA 
HETATM    6  N   UNL     1      -6.605   6.299  66.865  1.00  0.00    -0.056 NA 
HETATM    7  C   UNL     1      -7.111   7.179  67.703  1.00  0.00    -0.089 A  
HETATM    8  N   UNL     1      -8.478   6.985  67.795  1.00  0.00    -0.120 NA 
HETATM    9  C   UNL     1      -6.263   8.179  68.382  1.00  0.00    -0.049 C  
ENDROOT
BRANCH   8  10
HETATM   10  C   UNL     1      -9.514   7.723  68.549  1.00  0.00    -0.148 C  
HETATM   11  C   UNL     1      -9.150   8.198  69.976  1.00  0.00    -0.151 C  
HETATM   12  C   UNL     1      -9.427   9.668  70.344  1.00  0.00    -0.222 C  
HETATM   13  C   UNL     1     -10.881   9.745  70.804  1.00  0.00    -0.403 C  
HETATM   14  C   UNL     1     -11.637   9.865  69.492  1.00  0.00    -0.056 C  
HETATM   15  C   UNL     1     -10.537  10.134  68.423  1.00  0.00    -0.217 C  
HETATM   16  C   UNL     1     -10.197   8.828  67.689  1.00  0.00    -0.298 C  
HETATM   17  N   UNL     1      -9.411  10.638  69.223  1.00  0.00    -0.162 NA 
BRANCH  17  18
HETATM   18  C   UNL     1      -8.067  10.881  68.587  1.00  0.00    -0.143 C  
BRANCH  18  19
HETATM   19  C   UNL     1      -7.971  11.618  67.175  1.00  0.00    -0.163 C  
HETATM   20  C   UNL     1      -8.968  12.822  66.739  1.00  0.00    -0.188 C  
BRANCH  20  21
HETATM   21  C   UNL     1     -10.301  12.765  65.931  1.00  0.00    -0.298 A  
HETATM   22  C   UNL     1     -12.632  12.674  64.243  1.00  0.00    -0.453 A  
HETATM   23  C   UNL     1     -10.332  12.064  64.682  1.00  0.00    -0.325 A  
HETATM   24  C   UNL     1     -12.627  13.379  65.454  1.00  0.00    -0.528 A  
HETATM   25  C   UNL     1     -11.481  13.429  66.281  1.00  0.00    -0.354 A  
HETATM   26  C   UNL     1     -11.473  12.014  63.854  1.00  0.00    -0.518 A  
ENDBRANCH  20  21
BRANCH  20  27
HETATM   27  N   UNL     1      -9.111  13.777  67.828  1.00  0.00    -0.184 N  
HETATM   28  H   UNL     1      -9.660  13.536  68.653  1.00  0.00     0.000 HD 
HETATM   29  C   UNL     1      -8.504  15.001  67.737  1.00  0.00    -0.156 C  
HETATM   30  O   UNL     1      -7.892  15.343  66.726  1.00  0.00    -0.201 OA 
BRANCH  29  31
HETATM   31  C   UNL     1      -8.730  15.962  68.895  1.00  0.00    -0.225 C  
HETATM   32  C   UNL     1      -8.777  18.108  67.585  1.00  0.00    -0.249 C  
HETATM   33  C   UNL     1      -8.115  17.357  68.735  1.00  0.00    -0.234 C  
HETATM   34  C   UNL     1     -10.288  18.178  67.733  1.00  0.00    -0.399 C  
HETATM   35  F   UNL     1     -10.828  18.735  66.623  1.00  0.00    -0.419 F  
HETATM   36  F   UNL     1     -10.594  19.002  68.769  1.00  0.00    -0.328 F  
HETATM   37  C   UNL     1     -10.936  16.837  67.978  1.00  0.00    -0.296 C  
HETATM   38  C   UNL     1     -10.239  16.102  69.121  1.00  0.00    -0.255 C  
ENDBRANCH  29  31
ENDBRANCH  20  27
ENDBRANCH  18  19
ENDBRANCH  17  18
ENDBRANCH   8  10
TORSDOF 6
ENDMDL
MODEL       31
REMARK 921   NORMALIZED FREE ENERGY PREDICTED BY IDOCK:   -6.77 KCAL/MOL
REMARK 922        TOTAL FREE ENERGY PREDICTED BY IDOCK:  -10.69 KCAL/MOL
REMARK 923 INTER-LIGAND FREE ENERGY PREDICTED BY IDOCK:   -8.85 KCAL/MOL
REMARK 924 INTRA-LIGAND FREE ENERGY PREDICTED BY IDOCK:   -1.83 KCAL/MOL
REMARK 927      BINDING AFFINITY PREDICTED BY RF-SCORE:    0.00 PKD
ROOT
HETATM    1  C   UNL     1      -6.768  20.061  65.176  1.00  0.00    -0.323 C  
HETATM    2  C   UNL     1      -6.866  19.878  66.701  1.00  0.00    -0.233 C  
HETATM    3  C   UNL     1      -8.233  19.408  67.098  1.00  0.00    -0.271 A  
HETATM    4  C   UNL     1      -6.594  21.208  67.417  1.00  0.00    -0.437 C  
HETATM    5  N   UNL     1      -9.287  20.196  67.092  1.00  0.00    -0.370 NA 
HETATM    6  N   UNL     1     -10.243  19.612  67.848  1.00  0.00    -0.423 NA 
HETATM    7  C   UNL     1      -9.817  18.426  68.230  1.00  0.00    -0.359 A  
HETATM    8  N   UNL     1      -8.572  18.189  67.673  1.00  0.00    -0.249 NA 
HETATM    9  C   UNL     1     -10.624  17.560  69.112  1.00  0.00    -0.091 C  
ENDROOT
BRANCH   8  10
HETATM   10  C   UNL     1      -7.688  17.005  67.742  1.00  0.00    -0.172 C  
HETATM   11  C   UNL     1      -7.316  16.480  69.149  1.00  0.00    -0.220 C  
HETATM   12  C   UNL     1      -7.486  14.975  69.430  1.00  0.00    -0.196 C  
HETATM   13  C   UNL     1      -6.210  14.285  68.951  1.00  0.00    -0.089 C  
HETATM   14  C   UNL     1      -6.471  14.102  67.465  1.00  0.00    -0.066 C  
HETATM   15  C   UNL     1      -7.980  14.440  67.283  1.00  0.00    -0.180 C  
HETATM   16  C   UNL     1      -8.131  15.878  66.762  1.00  0.00    -0.301 C  
HETATM   17  N   UNL     1      -8.525  14.274  68.638  1.00  0.00    -0.161 NA 
BRANCH  17  18
HETATM   18  C   UNL     1      -9.950  14.658  68.943  1.00  0.00    -0.228 C  
BRANCH  18  19
HETATM   19  C   UNL     1     -11.133  13.618  68.685  1.00  0.00    -0.299 C  
HETATM   20  C   UNL     1     -10.964  12.306  67.745  1.00  0.00    -0.232 C  
BRANCH  20  21
HETATM   21  C   UNL     1     -11.289  12.120  66.230  1.00  0.00    -0.411 A  
HETATM   22  C   UNL     1     -11.655  11.775  63.395  1.00  0.00    -0.419 A  
HETATM   23  C   UNL     1     -10.446  11.282  65.432  1.00  0.00    -0.326 A  
HETATM   24  C   UNL     1     -12.488  12.613  64.148  1.00  0.00    -0.488 A  
HETATM   25  C   UNL     1     -12.306  12.788  65.539  1.00  0.00    -0.495 A  
HETATM   26  C   UNL     1     -10.624  11.106  64.044  1.00  0.00    -0.436 A  
ENDBRANCH  20  21
BRANCH  20  27
HETATM   27  N   UNL     1      -9.714  11.625  68.051  1.00  0.00    -0.177 N  
HETATM   28  H   UNL     1      -8.822  12.085  67.876  1.00  0.00     0.000 HD 
HETATM   29  C   UNL     1      -9.747  10.359  68.575  1.00  0.00    -0.168 C  
HETATM   30  O   UNL     1     -10.806   9.755  68.734  1.00  0.00    -0.220 OA 
BRANCH  29  31
HETATM   31  C   UNL     1      -8.402   9.695  68.833  1.00  0.00    -0.116 C  
HETATM   32  C   UNL     1      -8.349   8.187  66.821  1.00  0.00    -0.115 C  
HETATM   33  C   UNL     1      -8.268   8.249  68.342  1.00  0.00    -0.132 C  
HETATM   34  C   UNL     1      -7.337   9.101  66.150  1.00  0.00    -0.095 C  
HETATM   35  F   UNL     1      -7.545   9.105  64.812  1.00  0.00    -0.099 F  
HETATM   36  F   UNL     1      -6.089   8.601  66.347  1.00  0.00    -0.051 F  
HETATM   37  C   UNL     1      -7.370  10.522  66.660  1.00  0.00    -0.120 C  
HETATM   38  C   UNL     1      -7.307  10.549  68.185  1.00  0.00    -0.088 C  
ENDBRANCH  29  31
ENDBRANCH  20  27
ENDBRANCH  18  19
ENDBRANCH  17  18
ENDBRANCH   8  10
TORSDOF 6
ENDMDL
MODEL       32
REMARK 921   NORMALIZED FREE ENERGY PREDICTED BY IDOCK:   -6.73 KCAL/MOL
REMARK 922        TOTAL FREE ENERGY PREDICTED BY IDOCK:  -10.63 KCAL/MOL
REMARK 923 INTER-LIGAND FREE ENERGY PREDICTED BY IDOCK:   -9.86 KCAL/MOL
REMARK 924 INTRA-LIGAND FREE ENERGY PREDICTED BY IDOCK:   -0.77 KCAL/MOL
REMARK 927      BINDING AFFINITY PREDICTED BY RF-SCORE:    0.00 PKD
ROOT
HETATM    1  C   UNL     1     -11.636   6.260  70.987  1.00  0.00    -0.337 C  
HETATM    2  C   UNL     1     -10.767   7.335  71.663  1.00  0.00    -0.239 C  
HETATM    3  C   UNL     1      -9.506   6.739  72.211  1.00  0.00    -0.141 A  
HETATM    4  C   UNL     1     -11.530   7.985  72.825  1.00  0.00    -0.420 C  
HETATM    5  N   UNL     1      -9.482   5.993  73.294  1.00  0.00    -0.142 NA 
HETATM    6  N   UNL     1      -8.205   5.944  73.733  1.00  0.00    -0.113 NA 
HETATM    7  C   UNL     1      -7.434   6.568  72.868  1.00  0.00    -0.093 A  
HETATM    8  N   UNL     1      -8.203   6.997  71.800  1.00  0.00    -0.104 NA 
HETATM    9  C   UNL     1      -5.983   6.726  73.096  1.00  0.00    -0.057 C  
ENDROOT
BRANCH   8  10
HETATM   10  C   UNL     1      -7.826   7.697  70.553  1.00  0.00    -0.095 C  
HETATM   11  C   UNL     1      -8.670   7.400  69.291  1.00  0.00    -0.137 C  
HETATM   12  C   UNL     1      -9.204   8.594  68.477  1.00  0.00    -0.138 C  
HETATM   13  C   UNL     1      -8.095   9.004  67.510  1.00  0.00    -0.108 C  
HETATM   14  C   UNL     1      -7.221   9.901  68.371  1.00  0.00    -0.073 C  
HETATM   15  C   UNL     1      -8.058  10.152  69.660  1.00  0.00    -0.168 C  
HETATM   16  C   UNL     1      -7.576   9.218  70.781  1.00  0.00    -0.154 C  
HETATM   17  N   UNL     1      -9.432   9.850  69.230  1.00  0.00    -0.196 NA 
BRANCH  17  18
HETATM   18  C   UNL     1     -10.558   9.819  70.230  1.00  0.00    -0.292 C  
BRANCH  18  19
HETATM   19  C   UNL     1     -11.940  10.547  69.903  1.00  0.00    -0.339 C  
HETATM   20  C   UNL     1     -12.033  12.106  69.460  1.00  0.00    -0.275 C  
BRANCH  20  21
HETATM   21  C   UNL     1     -12.272  13.375  70.335  1.00  0.00    -0.415 A  
HETATM   22  C   UNL     1     -12.923  15.624  72.012  1.00  0.00    -0.530 A  
HETATM   23  C   UNL     1     -12.950  13.241  71.590  1.00  0.00    -0.441 A  
HETATM   24  C   UNL     1     -12.272  15.786  70.782  1.00  0.00    -0.441 A  
HETATM   25  C   UNL     1     -11.957  14.684  69.955  1.00  0.00    -0.376 A  
HETATM   26  C   UNL     1     -13.267  14.339  72.416  1.00  0.00    -0.549 A  
ENDBRANCH  20  21
BRANCH  20  27
HETATM   27  N   UNL     1     -11.023  12.404  68.454  1.00  0.00    -0.227 N  
HETATM   28  H   UNL     1     -10.033  12.304  68.674  1.00  0.00     0.000 HD 
HETATM   29  C   UNL     1     -11.414  12.821  67.209  1.00  0.00    -0.337 C  
HETATM   30  O   UNL     1     -12.598  13.013  66.936  1.00  0.00    -0.194 OA 
BRANCH  29  31
HETATM   31  C   UNL     1     -10.305  13.152  66.221  1.00  0.00    -0.291 C  
HETATM   32  C   UNL     1     -10.629  11.217  64.648  1.00  0.00    -0.392 C  
HETATM   33  C   UNL     1      -9.637  11.951  65.542  1.00  0.00    -0.200 C  
HETATM   34  C   UNL     1     -11.285  12.138  63.633  1.00  0.00    -0.464 C  
HETATM   35  F   UNL     1     -12.248  11.464  62.962  1.00  0.00    -0.436 F  
HETATM   36  F   UNL     1     -10.359  12.513  62.712  1.00  0.00    -0.097 F  
HETATM   37  C   UNL     1     -11.887  13.382  64.242  1.00  0.00    -0.470 C  
HETATM   38  C   UNL     1     -10.875  14.083  65.146  1.00  0.00    -0.376 C  
ENDBRANCH  29  31
ENDBRANCH  20  27
ENDBRANCH  18  19
ENDBRANCH  17  18
ENDBRANCH   8  10
TORSDOF 6
ENDMDL
MODEL       33
REMARK 921   NORMALIZED FREE ENERGY PREDICTED BY IDOCK:   -6.71 KCAL/MOL
REMARK 922        TOTAL FREE ENERGY PREDICTED BY IDOCK:  -10.60 KCAL/MOL
REMARK 923 INTER-LIGAND FREE ENERGY PREDICTED BY IDOCK:   -9.75 KCAL/MOL
REMARK 924 INTRA-LIGAND FREE ENERGY PREDICTED BY IDOCK:   -0.85 KCAL/MOL
REMARK 927      BINDING AFFINITY PREDICTED BY RF-SCORE:    0.00 PKD
ROOT
HETATM    1  C   UNL     1     -10.295  14.929  68.165  1.00  0.00    -0.237 C  
HETATM    2  C   UNL     1     -10.794  13.504  67.871  1.00  0.00    -0.262 C  
HETATM    3  C   UNL     1     -11.453  13.432  66.527  1.00  0.00    -0.341 A  
HETATM    4  C   UNL     1     -11.819  13.067  68.927  1.00  0.00    -0.358 C  
HETATM    5  N   UNL     1     -12.647  13.934  66.291  1.00  0.00    -0.404 NA 
HETATM    6  N   UNL     1     -13.107  13.381  65.147  1.00  0.00    -0.684 NA 
HETATM    7  C   UNL     1     -12.161  12.626  64.629  1.00  0.00    -0.452 A  
HETATM    8  N   UNL     1     -11.025  12.718  65.414  1.00  0.00    -0.279 NA 
HETATM    9  C   UNL     1     -12.381  11.847  63.394  1.00  0.00    -0.577 C  
ENDROOT
BRANCH   8  10
HETATM   10  C   UNL     1      -9.684  12.117  65.253  1.00  0.00    -0.141 C  
HETATM   11  C   UNL     1      -8.858  11.870  66.538  1.00  0.00    -0.178 C  
HETATM   12  C   UNL     1      -8.228  10.478  66.740  1.00  0.00    -0.126 C  
HETATM   13  C   UNL     1      -6.887  10.487  66.007  1.00  0.00    -0.134 C  
HETATM   14  C   UNL     1      -7.290  10.166  64.577  1.00  0.00    -0.121 C  
HETATM   15  C   UNL     1      -8.780   9.723  64.675  1.00  0.00    -0.194 C  
HETATM   16  C   UNL     1      -9.696  10.894  64.286  1.00  0.00    -0.347 C  
HETATM   17  N   UNL     1      -8.924   9.343  66.088  1.00  0.00    -0.153 NA 
BRANCH  17  18
HETATM   18  C   UNL     1     -10.275   8.992  66.653  1.00  0.00    -0.263 C  
BRANCH  18  19
HETATM   19  C   UNL     1     -10.667   7.466  66.907  1.00  0.00    -0.324 C  
HETATM   20  C   UNL     1     -10.042   6.586  68.119  1.00  0.00    -0.155 C  
BRANCH  20  21
HETATM   21  C   UNL     1      -8.805   5.634  68.121  1.00  0.00    -0.108 A  
HETATM   22  C   UNL     1      -6.648   3.732  68.263  1.00  0.00    -0.045 A  
HETATM   23  C   UNL     1      -9.014   4.217  68.109  1.00  0.00    -0.151 A  
HETATM   24  C   UNL     1      -6.415   5.114  68.291  1.00  0.00    -0.040 A  
HETATM   25  C   UNL     1      -7.474   6.049  68.226  1.00  0.00    -0.086 A  
HETATM   26  C   UNL     1      -7.960   3.282  68.174  1.00  0.00    -0.072 A  
ENDBRANCH  20  21
BRANCH  20  27
HETATM   27  N   UNL     1     -10.055   7.352  69.357  1.00  0.00    -0.181 N  
HETATM   28  H   UNL     1      -9.516   8.214  69.434  1.00  0.00     0.000 HD 
HETATM   29  C   UNL     1     -10.798   6.906  70.418  1.00  0.00    -0.261 C  
HETATM   30  O   UNL     1     -11.405   5.837  70.376  1.00  0.00    -0.242 OA 
BRANCH  29  31
HETATM   31  C   UNL     1     -10.733   7.737  71.692  1.00  0.00    -0.257 C  
HETATM   32  C   UNL     1     -11.212   9.989  70.682  1.00  0.00    -0.425 C  
HETATM   33  C   UNL     1     -10.236   9.176  71.524  1.00  0.00    -0.403 C  
HETATM   34  C   UNL     1     -12.626   9.949  71.234  1.00  0.00    -0.381 C  
HETATM   35  F   UNL     1     -13.468  10.573  70.376  1.00  0.00    -0.328 F  
HETATM   36  F   UNL     1     -12.668  10.650  72.397  1.00  0.00    -0.383 F  
HETATM   37  C   UNL     1     -13.136   8.552  71.497  1.00  0.00    -0.325 C  
HETATM   38  C   UNL     1     -12.128   7.758  72.326  1.00  0.00    -0.332 C  
ENDBRANCH  29  31
ENDBRANCH  20  27
ENDBRANCH  18  19
ENDBRANCH  17  18
ENDBRANCH   8  10
TORSDOF 6
ENDMDL
MODEL       34
REMARK 921   NORMALIZED FREE ENERGY PREDICTED BY IDOCK:   -6.70 KCAL/MOL
REMARK 922        TOTAL FREE ENERGY PREDICTED BY IDOCK:  -10.58 KCAL/MOL
REMARK 923 INTER-LIGAND FREE ENERGY PREDICTED BY IDOCK:   -9.57 KCAL/MOL
REMARK 924 INTRA-LIGAND FREE ENERGY PREDICTED BY IDOCK:   -1.02 KCAL/MOL
REMARK 927      BINDING AFFINITY PREDICTED BY RF-SCORE:    0.00 PKD
ROOT
HETATM    1  C   UNL     1      -9.960  14.510  68.377  1.00  0.00    -0.241 C  
HETATM    2  C   UNL     1     -10.626  13.175  68.000  1.00  0.00    -0.246 C  
HETATM    3  C   UNL     1     -11.372  13.294  66.706  1.00  0.00    -0.327 A  
HETATM    4  C   UNL     1     -11.622  12.749  69.087  1.00  0.00    -0.373 C  
HETATM    5  N   UNL     1     -12.518  13.933  66.600  1.00  0.00    -0.358 NA 
HETATM    6  N   UNL     1     -13.107  13.537  65.450  1.00  0.00    -0.620 NA 
HETATM    7  C   UNL     1     -12.281  12.742  64.803  1.00  0.00    -0.459 A  
HETATM    8  N   UNL     1     -11.094  12.646  65.508  1.00  0.00    -0.286 NA 
HETATM    9  C   UNL     1     -12.661  12.106  63.525  1.00  0.00    -0.621 C  
ENDROOT
BRANCH   8  10
HETATM   10  C   UNL     1      -9.837  11.930  65.200  1.00  0.00    -0.218 C  
HETATM   11  C   UNL     1      -8.728  11.948  66.278  1.00  0.00    -0.070 C  
HETATM   12  C   UNL     1      -8.082  10.607  66.676  1.00  0.00    -0.136 C  
HETATM   13  C   UNL     1      -6.958  10.341  65.676  1.00  0.00    -0.133 C  
HETATM   14  C   UNL     1      -7.698   9.710  64.508  1.00  0.00    -0.131 C  
HETATM   15  C   UNL     1      -9.124   9.411  65.057  1.00  0.00    -0.215 C  
HETATM   16  C   UNL     1     -10.096  10.513  64.606  1.00  0.00    -0.408 C  
HETATM   17  N   UNL     1      -8.926   9.399  66.514  1.00  0.00    -0.144 NA 
BRANCH  17  18
HETATM   18  C   UNL     1     -10.104   9.294  67.447  1.00  0.00    -0.223 C  
BRANCH  18  19
HETATM   19  C   UNL     1      -9.956   9.719  68.978  1.00  0.00    -0.189 C  
HETATM   20  C   UNL     1     -10.428   8.769  70.206  1.00  0.00    -0.208 C  
BRANCH  20  21
HETATM   21  C   UNL     1     -11.784   8.743  70.978  1.00  0.00    -0.329 A  
HETATM   22  C   UNL     1     -14.369   8.553  72.231  1.00  0.00    -0.483 A  
HETATM   23  C   UNL     1     -12.548   7.532  71.007  1.00  0.00    -0.223 A  
HETATM   24  C   UNL     1     -13.649   9.755  72.206  1.00  0.00    -0.397 A  
HETATM   25  C   UNL     1     -12.383   9.851  71.586  1.00  0.00    -0.496 A  
HETATM   26  C   UNL     1     -13.813   7.433  71.623  1.00  0.00    -0.490 A  
ENDBRANCH  20  21
BRANCH  20  27
HETATM   27  N   UNL     1      -9.978   7.402  69.988  1.00  0.00    -0.183 N  
HETATM   28  H   UNL     1     -10.460   6.803  69.318  1.00  0.00     0.000 HD 
HETATM   29  C   UNL     1      -8.902   6.925  70.688  1.00  0.00    -0.150 C  
HETATM   30  O   UNL     1      -8.342   7.603  71.549  1.00  0.00    -0.104 OA 
BRANCH  29  31
HETATM   31  C   UNL     1      -8.513   5.476  70.437  1.00  0.00    -0.122 C  
HETATM   32  C   UNL     1      -7.723   4.903  72.755  1.00  0.00    -0.093 C  
HETATM   33  C   UNL     1      -7.348   4.943  71.278  1.00  0.00    -0.069 C  
HETATM   34  C   UNL     1      -8.999   4.118  73.007  1.00  0.00    -0.108 C  
HETATM   35  F   UNL     1      -9.353   4.230  74.309  1.00  0.00    -0.104 F  
HETATM   36  F   UNL     1      -8.759   2.799  72.783  1.00  0.00    -0.071 F  
HETATM   37  C   UNL     1     -10.158   4.548  72.141  1.00  0.00    -0.260 C  
HETATM   38  C   UNL     1      -9.745   4.596  70.671  1.00  0.00    -0.277 C  
ENDBRANCH  29  31
ENDBRANCH  20  27
ENDBRANCH  18  19
ENDBRANCH  17  18
ENDBRANCH   8  10
TORSDOF 6
ENDMDL
MODEL       35
REMARK 921   NORMALIZED FREE ENERGY PREDICTED BY IDOCK:   -6.69 KCAL/MOL
REMARK 922        TOTAL FREE ENERGY PREDICTED BY IDOCK:  -10.57 KCAL/MOL
REMARK 923 INTER-LIGAND FREE ENERGY PREDICTED BY IDOCK:   -9.03 KCAL/MOL
REMARK 924 INTRA-LIGAND FREE ENERGY PREDICTED BY IDOCK:   -1.54 KCAL/MOL
REMARK 927      BINDING AFFINITY PREDICTED BY RF-SCORE:    0.00 PKD
ROOT
HETATM    1  C   UNL     1     -12.241  12.734  63.335  1.00  0.00    -0.594 C  
HETATM    2  C   UNL     1     -11.245  13.272  64.377  1.00  0.00    -0.409 C  
HETATM    3  C   UNL     1     -11.368  12.528  65.672  1.00  0.00    -0.335 A  
HETATM    4  C   UNL     1     -11.513  14.758  64.654  1.00  0.00    -0.381 C  
HETATM    5  N   UNL     1     -12.376  12.700  66.500  1.00  0.00    -0.428 NA 
HETATM    6  N   UNL     1     -12.010  12.208  67.704  1.00  0.00    -0.543 NA 
HETATM    7  C   UNL     1     -10.826  11.644  67.590  1.00  0.00    -0.225 A  
HETATM    8  N   UNL     1     -10.415  11.712  66.270  1.00  0.00    -0.238 NA 
HETATM    9  C   UNL     1     -10.134  11.054  68.753  1.00  0.00    -0.214 C  
ENDROOT
BRANCH   8  10
HETATM   10  C   UNL     1      -9.201  11.192  65.604  1.00  0.00    -0.218 C  
HETATM   11  C   UNL     1      -7.919  11.070  66.462  1.00  0.00    -0.158 C  
HETATM   12  C   UNL     1      -7.148   9.736  66.429  1.00  0.00    -0.094 C  
HETATM   13  C   UNL     1      -6.210   9.793  65.225  1.00  0.00    -0.086 C  
HETATM   14  C   UNL     1      -7.116   9.371  64.080  1.00  0.00    -0.102 C  
HETATM   15  C   UNL     1      -8.405   8.836  64.771  1.00  0.00    -0.168 C  
HETATM   16  C   UNL     1      -9.493   9.921  64.751  1.00  0.00    -0.356 C  
HETATM   17  N   UNL     1      -7.949   8.524  66.134  1.00  0.00    -0.100 NA 
BRANCH  17  18
HETATM   18  C   UNL     1      -8.935   8.116  67.197  1.00  0.00    -0.139 C  
BRANCH  18  19
HETATM   19  C   UNL     1     -10.173   7.180  66.825  1.00  0.00    -0.289 C  
HETATM   20  C   UNL     1     -10.264   5.621  67.269  1.00  0.00    -0.206 C  
BRANCH  20  21
HETATM   21  C   UNL     1      -9.843   4.339  66.486  1.00  0.00    -0.238 A  
HETATM   22  C   UNL     1      -8.874   1.962  65.181  1.00  0.00    -0.119 A  
HETATM   23  C   UNL     1      -9.211   3.265  67.192  1.00  0.00    -0.214 A  
HETATM   24  C   UNL     1      -9.476   3.004  64.462  1.00  0.00    -0.147 A  
HETATM   25  C   UNL     1      -9.947   4.174  65.101  1.00  0.00    -0.218 A  
HETATM   26  C   UNL     1      -8.738   2.097  66.558  1.00  0.00    -0.125 A  
ENDBRANCH  20  21
BRANCH  20  27
HETATM   27  N   UNL     1      -9.885   5.472  68.667  1.00  0.00    -0.138 N  
HETATM   28  H   UNL     1      -8.971   5.093  68.914  1.00  0.00     0.000 HD 
HETATM   29  C   UNL     1     -10.765   5.845  69.648  1.00  0.00    -0.345 C  
HETATM   30  O   UNL     1     -11.897   6.244  69.381  1.00  0.00    -0.174 OA 
BRANCH  29  31
HETATM   31  C   UNL     1     -10.315   5.624  71.085  1.00  0.00    -0.295 C  
HETATM   32  C   UNL     1      -9.011   7.753  71.389  1.00  0.00    -0.151 C  
HETATM   33  C   UNL     1      -8.959   6.231  71.461  1.00  0.00    -0.142 C  
HETATM   34  C   UNL     1     -10.134   8.334  72.232  1.00  0.00    -0.300 C  
HETATM   35  F   UNL     1     -10.214   9.669  72.025  1.00  0.00    -0.121 F  
HETATM   36  F   UNL     1      -9.835   8.162  73.547  1.00  0.00    -0.352 F  
HETATM   37  C   UNL     1     -11.481   7.710  71.961  1.00  0.00    -0.327 C  
HETATM   38  C   UNL     1     -11.392   6.186  72.020  1.00  0.00    -0.348 C  
ENDBRANCH  29  31
ENDBRANCH  20  27
ENDBRANCH  18  19
ENDBRANCH  17  18
ENDBRANCH   8  10
TORSDOF 6
ENDMDL
MODEL       36
REMARK 921   NORMALIZED FREE ENERGY PREDICTED BY IDOCK:   -6.67 KCAL/MOL
REMARK 922        TOTAL FREE ENERGY PREDICTED BY IDOCK:  -10.55 KCAL/MOL
REMARK 923 INTER-LIGAND FREE ENERGY PREDICTED BY IDOCK:   -9.22 KCAL/MOL
REMARK 924 INTRA-LIGAND FREE ENERGY PREDICTED BY IDOCK:   -1.33 KCAL/MOL
REMARK 927      BINDING AFFINITY PREDICTED BY RF-SCORE:    0.00 PKD
ROOT
HETATM    1  C   UNL     1      -5.829  10.857  70.044  1.00  0.00    -0.089 C  
HETATM    2  C   UNL     1      -7.160  10.788  69.276  1.00  0.00    -0.116 C  
HETATM    3  C   UNL     1      -7.032   9.929  68.055  1.00  0.00    -0.077 A  
HETATM    4  C   UNL     1      -7.592  12.191  68.828  1.00  0.00    -0.056 C  
HETATM    5  N   UNL     1      -6.391  10.318  66.973  1.00  0.00    -0.070 NA 
HETATM    6  N   UNL     1      -6.779   9.520  65.954  1.00  0.00    -0.080 NA 
HETATM    7  C   UNL     1      -7.571   8.582  66.427  1.00  0.00    -0.091 A  
HETATM    8  N   UNL     1      -7.673   8.721  67.800  1.00  0.00    -0.101 NA 
HETATM    9  C   UNL     1      -8.199   7.579  65.543  1.00  0.00    -0.135 C  
ENDROOT
BRANCH   8  10
HETATM   10  C   UNL     1      -8.389   7.910  68.808  1.00  0.00    -0.128 C  
HETATM   11  C   UNL     1      -8.185   8.284  70.295  1.00  0.00    -0.121 C  
HETATM   12  C   UNL     1      -9.436   8.452  71.179  1.00  0.00    -0.179 C  
HETATM   13  C   UNL     1      -9.810   7.062  71.690  1.00  0.00    -0.169 C  
HETATM   14  C   UNL     1     -10.623   6.494  70.538  1.00  0.00    -0.282 C  
HETATM   15  C   UNL     1     -10.881   7.709  69.599  1.00  0.00    -0.191 C  
HETATM   16  C   UNL     1      -9.884   7.683  68.430  1.00  0.00    -0.176 C  
HETATM   17  N   UNL     1     -10.678   8.865  70.484  1.00  0.00    -0.220 NA 
BRANCH  17  18
HETATM   18  C   UNL     1     -10.683  10.266  69.929  1.00  0.00    -0.294 C  
BRANCH  18  19
HETATM   19  C   UNL     1     -12.058  11.060  69.769  1.00  0.00    -0.424 C  
HETATM   20  C   UNL     1     -12.128  12.669  69.566  1.00  0.00    -0.192 C  
BRANCH  20  21
HETATM   21  C   UNL     1     -12.304  13.798  70.629  1.00  0.00    -0.445 A  
HETATM   22  C   UNL     1     -12.852  15.802  72.622  1.00  0.00    -0.554 A  
HETATM   23  C   UNL     1     -13.086  13.538  71.800  1.00  0.00    -0.475 A  
HETATM   24  C   UNL     1     -12.095  16.088  71.478  1.00  0.00    -0.513 A  
HETATM   25  C   UNL     1     -11.830  15.107  70.496  1.00  0.00    -0.361 A  
HETATM   26  C   UNL     1     -13.353  14.516  72.782  1.00  0.00    -0.600 A  
ENDBRANCH  20  21
BRANCH  20  27
HETATM   27  N   UNL     1     -11.148  13.095  68.577  1.00  0.00    -0.252 N  
HETATM   28  H   UNL     1     -10.176  13.242  68.846  1.00  0.00     0.000 HD 
HETATM   29  C   UNL     1     -11.543  13.298  67.281  1.00  0.00    -0.359 C  
HETATM   30  O   UNL     1     -12.721  13.192  66.942  1.00  0.00    -0.055 OA 
BRANCH  29  31
HETATM   31  C   UNL     1     -10.474  13.780  66.310  1.00  0.00    -0.291 C  
HETATM   32  C   UNL     1      -9.818  11.548  65.355  1.00  0.00    -0.271 C  
HETATM   33  C   UNL     1      -9.318  12.806  66.055  1.00  0.00    -0.056 C  
HETATM   34  C   UNL     1     -10.577  11.860  64.076  1.00  0.00    -0.374 C  
HETATM   35  F   UNL     1     -11.108  10.721  63.573  1.00  0.00    -0.246 F  
HETATM   36  F   UNL     1      -9.704  12.326  63.144  1.00  0.00    -0.362 F  
HETATM   37  C   UNL     1     -11.676  12.880  64.256  1.00  0.00    -0.445 C  
HETATM   38  C   UNL     1     -11.148  14.119  64.977  1.00  0.00    -0.372 C  
ENDBRANCH  29  31
ENDBRANCH  20  27
ENDBRANCH  18  19
ENDBRANCH  17  18
ENDBRANCH   8  10
TORSDOF 6
ENDMDL
MODEL       37
REMARK 921   NORMALIZED FREE ENERGY PREDICTED BY IDOCK:   -6.66 KCAL/MOL
REMARK 922        TOTAL FREE ENERGY PREDICTED BY IDOCK:  -10.54 KCAL/MOL
REMARK 923 INTER-LIGAND FREE ENERGY PREDICTED BY IDOCK:   -8.56 KCAL/MOL
REMARK 924 INTRA-LIGAND FREE ENERGY PREDICTED BY IDOCK:   -1.98 KCAL/MOL
REMARK 927      BINDING AFFINITY PREDICTED BY RF-SCORE:    0.00 PKD
ROOT
HETATM    1  C   UNL     1      -8.661  18.300  66.907  1.00  0.00    -0.273 C  
HETATM    2  C   UNL     1     -10.140  17.901  67.059  1.00  0.00    -0.340 C  
HETATM    3  C   UNL     1     -10.582  17.037  65.917  1.00  0.00    -0.216 A  
HETATM    4  C   UNL     1     -11.031  19.151  67.083  1.00  0.00    -0.389 C  
HETATM    5  N   UNL     1     -10.800  17.510  64.708  1.00  0.00    -0.632 NA 
HETATM    6  N   UNL     1     -11.539  16.600  64.036  1.00  0.00    -1.119 NA 
HETATM    7  C   UNL     1     -11.685  15.531  64.790  1.00  0.00    -0.187 A  
HETATM    8  N   UNL     1     -10.984  15.707  65.970  1.00  0.00    -0.264 NA 
HETATM    9  C   UNL     1     -12.490  14.375  64.347  1.00  0.00    -0.339 C  
ENDROOT
BRANCH   8  10
HETATM   10  C   UNL     1     -10.781  14.803  67.123  1.00  0.00    -0.299 C  
HETATM   11  C   UNL     1     -11.953  13.868  67.506  1.00  0.00    -0.421 C  
HETATM   12  C   UNL     1     -11.650  12.371  67.710  1.00  0.00    -0.352 C  
HETATM   13  C   UNL     1     -11.185  12.205  69.155  1.00  0.00    -0.303 C  
HETATM   14  C   UNL     1      -9.709  12.556  69.069  1.00  0.00     0.313 C  
HETATM   15  C   UNL     1      -9.403  12.612  67.543  1.00  0.00    -0.188 C  
HETATM   16  C   UNL     1      -9.406  14.073  67.067  1.00  0.00    -0.256 C  
HETATM   17  N   UNL     1     -10.497  11.827  66.954  1.00  0.00    -0.216 NA 
BRANCH  17  18
HETATM   18  C   UNL     1     -10.670  11.755  65.459  1.00  0.00    -0.279 C  
BRANCH  18  19
HETATM   19  C   UNL     1     -10.277  10.425  64.670  1.00  0.00    -0.305 C  
HETATM   20  C   UNL     1      -9.509   9.178  65.370  1.00  0.00    -0.160 C  
BRANCH  20  21
HETATM   21  C   UNL     1      -7.982   8.862  65.436  1.00  0.00    -0.110 A  
HETATM   22  C   UNL     1      -5.217   8.061  65.476  1.00  0.00    -0.028 A  
HETATM   23  C   UNL     1      -7.397   8.032  64.426  1.00  0.00    -0.090 A  
HETATM   24  C   UNL     1      -5.766   8.863  66.485  1.00  0.00    -0.047 A  
HETATM   25  C   UNL     1      -7.125   9.252  66.470  1.00  0.00    -0.085 A  
HETATM   26  C   UNL     1      -6.041   7.641  64.439  1.00  0.00    -0.044 A  
ENDBRANCH  20  21
BRANCH  20  27
HETATM   27  N   UNL     1     -10.114   8.874  66.659  1.00  0.00    -0.279 N  
HETATM   28  H   UNL     1     -10.305   9.620  67.327  1.00  0.00     0.000 HD 
HETATM   29  C   UNL     1     -10.425   7.576  66.968  1.00  0.00    -0.338 C  
HETATM   30  O   UNL     1     -10.147   6.649  66.210  1.00  0.00    -0.041 OA 
BRANCH  29  31
HETATM   31  C   UNL     1     -11.019   7.328  68.347  1.00  0.00    -0.028 C  
HETATM   32  C   UNL     1      -9.256   5.765  69.227  1.00  0.00    -0.135 C  
HETATM   33  C   UNL     1     -10.744   5.947  68.953  1.00  0.00    -0.370 C  
HETATM   34  C   UNL     1      -8.686   6.877  70.092  1.00  0.00    -0.141 C  
HETATM   35  F   UNL     1      -7.344   6.735  70.189  1.00  0.00    -0.075 F  
HETATM   36  F   UNL     1      -9.182   6.755  71.352  1.00  0.00    -0.151 F  
HETATM   37  C   UNL     1      -9.002   8.263  69.584  1.00  0.00    -0.149 C  
HETATM   38  C   UNL     1     -10.495   8.407  69.301  1.00  0.00    -0.223 C  
ENDBRANCH  29  31
ENDBRANCH  20  27
ENDBRANCH  18  19
ENDBRANCH  17  18
ENDBRANCH   8  10
TORSDOF 6
ENDMDL
MODEL       38
REMARK 921   NORMALIZED FREE ENERGY PREDICTED BY IDOCK:   -6.63 KCAL/MOL
REMARK 922        TOTAL FREE ENERGY PREDICTED BY IDOCK:  -10.49 KCAL/MOL
REMARK 923 INTER-LIGAND FREE ENERGY PREDICTED BY IDOCK:   -9.11 KCAL/MOL
REMARK 924 INTRA-LIGAND FREE ENERGY PREDICTED BY IDOCK:   -1.38 KCAL/MOL
REMARK 927      BINDING AFFINITY PREDICTED BY RF-SCORE:    0.00 PKD
ROOT
HETATM    1  C   UNL     1     -10.153  14.143  68.603  1.00  0.00    -0.229 C  
HETATM    2  C   UNL     1     -10.832  12.881  68.043  1.00  0.00    -0.261 C  
HETATM    3  C   UNL     1     -11.458  13.155  66.709  1.00  0.00    -0.343 A  
HETATM    4  C   UNL     1     -11.936  12.401  68.997  1.00  0.00    -0.291 C  
HETATM    5  N   UNL     1     -12.565  13.853  66.571  1.00  0.00    -0.315 NA 
HETATM    6  N   UNL     1     -13.065  13.594  65.343  1.00  0.00    -0.678 NA 
HETATM    7  C   UNL     1     -12.217  12.826  64.692  1.00  0.00    -0.447 A  
HETATM    8  N   UNL     1     -11.101  12.610  65.481  1.00  0.00    -0.286 NA 
HETATM    9  C   UNL     1     -12.507  12.330  63.331  1.00  0.00    -0.592 C  
ENDROOT
BRANCH   8  10
HETATM   10  C   UNL     1      -9.850  11.869  65.211  1.00  0.00    -0.230 C  
HETATM   11  C   UNL     1      -8.763  11.886  66.312  1.00  0.00    -0.070 C  
HETATM   12  C   UNL     1      -8.147  10.542  66.745  1.00  0.00    -0.123 C  
HETATM   13  C   UNL     1      -7.007  10.242  65.773  1.00  0.00    -0.128 C  
HETATM   14  C   UNL     1      -7.733   9.604  64.600  1.00  0.00    -0.130 C  
HETATM   15  C   UNL     1      -9.175   9.337  65.123  1.00  0.00    -0.200 C  
HETATM   16  C   UNL     1     -10.118  10.447  64.634  1.00  0.00    -0.378 C  
HETATM   17  N   UNL     1      -9.007   9.346  66.584  1.00  0.00    -0.143 NA 
BRANCH  17  18
HETATM   18  C   UNL     1     -10.206   9.274  67.493  1.00  0.00    -0.242 C  
BRANCH  18  19
HETATM   19  C   UNL     1     -10.016   9.328  69.077  1.00  0.00    -0.187 C  
HETATM   20  C   UNL     1     -10.617   8.198  70.075  1.00  0.00    -0.239 C  
BRANCH  20  21
HETATM   21  C   UNL     1     -11.971   8.175  70.851  1.00  0.00    -0.195 A  
HETATM   22  C   UNL     1     -14.369   8.276  72.442  1.00  0.00    -0.345 A  
HETATM   23  C   UNL     1     -12.414   9.363  71.517  1.00  0.00    -0.450 A  
HETATM   24  C   UNL     1     -13.951   7.096  71.812  1.00  0.00    -0.406 A  
HETATM   25  C   UNL     1     -12.772   7.044  71.035  1.00  0.00    -0.300 A  
HETATM   26  C   UNL     1     -13.590   9.418  72.294  1.00  0.00    -0.532 A  
ENDBRANCH  20  21
BRANCH  20  27
HETATM   27  N   UNL     1     -10.346   6.867  69.552  1.00  0.00    -0.199 N  
HETATM   28  H   UNL     1     -11.106   6.294  69.187  1.00  0.00     0.000 HD 
HETATM   29  C   UNL     1      -9.062   6.390  69.553  1.00  0.00    -0.138 C  
HETATM   30  O   UNL     1      -8.136   7.033  70.047  1.00  0.00    -0.123 OA 
BRANCH  29  31
HETATM   31  C   UNL     1      -8.859   4.977  69.026  1.00  0.00    -0.112 C  
HETATM   32  C   UNL     1      -9.709   5.335  66.687  1.00  0.00    -0.177 C  
HETATM   33  C   UNL     1      -9.859   4.512  67.961  1.00  0.00    -0.154 C  
HETATM   34  C   UNL     1      -8.285   5.327  66.156  1.00  0.00    -0.110 C  
HETATM   35  F   UNL     1      -8.185   6.177  65.107  1.00  0.00    -0.119 F  
HETATM   36  F   UNL     1      -7.997   4.087  65.680  1.00  0.00    -0.090 F  
HETATM   37  C   UNL     1      -7.250   5.696  67.191  1.00  0.00    -0.075 C  
HETATM   38  C   UNL     1      -7.438   4.869  68.462  1.00  0.00    -0.070 C  
ENDBRANCH  29  31
ENDBRANCH  20  27
ENDBRANCH  18  19
ENDBRANCH  17  18
ENDBRANCH   8  10
TORSDOF 6
ENDMDL
MODEL       39
REMARK 921   NORMALIZED FREE ENERGY PREDICTED BY IDOCK:   -6.60 KCAL/MOL
REMARK 922        TOTAL FREE ENERGY PREDICTED BY IDOCK:  -10.45 KCAL/MOL
REMARK 923 INTER-LIGAND FREE ENERGY PREDICTED BY IDOCK:   -9.31 KCAL/MOL
REMARK 924 INTRA-LIGAND FREE ENERGY PREDICTED BY IDOCK:   -1.14 KCAL/MOL
REMARK 927      BINDING AFFINITY PREDICTED BY RF-SCORE:    0.00 PKD
ROOT
HETATM    1  C   UNL     1      -9.564   1.917  71.123  1.00  0.00    -0.207 C  
HETATM    2  C   UNL     1      -8.773   3.103  70.542  1.00  0.00    -0.128 C  
HETATM    3  C   UNL     1      -9.486   3.697  69.365  1.00  0.00    -0.179 A  
HETATM    4  C   UNL     1      -7.385   2.642  70.075  1.00  0.00    -0.043 C  
HETATM    5  N   UNL     1      -9.532   3.108  68.188  1.00  0.00    -0.188 NA 
HETATM    6  N   UNL     1      -9.887   4.039  67.275  1.00  0.00    -0.153 NA 
HETATM    7  C   UNL     1     -10.159   5.165  67.900  1.00  0.00    -0.137 A  
HETATM    8  N   UNL     1     -10.036   4.970  69.265  1.00  0.00    -0.200 NA 
HETATM    9  C   UNL     1     -10.533   6.389  67.164  1.00  0.00    -0.342 C  
ENDROOT
BRANCH   8  10
HETATM   10  C   UNL     1     -10.273   5.885  70.402  1.00  0.00    -0.213 C  
HETATM   11  C   UNL     1      -9.108   6.812  70.822  1.00  0.00    -0.151 C  
HETATM   12  C   UNL     1      -9.403   8.313  71.002  1.00  0.00    -0.162 C  
HETATM   13  C   UNL     1      -9.922   8.496  72.427  1.00  0.00    -0.365 C  
HETATM   14  C   UNL     1     -11.398   8.158  72.287  1.00  0.00    -0.429 C  
HETATM   15  C   UNL     1     -11.645   8.092  70.751  1.00  0.00    -0.238 C  
HETATM   16  C   UNL     1     -11.639   6.628  70.287  1.00  0.00    -0.454 C  
HETATM   17  N   UNL     1     -10.521   8.862  70.198  1.00  0.00    -0.207 NA 
BRANCH  17  18
HETATM   18  C   UNL     1     -10.291   8.920  68.711  1.00  0.00    -0.211 C  
BRANCH  18  19
HETATM   19  C   UNL     1      -8.926   9.511  68.133  1.00  0.00    -0.123 C  
HETATM   20  C   UNL     1      -8.869  10.508  66.853  1.00  0.00    -0.137 C  
BRANCH  20  21
HETATM   21  C   UNL     1      -8.654  10.176  65.344  1.00  0.00    -0.165 A  
HETATM   22  C   UNL     1      -8.048   9.673  62.574  1.00  0.00    -0.139 A  
HETATM   23  C   UNL     1      -7.340   9.841  64.883  1.00  0.00    -0.129 A  
HETATM   24  C   UNL     1      -9.340  10.012  62.996  1.00  0.00    -0.297 A  
HETATM   25  C   UNL     1      -9.638  10.265  64.354  1.00  0.00    -0.378 A  
HETATM   26  C   UNL     1      -7.039   9.590  63.527  1.00  0.00    -0.102 A  
ENDBRANCH  20  21
BRANCH  20  27
HETATM   27  N   UNL     1      -9.887  11.541  66.973  1.00  0.00    -0.190 N  
HETATM   28  H   UNL     1     -10.875  11.289  66.997  1.00  0.00     0.000 HD 
HETATM   29  C   UNL     1      -9.509  12.855  67.055  1.00  0.00    -0.235 C  
HETATM   30  O   UNL     1      -8.330  13.193  66.964  1.00  0.00    -0.166 OA 
BRANCH  29  31
HETATM   31  C   UNL     1     -10.629  13.883  67.140  1.00  0.00    -0.277 C  
HETATM   32  C   UNL     1     -10.669  14.578  64.723  1.00  0.00    -0.414 C  
HETATM   33  C   UNL     1     -10.530  15.059  66.163  1.00  0.00    -0.313 C  
HETATM   34  C   UNL     1     -11.939  13.774  64.501  1.00  0.00    -0.427 C  
HETATM   35  F   UNL     1     -11.941  13.263  63.248  1.00  0.00    -0.550 F  
HETATM   36  F   UNL     1     -13.010  14.607  64.583  1.00  0.00    -0.323 F  
HETATM   37  C   UNL     1     -12.128  12.652  65.493  1.00  0.00    -0.515 C  
HETATM   38  C   UNL     1     -11.964  13.162  66.923  1.00  0.00    -0.421 C  
ENDBRANCH  29  31
ENDBRANCH  20  27
ENDBRANCH  18  19
ENDBRANCH  17  18
ENDBRANCH   8  10
TORSDOF 6
ENDMDL
MODEL       40
REMARK 921   NORMALIZED FREE ENERGY PREDICTED BY IDOCK:   -6.58 KCAL/MOL
REMARK 922        TOTAL FREE ENERGY PREDICTED BY IDOCK:  -10.42 KCAL/MOL
REMARK 923 INTER-LIGAND FREE ENERGY PREDICTED BY IDOCK:   -8.71 KCAL/MOL
REMARK 924 INTRA-LIGAND FREE ENERGY PREDICTED BY IDOCK:   -1.71 KCAL/MOL
REMARK 927      BINDING AFFINITY PREDICTED BY RF-SCORE:    0.00 PKD
ROOT
HETATM    1  C   UNL     1      -8.814   2.590  72.926  1.00  0.00    -0.079 C  
HETATM    2  C   UNL     1     -10.203   3.219  72.722  1.00  0.00    -0.240 C  
HETATM    3  C   UNL     1     -10.175   4.688  73.020  1.00  0.00    -0.169 A  
HETATM    4  C   UNL     1     -11.229   2.564  73.657  1.00  0.00    -0.318 C  
HETATM    5  N   UNL     1     -10.102   5.166  74.244  1.00  0.00    -0.214 NA 
HETATM    6  N   UNL     1     -10.483   6.461  74.205  1.00  0.00    -0.300 NA 
HETATM    7  C   UNL     1     -10.688   6.806  72.951  1.00  0.00    -0.261 A  
HETATM    8  N   UNL     1     -10.385   5.734  72.129  1.00  0.00    -0.199 NA 
HETATM    9  C   UNL     1     -11.163   8.156  72.586  1.00  0.00    -0.447 C  
ENDROOT
BRANCH   8  10
HETATM   10  C   UNL     1     -10.397   5.608  70.656  1.00  0.00    -0.252 C  
HETATM   11  C   UNL     1     -11.343   6.547  69.870  1.00  0.00    -0.469 C  
HETATM   12  C   UNL     1     -10.761   7.331  68.679  1.00  0.00    -0.138 C  
HETATM   13  C   UNL     1     -10.837   6.412  67.462  1.00  0.00    -0.438 C  
HETATM   14  C   UNL     1      -9.578   5.572  67.604  1.00  0.00    -0.133 C  
HETATM   15  C   UNL     1      -8.756   6.276  68.723  1.00  0.00    -0.121 C  
HETATM   16  C   UNL     1      -8.960   5.542  70.057  1.00  0.00    -0.149 C  
HETATM   17  N   UNL     1      -9.312   7.637  68.740  1.00  0.00    -0.149 NA 
BRANCH  17  18
HETATM   18  C   UNL     1      -8.895   8.622  69.801  1.00  0.00    -0.137 C  
BRANCH  18  19
HETATM   19  C   UNL     1      -7.979   9.871  69.420  1.00  0.00    -0.135 C  
HETATM   20  C   UNL     1      -8.180  10.728  68.056  1.00  0.00    -0.115 C  
BRANCH  20  21
HETATM   21  C   UNL     1      -7.481  10.568  66.670  1.00  0.00    -0.120 A  
HETATM   22  C   UNL     1      -6.332  10.085  64.075  1.00  0.00    -0.132 A  
HETATM   23  C   UNL     1      -8.253  10.135  65.545  1.00  0.00    -0.156 A  
HETATM   24  C   UNL     1      -5.549  10.496  65.162  1.00  0.00    -0.142 A  
HETATM   25  C   UNL     1      -6.111  10.728  66.438  1.00  0.00    -0.118 A  
HETATM   26  C   UNL     1      -7.695   9.900  64.270  1.00  0.00    -0.139 A  
ENDBRANCH  20  21
BRANCH  20  27
HETATM   27  N   UNL     1      -9.591  11.020  67.848  1.00  0.00    -0.169 N  
HETATM   28  H   UNL     1     -10.217  10.299  67.491  1.00  0.00     0.000 HD 
HETATM   29  C   UNL     1     -10.070  12.271  68.134  1.00  0.00    -0.211 C  
HETATM   30  O   UNL     1      -9.326  13.178  68.503  1.00  0.00    -0.180 OA 
BRANCH  29  31
HETATM   31  C   UNL     1     -11.546  12.515  67.855  1.00  0.00    -0.403 C  
HETATM   32  C   UNL     1     -11.354  14.821  66.872  1.00  0.00    -0.358 C  
HETATM   33  C   UNL     1     -12.012  13.972  67.953  1.00  0.00    -0.387 C  
HETATM   34  C   UNL     1     -11.576  14.258  65.478  1.00  0.00    -0.338 C  
HETATM   35  F   UNL     1     -10.862  14.974  64.578  1.00  0.00    -0.376 F  
HETATM   36  F   UNL     1     -12.885  14.408  65.143  1.00  0.00    -0.457 F  
HETATM   37  C   UNL     1     -11.212  12.798  65.349  1.00  0.00    -0.327 C  
HETATM   38  C   UNL     1     -11.870  11.978  66.456  1.00  0.00    -0.237 C  
ENDBRANCH  29  31
ENDBRANCH  20  27
ENDBRANCH  18  19
ENDBRANCH  17  18
ENDBRANCH   8  10
TORSDOF 6
ENDMDL
MODEL       41
REMARK 921   NORMALIZED FREE ENERGY PREDICTED BY IDOCK:   -6.57 KCAL/MOL
REMARK 922        TOTAL FREE ENERGY PREDICTED BY IDOCK:  -10.41 KCAL/MOL
REMARK 923 INTER-LIGAND FREE ENERGY PREDICTED BY IDOCK:  -10.03 KCAL/MOL
REMARK 924 INTRA-LIGAND FREE ENERGY PREDICTED BY IDOCK:   -0.39 KCAL/MOL
REMARK 927      BINDING AFFINITY PREDICTED BY RF-SCORE:    0.00 PKD
ROOT
HETATM    1  C   UNL     1     -11.467   6.935  70.412  1.00  0.00    -0.387 C  
HETATM    2  C   UNL     1     -10.702   8.265  70.533  1.00  0.00    -0.238 C  
HETATM    3  C   UNL     1      -9.239   8.024  70.753  1.00  0.00    -0.157 A  
HETATM    4  C   UNL     1     -11.234   9.081  71.719  1.00  0.00    -0.448 C  
HETATM    5  N   UNL     1      -8.751   7.602  71.899  1.00  0.00    -0.110 NA 
HETATM    6  N   UNL     1      -7.424   7.857  71.901  1.00  0.00    -0.074 NA 
HETATM    7  C   UNL     1      -7.081   8.335  70.724  1.00  0.00    -0.044 A  
HETATM    8  N   UNL     1      -8.192   8.351  69.898  1.00  0.00    -0.119 NA 
HETATM    9  C   UNL     1      -5.696   8.756  70.432  1.00  0.00    -0.027 C  
ENDROOT
BRANCH   8  10
HETATM   10  C   UNL     1      -8.342   8.743  68.480  1.00  0.00    -0.129 C  
HETATM   11  C   UNL     1      -9.728   8.529  67.827  1.00  0.00    -0.199 C  
HETATM   12  C   UNL     1     -10.356   9.705  67.056  1.00  0.00    -0.248 C  
HETATM   13  C   UNL     1      -9.797   9.654  65.635  1.00  0.00    -0.369 C  
HETATM   14  C   UNL     1      -8.467  10.376  65.778  1.00  0.00    -0.170 C  
HETATM   15  C   UNL     1      -8.516  11.022  67.194  1.00  0.00    -0.137 C  
HETATM   16  C   UNL     1      -7.736  10.149  68.189  1.00  0.00    -0.088 C  
HETATM   17  N   UNL     1      -9.956  11.064  67.492  1.00  0.00    -0.172 NA 
BRANCH  17  18
HETATM   18  C   UNL     1     -10.443  11.485  68.854  1.00  0.00    -0.187 C  
BRANCH  18  19
HETATM   19  C   UNL     1     -11.880  12.160  69.018  1.00  0.00    -0.361 C  
HETATM   20  C   UNL     1     -12.080  13.731  69.372  1.00  0.00    -0.328 C  
BRANCH  20  21
HETATM   21  C   UNL     1     -12.273  14.420  70.759  1.00  0.00    -0.413 A  
HETATM   22  C   UNL     1     -12.858  15.630  73.306  1.00  0.00    -0.643 A  
HETATM   23  C   UNL     1     -13.185  13.847  71.703  1.00  0.00    -0.446 A  
HETATM   24  C   UNL     1     -11.971  16.221  72.395  1.00  0.00    -0.630 A  
HETATM   25  C   UNL     1     -11.687  15.631  71.143  1.00  0.00    -0.461 A  
HETATM   26  C   UNL     1     -13.471  14.434  72.953  1.00  0.00    -0.516 A  
ENDBRANCH  20  21
BRANCH  20  27
HETATM   27  N   UNL     1     -11.198  14.549  68.553  1.00  0.00    -0.253 N  
HETATM   28  H   UNL     1     -10.386  15.004  68.969  1.00  0.00     0.000 HD 
HETATM   29  C   UNL     1     -11.466  14.703  67.219  1.00  0.00    -0.372 C  
HETATM   30  O   UNL     1     -12.474  14.220  66.704  1.00  0.00    -0.407 OA 
BRANCH  29  31
HETATM   31  C   UNL     1     -10.523  15.603  66.433  1.00  0.00    -0.309 C  
HETATM   32  C   UNL     1      -9.592  16.924  68.360  1.00  0.00    -0.255 C  
HETATM   33  C   UNL     1     -10.301  17.004  67.013  1.00  0.00    -0.304 C  
HETATM   34  C   UNL     1      -8.293  16.140  68.284  1.00  0.00    -0.171 C  
HETATM   35  F   UNL     1      -7.779  15.988  69.527  1.00  0.00    -0.223 F  
HETATM   36  F   UNL     1      -7.383  16.857  67.572  1.00  0.00    -0.148 F  
HETATM   37  C   UNL     1      -8.441  14.781  67.641  1.00  0.00    -0.185 C  
HETATM   38  C   UNL     1      -9.171  14.893  66.305  1.00  0.00    -0.301 C  
ENDBRANCH  29  31
ENDBRANCH  20  27
ENDBRANCH  18  19
ENDBRANCH  17  18
ENDBRANCH   8  10
TORSDOF 6
ENDMDL
MODEL       42
REMARK 921   NORMALIZED FREE ENERGY PREDICTED BY IDOCK:   -6.54 KCAL/MOL
REMARK 922        TOTAL FREE ENERGY PREDICTED BY IDOCK:  -10.38 KCAL/MOL
REMARK 923 INTER-LIGAND FREE ENERGY PREDICTED BY IDOCK:   -8.90 KCAL/MOL
REMARK 924 INTRA-LIGAND FREE ENERGY PREDICTED BY IDOCK:   -1.48 KCAL/MOL
REMARK 927      BINDING AFFINITY PREDICTED BY RF-SCORE:    0.00 PKD
ROOT
HETATM    1  C   UNL     1     -10.108  15.310  65.396  1.00  0.00    -0.397 C  
HETATM    2  C   UNL     1      -9.807  14.513  66.677  1.00  0.00    -0.282 C  
HETATM    3  C   UNL     1     -10.479  13.173  66.645  1.00  0.00    -0.277 A  
HETATM    4  C   UNL     1     -10.317  15.271  67.910  1.00  0.00    -0.246 C  
HETATM    5  N   UNL     1     -11.775  13.021  66.815  1.00  0.00    -0.364 NA 
HETATM    6  N   UNL     1     -12.002  11.724  67.118  1.00  0.00    -0.595 NA 
HETATM    7  C   UNL     1     -10.867  11.063  67.031  1.00  0.00    -0.279 A  
HETATM    8  N   UNL     1      -9.870  11.924  66.609  1.00  0.00    -0.198 NA 
HETATM    9  C   UNL     1     -10.783   9.624  67.351  1.00  0.00    -0.308 C  
ENDROOT
BRANCH   8  10
HETATM   10  C   UNL     1      -8.442  11.683  66.308  1.00  0.00    -0.066 C  
HETATM   11  C   UNL     1      -7.414  12.050  67.405  1.00  0.00    -0.152 C  
HETATM   12  C   UNL     1      -6.356  10.998  67.789  1.00  0.00    -0.058 C  
HETATM   13  C   UNL     1      -5.199  11.150  66.803  1.00  0.00    -0.090 C  
HETATM   14  C   UNL     1      -5.671  10.333  65.612  1.00  0.00    -0.088 C  
HETATM   15  C   UNL     1      -6.917   9.557  66.132  1.00  0.00    -0.091 C  
HETATM   16  C   UNL     1      -8.200  10.275  65.685  1.00  0.00    -0.153 C  
HETATM   17  N   UNL     1      -6.739   9.580  67.591  1.00  0.00    -0.063 NA 
BRANCH  17  18
HETATM   18  C   UNL     1      -7.821   9.061  68.502  1.00  0.00    -0.102 C  
BRANCH  18  19
HETATM   19  C   UNL     1      -8.069   9.745  69.923  1.00  0.00    -0.192 C  
HETATM   20  C   UNL     1      -9.064   9.117  71.042  1.00  0.00    -0.237 C  
BRANCH  20  21
HETATM   21  C   UNL     1     -10.570   9.423  71.315  1.00  0.00    -0.400 A  
HETATM   22  C   UNL     1     -13.386   9.752  71.817  1.00  0.00    -0.506 A  
HETATM   23  C   UNL     1     -11.315   8.552  72.173  1.00  0.00    -0.442 A  
HETATM   24  C   UNL     1     -12.685  10.612  70.961  1.00  0.00    -0.512 A  
HETATM   25  C   UNL     1     -11.303  10.448  70.709  1.00  0.00    -0.370 A  
HETATM   26  C   UNL     1     -12.693   8.711  72.426  1.00  0.00    -0.423 A  
ENDBRANCH  20  21
BRANCH  20  27
HETATM   27  N   UNL     1      -8.837   7.685  71.172  1.00  0.00    -0.136 N  
HETATM   28  H   UNL     1      -9.209   7.040  70.475  1.00  0.00     0.000 HD 
HETATM   29  C   UNL     1      -8.120   7.210  72.238  1.00  0.00    -0.097 C  
HETATM   30  O   UNL     1      -7.715   7.958  73.126  1.00  0.00    -0.113 OA 
BRANCH  29  31
HETATM   31  C   UNL     1      -7.955   5.700  72.329  1.00  0.00    -0.107 C  
HETATM   32  C   UNL     1      -9.809   5.231  73.963  1.00  0.00    -0.185 C  
HETATM   33  C   UNL     1      -8.320   5.070  73.678  1.00  0.00    -0.106 C  
HETATM   34  C   UNL     1     -10.675   4.685  72.840  1.00  0.00    -0.225 C  
HETATM   35  F   UNL     1     -11.975   4.975  73.086  1.00  0.00    -0.389 F  
HETATM   36  F   UNL     1     -10.576   3.330  72.823  1.00  0.00    -0.222 F  
HETATM   37  C   UNL     1     -10.302   5.211  71.475  1.00  0.00    -0.278 C  
HETATM   38  C   UNL     1      -8.803   5.053  71.228  1.00  0.00    -0.152 C  
ENDBRANCH  29  31
ENDBRANCH  20  27
ENDBRANCH  18  19
ENDBRANCH  17  18
ENDBRANCH   8  10
TORSDOF 6
ENDMDL
MODEL       43
REMARK 921   NORMALIZED FREE ENERGY PREDICTED BY IDOCK:   -6.52 KCAL/MOL
REMARK 922        TOTAL FREE ENERGY PREDICTED BY IDOCK:  -10.34 KCAL/MOL
REMARK 923 INTER-LIGAND FREE ENERGY PREDICTED BY IDOCK:   -8.67 KCAL/MOL
REMARK 924 INTRA-LIGAND FREE ENERGY PREDICTED BY IDOCK:   -1.67 KCAL/MOL
REMARK 927      BINDING AFFINITY PREDICTED BY RF-SCORE:    0.00 PKD
ROOT
HETATM    1  C   UNL     1     -10.547   5.365  70.895  1.00  0.00    -0.283 C  
HETATM    2  C   UNL     1      -9.599   5.290  69.685  1.00  0.00    -0.225 C  
HETATM    3  C   UNL     1      -9.961   6.318  68.656  1.00  0.00    -0.145 A  
HETATM    4  C   UNL     1      -9.683   3.907  69.025  1.00  0.00    -0.129 C  
HETATM    5  N   UNL     1     -11.016   6.208  67.878  1.00  0.00    -0.328 NA 
HETATM    6  N   UNL     1     -10.851   7.052  66.836  1.00  0.00    -0.346 NA 
HETATM    7  C   UNL     1      -9.753   7.753  67.027  1.00  0.00    -0.197 A  
HETATM    8  N   UNL     1      -9.200   7.409  68.248  1.00  0.00    -0.138 NA 
HETATM    9  C   UNL     1      -9.277   8.734  66.031  1.00  0.00    -0.282 C  
ENDROOT
BRANCH   8  10
HETATM   10  C   UNL     1      -8.008   7.926  68.954  1.00  0.00    -0.123 C  
HETATM   11  C   UNL     1      -6.875   8.526  68.088  1.00  0.00    -0.069 C  
HETATM   12  C   UNL     1      -6.321   9.910  68.474  1.00  0.00    -0.050 C  
HETATM   13  C   UNL     1      -5.245   9.679  69.534  1.00  0.00    -0.035 C  
HETATM   14  C   UNL     1      -6.058   9.577  70.814  1.00  0.00    -0.073 C  
HETATM   15  C   UNL     1      -7.489  10.043  70.413  1.00  0.00    -0.050 C  
HETATM   16  C   UNL     1      -8.386   8.818  70.175  1.00  0.00    -0.131 C  
HETATM   17  N   UNL     1      -7.257  10.815  69.183  1.00  0.00    -0.096 NA 
BRANCH  17  18
HETATM   18  C   UNL     1      -8.417  11.326  68.369  1.00  0.00    -0.153 C  
BRANCH  18  19
HETATM   19  C   UNL     1      -8.157  12.062  66.977  1.00  0.00    -0.158 C  
HETATM   20  C   UNL     1      -9.052  13.314  66.461  1.00  0.00    -0.117 C  
BRANCH  20  21
HETATM   21  C   UNL     1     -10.308  13.322  65.535  1.00  0.00    -0.298 A  
HETATM   22  C   UNL     1     -12.507  13.192  63.681  1.00  0.00    -0.374 A  
HETATM   23  C   UNL     1     -10.674  12.122  64.844  1.00  0.00    -0.336 A  
HETATM   24  C   UNL     1     -12.162  14.384  64.333  1.00  0.00    -0.481 A  
HETATM   25  C   UNL     1     -11.079  14.450  65.239  1.00  0.00    -0.344 A  
HETATM   26  C   UNL     1     -11.754  12.053  63.938  1.00  0.00    -0.537 A  
ENDBRANCH  20  21
BRANCH  20  27
HETATM   27  N   UNL     1      -9.249  14.271  67.540  1.00  0.00    -0.191 N  
HETATM   28  H   UNL     1      -9.947  14.095  68.261  1.00  0.00     0.000 HD 
HETATM   29  C   UNL     1      -8.489  15.410  67.578  1.00  0.00    -0.173 C  
HETATM   30  O   UNL     1      -7.686  15.679  66.686  1.00  0.00    -0.193 OA 
BRANCH  29  31
HETATM   31  C   UNL     1      -8.777  16.383  68.712  1.00  0.00    -0.246 C  
HETATM   32  C   UNL     1      -8.710  18.518  67.386  1.00  0.00    -0.270 C  
HETATM   33  C   UNL     1      -8.134  17.768  68.581  1.00  0.00    -0.277 C  
HETATM   34  C   UNL     1     -10.226  18.609  67.434  1.00  0.00    -0.384 C  
HETATM   35  F   UNL     1     -10.685  19.164  66.288  1.00  0.00    -0.452 F  
HETATM   36  F   UNL     1     -10.587  19.445  68.442  1.00  0.00    -0.454 F  
HETATM   37  C   UNL     1     -10.907  17.278  67.647  1.00  0.00    -0.238 C  
HETATM   38  C   UNL     1     -10.296  16.544  68.838  1.00  0.00    -0.292 C  
ENDBRANCH  29  31
ENDBRANCH  20  27
ENDBRANCH  18  19
ENDBRANCH  17  18
ENDBRANCH   8  10
TORSDOF 6
ENDMDL
MODEL       44
REMARK 921   NORMALIZED FREE ENERGY PREDICTED BY IDOCK:   -6.50 KCAL/MOL
REMARK 922        TOTAL FREE ENERGY PREDICTED BY IDOCK:  -10.33 KCAL/MOL
REMARK 923 INTER-LIGAND FREE ENERGY PREDICTED BY IDOCK:   -8.29 KCAL/MOL
REMARK 924 INTRA-LIGAND FREE ENERGY PREDICTED BY IDOCK:   -2.04 KCAL/MOL
REMARK 927      BINDING AFFINITY PREDICTED BY RF-SCORE:    0.00 PKD
ROOT
HETATM    1  C   UNL     1      -9.188  19.554  66.387  1.00  0.00    -0.426 C  
HETATM    2  C   UNL     1      -9.301  19.120  67.859  1.00  0.00    -0.370 C  
HETATM    3  C   UNL     1     -10.047  17.826  67.981  1.00  0.00    -0.355 A  
HETATM    4  C   UNL     1     -10.054  20.182  68.673  1.00  0.00    -0.372 C  
HETATM    5  N   UNL     1     -11.350  17.736  67.820  1.00  0.00     0.277 NA 
HETATM    6  N   UNL     1     -11.753  16.567  68.363  1.00  0.00    -0.001 NA 
HETATM    7  C   UNL     1     -10.694  15.895  68.761  1.00  0.00    -0.265 A  
HETATM    8  N   UNL     1      -9.553  16.606  68.428  1.00  0.00    -0.226 NA 
HETATM    9  C   UNL     1     -10.814  14.591  69.443  1.00  0.00    -0.249 C  
ENDROOT
BRANCH   8  10
HETATM   10  C   UNL     1      -8.121  16.280  68.603  1.00  0.00    -0.213 C  
HETATM   11  C   UNL     1      -7.744  15.346  69.777  1.00  0.00    -0.078 C  
HETATM   12  C   UNL     1      -6.831  14.141  69.482  1.00  0.00    -0.084 C  
HETATM   13  C   UNL     1      -5.391  14.646  69.560  1.00  0.00    -0.091 C  
HETATM   14  C   UNL     1      -5.171  15.232  68.175  1.00  0.00    -0.125 C  
HETATM   15  C   UNL     1      -6.398  14.756  67.343  1.00  0.00     0.113 C  
HETATM   16  C   UNL     1      -7.438  15.885  67.259  1.00  0.00    -0.244 C  
HETATM   17  N   UNL     1      -6.888  13.597  68.105  1.00  0.00    -0.104 NA 
BRANCH  17  18
HETATM   18  C   UNL     1      -8.178  12.919  67.722  1.00  0.00    -0.174 C  
BRANCH  18  19
HETATM   19  C   UNL     1      -8.333  11.340  67.886  1.00  0.00    -0.131 C  
HETATM   20  C   UNL     1      -9.771  10.610  68.075  1.00  0.00    -0.157 C  
BRANCH  20  21
HETATM   21  C   UNL     1     -10.515  10.206  69.386  1.00  0.00    -0.254 A  
HETATM   22  C   UNL     1     -11.773   9.252  71.794  1.00  0.00    -0.456 A  
HETATM   23  C   UNL     1      -9.827   9.417  70.365  1.00  0.00    -0.313 A  
HETATM   24  C   UNL     1     -12.474  10.010  70.847  1.00  0.00    -0.431 A  
HETATM   25  C   UNL     1     -11.859  10.474  69.662  1.00  0.00    -0.306 A  
HETATM   26  C   UNL     1     -10.439   8.951  71.548  1.00  0.00    -0.393 A  
ENDBRANCH  20  21
BRANCH  20  27
HETATM   27  N   UNL     1     -10.736  11.144  67.125  1.00  0.00    -0.245 N  
HETATM   28  H   UNL     1     -11.594  11.584  67.456  1.00  0.00     0.000 HD 
HETATM   29  C   UNL     1     -10.483  11.051  65.782  1.00  0.00    -0.228 C  
HETATM   30  O   UNL     1      -9.489  10.468  65.353  1.00  0.00    -0.192 OA 
BRANCH  29  31
HETATM   31  C   UNL     1     -11.554  11.595  64.848  1.00  0.00    -0.155 C  
HETATM   32  C   UNL     1     -11.978  13.782  66.015  1.00  0.00    -0.443 C  
HETATM   33  C   UNL     1     -12.611  12.495  65.497  1.00  0.00    -0.045 C  
HETATM   34  C   UNL     1     -11.203  14.520  64.938  1.00  0.00    -0.391 C  
HETATM   35  F   UNL     1     -10.556  15.576  65.485  1.00  0.00    -0.303 F  
HETATM   36  F   UNL     1     -12.079  15.028  64.031  1.00  0.00    -0.447 F  
HETATM   37  C   UNL     1     -10.205  13.655  64.207  1.00  0.00     0.086 C  
HETATM   38  C   UNL     1     -10.864  12.367  63.718  1.00  0.00    -0.500 C  
ENDBRANCH  29  31
ENDBRANCH  20  27
ENDBRANCH  18  19
ENDBRANCH  17  18
ENDBRANCH   8  10
TORSDOF 6
ENDMDL
MODEL       45
REMARK 921   NORMALIZED FREE ENERGY PREDICTED BY IDOCK:   -6.50 KCAL/MOL
REMARK 922        TOTAL FREE ENERGY PREDICTED BY IDOCK:  -10.32 KCAL/MOL
REMARK 923 INTER-LIGAND FREE ENERGY PREDICTED BY IDOCK:   -8.16 KCAL/MOL
REMARK 924 INTRA-LIGAND FREE ENERGY PREDICTED BY IDOCK:   -2.16 KCAL/MOL
REMARK 927      BINDING AFFINITY PREDICTED BY RF-SCORE:    0.00 PKD
ROOT
HETATM    1  C   UNL     1     -10.428  16.132  66.783  1.00  0.00    -0.294 C  
HETATM    2  C   UNL     1     -10.373  14.963  67.782  1.00  0.00    -0.244 C  
HETATM    3  C   UNL     1     -10.664  13.660  67.101  1.00  0.00    -0.277 A  
HETATM    4  C   UNL     1     -11.412  15.160  68.895  1.00  0.00    -0.337 C  
HETATM    5  N   UNL     1     -11.872  13.313  66.712  1.00  0.00    -0.383 NA 
HETATM    6  N   UNL     1     -11.871  11.978  66.505  1.00  0.00    -0.605 NA 
HETATM    7  C   UNL     1     -10.646  11.524  66.663  1.00  0.00    -0.253 A  
HETATM    8  N   UNL     1      -9.798  12.585  66.929  1.00  0.00    -0.223 NA 
HETATM    9  C   UNL     1     -10.331  10.086  66.548  1.00  0.00    -0.268 C  
ENDROOT
BRANCH   8  10
HETATM   10  C   UNL     1      -8.335  12.630  67.136  1.00  0.00    -0.172 C  
HETATM   11  C   UNL     1      -7.824  12.639  68.596  1.00  0.00    -0.043 C  
HETATM   12  C   UNL     1      -6.722  11.636  68.986  1.00  0.00    -0.100 C  
HETATM   13  C   UNL     1      -5.385  12.283  68.627  1.00  0.00    -0.053 C  
HETATM   14  C   UNL     1      -5.247  11.957  67.149  1.00  0.00    -0.112 C  
HETATM   15  C   UNL     1      -6.369  10.915  66.866  1.00  0.00    -0.088 C  
HETATM   16  C   UNL     1      -7.578  11.616  66.226  1.00  0.00     0.172 C  
HETATM   17  N   UNL     1      -6.672  10.380  68.201  1.00  0.00    -0.060 NA 
BRANCH  17  18
HETATM   18  C   UNL     1      -7.828   9.435  68.403  1.00  0.00    -0.090 C  
BRANCH  18  19
HETATM   19  C   UNL     1      -8.311   9.062  69.878  1.00  0.00    -0.134 C  
HETATM   20  C   UNL     1      -9.836   8.626  70.223  1.00  0.00    -0.178 C  
BRANCH  20  21
HETATM   21  C   UNL     1     -11.034   9.500  70.709  1.00  0.00    -0.389 A  
HETATM   22  C   UNL     1     -13.104  11.302  71.578  1.00  0.00    -0.459 A  
HETATM   23  C   UNL     1     -11.243  10.788  70.119  1.00  0.00    -0.345 A  
HETATM   24  C   UNL     1     -12.913  10.052  72.183  1.00  0.00    -0.460 A  
HETATM   25  C   UNL     1     -11.893   9.169  71.761  1.00  0.00    -0.453 A  
HETATM   26  C   UNL     1     -12.259  11.672  70.539  1.00  0.00    -0.451 A  
ENDBRANCH  20  21
BRANCH  20  27
HETATM   27  N   UNL     1     -10.317   7.660  69.245  1.00  0.00    -0.214 N  
HETATM   28  H   UNL     1     -10.848   7.972  68.433  1.00  0.00     0.000 HD 
HETATM   29  C   UNL     1     -10.050   6.328  69.425  1.00  0.00    -0.176 C  
HETATM   30  O   UNL     1      -9.469   5.918  70.428  1.00  0.00    -0.158 OA 
BRANCH  29  31
HETATM   31  C   UNL     1     -10.617   5.373  68.384  1.00  0.00    -0.148 C  
HETATM   32  C   UNL     1      -9.595   6.418  66.337  1.00  0.00    -0.156 C  
HETATM   33  C   UNL     1     -10.894   5.979  67.004  1.00  0.00    -0.413 C  
HETATM   34  C   UNL     1      -8.576   5.294  66.258  1.00  0.00    -0.116 C  
HETATM   35  F   UNL     1      -7.404   5.775  65.782  1.00  0.00    -0.070 F  
HETATM   36  F   UNL     1      -9.008   4.367  65.363  1.00  0.00    -0.121 F  
HETATM   37  C   UNL     1      -8.329   4.605  67.579  1.00  0.00    -0.104 C  
HETATM   38  C   UNL     1      -9.648   4.196  68.230  1.00  0.00    -0.191 C  
ENDBRANCH  29  31
ENDBRANCH  20  27
ENDBRANCH  18  19
ENDBRANCH  17  18
ENDBRANCH   8  10
TORSDOF 6
ENDMDL
MODEL       46
REMARK 921   NORMALIZED FREE ENERGY PREDICTED BY IDOCK:   -6.40 KCAL/MOL
REMARK 922        TOTAL FREE ENERGY PREDICTED BY IDOCK:  -10.18 KCAL/MOL
REMARK 923 INTER-LIGAND FREE ENERGY PREDICTED BY IDOCK:   -8.48 KCAL/MOL
REMARK 924 INTRA-LIGAND FREE ENERGY PREDICTED BY IDOCK:   -1.71 KCAL/MOL
REMARK 927      BINDING AFFINITY PREDICTED BY RF-SCORE:    0.00 PKD
ROOT
HETATM    1  C   UNL     1     -11.203  15.464  64.340  1.00  0.00    -0.215 C  
HETATM    2  C   UNL     1     -10.335  15.146  65.570  1.00  0.00    -0.399 C  
HETATM    3  C   UNL     1     -10.991  14.115  66.438  1.00  0.00    -0.311 A  
HETATM    4  C   UNL     1     -10.120  16.410  66.413  1.00  0.00    -0.328 C  
HETATM    5  N   UNL     1     -12.031  14.382  67.200  1.00  0.00    -0.414 NA 
HETATM    6  N   UNL     1     -12.134  13.395  68.118  1.00  0.00    -0.302 NA 
HETATM    7  C   UNL     1     -11.228  12.476  67.857  1.00  0.00    -0.264 A  
HETATM    8  N   UNL     1     -10.541  12.828  66.708  1.00  0.00    -0.250 NA 
HETATM    9  C   UNL     1     -11.059  11.289  68.718  1.00  0.00    -0.288 C  
ENDROOT
BRANCH   8  10
HETATM   10  C   UNL     1      -9.471  12.128  65.965  1.00  0.00    -0.207 C  
HETATM   11  C   UNL     1      -8.415  11.360  66.795  1.00  0.00    -0.165 C  
HETATM   12  C   UNL     1      -8.100   9.905  66.401  1.00  0.00    -0.118 C  
HETATM   13  C   UNL     1      -7.040   9.961  65.303  1.00  0.00    -0.130 C  
HETATM   14  C   UNL     1      -7.873  10.185  64.051  1.00  0.00    -0.149 C  
HETATM   15  C   UNL     1      -9.344   9.951  64.507  1.00  0.00    -0.275 C  
HETATM   16  C   UNL     1     -10.029  11.303  64.766  1.00  0.00    -0.327 C  
HETATM   17  N   UNL     1      -9.191   9.156  65.734  1.00  0.00    -0.218 NA 
BRANCH  17  18
HETATM   18  C   UNL     1     -10.386   8.835  66.593  1.00  0.00    -0.228 C  
BRANCH  18  19
HETATM   19  C   UNL     1     -10.667   7.331  67.048  1.00  0.00    -0.406 C  
HETATM   20  C   UNL     1      -9.992   6.670  68.368  1.00  0.00    -0.145 C  
BRANCH  20  21
HETATM   21  C   UNL     1      -8.689   5.821  68.499  1.00  0.00    -0.111 A  
HETATM   22  C   UNL     1      -6.375   4.110  68.576  1.00  0.00    -0.036 A  
HETATM   23  C   UNL     1      -8.139   5.201  67.331  1.00  0.00    -0.100 A  
HETATM   24  C   UNL     1      -6.899   4.693  69.738  1.00  0.00    -0.044 A  
HETATM   25  C   UNL     1      -8.039   5.529  69.702  1.00  0.00    -0.101 A  
HETATM   26  C   UNL     1      -7.004   4.365  67.364  1.00  0.00    -0.063 A  
ENDBRANCH  20  21
BRANCH  20  27
HETATM   27  N   UNL     1     -10.076   7.591  69.493  1.00  0.00    -0.185 N  
HETATM   28  H   UNL     1      -9.359   8.303  69.628  1.00  0.00     0.000 HD 
HETATM   29  C   UNL     1     -11.125   7.493  70.368  1.00  0.00    -0.261 C  
HETATM   30  O   UNL     1     -11.968   6.603  70.266  1.00  0.00    -0.387 OA 
BRANCH  29  31
HETATM   31  C   UNL     1     -11.127   8.463  71.540  1.00  0.00    -0.329 C  
HETATM   32  C   UNL     1      -9.995   6.988  73.234  1.00  0.00    -0.264 C  
HETATM   33  C   UNL     1     -11.231   7.828  72.931  1.00  0.00    -0.434 C  
HETATM   34  C   UNL     1      -8.706   7.777  73.076  1.00  0.00    -0.185 C  
HETATM   35  F   UNL     1      -7.645   6.950  73.226  1.00  0.00    -0.085 F  
HETATM   36  F   UNL     1      -8.625   8.697  74.073  1.00  0.00    -0.252 F  
HETATM   37  C   UNL     1      -8.591   8.494  71.752  1.00  0.00    -0.254 C  
HETATM   38  C   UNL     1      -9.851   9.310  71.470  1.00  0.00    -0.245 C  
ENDBRANCH  29  31
ENDBRANCH  20  27
ENDBRANCH  18  19
ENDBRANCH  17  18
ENDBRANCH   8  10
TORSDOF 6
ENDMDL
MODEL       47
REMARK 921   NORMALIZED FREE ENERGY PREDICTED BY IDOCK:   -6.40 KCAL/MOL
REMARK 922        TOTAL FREE ENERGY PREDICTED BY IDOCK:  -10.18 KCAL/MOL
REMARK 923 INTER-LIGAND FREE ENERGY PREDICTED BY IDOCK:   -8.73 KCAL/MOL
REMARK 924 INTRA-LIGAND FREE ENERGY PREDICTED BY IDOCK:   -1.45 KCAL/MOL
REMARK 927      BINDING AFFINITY PREDICTED BY RF-SCORE:    0.00 PKD
ROOT
HETATM    1  C   UNL     1     -12.788  13.215  72.044  1.00  0.00    -0.304 C  
HETATM    2  C   UNL     1     -13.239  14.205  70.956  1.00  0.00    -0.337 C  
HETATM    3  C   UNL     1     -12.102  15.080  70.522  1.00  0.00    -0.326 A  
HETATM    4  C   UNL     1     -14.359  15.110  71.486  1.00  0.00    -0.660 C  
HETATM    5  N   UNL     1     -11.632  16.060  71.265  1.00  0.00    -0.437 NA 
HETATM    6  N   UNL     1     -10.911  16.875  70.464  1.00  0.00     0.146 NA 
HETATM    7  C   UNL     1     -10.850  16.344  69.261  1.00  0.00    -0.327 A  
HETATM    8  N   UNL     1     -11.498  15.121  69.270  1.00  0.00    -0.290 NA 
HETATM    9  C   UNL     1     -10.166  17.029  68.146  1.00  0.00    -0.322 C  
ENDROOT
BRANCH   8  10
HETATM   10  C   UNL     1     -11.675  14.109  68.206  1.00  0.00    -0.348 C  
HETATM   11  C   UNL     1     -10.877  14.310  66.896  1.00  0.00    -0.298 C  
HETATM   12  C   UNL     1     -10.072  13.117  66.347  1.00  0.00    -0.281 C  
HETATM   13  C   UNL     1     -11.036  12.279  65.507  1.00  0.00    -0.337 C  
HETATM   14  C   UNL     1     -11.721  11.416  66.554  1.00  0.00     0.234 C  
HETATM   15  C   UNL     1     -10.890  11.632  67.853  1.00  0.00    -0.210 C  
HETATM   16  C   UNL     1     -11.597  12.654  68.757  1.00  0.00    -0.355 C  
HETATM   17  N   UNL     1      -9.602  12.128  67.346  1.00  0.00    -0.176 NA 
BRANCH  17  18
HETATM   18  C   UNL     1      -8.540  12.615  68.298  1.00  0.00    -0.167 C  
BRANCH  18  19
HETATM   19  C   UNL     1      -7.714  11.571  69.178  1.00  0.00     0.030 C  
HETATM   20  C   UNL     1      -8.166  10.024  69.367  1.00  0.00    -0.155 C  
BRANCH  20  21
HETATM   21  C   UNL     1      -9.022   9.369  70.495  1.00  0.00    -0.303 A  
HETATM   22  C   UNL     1     -10.736   8.357  72.575  1.00  0.00    -0.372 A  
HETATM   23  C   UNL     1     -10.439   9.578  70.507  1.00  0.00    -0.358 A  
HETATM   24  C   UNL     1      -9.350   8.149  72.596  1.00  0.00    -0.342 A  
HETATM   25  C   UNL     1      -8.507   8.650  71.578  1.00  0.00    -0.238 A  
HETATM   26  C   UNL     1     -11.283   9.080  71.522  1.00  0.00    -0.418 A  
ENDBRANCH  20  21
BRANCH  20  27
HETATM   27  N   UNL     1      -8.550   9.451  68.084  1.00  0.00    -0.120 N  
HETATM   28  H   UNL     1      -9.415   9.743  67.630  1.00  0.00     0.000 HD 
HETATM   29  C   UNL     1      -7.741   8.518  67.492  1.00  0.00    -0.098 C  
HETATM   30  O   UNL     1      -6.726   8.100  68.048  1.00  0.00    -0.061 OA 
BRANCH  29  31
HETATM   31  C   UNL     1      -8.225   7.935  66.172  1.00  0.00    -0.117 C  
HETATM   32  C   UNL     1      -9.021   5.709  67.028  1.00  0.00    -0.114 C  
HETATM   33  C   UNL     1      -8.108   6.414  66.032  1.00  0.00    -0.120 C  
HETATM   34  C   UNL     1     -10.465   6.169  66.916  1.00  0.00    -0.276 C  
HETATM   35  F   UNL     1     -11.199   5.612  67.908  1.00  0.00    -0.254 F  
HETATM   36  F   UNL     1     -10.985   5.715  65.746  1.00  0.00    -0.063 F  
HETATM   37  C   UNL     1     -10.629   7.669  66.963  1.00  0.00    -0.406 C  
HETATM   38  C   UNL     1      -9.688   8.346  65.970  1.00  0.00    -0.146 C  
ENDBRANCH  29  31
ENDBRANCH  20  27
ENDBRANCH  18  19
ENDBRANCH  17  18
ENDBRANCH   8  10
TORSDOF 6
ENDMDL
MODEL       48
REMARK 921   NORMALIZED FREE ENERGY PREDICTED BY IDOCK:   -6.39 KCAL/MOL
REMARK 922        TOTAL FREE ENERGY PREDICTED BY IDOCK:  -10.17 KCAL/MOL
REMARK 923 INTER-LIGAND FREE ENERGY PREDICTED BY IDOCK:   -7.94 KCAL/MOL
REMARK 924 INTRA-LIGAND FREE ENERGY PREDICTED BY IDOCK:   -2.23 KCAL/MOL
REMARK 927      BINDING AFFINITY PREDICTED BY RF-SCORE:    0.00 PKD
ROOT
HETATM    1  C   UNL     1     -12.351  12.545  65.462  1.00  0.00    -0.364 C  
HETATM    2  C   UNL     1     -11.017  12.026  64.896  1.00  0.00    -0.356 C  
HETATM    3  C   UNL     1      -9.949  12.033  65.947  1.00  0.00    -0.236 A  
HETATM    4  C   UNL     1     -10.548  12.915  63.735  1.00  0.00    -0.284 C  
HETATM    5  N   UNL     1      -9.376  13.138  66.374  1.00  0.00    -0.221 NA 
HETATM    6  N   UNL     1      -8.229  12.793  66.999  1.00  0.00    -0.141 NA 
HETATM    7  C   UNL     1      -8.151  11.480  67.049  1.00  0.00    -0.161 A  
HETATM    8  N   UNL     1      -9.295  10.935  66.493  1.00  0.00    -0.170 NA 
HETATM    9  C   UNL     1      -6.980  10.795  67.634  1.00  0.00    -0.082 C  
ENDROOT
BRANCH   8  10
HETATM   10  C   UNL     1      -9.727   9.528  66.346  1.00  0.00    -0.232 C  
HETATM   11  C   UNL     1      -8.631   8.476  66.052  1.00  0.00    -0.162 C  
HETATM   12  C   UNL     1      -8.596   7.202  66.918  1.00  0.00    -0.124 C  
HETATM   13  C   UNL     1      -9.570   6.209  66.287  1.00  0.00    -0.123 C  
HETATM   14  C   UNL     1     -10.906   6.643  66.868  1.00  0.00    -0.415 C  
HETATM   15  C   UNL     1     -10.540   7.655  67.993  1.00  0.00    -0.151 C  
HETATM   16  C   UNL     1     -10.710   9.092  67.474  1.00  0.00    -0.239 C  
HETATM   17  N   UNL     1      -9.138   7.329  68.292  1.00  0.00    -0.135 NA 
BRANCH  17  18
HETATM   18  C   UNL     1      -8.336   8.188  69.235  1.00  0.00    -0.130 C  
BRANCH  18  19
HETATM   19  C   UNL     1      -8.873   8.476  70.710  1.00  0.00    -0.187 C  
HETATM   20  C   UNL     1     -10.059   7.610  71.401  1.00  0.00    -0.182 C  
BRANCH  20  21
HETATM   21  C   UNL     1     -11.594   7.885  71.446  1.00  0.00    -0.304 A  
HETATM   22  C   UNL     1     -14.381   8.568  71.683  1.00  0.00    -0.497 A  
HETATM   23  C   UNL     1     -12.058   9.235  71.562  1.00  0.00    -0.435 A  
HETATM   24  C   UNL     1     -13.955   7.237  71.585  1.00  0.00    -0.488 A  
HETATM   25  C   UNL     1     -12.586   6.900  71.474  1.00  0.00    -0.412 A  
HETATM   26  C   UNL     1     -13.423   9.575  71.674  1.00  0.00    -0.463 A  
ENDBRANCH  20  21
BRANCH  20  27
HETATM   27  N   UNL     1      -9.837   6.187  71.183  1.00  0.00    -0.179 N  
HETATM   28  H   UNL     1     -10.224   5.727  70.360  1.00  0.00     0.000 HD 
HETATM   29  C   UNL     1      -9.103   5.472  72.093  1.00  0.00    -0.143 C  
HETATM   30  O   UNL     1      -8.680   5.987  73.127  1.00  0.00    -0.122 OA 
BRANCH  29  31
HETATM   31  C   UNL     1      -8.945   3.983  71.820  1.00  0.00    -0.159 C  
HETATM   32  C   UNL     1      -8.926   4.073  69.307  1.00  0.00    -0.170 C  
HETATM   33  C   UNL     1      -9.598   3.468  70.534  1.00  0.00    -0.246 C  
HETATM   34  C   UNL     1      -7.423   3.846  69.300  1.00  0.00    -0.053 C  
HETATM   35  F   UNL     1      -6.867   4.517  68.264  1.00  0.00    -0.046 F  
HETATM   36  F   UNL     1      -7.176   2.527  69.085  1.00  0.00    -0.042 F  
HETATM   37  C   UNL     1      -6.740   4.260  70.581  1.00  0.00    -0.032 C  
HETATM   38  C   UNL     1      -7.448   3.653  71.790  1.00  0.00    -0.056 C  
ENDBRANCH  29  31
ENDBRANCH  20  27
ENDBRANCH  18  19
ENDBRANCH  17  18
ENDBRANCH   8  10
TORSDOF 6
ENDMDL
MODEL       49
REMARK 921   NORMALIZED FREE ENERGY PREDICTED BY IDOCK:   -6.39 KCAL/MOL
REMARK 922        TOTAL FREE ENERGY PREDICTED BY IDOCK:  -10.16 KCAL/MOL
REMARK 923 INTER-LIGAND FREE ENERGY PREDICTED BY IDOCK:   -9.76 KCAL/MOL
REMARK 924 INTRA-LIGAND FREE ENERGY PREDICTED BY IDOCK:   -0.40 KCAL/MOL
REMARK 927      BINDING AFFINITY PREDICTED BY RF-SCORE:    0.00 PKD
ROOT
HETATM    1  C   UNL     1     -12.288  14.457  65.567  1.00  0.00    -0.352 C  
HETATM    2  C   UNL     1     -11.027  14.537  66.445  1.00  0.00    -0.324 C  
HETATM    3  C   UNL     1     -10.504  15.940  66.506  1.00  0.00    -0.304 A  
HETATM    4  C   UNL     1      -9.919  13.641  65.874  1.00  0.00    -0.304 C  
HETATM    5  N   UNL     1      -9.878  16.512  65.500  1.00  0.00    -0.542 NA 
HETATM    6  N   UNL     1      -9.210  17.582  65.984  1.00  0.00    -0.515 NA 
HETATM    7  C   UNL     1      -9.506  17.728  67.258  1.00  0.00    -0.255 A  
HETATM    8  N   UNL     1     -10.435  16.768  67.621  1.00  0.00    -0.320 NA 
HETATM    9  C   UNL     1      -8.891  18.788  68.080  1.00  0.00    -0.334 C  
ENDROOT
BRANCH   8  10
HETATM   10  C   UNL     1     -11.127  16.524  68.905  1.00  0.00    -0.300 C  
HETATM   11  C   UNL     1     -12.503  15.820  68.847  1.00  0.00     0.404 C  
HETATM   12  C   UNL     1     -12.741  14.614  69.775  1.00  0.00    -0.015 C  
HETATM   13  C   UNL     1     -13.202  15.171  71.121  1.00  0.00    -0.535 C  
HETATM   14  C   UNL     1     -11.888  15.517  71.802  1.00  0.00    -0.504 C  
HETATM   15  C   UNL     1     -10.793  14.864  70.907  1.00  0.00     0.059 C  
HETATM   16  C   UNL     1     -10.175  15.926  69.985  1.00  0.00    -0.187 C  
HETATM   17  N   UNL     1     -11.539  13.838  70.162  1.00  0.00    -0.210 NA 
BRANCH  17  18
HETATM   18  C   UNL     1     -10.875  13.063  69.055  1.00  0.00    -0.155 C  
BRANCH  18  19
HETATM   19  C   UNL     1     -11.695  11.958  68.246  1.00  0.00    -0.385 C  
HETATM   20  C   UNL     1     -11.271  10.392  68.215  1.00  0.00    -0.267 C  
BRANCH  20  21
HETATM   21  C   UNL     1     -10.394   9.620  67.180  1.00  0.00    -0.319 A  
HETATM   22  C   UNL     1      -8.892   8.313  65.101  1.00  0.00    -0.024 A  
HETATM   23  C   UNL     1      -9.967  10.290  65.989  1.00  0.00    -0.308 A  
HETATM   24  C   UNL     1      -9.309   7.628  66.250  1.00  0.00    -0.189 A  
HETATM   25  C   UNL     1     -10.051   8.268  67.270  1.00  0.00    -0.315 A  
HETATM   26  C   UNL     1      -9.228   9.655  64.969  1.00  0.00    -0.310 A  
ENDBRANCH  20  21
BRANCH  20  27
HETATM   27  N   UNL     1     -10.941   9.933  69.556  1.00  0.00    -0.239 N  
HETATM   28  H   UNL     1      -9.978   9.700  69.797  1.00  0.00     0.000 HD 
HETATM   29  C   UNL     1     -11.933   9.815  70.493  1.00  0.00    -0.206 C  
HETATM   30  O   UNL     1     -13.112  10.026  70.212  1.00  0.00    -0.083 OA 
BRANCH  29  31
HETATM   31  C   UNL     1     -11.521   9.293  71.861  1.00  0.00    -0.382 C  
HETATM   32  C   UNL     1     -12.369   6.938  71.622  1.00  0.00    -0.413 C  
HETATM   33  C   UNL     1     -12.423   8.209  72.461  1.00  0.00    -0.249 C  
HETATM   34  C   UNL     1     -10.949   6.434  71.425  1.00  0.00    -0.267 C  
HETATM   35  F   UNL     1     -10.952   5.387  70.567  1.00  0.00    -0.328 F  
HETATM   36  F   UNL     1     -10.476   5.964  72.610  1.00  0.00    -0.201 F  
HETATM   37  C   UNL     1      -9.997   7.489  70.914  1.00  0.00    -0.181 C  
HETATM   38  C   UNL     1     -10.089   8.755  71.762  1.00  0.00    -0.403 C  
ENDBRANCH  29  31
ENDBRANCH  20  27
ENDBRANCH  18  19
ENDBRANCH  17  18
ENDBRANCH   8  10
TORSDOF 6
ENDMDL
MODEL       50
REMARK 921   NORMALIZED FREE ENERGY PREDICTED BY IDOCK:   -6.36 KCAL/MOL
REMARK 922        TOTAL FREE ENERGY PREDICTED BY IDOCK:  -10.13 KCAL/MOL
REMARK 923 INTER-LIGAND FREE ENERGY PREDICTED BY IDOCK:   -8.17 KCAL/MOL
REMARK 924 INTRA-LIGAND FREE ENERGY PREDICTED BY IDOCK:   -1.96 KCAL/MOL
REMARK 927      BINDING AFFINITY PREDICTED BY RF-SCORE:    0.00 PKD
ROOT
HETATM    1  C   UNL     1     -12.687  12.982  71.225  1.00  0.00    -0.385 C  
HETATM    2  C   UNL     1     -13.133  14.241  70.460  1.00  0.00    -0.168 C  
HETATM    3  C   UNL     1     -11.951  15.069  70.055  1.00  0.00    -0.332 A  
HETATM    4  C   UNL     1     -14.043  15.108  71.340  1.00  0.00    -0.598 C  
HETATM    5  N   UNL     1     -11.263  15.794  70.911  1.00  0.00    -0.358 NA 
HETATM    6  N   UNL     1     -10.544  16.695  70.205  1.00  0.00    -0.124 NA 
HETATM    7  C   UNL     1     -10.709  16.456  68.921  1.00  0.00    -0.319 A  
HETATM    8  N   UNL     1     -11.512  15.339  68.764  1.00  0.00    -0.312 NA 
HETATM    9  C   UNL     1     -10.085  17.308  67.888  1.00  0.00    -0.317 C  
ENDROOT
BRANCH   8  10
HETATM   10  C   UNL     1     -11.958  14.628  67.547  1.00  0.00    -0.278 C  
HETATM   11  C   UNL     1     -11.485  15.187  66.184  1.00  0.00    -0.157 C  
HETATM   12  C   UNL     1     -10.861  14.206  65.174  1.00  0.00    -0.372 C  
HETATM   13  C   UNL     1     -12.015  13.577  64.395  1.00  0.00    -0.466 C  
HETATM   14  C   UNL     1     -12.457  12.449  65.314  1.00  0.00    -0.256 C  
HETATM   15  C   UNL     1     -11.339  12.356  66.394  1.00  0.00    -0.342 C  
HETATM   16  C   UNL     1     -11.789  13.084  67.670  1.00  0.00    -0.401 C  
HETATM   17  N   UNL     1     -10.194  13.013  65.747  1.00  0.00    -0.287 NA 
BRANCH  17  18
HETATM   18  C   UNL     1      -8.927  13.277  66.518  1.00  0.00    -0.054 C  
BRANCH  18  19
HETATM   19  C   UNL     1      -7.805  12.148  66.629  1.00  0.00     0.088 C  
HETATM   20  C   UNL     1      -7.644  11.191  67.930  1.00  0.00    -0.099 C  
BRANCH  20  21
HETATM   21  C   UNL     1      -6.731  11.363  69.183  1.00  0.00    -0.106 A  
HETATM   22  C   UNL     1      -5.180  11.517  71.604  1.00  0.00     0.086 A  
HETATM   23  C   UNL     1      -6.411  10.215  69.978  1.00  0.00    -0.088 A  
HETATM   24  C   UNL     1      -5.490  12.659  70.854  1.00  0.00    -0.167 A  
HETATM   25  C   UNL     1      -6.256  12.586  69.668  1.00  0.00    -0.126 A  
HETATM   26  C   UNL     1      -5.648  10.286  71.162  1.00  0.00    -0.062 A  
ENDBRANCH  20  21
BRANCH  20  27
HETATM   27  N   UNL     1      -8.945  10.692  68.353  1.00  0.00    -0.142 N  
HETATM   28  H   UNL     1      -9.587  11.298  68.863  1.00  0.00     0.000 HD 
HETATM   29  C   UNL     1      -9.300   9.402  68.060  1.00  0.00    -0.129 C  
HETATM   30  O   UNL     1      -8.521   8.629  67.504  1.00  0.00    -0.122 OA 
BRANCH  29  31
HETATM   31  C   UNL     1     -10.658   8.938  68.567  1.00  0.00    -0.183 C  
HETATM   32  C   UNL     1      -9.863   7.475  70.452  1.00  0.00    -0.183 C  
HETATM   33  C   UNL     1     -10.697   7.533  69.178  1.00  0.00    -0.163 C  
HETATM   34  C   UNL     1     -10.274   8.534  71.461  1.00  0.00    -0.250 C  
HETATM   35  F   UNL     1      -9.416   8.521  72.509  1.00  0.00    -0.300 F  
HETATM   36  F   UNL     1     -11.499   8.219  71.959  1.00  0.00    -0.301 F  
HETATM   37  C   UNL     1     -10.333   9.929  70.888  1.00  0.00    -0.119 C  
HETATM   38  C   UNL     1     -11.159   9.949  69.604  1.00  0.00    -0.279 C  
ENDBRANCH  29  31
ENDBRANCH  20  27
ENDBRANCH  18  19
ENDBRANCH  17  18
ENDBRANCH   8  10
TORSDOF 6
ENDMDL
MODEL       51
REMARK 921   NORMALIZED FREE ENERGY PREDICTED BY IDOCK:   -6.35 KCAL/MOL
REMARK 922        TOTAL FREE ENERGY PREDICTED BY IDOCK:  -10.11 KCAL/MOL
REMARK 923 INTER-LIGAND FREE ENERGY PREDICTED BY IDOCK:   -8.87 KCAL/MOL
REMARK 924 INTRA-LIGAND FREE ENERGY PREDICTED BY IDOCK:   -1.24 KCAL/MOL
REMARK 927      BINDING AFFINITY PREDICTED BY RF-SCORE:    0.00 PKD
ROOT
HETATM    1  C   UNL     1     -11.131   9.849  67.639  1.00  0.00    -0.170 C  
HETATM    2  C   UNL     1     -10.452  10.361  68.921  1.00  0.00    -0.232 C  
HETATM    3  C   UNL     1     -10.791   9.489  70.092  1.00  0.00    -0.258 A  
HETATM    4  C   UNL     1     -10.919  11.788  69.239  1.00  0.00    -0.231 C  
HETATM    5  N   UNL     1     -11.972   9.503  70.673  1.00  0.00    -0.238 NA 
HETATM    6  N   UNL     1     -11.840   8.928  71.889  1.00  0.00    -0.349 NA 
HETATM    7  C   UNL     1     -10.612   8.470  72.012  1.00  0.00    -0.338 A  
HETATM    8  N   UNL     1      -9.923   8.695  70.833  1.00  0.00    -0.194 NA 
HETATM    9  C   UNL     1     -10.146   7.827  73.257  1.00  0.00    -0.374 C  
ENDROOT
BRANCH   8  10
HETATM   10  C   UNL     1      -8.545   8.337  70.431  1.00  0.00    -0.134 C  
HETATM   11  C   UNL     1      -8.320   7.929  68.956  1.00  0.00    -0.130 C  
HETATM   12  C   UNL     1      -7.172   8.606  68.183  1.00  0.00    -0.087 C  
HETATM   13  C   UNL     1      -5.903   7.811  68.485  1.00  0.00    -0.031 C  
HETATM   14  C   UNL     1      -5.448   8.407  69.807  1.00  0.00    -0.029 C  
HETATM   15  C   UNL     1      -6.332   9.675  69.996  1.00  0.00    -0.059 C  
HETATM   16  C   UNL     1      -7.493   9.361  70.953  1.00  0.00    -0.097 C  
HETATM   17  N   UNL     1      -6.793   9.967  68.631  1.00  0.00    -0.051 NA 
BRANCH  17  18
HETATM   18  C   UNL     1      -7.815  11.046  68.382  1.00  0.00    -0.127 C  
BRANCH  18  19
HETATM   19  C   UNL     1      -7.856  11.801  66.977  1.00  0.00    -0.161 C  
HETATM   20  C   UNL     1      -8.877  13.024  66.663  1.00  0.00    -0.073 C  
BRANCH  20  21
HETATM   21  C   UNL     1     -10.289  12.994  66.000  1.00  0.00    -0.293 A  
HETATM   22  C   UNL     1     -12.785  12.929  64.566  1.00  0.00    -0.359 A  
HETATM   23  C   UNL     1     -10.495  12.193  64.831  1.00  0.00    -0.325 A  
HETATM   24  C   UNL     1     -12.607  13.734  65.700  1.00  0.00    -0.551 A  
HETATM   25  C   UNL     1     -11.381  13.771  66.401  1.00  0.00    -0.327 A  
HETATM   26  C   UNL     1     -11.717  12.155  64.127  1.00  0.00    -0.478 A  
ENDBRANCH  20  21
BRANCH  20  27
HETATM   27  N   UNL     1      -8.892  13.965  67.774  1.00  0.00    -0.178 N  
HETATM   28  H   UNL     1      -9.264  13.684  68.681  1.00  0.00     0.000 HD 
HETATM   29  C   UNL     1      -8.404  15.232  67.592  1.00  0.00    -0.164 C  
HETATM   30  O   UNL     1      -8.010  15.619  66.493  1.00  0.00    -0.223 OA 
BRANCH  29  31
HETATM   31  C   UNL     1      -8.487  16.172  68.785  1.00  0.00    -0.236 C  
HETATM   32  C   UNL     1      -8.721  18.337  67.527  1.00  0.00    -0.256 C  
HETATM   33  C   UNL     1      -7.911  17.576  68.570  1.00  0.00    -0.274 C  
HETATM   34  C   UNL     1     -10.201  18.388  67.868  1.00  0.00    -0.381 C  
HETATM   35  F   UNL     1     -10.884  18.956  66.846  1.00  0.00    -0.447 F  
HETATM   36  F   UNL     1     -10.379  19.193  68.949  1.00  0.00    -0.422 F  
HETATM   37  C   UNL     1     -10.801  17.037  68.173  1.00  0.00    -0.338 C  
HETATM   38  C   UNL     1      -9.956  16.292  69.205  1.00  0.00    -0.259 C  
ENDBRANCH  29  31
ENDBRANCH  20  27
ENDBRANCH  18  19
ENDBRANCH  17  18
ENDBRANCH   8  10
TORSDOF 6
ENDMDL
MODEL       52
REMARK 921   NORMALIZED FREE ENERGY PREDICTED BY IDOCK:   -6.33 KCAL/MOL
REMARK 922        TOTAL FREE ENERGY PREDICTED BY IDOCK:  -10.09 KCAL/MOL
REMARK 923 INTER-LIGAND FREE ENERGY PREDICTED BY IDOCK:   -8.41 KCAL/MOL
REMARK 924 INTRA-LIGAND FREE ENERGY PREDICTED BY IDOCK:   -1.68 KCAL/MOL
REMARK 927      BINDING AFFINITY PREDICTED BY RF-SCORE:    0.00 PKD
ROOT
HETATM    1  C   UNL     1     -11.222  12.613  69.486  1.00  0.00    -0.152 C  
HETATM    2  C   UNL     1     -11.869  13.908  68.964  1.00  0.00    -0.397 C  
HETATM    3  C   UNL     1     -10.826  14.886  68.516  1.00  0.00    -0.247 A  
HETATM    4  C   UNL     1     -12.701  14.573  70.069  1.00  0.00    -0.187 C  
HETATM    5  N   UNL     1     -10.074  15.562  69.358  1.00  0.00    -0.249 NA 
HETATM    6  N   UNL     1      -9.538  16.605  68.687  1.00  0.00    -0.240 NA 
HETATM    7  C   UNL     1      -9.873  16.510  67.417  1.00  0.00    -0.253 A  
HETATM    8  N   UNL     1     -10.603  15.351  67.225  1.00  0.00    -0.288 NA 
HETATM    9  C   UNL     1      -9.474  17.536  66.432  1.00  0.00    -0.276 C  
ENDROOT
BRANCH   8  10
HETATM   10  C   UNL     1     -11.171  14.754  65.996  1.00  0.00    -0.341 C  
HETATM   11  C   UNL     1     -10.175  14.171  64.966  1.00  0.00    -0.399 C  
HETATM   12  C   UNL     1     -10.433  12.749  64.433  1.00  0.00    -0.386 C  
HETATM   13  C   UNL     1     -11.404  12.882  63.261  1.00  0.00    -0.146 C  
HETATM   14  C   UNL     1     -12.755  12.934  63.956  1.00  0.00    -0.233 C  
HETATM   15  C   UNL     1     -12.456  12.539  65.432  1.00  0.00    -0.240 C  
HETATM   16  C   UNL     1     -12.369  13.805  66.300  1.00  0.00    -0.479 C  
HETATM   17  N   UNL     1     -11.170  11.834  65.336  1.00  0.00    -0.285 NA 
BRANCH  17  18
HETATM   18  C   UNL     1     -10.435  11.410  66.581  1.00  0.00    -0.243 C  
BRANCH  18  19
HETATM   19  C   UNL     1      -8.839  11.363  66.593  1.00  0.00    -0.183 C  
HETATM   20  C   UNL     1      -7.957  11.733  67.904  1.00  0.00    -0.141 C  
BRANCH  20  21
HETATM   21  C   UNL     1      -7.313  13.093  68.316  1.00  0.00    -0.116 A  
HETATM   22  C   UNL     1      -6.025  15.610  68.862  1.00  0.00    -0.103 A  
HETATM   23  C   UNL     1      -7.181  14.129  67.336  1.00  0.00    -0.124 A  
HETATM   24  C   UNL     1      -6.128  14.608  69.837  1.00  0.00    -0.141 A  
HETATM   25  C   UNL     1      -6.755  13.370  69.569  1.00  0.00     0.003 A  
HETATM   26  C   UNL     1      -6.554  15.365  67.601  1.00  0.00    -0.195 A  
ENDBRANCH  20  21
BRANCH  20  27
HETATM   27  N   UNL     1      -8.517  11.093  69.086  1.00  0.00    -0.373 N  
HETATM   28  H   UNL     1      -9.258  11.551  69.615  1.00  0.00     0.000 HD 
HETATM   29  C   UNL     1      -8.040   9.872  69.481  1.00  0.00    -0.152 C  
HETATM   30  O   UNL     1      -7.103   9.327  68.901  1.00  0.00    -0.066 OA 
BRANCH  29  31
HETATM   31  C   UNL     1      -8.646   9.282  70.747  1.00  0.00    -0.254 C  
HETATM   32  C   UNL     1     -10.945   8.790  69.855  1.00  0.00    -0.184 C  
HETATM   33  C   UNL     1     -10.149   9.511  70.937  1.00  0.00    -0.330 C  
HETATM   34  C   UNL     1     -10.612   7.309  69.781  1.00  0.00    -0.235 C  
HETATM   35  F   UNL     1     -11.245   6.752  68.722  1.00  0.00    -0.251 F  
HETATM   36  F   UNL     1     -11.095   6.691  70.892  1.00  0.00    -0.265 F  
HETATM   37  C   UNL     1      -9.133   7.024  69.679  1.00  0.00    -0.144 C  
HETATM   38  C   UNL     1      -8.362   7.776  70.762  1.00  0.00    -0.116 C  
ENDBRANCH  29  31
ENDBRANCH  20  27
ENDBRANCH  18  19
ENDBRANCH  17  18
ENDBRANCH   8  10
TORSDOF 6
ENDMDL
MODEL       53
REMARK 921   NORMALIZED FREE ENERGY PREDICTED BY IDOCK:   -6.31 KCAL/MOL
REMARK 922        TOTAL FREE ENERGY PREDICTED BY IDOCK:  -10.06 KCAL/MOL
REMARK 923 INTER-LIGAND FREE ENERGY PREDICTED BY IDOCK:   -8.18 KCAL/MOL
REMARK 924 INTRA-LIGAND FREE ENERGY PREDICTED BY IDOCK:   -1.88 KCAL/MOL
REMARK 927      BINDING AFFINITY PREDICTED BY RF-SCORE:    0.00 PKD
ROOT
HETATM    1  C   UNL     1     -11.903  14.694  64.341  1.00  0.00    -0.405 C  
HETATM    2  C   UNL     1     -10.810  14.674  65.423  1.00  0.00    -0.365 C  
HETATM    3  C   UNL     1     -11.175  13.739  66.537  1.00  0.00    -0.312 A  
HETATM    4  C   UNL     1     -10.623  16.075  66.020  1.00  0.00    -0.324 C  
HETATM    5  N   UNL     1     -12.100  14.021  67.430  1.00  0.00    -0.393 NA 
HETATM    6  N   UNL     1     -11.921  13.195  68.484  1.00  0.00    -0.331 NA 
HETATM    7  C   UNL     1     -10.960  12.342  68.197  1.00  0.00    -0.228 A  
HETATM    8  N   UNL     1     -10.523  12.567  66.903  1.00  0.00    -0.228 NA 
HETATM    9  C   UNL     1     -10.499  11.337  69.176  1.00  0.00    -0.191 C  
ENDROOT
BRANCH   8  10
HETATM   10  C   UNL     1      -9.510  11.866  66.086  1.00  0.00    -0.231 C  
HETATM   11  C   UNL     1      -8.362  11.150  66.838  1.00  0.00    -0.147 C  
HETATM   12  C   UNL     1      -8.049   9.689  66.462  1.00  0.00    -0.119 C  
HETATM   13  C   UNL     1      -7.097   9.732  65.268  1.00  0.00    -0.119 C  
HETATM   14  C   UNL     1      -8.048   9.895  64.094  1.00  0.00    -0.152 C  
HETATM   15  C   UNL     1      -9.464   9.645  64.692  1.00  0.00    -0.152 C  
HETATM   16  C   UNL     1     -10.155  10.988  64.971  1.00  0.00    -0.354 C  
HETATM   17  N   UNL     1      -9.178   8.894  65.924  1.00  0.00    -0.217 NA 
BRANCH  17  18
HETATM   18  C   UNL     1     -10.280   8.577  66.901  1.00  0.00    -0.305 C  
BRANCH  18  19
HETATM   19  C   UNL     1     -10.904   7.109  66.957  1.00  0.00    -0.382 C  
HETATM   20  C   UNL     1     -10.029   5.794  67.330  1.00  0.00    -0.154 C  
BRANCH  20  21
HETATM   21  C   UNL     1      -9.298   4.787  66.388  1.00  0.00    -0.146 A  
HETATM   22  C   UNL     1      -8.047   3.044  64.468  1.00  0.00    -0.082 A  
HETATM   23  C   UNL     1      -8.774   5.253  65.140  1.00  0.00    -0.146 A  
HETATM   24  C   UNL     1      -8.564   2.558  65.676  1.00  0.00    -0.114 A  
HETATM   25  C   UNL     1      -9.184   3.412  66.617  1.00  0.00    -0.186 A  
HETATM   26  C   UNL     1      -8.156   4.403  64.198  1.00  0.00    -0.095 A  
ENDBRANCH  20  21
BRANCH  20  27
HETATM   27  N   UNL     1      -9.188   6.059  68.488  1.00  0.00    -0.115 N  
HETATM   28  H   UNL     1      -8.297   6.540  68.376  1.00  0.00     0.000 HD 
HETATM   29  C   UNL     1      -9.604   5.657  69.730  1.00  0.00    -0.159 C  
HETATM   30  O   UNL     1     -10.643   5.018  69.886  1.00  0.00    -0.237 OA 
BRANCH  29  31
HETATM   31  C   UNL     1      -8.657   5.934  70.888  1.00  0.00    -0.131 C  
HETATM   32  C   UNL     1      -8.807   8.444  70.890  1.00  0.00    -0.185 C  
HETATM   33  C   UNL     1      -7.869   7.246  70.807  1.00  0.00    -0.094 C  
HETATM   34  C   UNL     1      -9.692   8.401  72.124  1.00  0.00    -0.300 C  
HETATM   35  F   UNL     1     -10.590   9.413  72.075  1.00  0.00    -0.399 F  
HETATM   36  F   UNL     1      -8.926   8.615  73.227  1.00  0.00    -0.287 F  
HETATM   37  C   UNL     1     -10.428   7.095  72.298  1.00  0.00    -0.236 C  
HETATM   38  C   UNL     1      -9.465   5.915  72.190  1.00  0.00    -0.161 C  
ENDBRANCH  29  31
ENDBRANCH  20  27
ENDBRANCH  18  19
ENDBRANCH  17  18
ENDBRANCH   8  10
TORSDOF 6
ENDMDL
MODEL       54
REMARK 921   NORMALIZED FREE ENERGY PREDICTED BY IDOCK:   -6.30 KCAL/MOL
REMARK 922        TOTAL FREE ENERGY PREDICTED BY IDOCK:  -10.05 KCAL/MOL
REMARK 923 INTER-LIGAND FREE ENERGY PREDICTED BY IDOCK:   -9.37 KCAL/MOL
REMARK 924 INTRA-LIGAND FREE ENERGY PREDICTED BY IDOCK:   -0.68 KCAL/MOL
REMARK 927      BINDING AFFINITY PREDICTED BY RF-SCORE:    0.00 PKD
ROOT
HETATM    1  C   UNL     1     -10.282  18.717  66.211  1.00  0.00    -0.462 C  
HETATM    2  C   UNL     1      -9.647  17.434  66.776  1.00  0.00    -0.283 C  
HETATM    3  C   UNL     1     -10.620  16.690  67.641  1.00  0.00    -0.321 A  
HETATM    4  C   UNL     1      -8.418  17.776  67.630  1.00  0.00    -0.229 C  
HETATM    5  N   UNL     1     -10.956  17.094  68.847  1.00  0.00    -0.166 NA 
HETATM    6  N   UNL     1     -11.515  16.047  69.492  1.00  0.00    -0.334 NA 
HETATM    7  C   UNL     1     -11.618  15.037  68.654  1.00  0.00    -0.325 A  
HETATM    8  N   UNL     1     -11.168  15.433  67.407  1.00  0.00    -0.317 NA 
HETATM    9  C   UNL     1     -12.150  13.727  69.081  1.00  0.00    -0.374 C  
ENDROOT
BRANCH   8  10
HETATM   10  C   UNL     1     -11.115  14.708  66.119  1.00  0.00    -0.334 C  
HETATM   11  C   UNL     1      -9.869  13.832  65.849  1.00  0.00    -0.279 C  
HETATM   12  C   UNL     1     -10.090  12.383  65.375  1.00  0.00    -0.269 C  
HETATM   13  C   UNL     1     -10.253  12.432  63.857  1.00  0.00    -0.409 C  
HETATM   14  C   UNL     1     -11.724  12.776  63.694  1.00  0.00    -0.587 C  
HETATM   15  C   UNL     1     -12.330  12.611  65.119  1.00  0.00    -0.484 C  
HETATM   16  C   UNL     1     -12.457  13.986  65.792  1.00  0.00    -0.523 C  
HETATM   17  N   UNL     1     -11.357  11.741  65.797  1.00  0.00    -0.292 NA 
BRANCH  17  18
HETATM   18  C   UNL     1     -11.485  11.451  67.270  1.00  0.00    -0.224 C  
BRANCH  18  19
HETATM   19  C   UNL     1     -10.202  11.524  68.216  1.00  0.00    -0.205 C  
HETATM   20  C   UNL     1      -9.382  10.207  68.693  1.00  0.00    -0.161 C  
BRANCH  20  21
HETATM   21  C   UNL     1      -9.536   9.357  69.992  1.00  0.00    -0.256 A  
HETATM   22  C   UNL     1      -9.974   7.950  72.466  1.00  0.00    -0.312 A  
HETATM   23  C   UNL     1     -10.819   9.271  70.622  1.00  0.00    -0.339 A  
HETATM   24  C   UNL     1      -8.705   8.030  71.878  1.00  0.00    -0.184 A  
HETATM   25  C   UNL     1      -8.487   8.725  70.667  1.00  0.00    -0.193 A  
HETATM   26  C   UNL     1     -11.039   8.579  71.832  1.00  0.00    -0.395 A  
ENDBRANCH  20  21
BRANCH  20  27
HETATM   27  N   UNL     1      -9.160   9.316  67.563  1.00  0.00    -0.121 N  
HETATM   28  H   UNL     1      -9.942   8.815  67.143  1.00  0.00     0.000 HD 
HETATM   29  C   UNL     1      -7.892   9.156  67.069  1.00  0.00    -0.102 C  
HETATM   30  O   UNL     1      -6.922   9.697  67.597  1.00  0.00    -0.084 OA 
BRANCH  29  31
HETATM   31  C   UNL     1      -7.730   8.180  65.913  1.00  0.00    -0.091 C  
HETATM   32  C   UNL     1      -7.654   9.850  64.034  1.00  0.00    -0.138 C  
HETATM   33  C   UNL     1      -8.355   8.612  64.582  1.00  0.00    -0.165 C  
HETATM   34  C   UNL     1      -6.152   9.657  63.908  1.00  0.00    -0.102 C  
HETATM   35  F   UNL     1      -5.571  10.825  63.547  1.00  0.00    -0.154 F  
HETATM   36  F   UNL     1      -5.902   8.772  62.907  1.00  0.00    -0.081 F  
HETATM   37  C   UNL     1      -5.497   9.149  65.170  1.00  0.00    -0.042 C  
HETATM   38  C   UNL     1      -6.234   7.922  65.704  1.00  0.00    -0.038 C  
ENDBRANCH  29  31
ENDBRANCH  20  27
ENDBRANCH  18  19
ENDBRANCH  17  18
ENDBRANCH   8  10
TORSDOF 6
ENDMDL
MODEL       55
REMARK 921   NORMALIZED FREE ENERGY PREDICTED BY IDOCK:   -6.30 KCAL/MOL
REMARK 922        TOTAL FREE ENERGY PREDICTED BY IDOCK:  -10.05 KCAL/MOL
REMARK 923 INTER-LIGAND FREE ENERGY PREDICTED BY IDOCK:   -9.03 KCAL/MOL
REMARK 924 INTRA-LIGAND FREE ENERGY PREDICTED BY IDOCK:   -1.02 KCAL/MOL
REMARK 927      BINDING AFFINITY PREDICTED BY RF-SCORE:    0.00 PKD
ROOT
HETATM    1  C   UNL     1      -8.454   3.149  73.269  1.00  0.00    -0.077 C  
HETATM    2  C   UNL     1      -9.807   3.663  72.745  1.00  0.00    -0.204 C  
HETATM    3  C   UNL     1      -9.958   5.132  73.001  1.00  0.00    -0.164 A  
HETATM    4  C   UNL     1     -10.962   2.937  73.447  1.00  0.00    -0.301 C  
HETATM    5  N   UNL     1     -10.196   5.627  74.197  1.00  0.00    -0.246 NA 
HETATM    6  N   UNL     1     -10.657   6.887  74.037  1.00  0.00    -0.267 NA 
HETATM    7  C   UNL     1     -10.602   7.201  72.760  1.00  0.00    -0.268 A  
HETATM    8  N   UNL     1     -10.044   6.149  72.056  1.00  0.00    -0.180 NA 
HETATM    9  C   UNL     1     -11.085   8.505  72.262  1.00  0.00    -0.430 C  
ENDROOT
BRANCH   8  10
HETATM   10  C   UNL     1      -9.717   6.006  70.621  1.00  0.00    -0.174 C  
HETATM   11  C   UNL     1     -10.898   6.003  69.621  1.00  0.00    -0.439 C  
HETATM   12  C   UNL     1     -10.816   6.936  68.398  1.00  0.00    -0.180 C  
HETATM   13  C   UNL     1     -10.037   6.186  67.318  1.00  0.00    -0.202 C  
HETATM   14  C   UNL     1      -8.593   6.459  67.703  1.00  0.00    -0.115 C  
HETATM   15  C   UNL     1      -8.675   7.570  68.791  1.00  0.00    -0.128 C  
HETATM   16  C   UNL     1      -8.546   6.939  70.186  1.00  0.00    -0.141 C  
HETATM   17  N   UNL     1     -10.001   8.163  68.563  1.00  0.00    -0.184 NA 
BRANCH  17  18
HETATM   18  C   UNL     1     -10.553   9.192  69.515  1.00  0.00    -0.223 C  
BRANCH  18  19
HETATM   19  C   UNL     1     -11.894   9.980  69.154  1.00  0.00     0.161 C  
HETATM   20  C   UNL     1     -11.971  11.599  69.080  1.00  0.00    -0.305 C  
BRANCH  20  21
HETATM   21  C   UNL     1     -12.386  12.626  70.179  1.00  0.00    -0.222 A  
HETATM   22  C   UNL     1     -12.943  14.626  72.174  1.00  0.00    -0.421 A  
HETATM   23  C   UNL     1     -12.000  13.998  70.036  1.00  0.00    -0.404 A  
HETATM   24  C   UNL     1     -13.321  13.288  72.347  1.00  0.00    -0.616 A  
HETATM   25  C   UNL     1     -13.043  12.304  71.371  1.00  0.00    -0.285 A  
HETATM   26  C   UNL     1     -12.274  14.982  71.009  1.00  0.00    -0.386 A  
ENDBRANCH  20  21
BRANCH  20  27
HETATM   27  N   UNL     1     -10.830  12.125  68.344  1.00  0.00    -0.214 N  
HETATM   28  H   UNL     1      -9.898  12.104  68.757  1.00  0.00     0.000 HD 
HETATM   29  C   UNL     1     -11.018  12.648  67.092  1.00  0.00    -0.261 C  
HETATM   30  O   UNL     1     -12.139  12.746  66.596  1.00  0.00    -0.468 OA 
BRANCH  29  31
HETATM   31  C   UNL     1      -9.787  13.214  66.398  1.00  0.00    -0.279 C  
HETATM   32  C   UNL     1      -9.877  15.544  67.341  1.00  0.00    -0.224 C  
HETATM   33  C   UNL     1      -9.837  14.709  66.066  1.00  0.00    -0.347 C  
HETATM   34  C   UNL     1      -8.728  15.219  68.281  1.00  0.00    -0.165 C  
HETATM   35  F   UNL     1      -8.890  15.889  69.447  1.00  0.00    -0.225 F  
HETATM   36  F   UNL     1      -7.567  15.668  67.734  1.00  0.00    -0.117 F  
HETATM   37  C   UNL     1      -8.581  13.746  68.575  1.00  0.00    -0.122 C  
HETATM   38  C   UNL     1      -8.564  12.937  67.280  1.00  0.00    -0.205 C  
ENDBRANCH  29  31
ENDBRANCH  20  27
ENDBRANCH  18  19
ENDBRANCH  17  18
ENDBRANCH   8  10
TORSDOF 6
ENDMDL
MODEL       56
REMARK 921   NORMALIZED FREE ENERGY PREDICTED BY IDOCK:   -6.29 KCAL/MOL
REMARK 922        TOTAL FREE ENERGY PREDICTED BY IDOCK:  -10.03 KCAL/MOL
REMARK 923 INTER-LIGAND FREE ENERGY PREDICTED BY IDOCK:   -8.54 KCAL/MOL
REMARK 924 INTRA-LIGAND FREE ENERGY PREDICTED BY IDOCK:   -1.49 KCAL/MOL
REMARK 927      BINDING AFFINITY PREDICTED BY RF-SCORE:    0.00 PKD
ROOT
HETATM    1  C   UNL     1      -6.064  11.460  66.563  1.00  0.00    -0.121 C  
HETATM    2  C   UNL     1      -7.278  11.464  67.508  1.00  0.00    -0.107 C  
HETATM    3  C   UNL     1      -8.459  12.121  66.862  1.00  0.00    -0.173 A  
HETATM    4  C   UNL     1      -6.950  12.235  68.795  1.00  0.00    -0.098 C  
HETATM    5  N   UNL     1      -8.546  13.423  66.690  1.00  0.00    -0.019 NA 
HETATM    6  N   UNL     1      -9.843  13.723  66.456  1.00  0.00    -0.282 NA 
HETATM    7  C   UNL     1     -10.531  12.603  66.379  1.00  0.00    -0.249 A  
HETATM    8  N   UNL     1      -9.668  11.529  66.511  1.00  0.00    -0.198 NA 
HETATM    9  C   UNL     1     -11.993  12.605  66.177  1.00  0.00    -0.458 C  
ENDROOT
BRANCH   8  10
HETATM   10  C   UNL     1      -9.915  10.072  66.451  1.00  0.00    -0.237 C  
HETATM   11  C   UNL     1      -8.703   9.159  66.148  1.00  0.00    -0.169 C  
HETATM   12  C   UNL     1      -8.461   7.947  67.068  1.00  0.00    -0.124 C  
HETATM   13  C   UNL     1      -9.321   6.804  66.533  1.00  0.00    -0.197 C  
HETATM   14  C   UNL     1     -10.676   7.089  67.161  1.00  0.00    -0.433 C  
HETATM   15  C   UNL     1     -10.397   8.197  68.219  1.00  0.00    -0.197 C  
HETATM   16  C   UNL     1     -10.780   9.570  67.645  1.00  0.00    -0.314 C  
HETATM   17  N   UNL     1      -8.952   8.073  68.460  1.00  0.00    -0.134 NA 
BRANCH  17  18
HETATM   18  C   UNL     1      -8.230   9.076  69.321  1.00  0.00    -0.117 C  
BRANCH  18  19
HETATM   19  C   UNL     1      -8.881   9.573  70.691  1.00  0.00    -0.208 C  
HETATM   20  C   UNL     1      -9.854   8.640  71.594  1.00  0.00    -0.281 C  
BRANCH  20  21
HETATM   21  C   UNL     1     -11.411   8.539  71.598  1.00  0.00    -0.365 A  
HETATM   22  C   UNL     1     -14.284   8.512  71.782  1.00  0.00    -0.525 A  
HETATM   23  C   UNL     1     -12.186   9.716  71.853  1.00  0.00    -0.413 A  
HETATM   24  C   UNL     1     -13.550   7.343  71.545  1.00  0.00    -0.454 A  
HETATM   25  C   UNL     1     -12.139   7.354  71.460  1.00  0.00    -0.357 A  
HETATM   26  C   UNL     1     -13.595   9.708  71.940  1.00  0.00    -0.446 A  
ENDBRANCH  20  21
BRANCH  20  27
HETATM   27  N   UNL     1      -9.290   7.304  71.726  1.00  0.00    -0.149 N  
HETATM   28  H   UNL     1      -9.364   6.637  70.959  1.00  0.00     0.000 HD 
HETATM   29  C   UNL     1      -8.660   6.950  72.890  1.00  0.00    -0.115 C  
HETATM   30  O   UNL     1      -8.614   7.711  73.855  1.00  0.00    -0.190 OA 
BRANCH  29  31
HETATM   31  C   UNL     1      -8.129   5.526  72.971  1.00  0.00    -0.111 C  
HETATM   32  C   UNL     1      -9.896   4.566  74.482  1.00  0.00    -0.207 C  
HETATM   33  C   UNL     1      -8.400   4.788  74.287  1.00  0.00    -0.098 C  
HETATM   34  C   UNL     1     -10.534   3.854  73.302  1.00  0.00    -0.177 C  
HETATM   35  F   UNL     1     -11.876   3.805  73.472  1.00  0.00    -0.297 F  
HETATM   36  F   UNL     1     -10.099   2.566  73.273  1.00  0.00    -0.132 F  
HETATM   37  C   UNL     1     -10.228   4.494  71.969  1.00  0.00    -0.251 C  
HETATM   38  C   UNL     1      -8.726   4.720  71.812  1.00  0.00    -0.134 C  
ENDBRANCH  29  31
ENDBRANCH  20  27
ENDBRANCH  18  19
ENDBRANCH  17  18
ENDBRANCH   8  10
TORSDOF 6
ENDMDL
MODEL       57
REMARK 921   NORMALIZED FREE ENERGY PREDICTED BY IDOCK:   -6.28 KCAL/MOL
REMARK 922        TOTAL FREE ENERGY PREDICTED BY IDOCK:  -10.02 KCAL/MOL
REMARK 923 INTER-LIGAND FREE ENERGY PREDICTED BY IDOCK:   -8.56 KCAL/MOL
REMARK 924 INTRA-LIGAND FREE ENERGY PREDICTED BY IDOCK:   -1.46 KCAL/MOL
REMARK 927      BINDING AFFINITY PREDICTED BY RF-SCORE:    0.00 PKD
ROOT
HETATM    1  C   UNL     1     -14.404   7.479  71.689  1.00  0.00    -0.621 C  
HETATM    2  C   UNL     1     -13.112   8.167  71.213  1.00  0.00    -0.168 C  
HETATM    3  C   UNL     1     -11.913   7.599  71.911  1.00  0.00    -0.295 A  
HETATM    4  C   UNL     1     -13.168   9.672  71.511  1.00  0.00    -0.484 C  
HETATM    5  N   UNL     1     -11.629   7.863  73.168  1.00  0.00    -0.220 NA 
HETATM    6  N   UNL     1     -10.333   7.541  73.375  1.00  0.00    -0.353 NA 
HETATM    7  C   UNL     1      -9.854   6.985  72.281  1.00  0.00    -0.153 A  
HETATM    8  N   UNL     1     -10.865   6.884  71.342  1.00  0.00    -0.226 NA 
HETATM    9  C   UNL     1      -8.442   6.566  72.180  1.00  0.00    -0.113 C  
ENDROOT
BRANCH   8  10
HETATM   10  C   UNL     1     -10.872   6.301  69.983  1.00  0.00    -0.324 C  
HETATM   11  C   UNL     1     -11.139   7.262  68.800  1.00  0.00     0.048 C  
HETATM   12  C   UNL     1     -10.175   7.219  67.599  1.00  0.00    -0.200 C  
HETATM   13  C   UNL     1     -10.668   6.110  66.672  1.00  0.00    -0.301 C  
HETATM   14  C   UNL     1     -10.053   4.865  67.290  1.00  0.00    -0.212 C  
HETATM   15  C   UNL     1      -9.036   5.404  68.339  1.00  0.00    -0.109 C  
HETATM   16  C   UNL     1      -9.661   5.350  69.742  1.00  0.00    -0.248 C  
HETATM   17  N   UNL     1      -8.788   6.781  67.887  1.00  0.00    -0.119 NA 
BRANCH  17  18
HETATM   18  C   UNL     1      -7.964   7.724  68.724  1.00  0.00    -0.125 C  
BRANCH  18  19
HETATM   19  C   UNL     1      -7.148   8.907  68.029  1.00  0.00    -0.079 C  
HETATM   20  C   UNL     1      -7.815   9.926  66.955  1.00  0.00    -0.102 C  
BRANCH  20  21
HETATM   21  C   UNL     1      -7.842   9.849  65.397  1.00  0.00    -0.132 A  
HETATM   22  C   UNL     1      -8.107   9.610  62.540  1.00  0.00    -0.139 A  
HETATM   23  C   UNL     1      -9.075  10.082  64.707  1.00  0.00    -0.268 A  
HETATM   24  C   UNL     1      -6.891   9.362  63.190  1.00  0.00    -0.099 A  
HETATM   25  C   UNL     1      -6.760   9.474  64.593  1.00  0.00    -0.094 A  
HETATM   26  C   UNL     1      -9.208   9.970  63.307  1.00  0.00    -0.317 A  
ENDBRANCH  20  21
BRANCH  20  27
HETATM   27  N   UNL     1      -9.113  10.382  67.432  1.00  0.00    -0.135 N  
HETATM   28  H   UNL     1      -9.918   9.758  67.407  1.00  0.00     0.000 HD 
HETATM   29  C   UNL     1      -9.244  11.658  67.914  1.00  0.00    -0.171 C  
HETATM   30  O   UNL     1      -8.306  12.453  67.895  1.00  0.00    -0.144 OA 
BRANCH  29  31
HETATM   31  C   UNL     1     -10.637  12.078  68.359  1.00  0.00    -0.236 C  
HETATM   32  C   UNL     1     -10.681  14.362  67.306  1.00  0.00    -0.285 C  
HETATM   33  C   UNL     1     -10.834  13.578  68.604  1.00  0.00    -0.281 C  
HETATM   34  C   UNL     1     -11.601  13.850  66.209  1.00  0.00    -0.365 C  
HETATM   35  F   UNL     1     -11.326  14.492  65.049  1.00  0.00    -0.318 F  
HETATM   36  F   UNL     1     -12.885  14.159  66.529  1.00  0.00    -0.422 F  
HETATM   37  C   UNL     1     -11.507  12.360  65.984  1.00  0.00    -0.431 C  
HETATM   38  C   UNL     1     -11.645  11.606  67.305  1.00  0.00    -0.316 C  
ENDBRANCH  29  31
ENDBRANCH  20  27
ENDBRANCH  18  19
ENDBRANCH  17  18
ENDBRANCH   8  10
TORSDOF 6
ENDMDL
MODEL       58
REMARK 921   NORMALIZED FREE ENERGY PREDICTED BY IDOCK:   -6.25 KCAL/MOL
REMARK 922        TOTAL FREE ENERGY PREDICTED BY IDOCK:   -9.98 KCAL/MOL
REMARK 923 INTER-LIGAND FREE ENERGY PREDICTED BY IDOCK:   -8.64 KCAL/MOL
REMARK 924 INTRA-LIGAND FREE ENERGY PREDICTED BY IDOCK:   -1.34 KCAL/MOL
REMARK 927      BINDING AFFINITY PREDICTED BY RF-SCORE:    0.00 PKD
ROOT
HETATM    1  C   UNL     1      -7.477  10.383  65.527  1.00  0.00    -0.142 C  
HETATM    2  C   UNL     1      -7.971  11.047  66.824  1.00  0.00    -0.152 C  
HETATM    3  C   UNL     1      -7.451  12.448  66.941  1.00  0.00     0.057 A  
HETATM    4  C   UNL     1      -7.486  10.257  68.048  1.00  0.00    -0.087 C  
HETATM    5  N   UNL     1      -6.198  12.721  67.238  1.00  0.00    -0.262 NA 
HETATM    6  N   UNL     1      -6.142  14.009  67.643  1.00  0.00    -0.316 NA 
HETATM    7  C   UNL     1      -7.332  14.554  67.495  1.00  0.00    -0.189 A  
HETATM    8  N   UNL     1      -8.189  13.626  66.929  1.00  0.00    -0.028 NA 
HETATM    9  C   UNL     1      -7.601  15.948  67.899  1.00  0.00    -0.145 C  
ENDROOT
BRANCH   8  10
HETATM   10  C   UNL     1      -9.604  13.740  66.515  1.00  0.00    -0.285 C  
HETATM   11  C   UNL     1     -10.042  12.945  65.262  1.00  0.00    -0.254 C  
HETATM   12  C   UNL     1     -11.307  12.071  65.362  1.00  0.00    -0.321 C  
HETATM   13  C   UNL     1     -12.500  12.980  65.072  1.00  0.00    -0.534 C  
HETATM   14  C   UNL     1     -12.761  13.624  66.424  1.00  0.00    -0.137 C  
HETATM   15  C   UNL     1     -11.883  12.814  67.424  1.00  0.00    -0.342 C  
HETATM   16  C   UNL     1     -10.585  13.584  67.716  1.00  0.00    -0.252 C  
HETATM   17  N   UNL     1     -11.640  11.553  66.710  1.00  0.00    -0.492 NA 
BRANCH  17  18
HETATM   18  C   UNL     1     -10.690  10.527  67.270  1.00  0.00    -0.277 C  
BRANCH  18  19
HETATM   19  C   UNL     1     -10.817   8.995  66.838  1.00  0.00    -0.002 C  
HETATM   20  C   UNL     1      -9.987   7.803  67.561  1.00  0.00    -0.185 C  
BRANCH  20  21
HETATM   21  C   UNL     1      -8.617   7.167  67.169  1.00  0.00    -0.121 A  
HETATM   22  C   UNL     1      -6.208   5.857  66.291  1.00  0.00    -0.037 A  
HETATM   23  C   UNL     1      -8.378   6.810  65.803  1.00  0.00    -0.143 A  
HETATM   24  C   UNL     1      -6.421   6.182  67.638  1.00  0.00    -0.046 A  
HETATM   25  C   UNL     1      -7.605   6.821  68.071  1.00  0.00    -0.107 A  
HETATM   26  C   UNL     1      -7.198   6.171  65.368  1.00  0.00    -0.070 A  
ENDBRANCH  20  21
BRANCH  20  27
HETATM   27  N   UNL     1     -10.045   7.955  69.008  1.00  0.00    -0.195 N  
HETATM   28  H   UNL     1      -9.569   8.733  69.463  1.00  0.00     0.000 HD 
HETATM   29  C   UNL     1     -10.744   7.044  69.754  1.00  0.00    -0.241 C  
HETATM   30  O   UNL     1     -11.273   6.059  69.240  1.00  0.00    -0.384 OA 
BRANCH  29  31
HETATM   31  C   UNL     1     -10.729   7.243  71.263  1.00  0.00    -0.243 C  
HETATM   32  C   UNL     1     -11.821   9.507  71.341  1.00  0.00    -0.464 C  
HETATM   33  C   UNL     1     -10.597   8.693  71.742  1.00  0.00    -0.395 C  
HETATM   34  C   UNL     1     -13.118   8.877  71.821  1.00  0.00    -0.374 C  
HETATM   35  F   UNL     1     -14.171   9.568  71.324  1.00  0.00    -0.294 F  
HETATM   36  F   UNL     1     -13.188   8.984  73.174  1.00  0.00    -0.395 F  
HETATM   37  C   UNL     1     -13.261   7.421  71.447  1.00  0.00    -0.395 C  
HETATM   38  C   UNL     1     -12.011   6.638  71.844  1.00  0.00    -0.386 C  
ENDBRANCH  29  31
ENDBRANCH  20  27
ENDBRANCH  18  19
ENDBRANCH  17  18
ENDBRANCH   8  10
TORSDOF 6
ENDMDL
MODEL       59
REMARK 921   NORMALIZED FREE ENERGY PREDICTED BY IDOCK:   -6.24 KCAL/MOL
REMARK 922        TOTAL FREE ENERGY PREDICTED BY IDOCK:   -9.97 KCAL/MOL
REMARK 923 INTER-LIGAND FREE ENERGY PREDICTED BY IDOCK:   -8.83 KCAL/MOL
REMARK 924 INTRA-LIGAND FREE ENERGY PREDICTED BY IDOCK:   -1.14 KCAL/MOL
REMARK 927      BINDING AFFINITY PREDICTED BY RF-SCORE:    0.00 PKD
ROOT
HETATM    1  C   UNL     1      -6.503  15.260  67.382  1.00  0.00    -0.080 C  
HETATM    2  C   UNL     1      -7.714  15.612  68.263  1.00  0.00    -0.130 C  
HETATM    3  C   UNL     1      -8.269  16.956  67.901  1.00  0.00    -0.197 A  
HETATM    4  C   UNL     1      -7.305  15.649  69.743  1.00  0.00    -0.065 C  
HETATM    5  N   UNL     1      -7.669  18.084  68.218  1.00  0.00    -0.272 NA 
HETATM    6  N   UNL     1      -8.577  19.079  68.109  1.00  0.00    -0.308 NA 
HETATM    7  C   UNL     1      -9.696  18.581  67.628  1.00  0.00    -0.296 A  
HETATM    8  N   UNL     1      -9.518  17.236  67.358  1.00  0.00    -0.243 NA 
HETATM    9  C   UNL     1     -10.898  19.419  67.439  1.00  0.00    -0.555 C  
ENDROOT
BRANCH   8  10
HETATM   10  C   UNL     1     -10.433  16.234  66.769  1.00  0.00    -0.287 C  
HETATM   11  C   UNL     1      -9.850  15.287  65.694  1.00  0.00    -0.383 C  
HETATM   12  C   UNL     1     -10.097  13.774  65.849  1.00  0.00    -0.313 C  
HETATM   13  C   UNL     1     -11.457  13.478  65.220  1.00  0.00    -0.315 C  
HETATM   14  C   UNL     1     -12.421  13.815  66.346  1.00  0.00    -0.404 C  
HETATM   15  C   UNL     1     -11.518  13.996  67.601  1.00  0.00    -0.334 C  
HETATM   16  C   UNL     1     -11.273  15.493  67.852  1.00  0.00    -0.325 C  
HETATM   17  N   UNL     1     -10.288  13.280  67.233  1.00  0.00    -0.246 NA 
BRANCH  17  18
HETATM   18  C   UNL     1      -9.073  13.338  68.122  1.00  0.00    -0.207 C  
BRANCH  18  19
HETATM   19  C   UNL     1      -8.685  12.085  69.031  1.00  0.00     0.345 C  
HETATM   20  C   UNL     1      -9.554  10.714  69.062  1.00  0.00    -0.195 C  
BRANCH  20  21
HETATM   21  C   UNL     1     -10.701  10.287  70.029  1.00  0.00    -0.345 A  
HETATM   22  C   UNL     1     -12.739   9.276  71.794  1.00  0.00    -0.462 A  
HETATM   23  C   UNL     1     -10.458   9.249  70.986  1.00  0.00    -0.384 A  
HETATM   24  C   UNL     1     -13.009  10.283  70.858  1.00  0.00    -0.456 A  
HETATM   25  C   UNL     1     -12.011  10.777  69.987  1.00  0.00    -0.427 A  
HETATM   26  C   UNL     1     -11.453   8.753  71.855  1.00  0.00    -0.428 A  
ENDBRANCH  20  21
BRANCH  20  27
HETATM   27  N   UNL     1      -9.895  10.304  67.707  1.00  0.00    -0.166 N  
HETATM   28  H   UNL     1     -10.676  10.741  67.219  1.00  0.00     0.000 HD 
HETATM   29  C   UNL     1      -9.159   9.325  67.094  1.00  0.00    -0.130 C  
HETATM   30  O   UNL     1      -8.254   8.735  67.682  1.00  0.00    -0.109 OA 
BRANCH  29  31
HETATM   31  C   UNL     1      -9.597   8.920  65.694  1.00  0.00    -0.175 C  
HETATM   32  C   UNL     1      -8.583  10.841  64.426  1.00  0.00    -0.042 C  
HETATM   33  C   UNL     1      -9.867  10.072  64.720  1.00  0.00    -0.325 C  
HETATM   34  C   UNL     1      -7.469   9.937  63.925  1.00  0.00    -0.134 C  
HETATM   35  F   UNL     1      -6.323  10.648  63.810  1.00  0.00    -0.115 F  
HETATM   36  F   UNL     1      -7.782   9.498  62.677  1.00  0.00    -0.113 F  
HETATM   37  C   UNL     1      -7.219   8.736  64.806  1.00  0.00    -0.091 C  
HETATM   38  C   UNL     1      -8.525   8.000  65.098  1.00  0.00    -0.117 C  
ENDBRANCH  29  31
ENDBRANCH  20  27
ENDBRANCH  18  19
ENDBRANCH  17  18
ENDBRANCH   8  10
TORSDOF 6
ENDMDL
MODEL       60
REMARK 921   NORMALIZED FREE ENERGY PREDICTED BY IDOCK:   -6.21 KCAL/MOL
REMARK 922        TOTAL FREE ENERGY PREDICTED BY IDOCK:   -9.93 KCAL/MOL
REMARK 923 INTER-LIGAND FREE ENERGY PREDICTED BY IDOCK:   -8.46 KCAL/MOL
REMARK 924 INTRA-LIGAND FREE ENERGY PREDICTED BY IDOCK:   -1.47 KCAL/MOL
REMARK 927      BINDING AFFINITY PREDICTED BY RF-SCORE:    0.00 PKD
ROOT
HETATM    1  C   UNL     1      -7.925   3.014  73.415  1.00  0.00    -0.065 C  
HETATM    2  C   UNL     1      -9.289   3.436  72.841  1.00  0.00    -0.130 C  
HETATM    3  C   UNL     1      -9.628   4.840  73.239  1.00  0.00    -0.129 A  
HETATM    4  C   UNL     1     -10.397   2.512  73.364  1.00  0.00    -0.216 C  
HETATM    5  N   UNL     1     -10.004   5.164  74.458  1.00  0.00    -0.206 NA 
HETATM    6  N   UNL     1     -10.597   6.377  74.398  1.00  0.00    -0.116 NA 
HETATM    7  C   UNL     1     -10.492   6.841  73.171  1.00  0.00    -0.270 A  
HETATM    8  N   UNL     1      -9.767   5.944  72.406  1.00  0.00    -0.159 NA 
HETATM    9  C   UNL     1     -11.089   8.133  72.778  1.00  0.00    -0.407 C  
ENDROOT
BRANCH   8  10
HETATM   10  C   UNL     1      -9.328   6.006  70.995  1.00  0.00    -0.161 C  
HETATM   11  C   UNL     1     -10.429   6.007  69.908  1.00  0.00    -0.313 C  
HETATM   12  C   UNL     1     -10.360   7.083  68.808  1.00  0.00    -0.187 C  
HETATM   13  C   UNL     1      -9.434   6.545  67.718  1.00  0.00    -0.119 C  
HETATM   14  C   UNL     1      -8.057   6.909  68.247  1.00  0.00    -0.119 C  
HETATM   15  C   UNL     1      -8.331   7.869  69.442  1.00  0.00    -0.132 C  
HETATM   16  C   UNL     1      -8.234   7.092  70.764  1.00  0.00    -0.121 C  
HETATM   17  N   UNL     1      -9.693   8.354  69.174  1.00  0.00    -0.168 NA 
BRANCH  17  18
HETATM   18  C   UNL     1     -10.415   9.205  70.186  1.00  0.00    -0.218 C  
BRANCH  18  19
HETATM   19  C   UNL     1     -11.775   9.941  69.791  1.00  0.00    -0.079 C  
HETATM   20  C   UNL     1     -11.880  11.548  69.587  1.00  0.00    -0.354 C  
BRANCH  20  21
HETATM   21  C   UNL     1     -12.291  12.654  70.608  1.00  0.00    -0.375 A  
HETATM   22  C   UNL     1     -12.819  14.753  72.507  1.00  0.00    -0.469 A  
HETATM   23  C   UNL     1     -11.601  13.909  70.594  1.00  0.00    -0.073 A  
HETATM   24  C   UNL     1     -13.501  13.529  72.553  1.00  0.00    -0.660 A  
HETATM   25  C   UNL     1     -13.239  12.496  71.624  1.00  0.00    -0.381 A  
HETATM   26  C   UNL     1     -11.859  14.941  71.520  1.00  0.00    -0.419 A  
ENDBRANCH  20  21
BRANCH  20  27
HETATM   27  N   UNL     1     -10.762  12.029  68.788  1.00  0.00    -0.236 N  
HETATM   28  H   UNL     1      -9.843  12.151  69.211  1.00  0.00     0.000 HD 
HETATM   29  C   UNL     1     -10.955  12.316  67.462  1.00  0.00    -0.254 C  
HETATM   30  O   UNL     1     -12.067  12.241  66.942  1.00  0.00    -0.583 OA 
BRANCH  29  31
HETATM   31  C   UNL     1      -9.752  12.851  66.699  1.00  0.00    -0.254 C  
HETATM   32  C   UNL     1      -8.143  10.985  67.203  1.00  0.00    -0.134 C  
HETATM   33  C   UNL     1      -8.380  12.489  67.279  1.00  0.00    -0.185 C  
HETATM   34  C   UNL     1      -8.314  10.442  65.794  1.00  0.00    -0.158 C  
HETATM   35  F   UNL     1      -8.225   9.092  65.812  1.00  0.00    -0.106 F  
HETATM   36  F   UNL     1      -7.290  10.889  65.019  1.00  0.00    -0.032 F  
HETATM   37  C   UNL     1      -9.617  10.842  65.143  1.00  0.00    -0.291 C  
HETATM   38  C   UNL     1      -9.834  12.350  65.253  1.00  0.00    -0.180 C  
ENDBRANCH  29  31
ENDBRANCH  20  27
ENDBRANCH  18  19
ENDBRANCH  17  18
ENDBRANCH   8  10
TORSDOF 6
ENDMDL
MODEL       61
REMARK 921   NORMALIZED FREE ENERGY PREDICTED BY IDOCK:   -6.21 KCAL/MOL
REMARK 922        TOTAL FREE ENERGY PREDICTED BY IDOCK:   -9.93 KCAL/MOL
REMARK 923 INTER-LIGAND FREE ENERGY PREDICTED BY IDOCK:   -8.52 KCAL/MOL
REMARK 924 INTRA-LIGAND FREE ENERGY PREDICTED BY IDOCK:   -1.40 KCAL/MOL
REMARK 927      BINDING AFFINITY PREDICTED BY RF-SCORE:    0.00 PKD
ROOT
HETATM    1  C   UNL     1     -12.579  11.850  63.340  1.00  0.00    -0.555 C  
HETATM    2  C   UNL     1     -11.582  12.735  64.108  1.00  0.00    -0.456 C  
HETATM    3  C   UNL     1     -11.577  12.396  65.568  1.00  0.00    -0.385 A  
HETATM    4  C   UNL     1     -11.960  14.215  63.964  1.00  0.00    -0.359 C  
HETATM    5  N   UNL     1     -12.555  12.736  66.381  1.00  0.00    -0.191 NA 
HETATM    6  N   UNL     1     -12.089  12.644  67.647  1.00  0.00    -0.396 NA 
HETATM    7  C   UNL     1     -10.869  12.150  67.616  1.00  0.00    -0.233 A  
HETATM    8  N   UNL     1     -10.531  11.856  66.306  1.00  0.00    -0.232 NA 
HETATM    9  C   UNL     1     -10.073  11.974  68.847  1.00  0.00    -0.033 C  
ENDROOT
BRANCH   8  10
HETATM   10  C   UNL     1      -9.312  11.245  65.733  1.00  0.00    -0.223 C  
HETATM   11  C   UNL     1      -8.080  11.115  66.661  1.00  0.00    -0.159 C  
HETATM   12  C   UNL     1      -7.374   9.748  66.741  1.00  0.00    -0.091 C  
HETATM   13  C   UNL     1      -6.376   9.694  65.585  1.00  0.00    -0.069 C  
HETATM   14  C   UNL     1      -7.245   9.248  64.420  1.00  0.00    -0.097 C  
HETATM   15  C   UNL     1      -8.590   8.812  65.072  1.00  0.00    -0.169 C  
HETATM   16  C   UNL     1      -9.622   9.942  64.936  1.00  0.00    -0.356 C  
HETATM   17  N   UNL     1      -8.216   8.558  66.471  1.00  0.00    -0.106 NA 
BRANCH  17  18
HETATM   18  C   UNL     1      -9.271   8.256  67.503  1.00  0.00    -0.137 C  
BRANCH  18  19
HETATM   19  C   UNL     1      -9.119   8.810  68.992  1.00  0.00    -0.141 C  
HETATM   20  C   UNL     1      -9.788   8.079  70.277  1.00  0.00    -0.184 C  
BRANCH  20  21
HETATM   21  C   UNL     1     -11.161   8.346  70.969  1.00  0.00    -0.304 A  
HETATM   22  C   UNL     1     -13.793   8.692  72.085  1.00  0.00    -0.482 A  
HETATM   23  C   UNL     1     -12.111   7.279  71.069  1.00  0.00    -0.361 A  
HETATM   24  C   UNL     1     -12.888   9.758  71.986  1.00  0.00    -0.491 A  
HETATM   25  C   UNL     1     -11.598   9.590  71.433  1.00  0.00    -0.466 A  
HETATM   26  C   UNL     1     -13.400   7.443  71.619  1.00  0.00    -0.426 A  
ENDBRANCH  20  21
BRANCH  20  27
HETATM   27  N   UNL     1      -9.555   6.643  70.218  1.00  0.00    -0.162 N  
HETATM   28  H   UNL     1     -10.184   6.042  69.686  1.00  0.00     0.000 HD 
HETATM   29  C   UNL     1      -8.485   6.105  70.882  1.00  0.00    -0.128 C  
HETATM   30  O   UNL     1      -7.749   6.797  71.584  1.00  0.00    -0.094 OA 
BRANCH  29  31
HETATM   31  C   UNL     1      -8.326   4.594  70.808  1.00  0.00    -0.096 C  
HETATM   32  C   UNL     1      -8.091   4.131  73.268  1.00  0.00    -0.090 C  
HETATM   33  C   UNL     1      -7.451   3.961  71.895  1.00  0.00    -0.060 C  
HETATM   34  C   UNL     1      -9.512   3.596  73.315  1.00  0.00    -0.105 C  
HETATM   35  F   UNL     1     -10.072   3.894  74.512  1.00  0.00    -0.154 F  
HETATM   36  F   UNL     1      -9.479   2.240  73.229  1.00  0.00    -0.084 F  
HETATM   37  C   UNL     1     -10.396   4.125  72.211  1.00  0.00    -0.197 C  
HETATM   38  C   UNL     1      -9.720   3.958  70.852  1.00  0.00    -0.253 C  
ENDBRANCH  29  31
ENDBRANCH  20  27
ENDBRANCH  18  19
ENDBRANCH  17  18
ENDBRANCH   8  10
TORSDOF 6
ENDMDL
MODEL       62
REMARK 921   NORMALIZED FREE ENERGY PREDICTED BY IDOCK:   -6.21 KCAL/MOL
REMARK 922        TOTAL FREE ENERGY PREDICTED BY IDOCK:   -9.92 KCAL/MOL
REMARK 923 INTER-LIGAND FREE ENERGY PREDICTED BY IDOCK:   -8.77 KCAL/MOL
REMARK 924 INTRA-LIGAND FREE ENERGY PREDICTED BY IDOCK:   -1.15 KCAL/MOL
REMARK 927      BINDING AFFINITY PREDICTED BY RF-SCORE:    0.00 PKD
ROOT
HETATM    1  C   UNL     1     -10.658   5.252  66.547  1.00  0.00    -0.348 C  
HETATM    2  C   UNL     1      -9.499   4.963  67.516  1.00  0.00    -0.161 C  
HETATM    3  C   UNL     1      -8.646   6.180  67.712  1.00  0.00    -0.114 A  
HETATM    4  C   UNL     1      -8.607   3.842  66.964  1.00  0.00    -0.110 C  
HETATM    5  N   UNL     1      -7.812   6.621  66.794  1.00  0.00    -0.106 NA 
HETATM    6  N   UNL     1      -6.940   7.459  67.398  1.00  0.00    -0.077 NA 
HETATM    7  C   UNL     1      -7.300   7.613  68.654  1.00  0.00    -0.091 A  
HETATM    8  N   UNL     1      -8.468   6.907  68.883  1.00  0.00    -0.125 NA 
HETATM    9  C   UNL     1      -6.511   8.439  69.591  1.00  0.00    -0.036 C  
ENDROOT
BRANCH   8  10
HETATM   10  C   UNL     1      -9.308   6.786  70.095  1.00  0.00    -0.159 C  
HETATM   11  C   UNL     1      -9.029   7.774  71.253  1.00  0.00    -0.147 C  
HETATM   12  C   UNL     1     -10.222   8.533  71.862  1.00  0.00    -0.299 C  
HETATM   13  C   UNL     1     -10.831   7.623  72.927  1.00  0.00    -0.446 C  
HETATM   14  C   UNL     1     -11.742   6.721  72.109  1.00  0.00    -0.332 C  
HETATM   15  C   UNL     1     -11.789   7.380  70.699  1.00  0.00    -0.215 C  
HETATM   16  C   UNL     1     -10.822   6.652  69.753  1.00  0.00    -0.337 C  
HETATM   17  N   UNL     1     -11.378   8.767  70.964  1.00  0.00    -0.267 NA 
BRANCH  17  18
HETATM   18  C   UNL     1     -11.140   9.726  69.827  1.00  0.00    -0.237 C  
BRANCH  18  19
HETATM   19  C   UNL     1      -9.664  10.242  69.508  1.00  0.00    -0.235 C  
HETATM   20  C   UNL     1      -9.283  11.037  68.146  1.00  0.00    -0.165 C  
BRANCH  20  21
HETATM   21  C   UNL     1      -8.725  10.486  66.797  1.00  0.00    -0.136 A  
HETATM   22  C   UNL     1      -7.575   9.673  64.286  1.00  0.00    -0.128 A  
HETATM   23  C   UNL     1      -7.374  10.782  66.427  1.00  0.00    -0.142 A  
HETATM   24  C   UNL     1      -8.906   9.382  64.615  1.00  0.00    -0.238 A  
HETATM   25  C   UNL     1      -9.473   9.786  65.845  1.00  0.00    -0.285 A  
HETATM   26  C   UNL     1      -6.805  10.382  65.200  1.00  0.00    -0.085 A  
ENDBRANCH  20  21
BRANCH  20  27
HETATM   27  N   UNL     1     -10.278  12.064  67.867  1.00  0.00    -0.191 N  
HETATM   28  H   UNL     1     -11.251  11.806  67.705  1.00  0.00     0.000 HD 
HETATM   29  C   UNL     1      -9.896  13.378  67.823  1.00  0.00    -0.234 C  
HETATM   30  O   UNL     1      -8.719  13.712  67.949  1.00  0.00    -0.163 OA 
BRANCH  29  31
HETATM   31  C   UNL     1     -10.981  14.392  67.488  1.00  0.00    -0.299 C  
HETATM   32  C   UNL     1     -10.362  14.807  65.086  1.00  0.00    -0.439 C  
HETATM   33  C   UNL     1     -10.605  15.451  66.446  1.00  0.00    -0.307 C  
HETATM   34  C   UNL     1     -11.540  13.964  64.625  1.00  0.00    -0.385 C  
HETATM   35  F   UNL     1     -11.215  13.314  63.483  1.00  0.00    -0.378 F  
HETATM   36  F   UNL     1     -12.580  14.785  64.322  1.00  0.00    -0.495 F  
HETATM   37  C   UNL     1     -12.005  12.959  65.651  1.00  0.00    -0.490 C  
HETATM   38  C   UNL     1     -12.221  13.631  67.005  1.00  0.00    -0.373 C  
ENDBRANCH  29  31
ENDBRANCH  20  27
ENDBRANCH  18  19
ENDBRANCH  17  18
ENDBRANCH   8  10
TORSDOF 6
ENDMDL
MODEL       63
REMARK 921   NORMALIZED FREE ENERGY PREDICTED BY IDOCK:   -6.21 KCAL/MOL
REMARK 922        TOTAL FREE ENERGY PREDICTED BY IDOCK:   -9.92 KCAL/MOL
REMARK 923 INTER-LIGAND FREE ENERGY PREDICTED BY IDOCK:   -8.24 KCAL/MOL
REMARK 924 INTRA-LIGAND FREE ENERGY PREDICTED BY IDOCK:   -1.69 KCAL/MOL
REMARK 927      BINDING AFFINITY PREDICTED BY RF-SCORE:    0.00 PKD
ROOT
HETATM    1  C   UNL     1     -12.419  12.212  63.290  1.00  0.00    -0.528 C  
HETATM    2  C   UNL     1     -11.447  12.931  64.242  1.00  0.00    -0.427 C  
HETATM    3  C   UNL     1     -11.409  12.255  65.580  1.00  0.00    -0.349 A  
HETATM    4  C   UNL     1     -11.886  14.386  64.457  1.00  0.00    -0.463 C  
HETATM    5  N   UNL     1     -12.388  12.350  66.454  1.00  0.00    -0.433 NA 
HETATM    6  N   UNL     1     -11.902  11.979  67.659  1.00  0.00    -0.564 NA 
HETATM    7  C   UNL     1     -10.664  11.559  67.507  1.00  0.00    -0.223 A  
HETATM    8  N   UNL     1     -10.331  11.599  66.164  1.00  0.00    -0.233 NA 
HETATM    9  C   UNL     1      -9.844  11.129  68.658  1.00  0.00    -0.207 C  
ENDROOT
BRANCH   8  10
HETATM   10  C   UNL     1      -9.097  11.195  65.457  1.00  0.00    -0.195 C  
HETATM   11  C   UNL     1      -7.796  11.114  66.291  1.00  0.00    -0.109 C  
HETATM   12  C   UNL     1      -6.941   9.837  66.181  1.00  0.00    -0.095 C  
HETATM   13  C   UNL     1      -6.028  10.016  64.969  1.00  0.00    -0.107 C  
HETATM   14  C   UNL     1      -6.923   9.593  63.816  1.00  0.00    -0.112 C  
HETATM   15  C   UNL     1      -8.163   8.941  64.495  1.00  0.00    -0.166 C  
HETATM   16  C   UNL     1      -9.320   9.952  64.544  1.00  0.00    -0.336 C  
HETATM   17  N   UNL     1      -7.666   8.592  65.834  1.00  0.00    -0.095 NA 
BRANCH  17  18
HETATM   18  C   UNL     1      -8.606   8.066  66.887  1.00  0.00    -0.128 C  
BRANCH  18  19
HETATM   19  C   UNL     1      -8.170   8.063  68.423  1.00  0.00    -0.123 C  
HETATM   20  C   UNL     1      -8.859   7.100  69.533  1.00  0.00    -0.137 C  
BRANCH  20  21
HETATM   21  C   UNL     1     -10.046   7.393  70.502  1.00  0.00    -0.192 A  
HETATM   22  C   UNL     1     -12.383   7.886  72.111  1.00  0.00    -0.331 A  
HETATM   23  C   UNL     1     -11.244   6.615  70.395  1.00  0.00    -0.398 A  
HETATM   24  C   UNL     1     -11.229   8.673  72.227  1.00  0.00    -0.399 A  
HETATM   25  C   UNL     1     -10.083   8.435  71.434  1.00  0.00    -0.278 A  
HETATM   26  C   UNL     1     -12.389   6.851  71.184  1.00  0.00    -0.419 A  
ENDBRANCH  20  21
BRANCH  20  27
HETATM   27  N   UNL     1      -8.991   5.746  69.014  1.00  0.00    -0.117 N  
HETATM   28  H   UNL     1      -9.888   5.417  68.659  1.00  0.00     0.000 HD 
HETATM   29  C   UNL     1      -7.900   4.918  69.005  1.00  0.00    -0.076 C  
HETATM   30  O   UNL     1      -6.823   5.266  69.486  1.00  0.00    -0.050 OA 
BRANCH  29  31
HETATM   31  C   UNL     1      -8.121   3.505  68.485  1.00  0.00    -0.077 C  
HETATM   32  C   UNL     1      -9.661   4.058  66.575  1.00  0.00    -0.211 C  
HETATM   33  C   UNL     1      -9.488   3.236  67.847  1.00  0.00    -0.219 C  
HETATM   34  C   UNL     1      -8.531   3.837  65.584  1.00  0.00    -0.110 C  
HETATM   35  F   UNL     1      -8.667   4.688  64.540  1.00  0.00    -0.127 F  
HETATM   36  F   UNL     1      -8.627   2.580  65.076  1.00  0.00    -0.089 F  
HETATM   37  C   UNL     1      -7.156   4.007  66.184  1.00  0.00    -0.067 C  
HETATM   38  C   UNL     1      -7.021   3.187  67.466  1.00  0.00    -0.050 C  
ENDBRANCH  29  31
ENDBRANCH  20  27
ENDBRANCH  18  19
ENDBRANCH  17  18
ENDBRANCH   8  10
TORSDOF 6
ENDMDL
MODEL       64
REMARK 921   NORMALIZED FREE ENERGY PREDICTED BY IDOCK:   -6.20 KCAL/MOL
REMARK 922        TOTAL FREE ENERGY PREDICTED BY IDOCK:   -9.92 KCAL/MOL
REMARK 923 INTER-LIGAND FREE ENERGY PREDICTED BY IDOCK:   -8.42 KCAL/MOL
REMARK 924 INTRA-LIGAND FREE ENERGY PREDICTED BY IDOCK:   -1.50 KCAL/MOL
REMARK 927      BINDING AFFINITY PREDICTED BY RF-SCORE:    0.00 PKD
ROOT
HETATM    1  C   UNL     1      -9.100  17.030  67.201  1.00  0.00    -0.232 C  
HETATM    2  C   UNL     1      -9.081  15.867  68.208  1.00  0.00    -0.185 C  
HETATM    3  C   UNL     1     -10.341  15.839  69.020  1.00  0.00    -0.223 A  
HETATM    4  C   UNL     1      -7.897  16.015  69.174  1.00  0.00    -0.233 C  
HETATM    5  N   UNL     1     -10.592  16.707  69.977  1.00  0.00    -0.184 NA 
HETATM    6  N   UNL     1     -11.576  16.195  70.749  1.00  0.00    -0.390 NA 
HETATM    7  C   UNL     1     -11.998  15.071  70.210  1.00  0.00    -0.315 A  
HETATM    8  N   UNL     1     -11.321  14.853  69.023  1.00  0.00    -0.276 NA 
HETATM    9  C   UNL     1     -13.043  14.249  70.853  1.00  0.00    -0.368 C  
ENDROOT
BRANCH   8  10
HETATM   10  C   UNL     1     -11.449  13.777  68.017  1.00  0.00    -0.310 C  
HETATM   11  C   UNL     1     -10.653  13.939  66.700  1.00  0.00    -0.274 C  
HETATM   12  C   UNL     1      -9.795  12.753  66.220  1.00  0.00    -0.267 C  
HETATM   13  C   UNL     1     -10.717  11.830  65.425  1.00  0.00    -0.333 C  
HETATM   14  C   UNL     1     -11.370  10.997  66.516  1.00  0.00     0.047 C  
HETATM   15  C   UNL     1     -10.555  11.320  67.803  1.00  0.00    -0.201 C  
HETATM   16  C   UNL     1     -11.310  12.358  68.648  1.00  0.00    -0.332 C  
HETATM   17  N   UNL     1      -9.287  11.843  67.274  1.00  0.00    -0.174 NA 
BRANCH  17  18
HETATM   18  C   UNL     1      -8.253  12.427  68.200  1.00  0.00    -0.173 C  
BRANCH  18  19
HETATM   19  C   UNL     1      -7.449  11.480  69.203  1.00  0.00    -0.025 C  
HETATM   20  C   UNL     1      -7.902   9.956  69.531  1.00  0.00    -0.140 C  
BRANCH  20  21
HETATM   21  C   UNL     1      -8.788   9.411  70.693  1.00  0.00    -0.275 A  
HETATM   22  C   UNL     1     -10.283   8.216  72.844  1.00  0.00    -0.341 A  
HETATM   23  C   UNL     1      -8.170   8.689  71.764  1.00  0.00    -0.184 A  
HETATM   24  C   UNL     1     -10.916   8.905  71.801  1.00  0.00    -0.431 A  
HETATM   25  C   UNL     1     -10.184   9.488  70.742  1.00  0.00    -0.363 A  
HETATM   26  C   UNL     1      -8.898   8.105  72.822  1.00  0.00    -0.297 A  
ENDBRANCH  20  21
BRANCH  20  27
HETATM   27  N   UNL     1      -8.247   9.258  68.301  1.00  0.00    -0.114 N  
HETATM   28  H   UNL     1      -8.999   9.605  67.706  1.00  0.00     0.000 HD 
HETATM   29  C   UNL     1      -7.553   8.131  67.948  1.00  0.00    -0.102 C  
HETATM   30  O   UNL     1      -6.685   7.653  68.677  1.00  0.00    -0.051 OA 
BRANCH  29  31
HETATM   31  C   UNL     1      -7.994   7.431  66.670  1.00  0.00    -0.121 C  
HETATM   32  C   UNL     1      -8.904   5.327  67.702  1.00  0.00    -0.105 C  
HETATM   33  C   UNL     1      -7.921   5.901  66.688  1.00  0.00    -0.102 C  
HETATM   34  C   UNL     1     -10.324   5.815  67.472  1.00  0.00    -0.220 C  
HETATM   35  F   UNL     1     -11.123   5.382  68.476  1.00  0.00    -0.189 F  
HETATM   36  F   UNL     1     -10.804   5.260  66.328  1.00  0.00    -0.319 F  
HETATM   37  C   UNL     1     -10.440   7.316  67.361  1.00  0.00    -0.359 C  
HETATM   38  C   UNL     1      -9.430   7.862  66.353  1.00  0.00    -0.258 C  
ENDBRANCH  29  31
ENDBRANCH  20  27
ENDBRANCH  18  19
ENDBRANCH  17  18
ENDBRANCH   8  10
TORSDOF 6
ENDMDL
MODEL       65
REMARK 921   NORMALIZED FREE ENERGY PREDICTED BY IDOCK:   -6.20 KCAL/MOL
REMARK 922        TOTAL FREE ENERGY PREDICTED BY IDOCK:   -9.92 KCAL/MOL
REMARK 923 INTER-LIGAND FREE ENERGY PREDICTED BY IDOCK:   -8.88 KCAL/MOL
REMARK 924 INTRA-LIGAND FREE ENERGY PREDICTED BY IDOCK:   -1.04 KCAL/MOL
REMARK 927      BINDING AFFINITY PREDICTED BY RF-SCORE:    0.00 PKD
ROOT
HETATM    1  C   UNL     1      -9.964  14.317  68.395  1.00  0.00    -0.240 C  
HETATM    2  C   UNL     1     -10.672  13.035  67.925  1.00  0.00    -0.249 C  
HETATM    3  C   UNL     1     -11.295  13.230  66.575  1.00  0.00    -0.322 A  
HETATM    4  C   UNL     1     -11.784  12.647  68.909  1.00  0.00    -0.370 C  
HETATM    5  N   UNL     1     -12.386  13.940  66.390  1.00  0.00    -0.446 NA 
HETATM    6  N   UNL     1     -12.894  13.608  65.182  1.00  0.00    -0.738 NA 
HETATM    7  C   UNL     1     -12.065  12.779  64.586  1.00  0.00    -0.423 A  
HETATM    8  N   UNL     1     -10.952  12.593  65.388  1.00  0.00    -0.280 NA 
HETATM    9  C   UNL     1     -12.368  12.196  63.263  1.00  0.00    -0.547 C  
ENDROOT
BRANCH   8  10
HETATM   10  C   UNL     1      -9.718  11.808  65.169  1.00  0.00    -0.203 C  
HETATM   11  C   UNL     1      -8.544  12.043  66.149  1.00  0.00     0.109 C  
HETATM   12  C   UNL     1      -7.877  10.811  66.791  1.00  0.00    -0.135 C  
HETATM   13  C   UNL     1      -6.818  10.316  65.808  1.00  0.00    -0.128 C  
HETATM   14  C   UNL     1      -7.630   9.457  64.853  1.00  0.00    -0.110 C  
HETATM   15  C   UNL     1      -9.020   9.307  65.539  1.00  0.00    -0.205 C  
HETATM   16  C   UNL     1     -10.015  10.299  64.916  1.00  0.00    -0.393 C  
HETATM   17  N   UNL     1      -8.732   9.611  66.948  1.00  0.00    -0.130 NA 
BRANCH  17  18
HETATM   18  C   UNL     1      -9.851   9.730  67.950  1.00  0.00    -0.149 C  
BRANCH  18  19
HETATM   19  C   UNL     1     -10.953   8.581  68.061  1.00  0.00     0.106 C  
HETATM   20  C   UNL     1     -10.753   7.253  68.972  1.00  0.00    -0.166 C  
BRANCH  20  21
HETATM   21  C   UNL     1     -10.208   5.847  68.572  1.00  0.00    -0.240 A  
HETATM   22  C   UNL     1      -9.363   3.250  67.659  1.00  0.00    -0.245 A  
HETATM   23  C   UNL     1     -10.144   5.491  67.186  1.00  0.00    -0.220 A  
HETATM   24  C   UNL     1      -9.430   3.566  69.023  1.00  0.00    -0.213 A  
HETATM   25  C   UNL     1      -9.849   4.839  69.473  1.00  0.00    -0.292 A  
HETATM   26  C   UNL     1      -9.727   4.221  66.734  1.00  0.00    -0.241 A  
ENDBRANCH  20  21
BRANCH  20  27
HETATM   27  N   UNL     1     -10.227   7.613  70.281  1.00  0.00    -0.202 N  
HETATM   28  H   UNL     1      -9.253   7.898  70.382  1.00  0.00     0.000 HD 
HETATM   29  C   UNL     1     -11.049   7.567  71.375  1.00  0.00    -0.238 C  
HETATM   30  O   UNL     1     -12.208   7.165  71.293  1.00  0.00    -0.328 OA 
BRANCH  29  31
HETATM   31  C   UNL     1     -10.420   7.919  72.715  1.00  0.00    -0.412 C  
HETATM   32  C   UNL     1      -9.683   5.612  73.390  1.00  0.00    -0.153 C  
HETATM   33  C   UNL     1     -10.498   6.834  73.795  1.00  0.00    -0.383 C  
HETATM   34  C   UNL     1      -8.243   5.961  73.054  1.00  0.00    -0.117 C  
HETATM   35  F   UNL     1      -7.608   4.865  72.576  1.00  0.00    -0.082 F  
HETATM   36  F   UNL     1      -7.596   6.317  74.195  1.00  0.00    -0.090 F  
HETATM   37  C   UNL     1      -8.108   7.085  72.055  1.00  0.00    -0.097 C  
HETATM   38  C   UNL     1      -8.951   8.287  72.479  1.00  0.00    -0.305 C  
ENDBRANCH  29  31
ENDBRANCH  20  27
ENDBRANCH  18  19
ENDBRANCH  17  18
ENDBRANCH   8  10
TORSDOF 6
ENDMDL
MODEL       66
REMARK 921   NORMALIZED FREE ENERGY PREDICTED BY IDOCK:   -6.20 KCAL/MOL
REMARK 922        TOTAL FREE ENERGY PREDICTED BY IDOCK:   -9.92 KCAL/MOL
REMARK 923 INTER-LIGAND FREE ENERGY PREDICTED BY IDOCK:   -8.73 KCAL/MOL
REMARK 924 INTRA-LIGAND FREE ENERGY PREDICTED BY IDOCK:   -1.19 KCAL/MOL
REMARK 927      BINDING AFFINITY PREDICTED BY RF-SCORE:    0.00 PKD
ROOT
HETATM    1  C   UNL     1     -11.019   7.495  72.983  1.00  0.00    -0.443 C  
HETATM    2  C   UNL     1     -10.245   6.461  72.146  1.00  0.00    -0.207 C  
HETATM    3  C   UNL     1     -10.454   6.692  70.680  1.00  0.00    -0.217 A  
HETATM    4  C   UNL     1     -10.725   5.040  72.476  1.00  0.00    -0.271 C  
HETATM    5  N   UNL     1     -11.579   6.397  70.065  1.00  0.00    -0.432 NA 
HETATM    6  N   UNL     1     -11.325   6.352  68.738  1.00  0.00    -0.279 NA 
HETATM    7  C   UNL     1     -10.078   6.719  68.532  1.00  0.00    -0.162 A  
HETATM    8  N   UNL     1      -9.501   7.070  69.741  1.00  0.00    -0.146 NA 
HETATM    9  C   UNL     1      -9.485   6.726  67.180  1.00  0.00    -0.167 C  
ENDROOT
BRANCH   8  10
HETATM   10  C   UNL     1      -8.154   7.592  70.058  1.00  0.00    -0.120 C  
HETATM   11  C   UNL     1      -7.110   7.602  68.916  1.00  0.00    -0.079 C  
HETATM   12  C   UNL     1      -6.329   8.905  68.658  1.00  0.00    -0.053 C  
HETATM   13  C   UNL     1      -5.134   8.903  69.609  1.00  0.00    -0.030 C  
HETATM   14  C   UNL     1      -5.734   9.443  70.896  1.00  0.00    -0.055 C  
HETATM   15  C   UNL     1      -7.140   9.972  70.486  1.00  0.00    -0.068 C  
HETATM   16  C   UNL     1      -8.212   8.933  70.850  1.00  0.00    -0.207 C  
HETATM   17  N   UNL     1      -7.014  10.164  69.034  1.00  0.00    -0.055 NA 
BRANCH  17  18
HETATM   18  C   UNL     1      -8.217  10.528  68.202  1.00  0.00    -0.114 C  
BRANCH  18  19
HETATM   19  C   UNL     1      -8.037  11.368  66.857  1.00  0.00    -0.158 C  
HETATM   20  C   UNL     1      -9.052  12.556  66.416  1.00  0.00    -0.127 C  
BRANCH  20  21
HETATM   21  C   UNL     1     -10.307  12.497  65.492  1.00  0.00    -0.303 A  
HETATM   22  C   UNL     1     -12.485  12.463  63.608  1.00  0.00    -0.610 A  
HETATM   23  C   UNL     1     -10.155  12.073  64.132  1.00  0.00    -0.340 A  
HETATM   24  C   UNL     1     -12.660  12.897  64.929  1.00  0.00    -0.525 A  
HETATM   25  C   UNL     1     -11.591  12.919  65.854  1.00  0.00    -0.423 A  
HETATM   26  C   UNL     1     -11.220  12.051  63.207  1.00  0.00    -0.403 A  
ENDBRANCH  20  21
BRANCH  20  27
HETATM   27  N   UNL     1      -9.336  13.423  67.551  1.00  0.00    -0.209 N  
HETATM   28  H   UNL     1     -10.180  13.284  68.106  1.00  0.00     0.000 HD 
HETATM   29  C   UNL     1      -8.460  14.427  67.868  1.00  0.00    -0.165 C  
HETATM   30  O   UNL     1      -7.468  14.659  67.178  1.00  0.00    -0.167 OA 
BRANCH  29  31
HETATM   31  C   UNL     1      -8.840  15.317  69.042  1.00  0.00    -0.226 C  
HETATM   32  C   UNL     1      -8.642  17.544  67.890  1.00  0.00    -0.239 C  
HETATM   33  C   UNL     1      -8.180  16.700  69.072  1.00  0.00    -0.190 C  
HETATM   34  C   UNL     1     -10.156  17.650  67.811  1.00  0.00    -0.338 C  
HETATM   35  F   UNL     1     -10.509  18.294  66.673  1.00  0.00    -0.340 F  
HETATM   36  F   UNL     1     -10.600  18.415  68.843  1.00  0.00    -0.298 F  
HETATM   37  C   UNL     1     -10.862  16.317  67.864  1.00  0.00    -0.330 C  
HETATM   38  C   UNL     1     -10.363  15.489  69.046  1.00  0.00    -0.235 C  
ENDBRANCH  29  31
ENDBRANCH  20  27
ENDBRANCH  18  19
ENDBRANCH  17  18
ENDBRANCH   8  10
TORSDOF 6
ENDMDL
MODEL       67
REMARK 921   NORMALIZED FREE ENERGY PREDICTED BY IDOCK:   -6.17 KCAL/MOL
REMARK 922        TOTAL FREE ENERGY PREDICTED BY IDOCK:   -9.88 KCAL/MOL
REMARK 923 INTER-LIGAND FREE ENERGY PREDICTED BY IDOCK:   -9.00 KCAL/MOL
REMARK 924 INTRA-LIGAND FREE ENERGY PREDICTED BY IDOCK:   -0.87 KCAL/MOL
REMARK 927      BINDING AFFINITY PREDICTED BY RF-SCORE:    0.00 PKD
ROOT
HETATM    1  C   UNL     1      -7.318  10.951  66.370  1.00  0.00    -0.141 C  
HETATM    2  C   UNL     1      -8.022  11.878  67.376  1.00  0.00    -0.162 C  
HETATM    3  C   UNL     1      -7.644  13.310  67.142  1.00  0.00     0.030 A  
HETATM    4  C   UNL     1      -7.624  11.510  68.812  1.00  0.00    -0.129 C  
HETATM    5  N   UNL     1      -6.466  13.798  67.467  1.00  0.00    -0.290 NA 
HETATM    6  N   UNL     1      -6.572  15.145  67.497  1.00  0.00    -0.239 NA 
HETATM    7  C   UNL     1      -7.777  15.486  67.091  1.00  0.00    -0.222 A  
HETATM    8  N   UNL     1      -8.475  14.346  66.731  1.00  0.00    -0.124 NA 
HETATM    9  C   UNL     1      -8.214  16.896  67.060  1.00  0.00    -0.228 C  
ENDROOT
BRANCH   8  10
HETATM   10  C   UNL     1      -9.833  14.177  66.170  1.00  0.00    -0.308 C  
HETATM   11  C   UNL     1     -10.065  12.974  65.225  1.00  0.00    -0.247 C  
HETATM   12  C   UNL     1     -11.277  12.062  65.496  1.00  0.00    -0.321 C  
HETATM   13  C   UNL     1     -12.479  12.703  64.803  1.00  0.00    -0.555 C  
HETATM   14  C   UNL     1     -12.942  13.727  65.826  1.00  0.00    -0.310 C  
HETATM   15  C   UNL     1     -12.146  13.384  67.119  1.00  0.00    -0.318 C  
HETATM   16  C   UNL     1     -10.942  14.330  67.254  1.00  0.00    -0.302 C  
HETATM   17  N   UNL     1     -11.741  11.988  66.902  1.00  0.00    -0.576 NA 
BRANCH  17  18
HETATM   18  C   UNL     1     -10.805  11.303  67.864  1.00  0.00    -0.228 C  
BRANCH  18  19
HETATM   19  C   UNL     1     -11.040  11.428  69.437  1.00  0.00    -0.301 C  
HETATM   20  C   UNL     1     -10.969  10.156  70.443  1.00  0.00    -0.319 C  
BRANCH  20  21
HETATM   21  C   UNL     1     -12.115   9.234  70.961  1.00  0.00    -0.349 A  
HETATM   22  C   UNL     1     -14.249   7.675  72.105  1.00  0.00    -0.303 A  
HETATM   23  C   UNL     1     -13.232   9.821  71.639  1.00  0.00    -0.514 A  
HETATM   24  C   UNL     1     -13.161   7.072  71.459  1.00  0.00    -0.395 A  
HETATM   25  C   UNL     1     -12.110   7.836  70.902  1.00  0.00    -0.199 A  
HETATM   26  C   UNL     1     -14.282   9.061  72.197  1.00  0.00    -0.409 A  
ENDBRANCH  20  21
BRANCH  20  27
HETATM   27  N   UNL     1      -9.800   9.341  70.143  1.00  0.00    -0.199 N  
HETATM   28  H   UNL     1      -9.623   9.030  69.188  1.00  0.00     0.000 HD 
HETATM   29  C   UNL     1      -8.941   8.996  71.152  1.00  0.00    -0.235 C  
HETATM   30  O   UNL     1      -9.165   9.302  72.322  1.00  0.00    -0.103 OA 
BRANCH  29  31
HETATM   31  C   UNL     1      -7.763   8.111  70.771  1.00  0.00    -0.080 C  
HETATM   32  C   UNL     1      -8.577   5.962  71.794  1.00  0.00    -0.131 C  
HETATM   33  C   UNL     1      -7.439   6.975  71.748  1.00  0.00    -0.087 C  
HETATM   34  C   UNL     1      -8.932   5.428  70.416  1.00  0.00    -0.133 C  
HETATM   35  F   UNL     1     -10.030   4.640  70.503  1.00  0.00    -0.249 F  
HETATM   36  F   UNL     1      -7.920   4.636  69.973  1.00  0.00    -0.061 F  
HETATM   37  C   UNL     1      -9.179   6.509  69.391  1.00  0.00    -0.144 C  
HETATM   38  C   UNL     1      -8.032   7.517  69.384  1.00  0.00    -0.123 C  
ENDBRANCH  29  31
ENDBRANCH  20  27
ENDBRANCH  18  19
ENDBRANCH  17  18
ENDBRANCH   8  10
TORSDOF 6
ENDMDL
MODEL       68
REMARK 921   NORMALIZED FREE ENERGY PREDICTED BY IDOCK:   -6.16 KCAL/MOL
REMARK 922        TOTAL FREE ENERGY PREDICTED BY IDOCK:   -9.86 KCAL/MOL
REMARK 923 INTER-LIGAND FREE ENERGY PREDICTED BY IDOCK:   -8.31 KCAL/MOL
REMARK 924 INTRA-LIGAND FREE ENERGY PREDICTED BY IDOCK:   -1.55 KCAL/MOL
REMARK 927      BINDING AFFINITY PREDICTED BY RF-SCORE:    0.00 PKD
ROOT
HETATM    1  C   UNL     1     -12.135  14.572  64.345  1.00  0.00    -0.492 C  
HETATM    2  C   UNL     1     -10.993  14.311  65.342  1.00  0.00    -0.335 C  
HETATM    3  C   UNL     1     -11.527  13.812  66.651  1.00  0.00    -0.345 A  
HETATM    4  C   UNL     1     -10.211  15.605  65.610  1.00  0.00    -0.402 C  
HETATM    5  N   UNL     1     -12.145  14.591  67.512  1.00  0.00    -0.326 NA 
HETATM    6  N   UNL     1     -12.148  13.963  68.709  1.00  0.00    -0.351 NA 
HETATM    7  C   UNL     1     -11.629  12.762  68.559  1.00  0.00    -0.321 A  
HETATM    8  N   UNL     1     -11.322  12.562  67.224  1.00  0.00    -0.295 NA 
HETATM    9  C   UNL     1     -11.452  11.847  69.704  1.00  0.00    -0.337 C  
ENDROOT
BRANCH   8  10
HETATM   10  C   UNL     1     -10.771  11.383  66.522  1.00  0.00    -0.277 C  
HETATM   11  C   UNL     1      -9.414  11.558  65.800  1.00  0.00    -0.255 C  
HETATM   12  C   UNL     1      -8.311  10.515  66.066  1.00  0.00    -0.158 C  
HETATM   13  C   UNL     1      -8.554   9.355  65.102  1.00  0.00    -0.188 C  
HETATM   14  C   UNL     1      -9.600   8.530  65.835  1.00  0.00    -0.164 C  
HETATM   15  C   UNL     1      -9.648   9.135  67.269  1.00  0.00    -0.154 C  
HETATM   16  C   UNL     1     -10.845  10.091  67.389  1.00  0.00    -0.313 C  
HETATM   17  N   UNL     1      -8.359   9.832  67.381  1.00  0.00    -0.114 NA 
BRANCH  17  18
HETATM   18  C   UNL     1      -8.057  10.696  68.578  1.00  0.00    -0.125 C  
BRANCH  18  19
HETATM   19  C   UNL     1      -8.094  10.072  70.047  1.00  0.00    -0.154 C  
HETATM   20  C   UNL     1      -8.660   8.583  70.358  1.00  0.00    -0.143 C  
BRANCH  20  21
HETATM   21  C   UNL     1     -10.090   8.133  70.790  1.00  0.00    -0.211 A  
HETATM   22  C   UNL     1     -12.671   7.367  71.809  1.00  0.00    -0.367 A  
HETATM   23  C   UNL     1     -10.780   8.877  71.801  1.00  0.00    -0.432 A  
HETATM   24  C   UNL     1     -12.013   6.613  70.829  1.00  0.00    -0.412 A  
HETATM   25  C   UNL     1     -10.743   6.985  70.332  1.00  0.00    -0.259 A  
HETATM   26  C   UNL     1     -12.047   8.507  72.301  1.00  0.00    -0.455 A  
ENDBRANCH  20  21
BRANCH  20  27
HETATM   27  N   UNL     1      -8.134   7.632  69.389  1.00  0.00    -0.125 N  
HETATM   28  H   UNL     1      -8.508   7.604  68.441  1.00  0.00     0.000 HD 
HETATM   29  C   UNL     1      -7.132   6.774  69.760  1.00  0.00    -0.068 C  
HETATM   30  O   UNL     1      -6.707   6.741  70.914  1.00  0.00    -0.052 OA 
BRANCH  29  31
HETATM   31  C   UNL     1      -6.659   5.782  68.707  1.00  0.00    -0.051 C  
HETATM   32  C   UNL     1      -7.716   3.709  69.660  1.00  0.00    -0.051 C  
HETATM   33  C   UNL     1      -6.413   4.353  69.201  1.00  0.00    -0.036 C  
HETATM   34  C   UNL     1      -8.792   3.751  68.588  1.00  0.00    -0.111 C  
HETATM   35  F   UNL     1      -9.959   3.289  69.096  1.00  0.00    -0.143 F  
HETATM   36  F   UNL     1      -8.446   2.907  67.580  1.00  0.00    -0.078 F  
HETATM   37  C   UNL     1      -9.016   5.126  68.006  1.00  0.00    -0.117 C  
HETATM   38  C   UNL     1      -7.691   5.751  67.574  1.00  0.00    -0.097 C  
ENDBRANCH  29  31
ENDBRANCH  20  27
ENDBRANCH  18  19
ENDBRANCH  17  18
ENDBRANCH   8  10
TORSDOF 6
ENDMDL
MODEL       69
REMARK 921   NORMALIZED FREE ENERGY PREDICTED BY IDOCK:   -6.13 KCAL/MOL
REMARK 922        TOTAL FREE ENERGY PREDICTED BY IDOCK:   -9.82 KCAL/MOL
REMARK 923 INTER-LIGAND FREE ENERGY PREDICTED BY IDOCK:   -8.96 KCAL/MOL
REMARK 924 INTRA-LIGAND FREE ENERGY PREDICTED BY IDOCK:   -0.86 KCAL/MOL
REMARK 927      BINDING AFFINITY PREDICTED BY RF-SCORE:    0.00 PKD
ROOT
HETATM    1  C   UNL     1      -7.619   5.407  72.535  1.00  0.00    -0.098 C  
HETATM    2  C   UNL     1      -8.987   5.326  71.836  1.00  0.00    -0.146 C  
HETATM    3  C   UNL     1      -9.822   6.530  72.150  1.00  0.00    -0.157 A  
HETATM    4  C   UNL     1      -9.753   4.081  72.303  1.00  0.00    -0.217 C  
HETATM    5  N   UNL     1     -10.395   6.715  73.320  1.00  0.00    -0.230 NA 
HETATM    6  N   UNL     1     -11.360   7.648  73.164  1.00  0.00    -0.299 NA 
HETATM    7  C   UNL     1     -11.311   8.108  71.932  1.00  0.00    -0.296 A  
HETATM    8  N   UNL     1     -10.256   7.511  71.265  1.00  0.00    -0.189 NA 
HETATM    9  C   UNL     1     -12.277   9.112  71.441  1.00  0.00    -0.407 C  
ENDROOT
BRANCH   8  10
HETATM   10  C   UNL     1      -9.740   7.707  69.893  1.00  0.00    -0.175 C  
HETATM   11  C   UNL     1     -10.774   8.010  68.782  1.00  0.00    -0.078 C  
HETATM   12  C   UNL     1     -10.508   9.209  67.851  1.00  0.00    -0.237 C  
HETATM   13  C   UNL     1      -9.605   8.707  66.726  1.00  0.00    -0.269 C  
HETATM   14  C   UNL     1      -8.221   8.802  67.347  1.00  0.00    -0.109 C  
HETATM   15  C   UNL     1      -8.430   9.615  68.659  1.00  0.00    -0.119 C  
HETATM   16  C   UNL     1      -8.504   8.656  69.857  1.00  0.00    -0.129 C  
HETATM   17  N   UNL     1      -9.701  10.314  68.420  1.00  0.00    -0.152 NA 
BRANCH  17  18
HETATM   18  C   UNL     1     -10.358  11.106  69.520  1.00  0.00     0.021 C  
BRANCH  18  19
HETATM   19  C   UNL     1     -11.667  11.967  69.216  1.00  0.00    -0.389 C  
HETATM   20  C   UNL     1     -11.775  13.552  69.548  1.00  0.00    -0.322 C  
BRANCH  20  21
HETATM   21  C   UNL     1     -12.341  14.266  70.816  1.00  0.00    -0.427 A  
HETATM   22  C   UNL     1     -13.564  15.656  73.021  1.00  0.00    -0.619 A  
HETATM   23  C   UNL     1     -13.757  14.305  71.022  1.00  0.00    -0.155 A  
HETATM   24  C   UNL     1     -12.175  15.646  72.836  1.00  0.00    -0.563 A  
HETATM   25  C   UNL     1     -11.574  14.968  71.751  1.00  0.00    -0.425 A  
HETATM   26  C   UNL     1     -14.361  14.981  72.103  1.00  0.00    -0.622 A  
ENDBRANCH  20  21
BRANCH  20  27
HETATM   27  N   UNL     1     -10.570  14.243  69.111  1.00  0.00    -0.340 N  
HETATM   28  H   UNL     1      -9.652  13.901  69.392  1.00  0.00     0.000 HD 
HETATM   29  C   UNL     1     -10.679  15.355  68.319  1.00  0.00    -0.260 C  
HETATM   30  O   UNL     1     -11.775  15.827  68.019  1.00  0.00    -0.279 OA 
BRANCH  29  31
HETATM   31  C   UNL     1      -9.380  16.046  67.933  1.00  0.00    -0.208 C  
HETATM   32  C   UNL     1      -7.816  14.723  69.391  1.00  0.00    -0.083 C  
HETATM   33  C   UNL     1      -8.311  16.118  69.029  1.00  0.00    -0.247 C  
HETATM   34  C   UNL     1      -7.321  13.952  68.178  1.00  0.00    -0.123 C  
HETATM   35  F   UNL     1      -7.021  12.682  68.538  1.00  0.00    -0.071 F  
HETATM   36  F   UNL     1      -6.164  14.514  67.739  1.00  0.00    -0.129 F  
HETATM   37  C   UNL     1      -8.305  13.923  67.034  1.00  0.00    -0.113 C  
HETATM   38  C   UNL     1      -8.796  15.332  66.709  1.00  0.00    -0.302 C  
ENDBRANCH  29  31
ENDBRANCH  20  27
ENDBRANCH  18  19
ENDBRANCH  17  18
ENDBRANCH   8  10
TORSDOF 6
ENDMDL
MODEL       70
REMARK 921   NORMALIZED FREE ENERGY PREDICTED BY IDOCK:   -6.13 KCAL/MOL
REMARK 922        TOTAL FREE ENERGY PREDICTED BY IDOCK:   -9.82 KCAL/MOL
REMARK 923 INTER-LIGAND FREE ENERGY PREDICTED BY IDOCK:   -8.70 KCAL/MOL
REMARK 924 INTRA-LIGAND FREE ENERGY PREDICTED BY IDOCK:   -1.11 KCAL/MOL
REMARK 927      BINDING AFFINITY PREDICTED BY RF-SCORE:    0.00 PKD
ROOT
HETATM    1  C   UNL     1      -9.380   5.435  67.342  1.00  0.00    -0.117 C  
HETATM    2  C   UNL     1      -9.727   6.834  67.882  1.00  0.00    -0.138 C  
HETATM    3  C   UNL     1     -10.331   6.747  69.250  1.00  0.00    -0.200 A  
HETATM    4  C   UNL     1     -10.738   7.527  66.958  1.00  0.00    -0.367 C  
HETATM    5  N   UNL     1     -11.560   6.325  69.461  1.00  0.00    -0.346 NA 
HETATM    6  N   UNL     1     -11.927   6.724  70.699  1.00  0.00    -0.392 NA 
HETATM    7  C   UNL     1     -10.895   7.296  71.284  1.00  0.00    -0.235 A  
HETATM    8  N   UNL     1      -9.799   7.229  70.441  1.00  0.00    -0.183 NA 
HETATM    9  C   UNL     1     -10.997   7.881  72.635  1.00  0.00    -0.440 C  
ENDROOT
BRANCH   8  10
HETATM   10  C   UNL     1      -8.401   7.672  70.630  1.00  0.00    -0.125 C  
HETATM   11  C   UNL     1      -7.372   7.250  69.555  1.00  0.00    -0.086 C  
HETATM   12  C   UNL     1      -6.456   8.337  68.961  1.00  0.00    -0.047 C  
HETATM   13  C   UNL     1      -5.259   8.473  69.901  1.00  0.00    -0.029 C  
HETATM   14  C   UNL     1      -5.787   9.413  70.972  1.00  0.00    -0.065 C  
HETATM   15  C   UNL     1      -7.130   9.954  70.399  1.00  0.00    -0.139 C  
HETATM   16  C   UNL     1      -8.306   9.179  71.014  1.00  0.00    -0.205 C  
HETATM   17  N   UNL     1      -6.996   9.717  68.954  1.00  0.00    -0.058 NA 
BRANCH  17  18
HETATM   18  C   UNL     1      -8.158   9.960  68.027  1.00  0.00    -0.108 C  
BRANCH  18  19
HETATM   19  C   UNL     1      -7.979  10.893  66.745  1.00  0.00    -0.143 C  
HETATM   20  C   UNL     1      -8.946  12.159  66.434  1.00  0.00    -0.138 C  
BRANCH  20  21
HETATM   21  C   UNL     1     -10.232  12.235  65.554  1.00  0.00    -0.296 A  
HETATM   22  C   UNL     1     -12.732  12.372  64.131  1.00  0.00    -0.446 A  
HETATM   23  C   UNL     1     -11.349  13.004  66.014  1.00  0.00    -0.343 A  
HETATM   24  C   UNL     1     -11.660  11.600  63.664  1.00  0.00    -0.435 A  
HETATM   25  C   UNL     1     -10.434  11.528  64.364  1.00  0.00    -0.380 A  
HETATM   26  C   UNL     1     -12.574  13.077  65.318  1.00  0.00    -0.516 A  
ENDBRANCH  20  21
BRANCH  20  27
HETATM   27  N   UNL     1      -9.148  12.948  67.641  1.00  0.00    -0.184 N  
HETATM   28  H   UNL     1      -9.736  12.593  68.394  1.00  0.00     0.000 HD 
HETATM   29  C   UNL     1      -8.541  14.170  67.758  1.00  0.00    -0.184 C  
HETATM   30  O   UNL     1      -7.880  14.652  66.839  1.00  0.00    -0.103 OA 
BRANCH  29  31
HETATM   31  C   UNL     1      -8.828  14.955  69.030  1.00  0.00    -0.179 C  
HETATM   32  C   UNL     1      -8.660  17.274  68.073  1.00  0.00    -0.234 C  
HETATM   33  C   UNL     1      -8.140  16.319  69.141  1.00  0.00    -0.215 C  
HETATM   34  C   UNL     1     -10.173  17.409  68.104  1.00  0.00    -0.350 C  
HETATM   35  F   UNL     1     -10.585  18.159  67.055  1.00  0.00    -0.359 F  
HETATM   36  F   UNL     1     -10.535  18.082  69.228  1.00  0.00    -0.345 F  
HETATM   37  C   UNL     1     -10.901  16.086  68.081  1.00  0.00    -0.322 C  
HETATM   38  C   UNL     1     -10.344  15.146  69.149  1.00  0.00    -0.249 C  
ENDBRANCH  29  31
ENDBRANCH  20  27
ENDBRANCH  18  19
ENDBRANCH  17  18
ENDBRANCH   8  10
TORSDOF 6
ENDMDL
MODEL       71
REMARK 921   NORMALIZED FREE ENERGY PREDICTED BY IDOCK:   -6.10 KCAL/MOL
REMARK 922        TOTAL FREE ENERGY PREDICTED BY IDOCK:   -9.78 KCAL/MOL
REMARK 923 INTER-LIGAND FREE ENERGY PREDICTED BY IDOCK:   -8.29 KCAL/MOL
REMARK 924 INTRA-LIGAND FREE ENERGY PREDICTED BY IDOCK:   -1.48 KCAL/MOL
REMARK 927      BINDING AFFINITY PREDICTED BY RF-SCORE:    0.00 PKD
ROOT
HETATM    1  C   UNL     1     -10.469  17.573  66.128  1.00  0.00    -0.288 C  
HETATM    2  C   UNL     1      -9.779  16.562  67.059  1.00  0.00    -0.255 C  
HETATM    3  C   UNL     1     -10.767  15.932  67.994  1.00  0.00    -0.301 A  
HETATM    4  C   UNL     1      -8.703  17.259  67.903  1.00  0.00    -0.231 C  
HETATM    5  N   UNL     1     -11.285  16.573  69.020  1.00  0.00    -0.280 NA 
HETATM    6  N   UNL     1     -11.807  15.652  69.860  1.00  0.00    -0.349 NA 
HETATM    7  C   UNL     1     -11.704  14.463  69.305  1.00  0.00    -0.317 A  
HETATM    8  N   UNL     1     -11.150  14.597  68.044  1.00  0.00    -0.270 NA 
HETATM    9  C   UNL     1     -12.146  13.240  70.004  1.00  0.00    -0.385 C  
ENDROOT
BRANCH   8  10
HETATM   10  C   UNL     1     -10.868  13.591  66.996  1.00  0.00    -0.282 C  
HETATM   11  C   UNL     1      -9.386  13.359  66.617  1.00  0.00    -0.248 C  
HETATM   12  C   UNL     1      -8.868  11.909  66.573  1.00  0.00    -0.178 C  
HETATM   13  C   UNL     1      -9.199  11.360  65.186  1.00  0.00    -0.119 C  
HETATM   14  C   UNL     1     -10.640  10.906  65.347  1.00  0.00    -0.243 C  
HETATM   15  C   UNL     1     -10.909  10.972  66.879  1.00  0.00    -0.269 C  
HETATM   16  C   UNL     1     -11.661  12.268  67.219  1.00  0.00    -0.427 C  
HETATM   17  N   UNL     1      -9.557  10.939  67.457  1.00  0.00    -0.155 NA 
BRANCH  17  18
HETATM   18  C   UNL     1      -9.351  11.140  68.935  1.00  0.00    -0.106 C  
BRANCH  18  19
HETATM   19  C   UNL     1      -8.562  10.048  69.791  1.00  0.00    -0.192 C  
HETATM   20  C   UNL     1      -8.946   8.472  69.777  1.00  0.00    -0.145 C  
BRANCH  20  21
HETATM   21  C   UNL     1      -9.874   7.667  70.739  1.00  0.00    -0.177 A  
HETATM   22  C   UNL     1     -11.522   6.332  72.687  1.00  0.00    -0.255 A  
HETATM   23  C   UNL     1     -10.605   8.367  71.753  1.00  0.00    -0.352 A  
HETATM   24  C   UNL     1     -10.806   5.620  71.715  1.00  0.00    -0.301 A  
HETATM   25  C   UNL     1      -9.993   6.274  70.762  1.00  0.00    -0.220 A  
HETATM   26  C   UNL     1     -11.417   7.717  72.706  1.00  0.00    -0.415 A  
ENDBRANCH  20  21
BRANCH  20  27
HETATM   27  N   UNL     1      -9.169   8.019  68.411  1.00  0.00    -0.135 N  
HETATM   28  H   UNL     1     -10.086   8.122  67.979  1.00  0.00     0.000 HD 
HETATM   29  C   UNL     1      -8.136   7.453  67.712  1.00  0.00    -0.119 C  
HETATM   30  O   UNL     1      -7.038   7.256  68.230  1.00  0.00    -0.076 OA 
BRANCH  29  31
HETATM   31  C   UNL     1      -8.452   6.968  66.304  1.00  0.00    -0.134 C  
HETATM   32  C   UNL     1      -8.024   4.515  66.660  1.00  0.00    -0.102 C  
HETATM   33  C   UNL     1      -7.665   5.742  65.829  1.00  0.00    -0.095 C  
HETATM   34  C   UNL     1      -9.520   4.246  66.677  1.00  0.00    -0.187 C  
HETATM   35  F   UNL     1      -9.790   3.232  67.533  1.00  0.00    -0.237 F  
HETATM   36  F   UNL     1      -9.908   3.826  65.444  1.00  0.00    -0.168 F  
HETATM   37  C   UNL     1     -10.349   5.448  67.058  1.00  0.00    -0.299 C  
HETATM   38  C   UNL     1      -9.952   6.664  66.222  1.00  0.00     0.021 C  
ENDBRANCH  29  31
ENDBRANCH  20  27
ENDBRANCH  18  19
ENDBRANCH  17  18
ENDBRANCH   8  10
TORSDOF 6
ENDMDL
MODEL       72
REMARK 921   NORMALIZED FREE ENERGY PREDICTED BY IDOCK:   -6.10 KCAL/MOL
REMARK 922        TOTAL FREE ENERGY PREDICTED BY IDOCK:   -9.78 KCAL/MOL
REMARK 923 INTER-LIGAND FREE ENERGY PREDICTED BY IDOCK:   -7.66 KCAL/MOL
REMARK 924 INTRA-LIGAND FREE ENERGY PREDICTED BY IDOCK:   -2.12 KCAL/MOL
REMARK 927      BINDING AFFINITY PREDICTED BY RF-SCORE:    0.00 PKD
ROOT
HETATM    1  C   UNL     1     -10.458  17.141  69.194  1.00  0.00    -0.296 C  
HETATM    2  C   UNL     1      -9.501  16.692  68.077  1.00  0.00    -0.224 C  
HETATM    3  C   UNL     1      -8.460  15.752  68.607  1.00  0.00    -0.193 A  
HETATM    4  C   UNL     1      -8.781  17.904  67.469  1.00  0.00    -0.243 C  
HETATM    5  N   UNL     1      -7.453  16.151  69.354  1.00  0.00    -0.225 NA 
HETATM    6  N   UNL     1      -6.516  15.178  69.337  1.00  0.00    -0.125 NA 
HETATM    7  C   UNL     1      -6.988  14.145  68.671  1.00  0.00    -0.107 A  
HETATM    8  N   UNL     1      -8.288  14.411  68.280  1.00  0.00    -0.151 NA 
HETATM    9  C   UNL     1      -6.173  12.936  68.439  1.00  0.00    -0.079 C  
ENDROOT
BRANCH   8  10
HETATM   10  C   UNL     1      -9.274  13.578  67.559  1.00  0.00    -0.219 C  
HETATM   11  C   UNL     1      -8.723  12.485  66.613  1.00  0.00    -0.101 C  
HETATM   12  C   UNL     1      -9.287  11.058  66.747  1.00  0.00    -0.181 C  
HETATM   13  C   UNL     1     -10.557  11.000  65.900  1.00  0.00    -0.270 C  
HETATM   14  C   UNL     1     -11.607  11.571  66.839  1.00  0.00    -0.166 C  
HETATM   15  C   UNL     1     -10.904  11.635  68.228  1.00  0.00    -0.219 C  
HETATM   16  C   UNL     1     -10.411  13.066  68.494  1.00  0.00    -0.247 C  
HETATM   17  N   UNL     1      -9.797  10.678  68.086  1.00  0.00    -0.152 NA 
BRANCH  17  18
HETATM   18  C   UNL     1      -8.758  10.543  69.168  1.00  0.00    -0.147 C  
BRANCH  18  19
HETATM   19  C   UNL     1      -9.008   9.562  70.402  1.00  0.00    -0.291 C  
HETATM   20  C   UNL     1     -10.195   8.455  70.422  1.00  0.00    -0.197 C  
BRANCH  20  21
HETATM   21  C   UNL     1     -11.642   8.559  70.997  1.00  0.00    -0.317 A  
HETATM   22  C   UNL     1     -14.229   8.915  72.208  1.00  0.00    -0.474 A  
HETATM   23  C   UNL     1     -12.136   9.836  71.417  1.00  0.00    -0.486 A  
HETATM   24  C   UNL     1     -13.766   7.651  71.818  1.00  0.00    -0.408 A  
HETATM   25  C   UNL     1     -12.493   7.474  71.229  1.00  0.00    -0.354 A  
HETATM   26  C   UNL     1     -13.405  10.015  72.007  1.00  0.00    -0.513 A  
ENDBRANCH  20  21
BRANCH  20  27
HETATM   27  N   UNL     1     -10.235   7.737  69.156  1.00  0.00    -0.204 N  
HETATM   28  H   UNL     1     -10.658   8.168  68.334  1.00  0.00     0.000 HD 
HETATM   29  C   UNL     1      -9.701   6.478  69.076  1.00  0.00    -0.135 C  
HETATM   30  O   UNL     1      -9.244   5.909  70.066  1.00  0.00    -0.144 OA 
BRANCH  29  31
HETATM   31  C   UNL     1      -9.814   5.774  67.732  1.00  0.00    -0.144 C  
HETATM   32  C   UNL     1      -8.525   7.429  66.345  1.00  0.00    -0.129 C  
HETATM   33  C   UNL     1      -9.847   6.688  66.501  1.00  0.00    -0.165 C  
HETATM   34  C   UNL     1      -7.334   6.486  66.308  1.00  0.00    -0.073 C  
HETATM   35  F   UNL     1      -6.185   7.204  66.303  1.00  0.00    -0.035 F  
HETATM   36  F   UNL     1      -7.359   5.786  65.143  1.00  0.00    -0.067 F  
HETATM   37  C   UNL     1      -7.299   5.506  67.456  1.00  0.00    -0.076 C  
HETATM   38  C   UNL     1      -8.643   4.795  67.598  1.00  0.00    -0.103 C  
ENDBRANCH  29  31
ENDBRANCH  20  27
ENDBRANCH  18  19
ENDBRANCH  17  18
ENDBRANCH   8  10
TORSDOF 6
ENDMDL
MODEL       73
REMARK 921   NORMALIZED FREE ENERGY PREDICTED BY IDOCK:   -6.08 KCAL/MOL
REMARK 922        TOTAL FREE ENERGY PREDICTED BY IDOCK:   -9.75 KCAL/MOL
REMARK 923 INTER-LIGAND FREE ENERGY PREDICTED BY IDOCK:   -9.91 KCAL/MOL
REMARK 924 INTRA-LIGAND FREE ENERGY PREDICTED BY IDOCK:    0.16 KCAL/MOL
REMARK 927      BINDING AFFINITY PREDICTED BY RF-SCORE:    0.00 PKD
ROOT
HETATM    1  C   UNL     1     -10.535  12.311  64.128  1.00  0.00    -0.402 C  
HETATM    2  C   UNL     1     -10.284  12.969  65.496  1.00  0.00    -0.296 C  
HETATM    3  C   UNL     1     -10.760  12.089  66.611  1.00  0.00    -0.245 A  
HETATM    4  C   UNL     1     -11.033  14.305  65.591  1.00  0.00    -0.309 C  
HETATM    5  N   UNL     1     -12.035  11.919  66.891  1.00  0.00    -0.591 NA 
HETATM    6  N   UNL     1     -12.119  11.412  68.140  1.00  0.00    -0.617 NA 
HETATM    7  C   UNL     1     -10.903  11.173  68.585  1.00  0.00    -0.209 A  
HETATM    8  N   UNL     1      -9.988  11.477  67.592  1.00  0.00    -0.182 NA 
HETATM    9  C   UNL     1     -10.664  10.657  69.948  1.00  0.00    -0.260 C  
ENDROOT
BRANCH   8  10
HETATM   10  C   UNL     1      -8.515  11.346  67.557  1.00  0.00    -0.137 C  
HETATM   11  C   UNL     1      -7.730  12.388  66.725  1.00  0.00     0.115 C  
HETATM   12  C   UNL     1      -6.532  13.092  67.389  1.00  0.00    -0.098 C  
HETATM   13  C   UNL     1      -5.319  12.182  67.198  1.00  0.00    -0.096 C  
HETATM   14  C   UNL     1      -5.460  11.199  68.348  1.00  0.00    -0.042 C  
HETATM   15  C   UNL     1      -6.571  11.806  69.255  1.00  0.00    -0.112 C  
HETATM   16  C   UNL     1      -7.910  11.107  68.973  1.00  0.00    -0.103 C  
HETATM   17  N   UNL     1      -6.584  13.223  68.864  1.00  0.00    -0.102 NA 
BRANCH  17  18
HETATM   18  C   UNL     1      -7.638  14.156  69.402  1.00  0.00     0.137 C  
BRANCH  18  19
HETATM   19  C   UNL     1      -9.057  14.264  68.680  1.00  0.00    -0.160 C  
HETATM   20  C   UNL     1     -10.183  15.351  69.107  1.00  0.00    -0.239 C  
BRANCH  20  21
HETATM   21  C   UNL     1     -11.380  15.205  70.098  1.00  0.00    -0.300 A  
HETATM   22  C   UNL     1     -13.430  14.922  72.100  1.00  0.00    -0.494 A  
HETATM   23  C   UNL     1     -11.295  15.815  71.391  1.00  0.00    -0.438 A  
HETATM   24  C   UNL     1     -13.533  14.303  70.847  1.00  0.00    -0.191 A  
HETATM   25  C   UNL     1     -12.525  14.437  69.865  1.00  0.00    -0.311 A  
HETATM   26  C   UNL     1     -12.299  15.682  72.373  1.00  0.00    -0.519 A  
ENDBRANCH  20  21
BRANCH  20  27
HETATM   27  N   UNL     1      -9.575  16.663  69.285  1.00  0.00    -0.202 N  
HETATM   28  H   UNL     1      -8.926  16.828  70.053  1.00  0.00     0.000 HD 
HETATM   29  C   UNL     1      -9.883  17.672  68.412  1.00  0.00    -0.334 C  
HETATM   30  O   UNL     1     -10.713  17.520  67.517  1.00  0.00    -0.349 OA 
BRANCH  29  31
HETATM   31  C   UNL     1      -9.241  19.026  68.682  1.00  0.00    -0.414 C  
HETATM   32  C   UNL     1      -7.093  18.666  67.424  1.00  0.00    -0.210 C  
HETATM   33  C   UNL     1      -7.711  19.032  68.769  1.00  0.00    -0.382 C  
HETATM   34  C   UNL     1      -7.591  19.555  66.297  1.00  0.00    -0.291 C  
HETATM   35  F   UNL     1      -7.115  19.100  65.114  1.00  0.00    -0.262 F  
HETATM   36  F   UNL     1      -7.087  20.806  66.463  1.00  0.00    -0.302 F  
HETATM   37  C   UNL     1      -9.096  19.651  66.219  1.00  0.00    -0.429 C  
HETATM   38  C   UNL     1      -9.685  19.999  67.585  1.00  0.00    -0.535 C  
ENDBRANCH  29  31
ENDBRANCH  20  27
ENDBRANCH  18  19
ENDBRANCH  17  18
ENDBRANCH   8  10
TORSDOF 6
ENDMDL
MODEL       74
REMARK 921   NORMALIZED FREE ENERGY PREDICTED BY IDOCK:   -6.08 KCAL/MOL
REMARK 922        TOTAL FREE ENERGY PREDICTED BY IDOCK:   -9.75 KCAL/MOL
REMARK 923 INTER-LIGAND FREE ENERGY PREDICTED BY IDOCK:   -8.37 KCAL/MOL
REMARK 924 INTRA-LIGAND FREE ENERGY PREDICTED BY IDOCK:   -1.38 KCAL/MOL
REMARK 927      BINDING AFFINITY PREDICTED BY RF-SCORE:    0.00 PKD
ROOT
HETATM    1  C   UNL     1      -8.842   6.880  66.464  1.00  0.00    -0.148 C  
HETATM    2  C   UNL     1      -9.995   6.094  67.113  1.00  0.00    -0.188 C  
HETATM    3  C   UNL     1      -9.547   5.434  68.382  1.00  0.00    -0.129 A  
HETATM    4  C   UNL     1     -10.500   5.002  66.161  1.00  0.00    -0.334 C  
HETATM    5  N   UNL     1      -8.771   4.371  68.397  1.00  0.00    -0.098 NA 
HETATM    6  N   UNL     1      -8.871   3.804  69.619  1.00  0.00    -0.082 NA 
HETATM    7  C   UNL     1      -9.620   4.571  70.383  1.00  0.00    -0.200 A  
HETATM    8  N   UNL     1      -9.985   5.702  69.674  1.00  0.00    -0.185 NA 
HETATM    9  C   UNL     1      -9.955   4.192  71.771  1.00  0.00    -0.246 C  
ENDROOT
BRANCH   8  10
HETATM   10  C   UNL     1     -10.772   6.888  70.076  1.00  0.00    -0.243 C  
HETATM   11  C   UNL     1     -10.451   7.519  71.452  1.00  0.00    -0.226 C  
HETATM   12  C   UNL     1     -10.220   9.041  71.516  1.00  0.00    -0.344 C  
HETATM   13  C   UNL     1     -11.594   9.694  71.656  1.00  0.00    -0.406 C  
HETATM   14  C   UNL     1     -12.075   9.763  70.216  1.00  0.00    -0.104 C  
HETATM   15  C   UNL     1     -10.822   9.411  69.362  1.00  0.00    -0.189 C  
HETATM   16  C   UNL     1     -10.886   7.938  68.930  1.00  0.00    -0.008 C  
HETATM   17  N   UNL     1      -9.706   9.678  70.281  1.00  0.00    -0.255 NA 
BRANCH  17  18
HETATM   18  C   UNL     1      -8.294   9.317  69.897  1.00  0.00    -0.156 C  
BRANCH  18  19
HETATM   19  C   UNL     1      -7.397  10.351  69.076  1.00  0.00    -0.097 C  
HETATM   20  C   UNL     1      -7.925  11.110  67.741  1.00  0.00    -0.116 C  
BRANCH  20  21
HETATM   21  C   UNL     1      -7.760  10.712  66.241  1.00  0.00    -0.143 A  
HETATM   22  C   UNL     1      -7.639   9.831  63.503  1.00  0.00    -0.128 A  
HETATM   23  C   UNL     1      -8.928  10.437  65.459  1.00  0.00    -0.199 A  
HETATM   24  C   UNL     1      -6.479  10.079  64.249  1.00  0.00    -0.131 A  
HETATM   25  C   UNL     1      -6.537  10.507  65.595  1.00  0.00    -0.116 A  
HETATM   26  C   UNL     1      -8.874  10.009  64.116  1.00  0.00    -0.244 A  
ENDBRANCH  20  21
BRANCH  20  27
HETATM   27  N   UNL     1      -9.271  11.624  67.953  1.00  0.00    -0.165 N  
HETATM   28  H   UNL     1     -10.049  10.982  68.102  1.00  0.00     0.000 HD 
HETATM   29  C   UNL     1      -9.484  12.977  67.950  1.00  0.00    -0.219 C  
HETATM   30  O   UNL     1      -8.577  13.772  67.707  1.00  0.00    -0.160 OA 
BRANCH  29  31
HETATM   31  C   UNL     1     -10.921  13.440  68.138  1.00  0.00    -0.277 C  
HETATM   32  C   UNL     1     -11.106  14.895  66.095  1.00  0.00    -0.335 C  
HETATM   33  C   UNL     1     -11.244  14.843  67.612  1.00  0.00    -0.330 C  
HETATM   34  C   UNL     1     -11.942  13.833  65.401  1.00  0.00    -0.379 C  
HETATM   35  F   UNL     1     -11.677  13.840  64.073  1.00  0.00    -0.406 F  
HETATM   36  F   UNL     1     -13.258  14.147  65.536  1.00  0.00    -0.555 F  
HETATM   37  C   UNL     1     -11.724  12.440  65.941  1.00  0.00    -0.476 C  
HETATM   38  C   UNL     1     -11.850  12.425  67.463  1.00  0.00    -0.354 C  
ENDBRANCH  29  31
ENDBRANCH  20  27
ENDBRANCH  18  19
ENDBRANCH  17  18
ENDBRANCH   8  10
TORSDOF 6
ENDMDL
MODEL       75
REMARK 921   NORMALIZED FREE ENERGY PREDICTED BY IDOCK:   -6.06 KCAL/MOL
REMARK 922        TOTAL FREE ENERGY PREDICTED BY IDOCK:   -9.73 KCAL/MOL
REMARK 923 INTER-LIGAND FREE ENERGY PREDICTED BY IDOCK:   -8.54 KCAL/MOL
REMARK 924 INTRA-LIGAND FREE ENERGY PREDICTED BY IDOCK:   -1.19 KCAL/MOL
REMARK 927      BINDING AFFINITY PREDICTED BY RF-SCORE:    0.00 PKD
ROOT
HETATM    1  C   UNL     1      -9.717   4.080  69.759  1.00  0.00    -0.254 C  
HETATM    2  C   UNL     1      -9.902   4.288  71.273  1.00  0.00    -0.257 C  
HETATM    3  C   UNL     1      -8.731   5.015  71.861  1.00  0.00    -0.129 A  
HETATM    4  C   UNL     1     -10.030   2.935  71.987  1.00  0.00    -0.227 C  
HETATM    5  N   UNL     1      -7.559   4.445  72.049  1.00  0.00    -0.077 NA 
HETATM    6  N   UNL     1      -6.866   5.207  72.924  1.00  0.00    -0.074 NA 
HETATM    7  C   UNL     1      -7.564   6.291  73.190  1.00  0.00    -0.096 A  
HETATM    8  N   UNL     1      -8.725   6.281  72.436  1.00  0.00    -0.122 NA 
HETATM    9  C   UNL     1      -7.088   7.302  74.156  1.00  0.00    -0.098 C  
ENDROOT
BRANCH   8  10
HETATM   10  C   UNL     1      -9.817   7.272  72.323  1.00  0.00    -0.154 C  
HETATM   11  C   UNL     1      -9.448   8.676  71.787  1.00  0.00    -0.354 C  
HETATM   12  C   UNL     1     -10.304   9.267  70.651  1.00  0.00    -0.263 C  
HETATM   13  C   UNL     1     -11.504   9.949  71.307  1.00  0.00    -0.435 C  
HETATM   14  C   UNL     1     -12.467   8.792  71.516  1.00  0.00    -0.374 C  
HETATM   15  C   UNL     1     -11.853   7.613  70.705  1.00  0.00    -0.205 C  
HETATM   16  C   UNL     1     -11.090   6.673  71.653  1.00  0.00    -0.290 C  
HETATM   17  N   UNL     1     -10.963   8.291  69.751  1.00  0.00    -0.185 NA 
BRANCH  17  18
HETATM   18  C   UNL     1     -10.043   7.494  68.863  1.00  0.00    -0.192 C  
BRANCH  18  19
HETATM   19  C   UNL     1      -8.766   8.188  68.203  1.00  0.00    -0.136 C  
HETATM   20  C   UNL     1      -8.878   9.390  67.118  1.00  0.00    -0.127 C  
BRANCH  20  21
HETATM   21  C   UNL     1      -8.889   9.323  65.559  1.00  0.00    -0.224 A  
HETATM   22  C   UNL     1      -8.675   9.154  62.693  1.00  0.00    -0.202 A  
HETATM   23  C   UNL     1      -8.054   8.367  64.895  1.00  0.00    -0.149 A  
HETATM   24  C   UNL     1      -9.490  10.109  63.316  1.00  0.00    -0.302 A  
HETATM   25  C   UNL     1      -9.591  10.197  64.723  1.00  0.00    -0.378 A  
HETATM   26  C   UNL     1      -7.950   8.278  63.491  1.00  0.00    -0.154 A  
ENDBRANCH  20  21
BRANCH  20  27
HETATM   27  N   UNL     1      -9.853  10.378  67.559  1.00  0.00    -0.169 N  
HETATM   28  H   UNL     1     -10.847  10.151  67.568  1.00  0.00     0.000 HD 
HETATM   29  C   UNL     1      -9.424  11.615  67.962  1.00  0.00    -0.185 C  
HETATM   30  O   UNL     1      -8.239  11.938  67.900  1.00  0.00    -0.133 OA 
BRANCH  29  31
HETATM   31  C   UNL     1     -10.501  12.609  68.372  1.00  0.00    -0.248 C  
HETATM   32  C   UNL     1     -10.300  14.189  66.426  1.00  0.00    -0.287 C  
HETATM   33  C   UNL     1     -10.266  14.062  67.945  1.00  0.00    -0.240 C  
HETATM   34  C   UNL     1     -11.580  13.631  65.827  1.00  0.00    -0.333 C  
HETATM   35  F   UNL     1     -11.495  13.649  64.476  1.00  0.00    -0.332 F  
HETATM   36  F   UNL     1     -12.616  14.444  66.161  1.00  0.00    -0.441 F  
HETATM   37  C   UNL     1     -11.904  12.229  66.283  1.00  0.00    -0.387 C  
HETATM   38  C   UNL     1     -11.843  12.130  67.806  1.00  0.00    -0.327 C  
ENDBRANCH  29  31
ENDBRANCH  20  27
ENDBRANCH  18  19
ENDBRANCH  17  18
ENDBRANCH   8  10
TORSDOF 6
ENDMDL
MODEL       76
REMARK 921   NORMALIZED FREE ENERGY PREDICTED BY IDOCK:   -6.00 KCAL/MOL
REMARK 922        TOTAL FREE ENERGY PREDICTED BY IDOCK:   -9.65 KCAL/MOL
REMARK 923 INTER-LIGAND FREE ENERGY PREDICTED BY IDOCK:   -8.40 KCAL/MOL
REMARK 924 INTRA-LIGAND FREE ENERGY PREDICTED BY IDOCK:   -1.25 KCAL/MOL
REMARK 927      BINDING AFFINITY PREDICTED BY RF-SCORE:    0.00 PKD
ROOT
HETATM    1  C   UNL     1      -7.211  10.713  66.069  1.00  0.00    -0.131 C  
HETATM    2  C   UNL     1      -7.898  11.413  67.255  1.00  0.00    -0.149 C  
HETATM    3  C   UNL     1      -7.496  12.854  67.333  1.00  0.00    -0.132 A  
HETATM    4  C   UNL     1      -7.504  10.736  68.575  1.00  0.00    -0.100 C  
HETATM    5  N   UNL     1      -6.309  13.242  67.750  1.00  0.00    -0.147 NA 
HETATM    6  N   UNL     1      -6.392  14.552  68.071  1.00  0.00    -0.140 NA 
HETATM    7  C   UNL     1      -7.592  14.992  67.755  1.00  0.00    -0.160 A  
HETATM    8  N   UNL     1      -8.309  13.969  67.160  1.00  0.00    -0.184 NA 
HETATM    9  C   UNL     1      -8.005  16.382  68.031  1.00  0.00    -0.159 C  
ENDROOT
BRANCH   8  10
HETATM   10  C   UNL     1      -9.671  13.946  66.583  1.00  0.00    -0.289 C  
HETATM   11  C   UNL     1      -9.911  13.021  65.367  1.00  0.00    -0.201 C  
HETATM   12  C   UNL     1     -11.124  12.071  65.406  1.00  0.00    -0.320 C  
HETATM   13  C   UNL     1     -12.328  12.866  64.905  1.00  0.00    -0.532 C  
HETATM   14  C   UNL     1     -12.783  13.600  66.156  1.00  0.00    -0.295 C  
HETATM   15  C   UNL     1     -11.980  12.941  67.316  1.00  0.00    -0.309 C  
HETATM   16  C   UNL     1     -10.774  13.822  67.678  1.00  0.00    -0.256 C  
HETATM   17  N   UNL     1     -11.579  11.644  66.750  1.00  0.00    -0.526 NA 
BRANCH  17  18
HETATM   18  C   UNL     1     -10.639  10.739  67.503  1.00  0.00    -0.237 C  
BRANCH  18  19
HETATM   19  C   UNL     1     -10.511   9.200  67.097  1.00  0.00    -0.325 C  
HETATM   20  C   UNL     1      -9.996   8.057  68.127  1.00  0.00    -0.185 C  
BRANCH  20  21
HETATM   21  C   UNL     1      -8.559   7.489  68.344  1.00  0.00    -0.124 A  
HETATM   22  C   UNL     1      -5.888   6.588  68.930  1.00  0.00    -0.021 A  
HETATM   23  C   UNL     1      -8.073   7.310  69.679  1.00  0.00    -0.129 A  
HETATM   24  C   UNL     1      -6.333   6.767  67.613  1.00  0.00    -0.044 A  
HETATM   25  C   UNL     1      -7.642   7.215  67.324  1.00  0.00    -0.104 A  
HETATM   26  C   UNL     1      -6.766   6.865  69.971  1.00  0.00    -0.052 A  
ENDBRANCH  20  21
BRANCH  20  27
HETATM   27  N   UNL     1     -10.646   8.214  69.420  1.00  0.00    -0.279 N  
HETATM   28  H   UNL     1     -10.554   9.086  69.940  1.00  0.00     0.000 HD 
HETATM   29  C   UNL     1     -11.384   7.180  69.934  1.00  0.00    -0.163 C  
HETATM   30  O   UNL     1     -11.459   6.095  69.361  1.00  0.00    -0.423 OA 
BRANCH  29  31
HETATM   31  C   UNL     1     -12.003   7.401  71.307  1.00  0.00    -0.343 C  
HETATM   32  C   UNL     1     -10.672   5.692  72.585  1.00  0.00    -0.285 C  
HETATM   33  C   UNL     1     -12.072   6.168  72.214  1.00  0.00    -0.237 C  
HETATM   34  C   UNL     1      -9.832   6.795  73.207  1.00  0.00    -0.190 C  
HETATM   35  F   UNL     1      -8.566   6.354  73.391  1.00  0.00    -0.123 F  
HETATM   36  F   UNL     1     -10.325   7.085  74.440  1.00  0.00    -0.371 F  
HETATM   37  C   UNL     1      -9.799   8.066  72.393  1.00  0.00    -0.313 C  
HETATM   38  C   UNL     1     -11.214   8.505  72.021  1.00  0.00    -0.418 C  
ENDBRANCH  29  31
ENDBRANCH  20  27
ENDBRANCH  18  19
ENDBRANCH  17  18
ENDBRANCH   8  10
TORSDOF 6
ENDMDL
MODEL       77
REMARK 921   NORMALIZED FREE ENERGY PREDICTED BY IDOCK:   -6.00 KCAL/MOL
REMARK 922        TOTAL FREE ENERGY PREDICTED BY IDOCK:   -9.64 KCAL/MOL
REMARK 923 INTER-LIGAND FREE ENERGY PREDICTED BY IDOCK:   -8.33 KCAL/MOL
REMARK 924 INTRA-LIGAND FREE ENERGY PREDICTED BY IDOCK:   -1.31 KCAL/MOL
REMARK 927      BINDING AFFINITY PREDICTED BY RF-SCORE:    0.00 PKD
ROOT
HETATM    1  C   UNL     1     -10.073  14.878  68.217  1.00  0.00    -0.221 C  
HETATM    2  C   UNL     1     -10.870  13.590  67.948  1.00  0.00    -0.262 C  
HETATM    3  C   UNL     1     -11.448  13.595  66.565  1.00  0.00    -0.335 A  
HETATM    4  C   UNL     1     -12.028  13.460  68.947  1.00  0.00    -0.362 C  
HETATM    5  N   UNL     1     -12.476  14.342  66.225  1.00  0.00    -0.399 NA 
HETATM    6  N   UNL     1     -12.984  13.845  65.076  1.00  0.00    -0.752 NA 
HETATM    7  C   UNL     1     -12.211  12.866  64.657  1.00  0.00    -0.435 A  
HETATM    8  N   UNL     1     -11.132  12.740  65.515  1.00  0.00    -0.280 NA 
HETATM    9  C   UNL     1     -12.532  12.089  63.443  1.00  0.00    -0.625 C  
ENDROOT
BRANCH   8  10
HETATM   10  C   UNL     1      -9.960  11.839  65.474  1.00  0.00    -0.242 C  
HETATM   11  C   UNL     1      -8.882  12.027  66.569  1.00  0.00    -0.172 C  
HETATM   12  C   UNL     1      -8.405  10.781  67.339  1.00  0.00    -0.119 C  
HETATM   13  C   UNL     1      -7.296  10.141  66.506  1.00  0.00    -0.108 C  
HETATM   14  C   UNL     1      -8.076   9.303  65.507  1.00  0.00    -0.113 C  
HETATM   15  C   UNL     1      -9.540   9.313  66.037  1.00  0.00    -0.270 C  
HETATM   16  C   UNL     1     -10.366  10.350  65.260  1.00  0.00    -0.267 C  
HETATM   17  N   UNL     1      -9.379   9.670  67.454  1.00  0.00    -0.133 NA 
BRANCH  17  18
HETATM   18  C   UNL     1     -10.584   9.942  68.317  1.00  0.00    -0.229 C  
BRANCH  18  19
HETATM   19  C   UNL     1     -10.429  10.044  69.902  1.00  0.00    -0.317 C  
HETATM   20  C   UNL     1      -9.650   8.927  70.785  1.00  0.00    -0.229 C  
BRANCH  20  21
HETATM   21  C   UNL     1     -10.216   7.680  71.532  1.00  0.00    -0.212 A  
HETATM   22  C   UNL     1     -11.104   5.423  73.084  1.00  0.00    -0.363 A  
HETATM   23  C   UNL     1     -10.326   7.711  72.960  1.00  0.00    -0.393 A  
HETATM   24  C   UNL     1     -10.993   5.360  71.689  1.00  0.00    -0.184 A  
HETATM   25  C   UNL     1     -10.552   6.465  70.926  1.00  0.00    -0.285 A  
HETATM   26  C   UNL     1     -10.764   6.609  73.724  1.00  0.00    -0.206 A  
ENDBRANCH  20  21
BRANCH  20  27
HETATM   27  N   UNL     1      -8.390   8.570  70.149  1.00  0.00    -0.119 N  
HETATM   28  H   UNL     1      -8.381   8.192  69.202  1.00  0.00     0.000 HD 
HETATM   29  C   UNL     1      -7.215   8.746  70.832  1.00  0.00    -0.083 C  
HETATM   30  O   UNL     1      -7.201   9.139  71.997  1.00  0.00    -0.326 OA 
BRANCH  29  31
HETATM   31  C   UNL     1      -5.942   8.316  70.119  1.00  0.00    -0.028 C  
HETATM   32  C   UNL     1      -5.943   5.896  70.803  1.00  0.00    -0.029 C  
HETATM   33  C   UNL     1      -5.146   7.195  70.796  1.00  0.00    -0.023 C  
HETATM   34  C   UNL     1      -6.403   5.492  69.412  1.00  0.00    -0.030 C  
HETATM   35  F   UNL     1      -7.215   4.411  69.497  1.00  0.00    -0.047 F  
HETATM   36  F   UNL     1      -5.323   5.109  68.681  1.00  0.00    -0.003 F  
HETATM   37  C   UNL     1      -7.121   6.591  68.667  1.00  0.00    -0.083 C  
HETATM   38  C   UNL     1      -6.307   7.883  68.695  1.00  0.00    -0.048 C  
ENDBRANCH  29  31
ENDBRANCH  20  27
ENDBRANCH  18  19
ENDBRANCH  17  18
ENDBRANCH   8  10
TORSDOF 6
ENDMDL
MODEL       78
REMARK 921   NORMALIZED FREE ENERGY PREDICTED BY IDOCK:   -6.00 KCAL/MOL
REMARK 922        TOTAL FREE ENERGY PREDICTED BY IDOCK:   -9.64 KCAL/MOL
REMARK 923 INTER-LIGAND FREE ENERGY PREDICTED BY IDOCK:   -8.34 KCAL/MOL
REMARK 924 INTRA-LIGAND FREE ENERGY PREDICTED BY IDOCK:   -1.30 KCAL/MOL
REMARK 927      BINDING AFFINITY PREDICTED BY RF-SCORE:    0.00 PKD
ROOT
HETATM    1  C   UNL     1     -12.236  12.825  63.423  1.00  0.00    -0.594 C  
HETATM    2  C   UNL     1     -11.221  13.351  64.453  1.00  0.00    -0.408 C  
HETATM    3  C   UNL     1     -11.358  12.627  65.758  1.00  0.00    -0.333 A  
HETATM    4  C   UNL     1     -11.449  14.846  64.712  1.00  0.00    -0.410 C  
HETATM    5  N   UNL     1     -12.358  12.836  66.588  1.00  0.00    -0.400 NA 
HETATM    6  N   UNL     1     -11.999  12.351  67.797  1.00  0.00    -0.461 NA 
HETATM    7  C   UNL     1     -10.831  11.754  67.686  1.00  0.00    -0.217 A  
HETATM    8  N   UNL     1     -10.424  11.793  66.363  1.00  0.00    -0.228 NA 
HETATM    9  C   UNL     1     -10.150  11.161  68.854  1.00  0.00    -0.199 C  
ENDROOT
BRANCH   8  10
HETATM   10  C   UNL     1      -9.227  11.233  65.699  1.00  0.00    -0.213 C  
HETATM   11  C   UNL     1      -7.888  11.308  66.470  1.00  0.00    -0.133 C  
HETATM   12  C   UNL     1      -7.045  10.024  66.588  1.00  0.00    -0.091 C  
HETATM   13  C   UNL     1      -6.191   9.935  65.324  1.00  0.00    -0.093 C  
HETATM   14  C   UNL     1      -7.143   9.294  64.327  1.00  0.00    -0.098 C  
HETATM   15  C   UNL     1      -8.352   8.815  65.184  1.00  0.00    -0.167 C  
HETATM   16  C   UNL     1      -9.500   9.831  65.075  1.00  0.00    -0.337 C  
HETATM   17  N   UNL     1      -7.792   8.744  66.542  1.00  0.00    -0.102 NA 
BRANCH  17  18
HETATM   18  C   UNL     1      -8.682   8.463  67.724  1.00  0.00    -0.137 C  
BRANCH  18  19
HETATM   19  C   UNL     1      -9.951   7.508  67.563  1.00  0.00    -0.228 C  
HETATM   20  C   UNL     1     -10.167   6.170  68.455  1.00  0.00    -0.185 C  
BRANCH  20  21
HETATM   21  C   UNL     1      -9.779   4.692  68.140  1.00  0.00    -0.197 A  
HETATM   22  C   UNL     1      -8.925   1.970  67.751  1.00  0.00    -0.183 A  
HETATM   23  C   UNL     1      -9.578   3.776  69.223  1.00  0.00    -0.209 A  
HETATM   24  C   UNL     1      -9.100   2.849  66.673  1.00  0.00    -0.161 A  
HETATM   25  C   UNL     1      -9.514   4.187  66.863  1.00  0.00    -0.212 A  
HETATM   26  C   UNL     1      -9.164   2.441  69.036  1.00  0.00    -0.205 A  
ENDBRANCH  20  21
BRANCH  20  27
HETATM   27  N   UNL     1      -9.884   6.448  69.857  1.00  0.00    -0.166 N  
HETATM   28  H   UNL     1      -8.921   6.497  70.187  1.00  0.00     0.000 HD 
HETATM   29  C   UNL     1     -10.923   6.644  70.728  1.00  0.00    -0.270 C  
HETATM   30  O   UNL     1     -12.094   6.526  70.371  1.00  0.00    -0.360 OA 
BRANCH  29  31
HETATM   31  C   UNL     1     -10.553   6.891  72.184  1.00  0.00    -0.241 C  
HETATM   32  C   UNL     1     -10.616   4.508  72.985  1.00  0.00    -0.272 C  
HETATM   33  C   UNL     1     -11.158   5.917  73.200  1.00  0.00    -0.259 C  
HETATM   34  C   UNL     1      -9.098   4.463  73.005  1.00  0.00    -0.119 C  
HETATM   35  F   UNL     1      -8.675   3.220  72.677  1.00  0.00    -0.081 F  
HETATM   36  F   UNL     1      -8.664   4.700  74.271  1.00  0.00    -0.105 F  
HETATM   37  C   UNL     1      -8.448   5.465  72.081  1.00  0.00    -0.126 C  
HETATM   38  C   UNL     1      -9.026   6.861  72.307  1.00  0.00    -0.142 C  
ENDBRANCH  29  31
ENDBRANCH  20  27
ENDBRANCH  18  19
ENDBRANCH  17  18
ENDBRANCH   8  10
TORSDOF 6
ENDMDL
MODEL       79
REMARK 921   NORMALIZED FREE ENERGY PREDICTED BY IDOCK:   -5.95 KCAL/MOL
REMARK 922        TOTAL FREE ENERGY PREDICTED BY IDOCK:   -9.58 KCAL/MOL
REMARK 923 INTER-LIGAND FREE ENERGY PREDICTED BY IDOCK:   -8.41 KCAL/MOL
REMARK 924 INTRA-LIGAND FREE ENERGY PREDICTED BY IDOCK:   -1.17 KCAL/MOL
REMARK 927      BINDING AFFINITY PREDICTED BY RF-SCORE:    0.00 PKD
ROOT
HETATM    1  C   UNL     1      -8.511  20.139  68.242  1.00  0.00    -0.080 C  
HETATM    2  C   UNL     1      -9.697  19.451  67.543  1.00  0.00    -0.432 C  
HETATM    3  C   UNL     1      -9.343  18.052  67.138  1.00  0.00    -0.259 A  
HETATM    4  C   UNL     1     -10.097  20.226  66.280  1.00  0.00    -0.460 C  
HETATM    5  N   UNL     1      -8.548  17.784  66.124  1.00  0.00    -0.488 NA 
HETATM    6  N   UNL     1      -8.738  16.490  65.782  1.00  0.00    -0.420 NA 
HETATM    7  C   UNL     1      -9.565  15.940  66.646  1.00  0.00    -0.246 A  
HETATM    8  N   UNL     1      -9.893  16.869  67.617  1.00  0.00    -0.254 NA 
HETATM    9  C   UNL     1     -10.006  14.537  66.509  1.00  0.00    -0.290 C  
ENDROOT
BRANCH   8  10
HETATM   10  C   UNL     1     -10.736  16.751  68.826  1.00  0.00    -0.341 C  
HETATM   11  C   UNL     1     -12.154  16.157  68.648  1.00  0.00     0.261 C  
HETATM   12  C   UNL     1     -12.591  15.026  69.598  1.00  0.00    -0.064 C  
HETATM   13  C   UNL     1     -13.143  15.690  70.858  1.00  0.00    -0.425 C  
HETATM   14  C   UNL     1     -11.885  15.966  71.664  1.00  0.00    -0.565 C  
HETATM   15  C   UNL     1     -10.761  15.180  70.926  1.00  0.00    -0.015 C  
HETATM   16  C   UNL     1      -9.960  16.138  70.030  1.00  0.00     0.137 C  
HETATM   17  N   UNL     1     -11.507  14.179  70.150  1.00  0.00    -0.210 NA 
BRANCH  17  18
HETATM   18  C   UNL     1     -10.798  13.294  69.159  1.00  0.00    -0.104 C  
BRANCH  18  19
HETATM   19  C   UNL     1     -11.606  12.165  68.371  1.00  0.00    -0.381 C  
HETATM   20  C   UNL     1     -10.878  11.027  67.470  1.00  0.00    -0.263 C  
BRANCH  20  21
HETATM   21  C   UNL     1     -10.571  11.017  65.940  1.00  0.00    -0.270 A  
HETATM   22  C   UNL     1     -10.236  11.031  63.080  1.00  0.00    -0.300 A  
HETATM   23  C   UNL     1     -11.311  11.885  65.073  1.00  0.00    -0.333 A  
HETATM   24  C   UNL     1      -9.509  10.160  63.903  1.00  0.00    -0.332 A  
HETATM   25  C   UNL     1      -9.676  10.149  65.307  1.00  0.00    -0.365 A  
HETATM   26  C   UNL     1     -11.147  11.898  63.672  1.00  0.00    -0.517 A  
ENDBRANCH  20  21
BRANCH  20  27
HETATM   27  N   UNL     1      -9.742  10.466  68.188  1.00  0.00    -0.149 N  
HETATM   28  H   UNL     1      -8.797  10.792  67.988  1.00  0.00     0.000 HD 
HETATM   29  C   UNL     1      -9.953   9.497  69.133  1.00  0.00    -0.183 C  
HETATM   30  O   UNL     1     -11.075   9.040  69.347  1.00  0.00    -0.132 OA 
BRANCH  29  31
HETATM   31  C   UNL     1      -8.717   8.930  69.814  1.00  0.00    -0.139 C  
HETATM   32  C   UNL     1      -9.297   6.489  69.648  1.00  0.00    -0.144 C  
HETATM   33  C   UNL     1      -8.923   7.626  70.592  1.00  0.00    -0.153 C  
HETATM   34  C   UNL     1      -8.290   6.314  68.524  1.00  0.00    -0.115 C  
HETATM   35  F   UNL     1      -8.741   5.386  67.648  1.00  0.00    -0.109 F  
HETATM   36  F   UNL     1      -7.129   5.830  69.041  1.00  0.00    -0.060 F  
HETATM   37  C   UNL     1      -7.986   7.591  67.778  1.00  0.00    -0.118 C  
HETATM   38  C   UNL     1      -7.634   8.714  68.751  1.00  0.00    -0.096 C  
ENDBRANCH  29  31
ENDBRANCH  20  27
ENDBRANCH  18  19
ENDBRANCH  17  18
ENDBRANCH   8  10
TORSDOF 6
ENDMDL
MODEL       80
REMARK 921   NORMALIZED FREE ENERGY PREDICTED BY IDOCK:   -5.95 KCAL/MOL
REMARK 922        TOTAL FREE ENERGY PREDICTED BY IDOCK:   -9.57 KCAL/MOL
REMARK 923 INTER-LIGAND FREE ENERGY PREDICTED BY IDOCK:   -7.56 KCAL/MOL
REMARK 924 INTRA-LIGAND FREE ENERGY PREDICTED BY IDOCK:   -2.01 KCAL/MOL
REMARK 927      BINDING AFFINITY PREDICTED BY RF-SCORE:    0.00 PKD
ROOT
HETATM    1  C   UNL     1     -10.317  18.886  66.040  1.00  0.00    -0.485 C  
HETATM    2  C   UNL     1     -10.758  17.413  66.108  1.00  0.00    -0.100 C  
HETATM    3  C   UNL     1      -9.663  16.550  66.658  1.00  0.00    -0.260 A  
HETATM    4  C   UNL     1     -11.113  16.896  64.707  1.00  0.00     0.094 C  
HETATM    5  N   UNL     1      -8.591  16.230  65.965  1.00  0.00    -0.372 NA 
HETATM    6  N   UNL     1      -8.014  15.166  66.565  1.00  0.00     0.122 NA 
HETATM    7  C   UNL     1      -8.667  14.899  67.676  1.00  0.00    -0.175 A  
HETATM    8  N   UNL     1      -9.669  15.838  67.852  1.00  0.00    -0.215 NA 
HETATM    9  C   UNL     1      -8.301  13.754  68.534  1.00  0.00    -0.120 C  
ENDROOT
BRANCH   8  10
HETATM   10  C   UNL     1     -10.646  16.021  68.947  1.00  0.00    -0.257 C  
HETATM   11  C   UNL     1     -12.100  15.561  68.685  1.00  0.00    -0.107 C  
HETATM   12  C   UNL     1     -12.777  14.662  69.737  1.00  0.00    -0.015 C  
HETATM   13  C   UNL     1     -13.373  15.588  70.796  1.00  0.00    -0.315 C  
HETATM   14  C   UNL     1     -12.184  15.861  71.703  1.00  0.00    -0.544 C  
HETATM   15  C   UNL     1     -11.096  14.844  71.247  1.00  0.00    -0.021 C  
HETATM   16  C   UNL     1     -10.088  15.543  70.322  1.00  0.00    -0.056 C  
HETATM   17  N   UNL     1     -11.876  13.811  70.550  1.00  0.00    -0.269 NA 
BRANCH  17  18
HETATM   18  C   UNL     1     -11.182  12.698  69.809  1.00  0.00     0.075 C  
BRANCH  18  19
HETATM   19  C   UNL     1     -11.997  11.790  68.780  1.00  0.00    -0.317 C  
HETATM   20  C   UNL     1     -11.392  11.320  67.349  1.00  0.00    -0.276 C  
BRANCH  20  21
HETATM   21  C   UNL     1     -11.540  11.980  65.943  1.00  0.00    -0.364 A  
HETATM   22  C   UNL     1     -12.016  13.292  63.424  1.00  0.00    -0.491 A  
HETATM   23  C   UNL     1     -12.102  13.293  65.843  1.00  0.00    -0.493 A  
HETATM   24  C   UNL     1     -11.477  12.000  63.492  1.00  0.00    -0.536 A  
HETATM   25  C   UNL     1     -11.248  11.352  64.727  1.00  0.00    -0.197 A  
HETATM   26  C   UNL     1     -12.333  13.942  64.611  1.00  0.00    -0.421 A  
ENDBRANCH  20  21
BRANCH  20  27
HETATM   27  N   UNL     1     -10.025  10.845  67.511  1.00  0.00    -0.172 N  
HETATM   28  H   UNL     1      -9.265  11.508  67.659  1.00  0.00     0.000 HD 
HETATM   29  C   UNL     1      -9.768   9.501  67.464  1.00  0.00    -0.155 C  
HETATM   30  O   UNL     1     -10.654   8.683  67.222  1.00  0.00    -0.291 OA 
BRANCH  29  31
HETATM   31  C   UNL     1      -8.312   9.080  67.602  1.00  0.00    -0.117 C  
HETATM   32  C   UNL     1      -7.901   8.400  65.216  1.00  0.00    -0.111 C  
HETATM   33  C   UNL     1      -7.852   7.952  66.673  1.00  0.00    -0.102 C  
HETATM   34  C   UNL     1      -7.112   9.676  64.977  1.00  0.00    -0.116 C  
HETATM   35  F   UNL     1      -7.301  10.096  63.703  1.00  0.00    -0.134 F  
HETATM   36  F   UNL     1      -5.786   9.408  65.104  1.00  0.00    -0.053 F  
HETATM   37  C   UNL     1      -7.468  10.797  65.924  1.00  0.00    -0.099 C  
HETATM   38  C   UNL     1      -7.428  10.312  67.372  1.00  0.00    -0.094 C  
ENDBRANCH  29  31
ENDBRANCH  20  27
ENDBRANCH  18  19
ENDBRANCH  17  18
ENDBRANCH   8  10
TORSDOF 6
ENDMDL
MODEL       81
REMARK 921   NORMALIZED FREE ENERGY PREDICTED BY IDOCK:   -5.94 KCAL/MOL
REMARK 922        TOTAL FREE ENERGY PREDICTED BY IDOCK:   -9.56 KCAL/MOL
REMARK 923 INTER-LIGAND FREE ENERGY PREDICTED BY IDOCK:   -8.30 KCAL/MOL
REMARK 924 INTRA-LIGAND FREE ENERGY PREDICTED BY IDOCK:   -1.26 KCAL/MOL
REMARK 927      BINDING AFFINITY PREDICTED BY RF-SCORE:    0.00 PKD
ROOT
HETATM    1  C   UNL     1     -10.437  13.322  68.903  1.00  0.00    -0.123 C  
HETATM    2  C   UNL     1     -10.909  12.104  68.089  1.00  0.00    -0.256 C  
HETATM    3  C   UNL     1     -11.458  12.528  66.760  1.00  0.00    -0.362 A  
HETATM    4  C   UNL     1     -12.016  11.354  68.843  1.00  0.00    -0.371 C  
HETATM    5  N   UNL     1     -12.629  13.113  66.626  1.00  0.00    -0.184 NA 
HETATM    6  N   UNL     1     -12.995  13.010  65.329  1.00  0.00    -0.710 NA 
HETATM    7  C   UNL     1     -12.010  12.459  64.652  1.00  0.00    -0.394 A  
HETATM    8  N   UNL     1     -10.941  12.238  65.502  1.00  0.00    -0.289 NA 
HETATM    9  C   UNL     1     -12.130  12.169  63.208  1.00  0.00    -0.512 C  
ENDROOT
BRANCH   8  10
HETATM   10  C   UNL     1      -9.591  11.694  65.242  1.00  0.00    -0.197 C  
HETATM   11  C   UNL     1      -8.580  11.713  66.413  1.00  0.00    -0.143 C  
HETATM   12  C   UNL     1      -7.820  10.413  66.738  1.00  0.00    -0.117 C  
HETATM   13  C   UNL     1      -6.597  10.373  65.823  1.00  0.00    -0.126 C  
HETATM   14  C   UNL     1      -7.165   9.794  64.537  1.00  0.00    -0.128 C  
HETATM   15  C   UNL     1      -8.588   9.292  64.924  1.00  0.00    -0.181 C  
HETATM   16  C   UNL     1      -9.639  10.327  64.494  1.00  0.00    -0.378 C  
HETATM   17  N   UNL     1      -8.506   9.148  66.385  1.00  0.00    -0.121 NA 
BRANCH  17  18
HETATM   18  C   UNL     1      -9.735   8.822  67.192  1.00  0.00    -0.191 C  
BRANCH  18  19
HETATM   19  C   UNL     1     -10.609   7.535  66.838  1.00  0.00    -0.367 C  
HETATM   20  C   UNL     1     -10.155   6.026  67.229  1.00  0.00    -0.169 C  
BRANCH  20  21
HETATM   21  C   UNL     1      -9.372   4.974  66.383  1.00  0.00    -0.145 A  
HETATM   22  C   UNL     1      -8.027   3.128  64.629  1.00  0.00    -0.082 A  
HETATM   23  C   UNL     1      -8.855   5.353  65.102  1.00  0.00    -0.111 A  
HETATM   24  C   UNL     1      -8.535   2.727  65.872  1.00  0.00    -0.103 A  
HETATM   25  C   UNL     1      -9.200   3.631  66.732  1.00  0.00    -0.198 A  
HETATM   26  C   UNL     1      -8.192   4.452  64.241  1.00  0.00    -0.101 A  
ENDBRANCH  20  21
BRANCH  20  27
HETATM   27  N   UNL     1      -9.677   5.983  68.603  1.00  0.00    -0.124 N  
HETATM   28  H   UNL     1      -8.684   5.857  68.798  1.00  0.00     0.000 HD 
HETATM   29  C   UNL     1     -10.571   6.115  69.633  1.00  0.00    -0.284 C  
HETATM   30  O   UNL     1     -11.781   6.203  69.428  1.00  0.00    -0.248 OA 
BRANCH  29  31
HETATM   31  C   UNL     1     -10.005   6.022  71.042  1.00  0.00    -0.230 C  
HETATM   32  C   UNL     1      -8.016   7.530  70.736  1.00  0.00    -0.103 C  
HETATM   33  C   UNL     1      -8.482   6.141  71.158  1.00  0.00    -0.125 C  
HETATM   34  C   UNL     1      -8.722   8.635  71.503  1.00  0.00    -0.202 C  
HETATM   35  F   UNL     1      -8.369   9.839  70.996  1.00  0.00    -0.134 F  
HETATM   36  F   UNL     1      -8.298   8.619  72.795  1.00  0.00    -0.231 F  
HETATM   37  C   UNL     1     -10.227   8.516  71.492  1.00  0.00    -0.320 C  
HETATM   38  C   UNL     1     -10.660   7.110  71.900  1.00  0.00    -0.238 C  
ENDBRANCH  29  31
ENDBRANCH  20  27
ENDBRANCH  18  19
ENDBRANCH  17  18
ENDBRANCH   8  10
TORSDOF 6
ENDMDL
MODEL       82
REMARK 921   NORMALIZED FREE ENERGY PREDICTED BY IDOCK:   -5.94 KCAL/MOL
REMARK 922        TOTAL FREE ENERGY PREDICTED BY IDOCK:   -9.56 KCAL/MOL
REMARK 923 INTER-LIGAND FREE ENERGY PREDICTED BY IDOCK:   -7.83 KCAL/MOL
REMARK 924 INTRA-LIGAND FREE ENERGY PREDICTED BY IDOCK:   -1.73 KCAL/MOL
REMARK 927      BINDING AFFINITY PREDICTED BY RF-SCORE:    0.00 PKD
ROOT
HETATM    1  C   UNL     1      -5.870  11.041  66.862  1.00  0.00    -0.083 C  
HETATM    2  C   UNL     1      -7.078  11.036  67.816  1.00  0.00    -0.086 C  
HETATM    3  C   UNL     1      -8.209  11.843  67.254  1.00  0.00    -0.170 A  
HETATM    4  C   UNL     1      -6.689  11.641  69.172  1.00  0.00    -0.109 C  
HETATM    5  N   UNL     1      -8.198  13.159  67.221  1.00  0.00    -0.184 NA 
HETATM    6  N   UNL     1      -9.470  13.577  67.034  1.00  0.00    -0.243 NA 
HETATM    7  C   UNL     1     -10.239  12.526  66.847  1.00  0.00    -0.226 A  
HETATM    8  N   UNL     1      -9.459  11.383  66.857  1.00  0.00    -0.177 NA 
HETATM    9  C   UNL     1     -11.699  12.657  66.662  1.00  0.00    -0.464 C  
ENDROOT
BRANCH   8  10
HETATM   10  C   UNL     1      -9.815   9.963  66.646  1.00  0.00    -0.207 C  
HETATM   11  C   UNL     1      -8.672   8.995  66.259  1.00  0.00    -0.155 C  
HETATM   12  C   UNL     1      -8.534   7.681  67.052  1.00  0.00    -0.125 C  
HETATM   13  C   UNL     1      -9.471   6.667  66.399  1.00  0.00    -0.166 C  
HETATM   14  C   UNL     1     -10.808   6.990  67.045  1.00  0.00    -0.413 C  
HETATM   15  C   UNL     1     -10.461   7.961  68.212  1.00  0.00    -0.164 C  
HETATM   16  C   UNL     1     -10.732   9.410  67.779  1.00  0.00    -0.290 C  
HETATM   17  N   UNL     1      -9.033   7.702  68.447  1.00  0.00    -0.129 NA 
BRANCH  17  18
HETATM   18  C   UNL     1      -8.249   8.555  69.410  1.00  0.00    -0.114 C  
BRANCH  18  19
HETATM   19  C   UNL     1      -8.814   8.836  70.876  1.00  0.00    -0.243 C  
HETATM   20  C   UNL     1      -9.933   7.897  71.584  1.00  0.00    -0.181 C  
BRANCH  20  21
HETATM   21  C   UNL     1     -11.485   8.054  71.617  1.00  0.00    -0.310 A  
HETATM   22  C   UNL     1     -14.320   8.493  71.858  1.00  0.00    -0.536 A  
HETATM   23  C   UNL     1     -12.052   9.334  71.919  1.00  0.00    -0.440 A  
HETATM   24  C   UNL     1     -13.793   7.226  71.575  1.00  0.00    -0.463 A  
HETATM   25  C   UNL     1     -12.401   7.008  71.462  1.00  0.00    -0.420 A  
HETATM   26  C   UNL     1     -13.441   9.554  72.035  1.00  0.00    -0.522 A  
ENDBRANCH  20  21
BRANCH  20  27
HETATM   27  N   UNL     1      -9.599   6.492  71.403  1.00  0.00    -0.165 N  
HETATM   28  H   UNL     1      -9.863   6.008  70.545  1.00  0.00     0.000 HD 
HETATM   29  C   UNL     1      -8.928   5.824  72.393  1.00  0.00    -0.141 C  
HETATM   30  O   UNL     1      -8.656   6.364  73.463  1.00  0.00    -0.123 OA 
BRANCH  29  31
HETATM   31  C   UNL     1      -8.648   4.348  72.150  1.00  0.00    -0.119 C  
HETATM   32  C   UNL     1      -9.128   4.288  69.682  1.00  0.00    -0.179 C  
HETATM   33  C   UNL     1      -9.472   3.687  71.040  1.00  0.00    -0.234 C  
HETATM   34  C   UNL     1      -7.639   4.228  69.383  1.00  0.00    -0.054 C  
HETATM   35  F   UNL     1      -7.379   4.892  68.232  1.00  0.00    -0.062 F  
HETATM   36  F   UNL     1      -7.282   2.933  69.173  1.00  0.00    -0.043 F  
HETATM   37  C   UNL     1      -6.775   4.791  70.485  1.00  0.00    -0.036 C  
HETATM   38  C   UNL     1      -7.157   4.184  71.833  1.00  0.00    -0.050 C  
ENDBRANCH  29  31
ENDBRANCH  20  27
ENDBRANCH  18  19
ENDBRANCH  17  18
ENDBRANCH   8  10
TORSDOF 6
ENDMDL
MODEL       83
REMARK 921   NORMALIZED FREE ENERGY PREDICTED BY IDOCK:   -5.89 KCAL/MOL
REMARK 922        TOTAL FREE ENERGY PREDICTED BY IDOCK:   -9.49 KCAL/MOL
REMARK 923 INTER-LIGAND FREE ENERGY PREDICTED BY IDOCK:   -9.00 KCAL/MOL
REMARK 924 INTRA-LIGAND FREE ENERGY PREDICTED BY IDOCK:   -0.49 KCAL/MOL
REMARK 927      BINDING AFFINITY PREDICTED BY RF-SCORE:    0.00 PKD
ROOT
HETATM    1  C   UNL     1      -8.042  16.955  66.082  1.00  0.00    -0.295 C  
HETATM    2  C   UNL     1      -8.329  15.606  66.763  1.00  0.00    -0.313 C  
HETATM    3  C   UNL     1      -9.346  15.760  67.853  1.00  0.00    -0.200 A  
HETATM    4  C   UNL     1      -7.046  15.038  67.386  1.00  0.00    -0.206 C  
HETATM    5  N   UNL     1      -9.070  16.322  69.010  1.00  0.00    -0.255 NA 
HETATM    6  N   UNL     1     -10.038  15.965  69.883  1.00  0.00    -0.246 NA 
HETATM    7  C   UNL     1     -10.957  15.276  69.240  1.00  0.00    -0.261 A  
HETATM    8  N   UNL     1     -10.624  15.216  67.898  1.00  0.00    -0.253 NA 
HETATM    9  C   UNL     1     -12.125  14.703  69.938  1.00  0.00    -0.385 C  
ENDROOT
BRANCH   8  10
HETATM   10  C   UNL     1     -11.333  14.612  66.749  1.00  0.00    -0.356 C  
HETATM   11  C   UNL     1     -10.610  14.630  65.381  1.00  0.00    -0.390 C  
HETATM   12  C   UNL     1     -10.528  13.313  64.586  1.00  0.00    -0.402 C  
HETATM   13  C   UNL     1     -11.821  13.197  63.782  1.00  0.00    -0.546 C  
HETATM   14  C   UNL     1     -12.786  12.599  64.793  1.00  0.00    -0.460 C  
HETATM   15  C   UNL     1     -11.888  12.164  65.989  1.00  0.00    -0.257 C  
HETATM   16  C   UNL     1     -11.952  13.225  67.099  1.00  0.00    -0.400 C  
HETATM   17  N   UNL     1     -10.552  12.064  65.384  1.00  0.00    -0.268 NA 
BRANCH  17  18
HETATM   18  C   UNL     1      -9.340  11.812  66.242  1.00  0.00    -0.225 C  
BRANCH  18  19
HETATM   19  C   UNL     1      -9.387  12.118  67.807  1.00  0.00    -0.193 C  
HETATM   20  C   UNL     1      -9.389  10.950  68.935  1.00  0.00    -0.160 C  
BRANCH  20  21
HETATM   21  C   UNL     1     -10.592  10.262  69.651  1.00  0.00    -0.288 A  
HETATM   22  C   UNL     1     -12.833   9.189  71.106  1.00  0.00    -0.251 A  
HETATM   23  C   UNL     1     -11.714  11.058  70.051  1.00  0.00    -0.437 A  
HETATM   24  C   UNL     1     -11.741   8.390  70.740  1.00  0.00    -0.219 A  
HETATM   25  C   UNL     1     -10.638   8.917  70.031  1.00  0.00    -0.234 A  
HETATM   26  C   UNL     1     -12.816  10.535  70.761  1.00  0.00    -0.454 A  
ENDBRANCH  20  21
BRANCH  20  27
HETATM   27  N   UNL     1      -8.384   9.945  68.619  1.00  0.00    -0.106 N  
HETATM   28  H   UNL     1      -8.491   9.351  67.797  1.00  0.00     0.000 HD 
HETATM   29  C   UNL     1      -7.293   9.802  69.436  1.00  0.00    -0.087 C  
HETATM   30  O   UNL     1      -7.172  10.458  70.469  1.00  0.00    -0.276 OA 
BRANCH  29  31
HETATM   31  C   UNL     1      -6.305   8.705  69.066  1.00  0.00    -0.044 C  
HETATM   32  C   UNL     1      -6.857   7.082  70.907  1.00  0.00    -0.054 C  
HETATM   33  C   UNL     1      -5.749   7.887  70.237  1.00  0.00    -0.023 C  
HETATM   34  C   UNL     1      -7.612   6.206  69.922  1.00  0.00    -0.088 C  
HETATM   35  F   UNL     1      -8.662   5.621  70.545  1.00  0.00    -0.126 F  
HETATM   36  F   UNL     1      -6.797   5.199  69.509  1.00  0.00    -0.045 F  
HETATM   37  C   UNL     1      -8.110   6.948  68.705  1.00  0.00    -0.121 C  
HETATM   38  C   UNL     1      -6.982   7.759  68.069  1.00  0.00    -0.080 C  
ENDBRANCH  29  31
ENDBRANCH  20  27
ENDBRANCH  18  19
ENDBRANCH  17  18
ENDBRANCH   8  10
TORSDOF 6
ENDMDL
MODEL       84
REMARK 921   NORMALIZED FREE ENERGY PREDICTED BY IDOCK:   -5.88 KCAL/MOL
REMARK 922        TOTAL FREE ENERGY PREDICTED BY IDOCK:   -9.48 KCAL/MOL
REMARK 923 INTER-LIGAND FREE ENERGY PREDICTED BY IDOCK:   -7.47 KCAL/MOL
REMARK 924 INTRA-LIGAND FREE ENERGY PREDICTED BY IDOCK:   -2.01 KCAL/MOL
REMARK 927      BINDING AFFINITY PREDICTED BY RF-SCORE:    0.00 PKD
ROOT
HETATM    1  C   UNL     1     -10.344  18.751  66.233  1.00  0.00    -0.497 C  
HETATM    2  C   UNL     1     -10.762  17.270  66.257  1.00  0.00    -0.077 C  
HETATM    3  C   UNL     1      -9.688  16.419  66.863  1.00  0.00    -0.251 A  
HETATM    4  C   UNL     1     -11.022  16.765  64.831  1.00  0.00    -0.099 C  
HETATM    5  N   UNL     1      -8.570  16.126  66.233  1.00  0.00    -0.330 NA 
HETATM    6  N   UNL     1      -8.012  15.064  66.855  1.00  0.00    -0.153 NA 
HETATM    7  C   UNL     1      -8.727  14.772  67.921  1.00  0.00    -0.167 A  
HETATM    8  N   UNL     1      -9.754  15.692  68.046  1.00  0.00    -0.204 NA 
HETATM    9  C   UNL     1      -8.394  13.622  68.786  1.00  0.00     0.041 C  
ENDROOT
BRANCH   8  10
HETATM   10  C   UNL     1     -10.799  15.844  69.081  1.00  0.00    -0.268 C  
HETATM   11  C   UNL     1     -12.223  15.352  68.730  1.00  0.00    -0.061 C  
HETATM   12  C   UNL     1     -12.941  14.431  69.735  1.00  0.00     0.371 C  
HETATM   13  C   UNL     1     -13.622  15.336  70.760  1.00  0.00    -0.313 C  
HETATM   14  C   UNL     1     -12.496  15.631  71.738  1.00  0.00    -0.507 C  
HETATM   15  C   UNL     1     -11.359  14.643  71.344  1.00  0.00     0.074 C  
HETATM   16  C   UNL     1     -10.314  15.372  70.485  1.00  0.00    -0.040 C  
HETATM   17  N   UNL     1     -12.070  13.596  70.596  1.00  0.00    -0.344 NA 
BRANCH  17  18
HETATM   18  C   UNL     1     -11.307  12.505  69.893  1.00  0.00     0.023 C  
BRANCH  18  19
HETATM   19  C   UNL     1     -12.035  11.586  68.811  1.00  0.00    -0.335 C  
HETATM   20  C   UNL     1     -11.343  11.162  67.405  1.00  0.00    -0.255 C  
BRANCH  20  21
HETATM   21  C   UNL     1     -11.446  11.840  66.003  1.00  0.00    -0.281 A  
HETATM   22  C   UNL     1     -11.857  13.150  63.472  1.00  0.00    -0.539 A  
HETATM   23  C   UNL     1     -12.192  13.055  65.867  1.00  0.00    -0.493 A  
HETATM   24  C   UNL     1     -11.134  11.954  63.574  1.00  0.00    -0.506 A  
HETATM   25  C   UNL     1     -10.936  11.307  64.815  1.00  0.00    -0.262 A  
HETATM   26  C   UNL     1     -12.393  13.702  64.630  1.00  0.00    -0.413 A  
ENDBRANCH  20  21
BRANCH  20  27
HETATM   27  N   UNL     1      -9.970  10.734  67.628  1.00  0.00    -0.170 N  
HETATM   28  H   UNL     1      -9.241  11.423  67.813  1.00  0.00     0.000 HD 
HETATM   29  C   UNL     1      -9.663   9.400  67.587  1.00  0.00    -0.155 C  
HETATM   30  O   UNL     1     -10.509   8.553  67.301  1.00  0.00    -0.276 OA 
BRANCH  29  31
HETATM   31  C   UNL     1      -8.201   9.030  67.791  1.00  0.00    -0.109 C  
HETATM   32  C   UNL     1      -7.886  10.036  70.074  1.00  0.00    -0.172 C  
HETATM   33  C   UNL     1      -7.378  10.007  68.637  1.00  0.00    -0.081 C  
HETATM   34  C   UNL     1      -7.928   8.653  70.701  1.00  0.00    -0.110 C  
HETATM   35  F   UNL     1      -8.510   8.724  71.922  1.00  0.00    -0.209 F  
HETATM   36  F   UNL     1      -6.655   8.219  70.902  1.00  0.00    -0.036 F  
HETATM   37  C   UNL     1      -8.657   7.629  69.865  1.00  0.00    -0.138 C  
HETATM   38  C   UNL     1      -8.139   7.638  68.428  1.00  0.00    -0.124 C  
ENDBRANCH  29  31
ENDBRANCH  20  27
ENDBRANCH  18  19
ENDBRANCH  17  18
ENDBRANCH   8  10
TORSDOF 6
ENDMDL
MODEL       85
REMARK 921   NORMALIZED FREE ENERGY PREDICTED BY IDOCK:   -5.88 KCAL/MOL
REMARK 922        TOTAL FREE ENERGY PREDICTED BY IDOCK:   -9.48 KCAL/MOL
REMARK 923 INTER-LIGAND FREE ENERGY PREDICTED BY IDOCK:   -8.07 KCAL/MOL
REMARK 924 INTRA-LIGAND FREE ENERGY PREDICTED BY IDOCK:   -1.41 KCAL/MOL
REMARK 927      BINDING AFFINITY PREDICTED BY RF-SCORE:    0.00 PKD
ROOT
HETATM    1  C   UNL     1     -11.886   8.404  72.407  1.00  0.00    -0.452 C  
HETATM    2  C   UNL     1     -10.551   7.692  72.125  1.00  0.00    -0.281 C  
HETATM    3  C   UNL     1     -10.632   6.239  72.483  1.00  0.00    -0.212 A  
HETATM    4  C   UNL     1      -9.424   8.324  72.953  1.00  0.00    -0.321 C  
HETATM    5  N   UNL     1     -10.636   5.811  73.728  1.00  0.00    -0.267 NA 
HETATM    6  N   UNL     1     -10.326   4.495  73.712  1.00  0.00    -0.183 NA 
HETATM    7  C   UNL     1     -10.237   4.095  72.461  1.00  0.00    -0.174 A  
HETATM    8  N   UNL     1     -10.545   5.151  71.622  1.00  0.00    -0.192 NA 
HETATM    9  C   UNL     1      -9.862   2.709  72.117  1.00  0.00    -0.235 C  
ENDROOT
BRANCH   8  10
HETATM   10  C   UNL     1     -10.641   5.224  70.148  1.00  0.00    -0.227 C  
HETATM   11  C   UNL     1     -11.383   6.440  69.544  1.00  0.00    -0.460 C  
HETATM   12  C   UNL     1     -10.687   7.229  68.419  1.00  0.00    -0.121 C  
HETATM   13  C   UNL     1     -11.011   6.514  67.108  1.00  0.00    -0.480 C  
HETATM   14  C   UNL     1      -9.967   5.411  67.066  1.00  0.00    -0.204 C  
HETATM   15  C   UNL     1      -8.966   5.768  68.205  1.00  0.00    -0.114 C  
HETATM   16  C   UNL     1      -9.278   4.927  69.453  1.00  0.00    -0.160 C  
HETATM   17  N   UNL     1      -9.205   7.203  68.420  1.00  0.00    -0.134 NA 
BRANCH  17  18
HETATM   18  C   UNL     1      -8.539   7.927  69.561  1.00  0.00    -0.137 C  
BRANCH  18  19
HETATM   19  C   UNL     1      -7.694   9.253  69.286  1.00  0.00    -0.081 C  
HETATM   20  C   UNL     1      -7.778  10.077  67.890  1.00  0.00    -0.090 C  
BRANCH  20  21
HETATM   21  C   UNL     1      -6.879   9.971  66.618  1.00  0.00    -0.082 A  
HETATM   22  C   UNL     1      -5.186   9.548  64.328  1.00  0.00    -0.060 A  
HETATM   23  C   UNL     1      -6.898   8.764  65.848  1.00  0.00    -0.068 A  
HETATM   24  C   UNL     1      -5.137  10.735  65.072  1.00  0.00    -0.141 A  
HETATM   25  C   UNL     1      -5.964  10.942  66.200  1.00  0.00    -0.141 A  
HETATM   26  C   UNL     1      -6.073   8.554  64.723  1.00  0.00    -0.064 A  
ENDBRANCH  20  21
BRANCH  20  27
HETATM   27  N   UNL     1      -9.166  10.236  67.480  1.00  0.00    -0.141 N  
HETATM   28  H   UNL     1      -9.641   9.488  66.976  1.00  0.00     0.000 HD 
HETATM   29  C   UNL     1      -9.829  11.396  67.779  1.00  0.00    -0.175 C  
HETATM   30  O   UNL     1      -9.262  12.339  68.328  1.00  0.00    -0.196 OA 
BRANCH  29  31
HETATM   31  C   UNL     1     -11.264  11.507  67.286  1.00  0.00    -0.365 C  
HETATM   32  C   UNL     1     -11.271  13.961  66.734  1.00  0.00    -0.328 C  
HETATM   33  C   UNL     1     -11.952  12.855  67.532  1.00  0.00    -0.354 C  
HETATM   34  C   UNL     1     -11.190  13.638  65.251  1.00  0.00    -0.299 C  
HETATM   35  F   UNL     1     -10.462  14.588  64.618  1.00  0.00    -0.415 F  
HETATM   36  F   UNL     1     -12.440  13.688  64.718  1.00  0.00    -0.397 F  
HETATM   37  C   UNL     1     -10.597  12.282  64.956  1.00  0.00    -0.322 C  
HETATM   38  C   UNL     1     -11.286  11.200  65.784  1.00  0.00    -0.001 C  
ENDBRANCH  29  31
ENDBRANCH  20  27
ENDBRANCH  18  19
ENDBRANCH  17  18
ENDBRANCH   8  10
TORSDOF 6
ENDMDL
MODEL       86
REMARK 921   NORMALIZED FREE ENERGY PREDICTED BY IDOCK:   -5.87 KCAL/MOL
REMARK 922        TOTAL FREE ENERGY PREDICTED BY IDOCK:   -9.47 KCAL/MOL
REMARK 923 INTER-LIGAND FREE ENERGY PREDICTED BY IDOCK:   -7.97 KCAL/MOL
REMARK 924 INTRA-LIGAND FREE ENERGY PREDICTED BY IDOCK:   -1.49 KCAL/MOL
REMARK 927      BINDING AFFINITY PREDICTED BY RF-SCORE:    0.00 PKD
ROOT
HETATM    1  C   UNL     1      -5.666  10.857  65.830  1.00  0.00    -0.142 C  
HETATM    2  C   UNL     1      -6.223  11.260  67.207  1.00  0.00    -0.081 C  
HETATM    3  C   UNL     1      -6.224  12.750  67.370  1.00  0.00    -0.129 A  
HETATM    4  C   UNL     1      -5.365  10.659  68.328  1.00  0.00    -0.033 C  
HETATM    5  N   UNL     1      -5.125  13.445  67.575  1.00  0.00    -0.324 NA 
HETATM    6  N   UNL     1      -5.486  14.655  68.058  1.00  0.00    -0.150 NA 
HETATM    7  C   UNL     1      -6.800  14.740  68.050  1.00  0.00    -0.140 A  
HETATM    8  N   UNL     1      -7.328  13.585  67.500  1.00  0.00    -0.174 NA 
HETATM    9  C   UNL     1      -7.501  15.932  68.567  1.00  0.00    -0.139 C  
ENDROOT
BRANCH   8  10
HETATM   10  C   UNL     1      -8.727  13.196  67.219  1.00  0.00    -0.210 C  
HETATM   11  C   UNL     1      -8.951  11.948  66.332  1.00  0.00    -0.180 C  
HETATM   12  C   UNL     1      -9.931  10.869  66.832  1.00  0.00    -0.194 C  
HETATM   13  C   UNL     1     -11.329  11.301  66.394  1.00  0.00    -0.090 C  
HETATM   14  C   UNL     1     -11.735  12.269  67.494  1.00  0.00    -0.402 C  
HETATM   15  C   UNL     1     -10.657  12.084  68.603  1.00  0.00    -0.229 C  
HETATM   16  C   UNL     1      -9.612  13.206  68.502  1.00  0.00    -0.118 C  
HETATM   17  N   UNL     1     -10.092  10.761  68.301  1.00  0.00    -0.165 NA 
BRANCH  17  18
HETATM   18  C   UNL     1      -8.891  10.251  69.055  1.00  0.00    -0.168 C  
BRANCH  18  19
HETATM   19  C   UNL     1      -9.085   9.390  70.385  1.00  0.00    -0.302 C  
HETATM   20  C   UNL     1     -10.248   8.269  70.547  1.00  0.00    -0.198 C  
BRANCH  20  21
HETATM   21  C   UNL     1     -11.680   8.403  71.153  1.00  0.00    -0.315 A  
HETATM   22  C   UNL     1     -14.393   8.491  72.111  1.00  0.00    -0.529 A  
HETATM   23  C   UNL     1     -12.514   7.242  71.237  1.00  0.00    -0.402 A  
HETATM   24  C   UNL     1     -13.604   9.646  72.027  1.00  0.00    -0.467 A  
HETATM   25  C   UNL     1     -12.273   9.605  71.552  1.00  0.00    -0.483 A  
HETATM   26  C   UNL     1     -13.843   7.280  71.710  1.00  0.00    -0.420 A  
ENDBRANCH  20  21
BRANCH  20  27
HETATM   27  N   UNL     1     -10.311   7.432  69.358  1.00  0.00    -0.206 N  
HETATM   28  H   UNL     1     -10.764   7.775  68.511  1.00  0.00     0.000 HD 
HETATM   29  C   UNL     1      -9.755   6.180  69.383  1.00  0.00    -0.145 C  
HETATM   30  O   UNL     1      -9.260   5.716  70.409  1.00  0.00    -0.147 OA 
BRANCH  29  31
HETATM   31  C   UNL     1      -9.893   5.348  68.117  1.00  0.00    -0.188 C  
HETATM   32  C   UNL     1     -10.183   7.230  66.474  1.00  0.00    -0.139 C  
HETATM   33  C   UNL     1     -10.786   5.942  67.022  1.00  0.00    -0.396 C  
HETATM   34  C   UNL     1      -8.756   7.040  65.988  1.00  0.00    -0.144 C  
HETATM   35  F   UNL     1      -8.230   8.238  65.639  1.00  0.00    -0.104 F  
HETATM   36  F   UNL     1      -8.770   6.279  64.861  1.00  0.00    -0.114 F  
HETATM   37  C   UNL     1      -7.852   6.379  67.001  1.00  0.00    -0.104 C  
HETATM   38  C   UNL     1      -8.492   5.104  67.544  1.00  0.00    -0.105 C  
ENDBRANCH  29  31
ENDBRANCH  20  27
ENDBRANCH  18  19
ENDBRANCH  17  18
ENDBRANCH   8  10
TORSDOF 6
ENDMDL
MODEL       87
REMARK 921   NORMALIZED FREE ENERGY PREDICTED BY IDOCK:   -5.87 KCAL/MOL
REMARK 922        TOTAL FREE ENERGY PREDICTED BY IDOCK:   -9.47 KCAL/MOL
REMARK 923 INTER-LIGAND FREE ENERGY PREDICTED BY IDOCK:   -8.62 KCAL/MOL
REMARK 924 INTRA-LIGAND FREE ENERGY PREDICTED BY IDOCK:   -0.84 KCAL/MOL
REMARK 927      BINDING AFFINITY PREDICTED BY RF-SCORE:    0.00 PKD
ROOT
HETATM    1  C   UNL     1     -10.898   7.915  69.326  1.00  0.00    -0.077 C  
HETATM    2  C   UNL     1     -10.663   9.433  69.422  1.00  0.00    -0.234 C  
HETATM    3  C   UNL     1      -9.203   9.757  69.329  1.00  0.00    -0.192 A  
HETATM    4  C   UNL     1     -11.185   9.971  70.762  1.00  0.00    -0.428 C  
HETATM    5  N   UNL     1      -8.358   9.531  70.313  1.00  0.00    -0.185 NA 
HETATM    6  N   UNL     1      -7.248  10.266  70.081  1.00  0.00    -0.171 NA 
HETATM    7  C   UNL     1      -7.367  10.857  68.910  1.00  0.00    -0.111 A  
HETATM    8  N   UNL     1      -8.558  10.467  68.323  1.00  0.00    -0.123 NA 
HETATM    9  C   UNL     1      -6.329  11.773  68.396  1.00  0.00    -0.051 C  
ENDROOT
BRANCH   8  10
HETATM   10  C   UNL     1      -9.143  10.797  67.005  1.00  0.00    -0.144 C  
HETATM   11  C   UNL     1     -10.668  10.596  66.836  1.00  0.00    -0.297 C  
HETATM   12  C   UNL     1     -11.490  11.754  66.239  1.00  0.00    -0.227 C  
HETATM   13  C   UNL     1     -11.411  11.618  64.719  1.00  0.00    -0.225 C  
HETATM   14  C   UNL     1     -10.094  12.303  64.395  1.00  0.00    -0.296 C  
HETATM   15  C   UNL     1      -9.682  13.016  65.716  1.00  0.00    -0.145 C  
HETATM   16  C   UNL     1      -8.639  12.167  66.461  1.00  0.00    -0.070 C  
HETATM   17  N   UNL     1     -10.951  13.118  66.451  1.00  0.00    -0.286 NA 
BRANCH  17  18
HETATM   18  C   UNL     1     -10.976  13.618  67.872  1.00  0.00    -0.259 C  
BRANCH  18  19
HETATM   19  C   UNL     1     -11.975  14.789  68.292  1.00  0.00    -0.258 C  
HETATM   20  C   UNL     1     -11.704  15.767  69.559  1.00  0.00    -0.360 C  
BRANCH  20  21
HETATM   21  C   UNL     1     -12.198  15.642  71.034  1.00  0.00    -0.462 A  
HETATM   22  C   UNL     1     -12.893  15.479  73.824  1.00  0.00    -0.680 A  
HETATM   23  C   UNL     1     -11.723  16.575  72.011  1.00  0.00    -0.301 A  
HETATM   24  C   UNL     1     -13.362  14.543  72.891  1.00  0.00    -0.579 A  
HETATM   25  C   UNL     1     -13.017  14.620  71.523  1.00  0.00    -0.410 A  
HETATM   26  C   UNL     1     -12.064  16.501  73.378  1.00  0.00    -0.474 A  
ENDBRANCH  20  21
BRANCH  20  27
HETATM   27  N   UNL     1     -10.321  16.222  69.557  1.00  0.00    -0.282 N  
HETATM   28  H   UNL     1      -9.614  15.720  70.093  1.00  0.00     0.000 HD 
HETATM   29  C   UNL     1      -9.977  17.331  68.830  1.00  0.00    -0.325 C  
HETATM   30  O   UNL     1     -10.820  17.993  68.227  1.00  0.00    -0.265 OA 
BRANCH  29  31
HETATM   31  C   UNL     1      -8.522  17.771  68.906  1.00  0.00    -0.136 C  
HETATM   32  C   UNL     1      -7.451  15.496  68.872  1.00  0.00    -0.158 C  
HETATM   33  C   UNL     1      -7.572  16.812  69.631  1.00  0.00     0.390 C  
HETATM   34  C   UNL     1      -7.040  15.699  67.424  1.00  0.00    -0.207 C  
HETATM   35  F   UNL     1      -7.079  14.515  66.769  1.00  0.00     0.086 F  
HETATM   36  F   UNL     1      -5.748  16.121  67.385  1.00  0.00    -0.142 F  
HETATM   37  C   UNL     1      -7.893  16.701  66.685  1.00  0.00    -0.316 C  
HETATM   38  C   UNL     1      -8.011  18.000  67.479  1.00  0.00    -0.224 C  
ENDBRANCH  29  31
ENDBRANCH  20  27
ENDBRANCH  18  19
ENDBRANCH  17  18
ENDBRANCH   8  10
TORSDOF 6
ENDMDL
MODEL       88
REMARK 921   NORMALIZED FREE ENERGY PREDICTED BY IDOCK:   -5.84 KCAL/MOL
REMARK 922        TOTAL FREE ENERGY PREDICTED BY IDOCK:   -9.42 KCAL/MOL
REMARK 923 INTER-LIGAND FREE ENERGY PREDICTED BY IDOCK:   -8.98 KCAL/MOL
REMARK 924 INTRA-LIGAND FREE ENERGY PREDICTED BY IDOCK:   -0.44 KCAL/MOL
REMARK 927      BINDING AFFINITY PREDICTED BY RF-SCORE:    0.00 PKD
ROOT
HETATM    1  C   UNL     1     -12.138  10.732  68.601  1.00  0.00     0.021 C  
HETATM    2  C   UNL     1     -10.769  11.134  68.025  1.00  0.00    -0.254 C  
HETATM    3  C   UNL     1     -10.435  10.316  66.815  1.00  0.00    -0.214 A  
HETATM    4  C   UNL     1      -9.664  10.913  69.068  1.00  0.00    -0.181 C  
HETATM    5  N   UNL     1     -10.071   9.054  66.885  1.00  0.00    -0.244 NA 
HETATM    6  N   UNL     1      -9.479   8.729  65.715  1.00  0.00    -0.208 NA 
HETATM    7  C   UNL     1      -9.573   9.752  64.893  1.00  0.00    -0.246 A  
HETATM    8  N   UNL     1     -10.290  10.765  65.506  1.00  0.00    -0.260 NA 
HETATM    9  C   UNL     1      -8.974   9.720  63.543  1.00  0.00    -0.272 C  
ENDROOT
BRANCH   8  10
HETATM   10  C   UNL     1     -10.716  12.091  65.010  1.00  0.00    -0.296 C  
HETATM   11  C   UNL     1     -12.219  12.441  65.122  1.00  0.00    -0.449 C  
HETATM   12  C   UNL     1     -12.604  13.795  65.747  1.00  0.00    -0.480 C  
HETATM   13  C   UNL     1     -12.554  14.832  64.626  1.00  0.00    -0.116 C  
HETATM   14  C   UNL     1     -11.081  15.200  64.582  1.00  0.00    -0.338 C  
HETATM   15  C   UNL     1     -10.473  14.558  65.864  1.00  0.00    -0.312 C  
HETATM   16  C   UNL     1      -9.780  13.235  65.502  1.00  0.00    -0.063 C  
HETATM   17  N   UNL     1     -11.646  14.360  66.727  1.00  0.00    -0.371 NA 
BRANCH  17  18
HETATM   18  C   UNL     1     -11.522  13.611  68.028  1.00  0.00    -0.310 C  
BRANCH  18  19
HETATM   19  C   UNL     1     -10.779  14.280  69.271  1.00  0.00    -0.194 C  
HETATM   20  C   UNL     1      -9.579  15.360  69.104  1.00  0.00    -0.253 C  
BRANCH  20  21
HETATM   21  C   UNL     1      -8.035  15.134  69.082  1.00  0.00    -0.205 A  
HETATM   22  C   UNL     1      -5.227  14.498  69.121  1.00  0.00    -0.082 A  
HETATM   23  C   UNL     1      -7.522  13.849  68.712  1.00  0.00    -0.114 A  
HETATM   24  C   UNL     1      -5.702  15.761  69.502  1.00  0.00    -0.126 A  
HETATM   25  C   UNL     1      -7.081  16.072  69.488  1.00  0.00    -0.181 A  
HETATM   26  C   UNL     1      -6.147  13.535  68.726  1.00  0.00    -0.086 A  
ENDBRANCH  20  21
BRANCH  20  27
HETATM   27  N   UNL     1      -9.930  16.351  68.096  1.00  0.00    -0.237 N  
HETATM   28  H   UNL     1      -9.879  16.117  67.106  1.00  0.00     0.000 HD 
HETATM   29  C   UNL     1     -10.328  17.602  68.490  1.00  0.00    -0.370 C  
HETATM   30  O   UNL     1     -10.335  17.932  69.675  1.00  0.00    -0.020 OA 
BRANCH  29  31
HETATM   31  C   UNL     1     -10.641  18.597  67.382  1.00  0.00    -0.490 C  
HETATM   32  C   UNL     1      -8.731  20.186  67.769  1.00  0.00    -0.332 C  
HETATM   33  C   UNL     1     -10.245  20.051  67.661  1.00  0.00    -0.548 C  
HETATM   34  C   UNL     1      -8.012  19.636  66.549  1.00  0.00    -0.304 C  
HETATM   35  F   UNL     1      -6.675  19.660  66.759  1.00  0.00    -0.192 F  
HETATM   36  F   UNL     1      -8.253  20.451  65.488  1.00  0.00    -0.207 F  
HETATM   37  C   UNL     1      -8.429  18.232  66.180  1.00  0.00    -0.143 C  
HETATM   38  C   UNL     1      -9.950  18.126  66.098  1.00  0.00    -0.301 C  
ENDBRANCH  29  31
ENDBRANCH  20  27
ENDBRANCH  18  19
ENDBRANCH  17  18
ENDBRANCH   8  10
TORSDOF 6
ENDMDL
MODEL       89
REMARK 921   NORMALIZED FREE ENERGY PREDICTED BY IDOCK:   -5.80 KCAL/MOL
REMARK 922        TOTAL FREE ENERGY PREDICTED BY IDOCK:   -9.37 KCAL/MOL
REMARK 923 INTER-LIGAND FREE ENERGY PREDICTED BY IDOCK:   -8.14 KCAL/MOL
REMARK 924 INTRA-LIGAND FREE ENERGY PREDICTED BY IDOCK:   -1.24 KCAL/MOL
REMARK 927      BINDING AFFINITY PREDICTED BY RF-SCORE:    0.00 PKD
ROOT
HETATM    1  C   UNL     1      -6.821   3.491  70.279  1.00  0.00    -0.034 C  
HETATM    2  C   UNL     1      -8.090   4.328  70.036  1.00  0.00    -0.061 C  
HETATM    3  C   UNL     1      -7.953   5.696  70.633  1.00  0.00    -0.104 A  
HETATM    4  C   UNL     1      -9.309   3.649  70.677  1.00  0.00    -0.228 C  
HETATM    5  N   UNL     1      -8.015   5.918  71.928  1.00  0.00    -0.106 NA 
HETATM    6  N   UNL     1      -8.248   7.237  72.110  1.00  0.00    -0.101 NA 
HETATM    7  C   UNL     1      -8.224   7.838  70.939  1.00  0.00    -0.107 A  
HETATM    8  N   UNL     1      -7.915   6.911  69.959  1.00  0.00    -0.114 NA 
HETATM    9  C   UNL     1      -8.493   9.283  70.805  1.00  0.00    -0.244 C  
ENDROOT
BRANCH   8  10
HETATM   10  C   UNL     1      -7.717   7.070  68.502  1.00  0.00    -0.120 C  
HETATM   11  C   UNL     1      -8.943   6.827  67.589  1.00  0.00    -0.115 C  
HETATM   12  C   UNL     1      -9.279   7.891  66.527  1.00  0.00    -0.191 C  
HETATM   13  C   UNL     1      -8.432   7.574  65.296  1.00  0.00    -0.075 C  
HETATM   14  C   UNL     1      -7.105   8.235  65.629  1.00  0.00    -0.071 C  
HETATM   15  C   UNL     1      -7.401   9.109  66.883  1.00  0.00    -0.090 C  
HETATM   16  C   UNL     1      -6.937   8.372  68.150  1.00  0.00    -0.081 C  
HETATM   17  N   UNL     1      -8.860   9.279  66.835  1.00  0.00    -0.126 NA 
BRANCH  17  18
HETATM   18  C   UNL     1      -9.591   9.947  67.970  1.00  0.00    -0.138 C  
BRANCH  18  19
HETATM   19  C   UNL     1     -10.870  10.856  67.676  1.00  0.00    -0.317 C  
HETATM   20  C   UNL     1     -11.081  12.322  68.340  1.00  0.00    -0.243 C  
BRANCH  20  21
HETATM   21  C   UNL     1     -11.851  12.724  69.637  1.00  0.00    -0.384 A  
HETATM   22  C   UNL     1     -13.389  13.261  72.010  1.00  0.00    -0.582 A  
HETATM   23  C   UNL     1     -12.197  11.709  70.587  1.00  0.00    -0.461 A  
HETATM   24  C   UNL     1     -13.077  14.271  71.090  1.00  0.00    -0.412 A  
HETATM   25  C   UNL     1     -12.327  14.008  69.922  1.00  0.00    -0.367 A  
HETATM   26  C   UNL     1     -12.947  11.969  71.753  1.00  0.00    -0.445 A  
ENDBRANCH  20  21
BRANCH  20  27
HETATM   27  N   UNL     1      -9.849  13.093  68.259  1.00  0.00    -0.227 N  
HETATM   28  H   UNL     1      -9.130  12.991  68.975  1.00  0.00     0.000 HD 
HETATM   29  C   UNL     1      -9.662  13.959  67.214  1.00  0.00    -0.245 C  
HETATM   30  O   UNL     1     -10.539  14.151  66.373  1.00  0.00    -0.275 OA 
BRANCH  29  31
HETATM   31  C   UNL     1      -8.368  14.760  67.215  1.00  0.00    -0.234 C  
HETATM   32  C   UNL     1      -9.358  17.048  66.884  1.00  0.00    -0.263 C  
HETATM   33  C   UNL     1      -8.366  16.023  66.347  1.00  0.00    -0.344 C  
HETATM   34  C   UNL     1      -9.115  17.377  68.347  1.00  0.00    -0.274 C  
HETATM   35  F   UNL     1     -10.102  18.185  68.802  1.00  0.00    -0.335 F  
HETATM   36  F   UNL     1      -7.957  18.079  68.458  1.00  0.00    -0.267 F  
HETATM   37  C   UNL     1      -9.025  16.160  69.236  1.00  0.00    -0.200 C  
HETATM   38  C   UNL     1      -8.039  15.145  68.662  1.00  0.00    -0.154 C  
ENDBRANCH  29  31
ENDBRANCH  20  27
ENDBRANCH  18  19
ENDBRANCH  17  18
ENDBRANCH   8  10
TORSDOF 6
ENDMDL
MODEL       90
REMARK 921   NORMALIZED FREE ENERGY PREDICTED BY IDOCK:   -5.78 KCAL/MOL
REMARK 922        TOTAL FREE ENERGY PREDICTED BY IDOCK:   -9.35 KCAL/MOL
REMARK 923 INTER-LIGAND FREE ENERGY PREDICTED BY IDOCK:   -8.70 KCAL/MOL
REMARK 924 INTRA-LIGAND FREE ENERGY PREDICTED BY IDOCK:   -0.65 KCAL/MOL
REMARK 927      BINDING AFFINITY PREDICTED BY RF-SCORE:    0.00 PKD
ROOT
HETATM    1  C   UNL     1      -6.029   8.441  73.001  1.00  0.00    -0.077 C  
HETATM    2  C   UNL     1      -6.804   7.119  73.141  1.00  0.00    -0.069 C  
HETATM    3  C   UNL     1      -8.268   7.328  72.895  1.00  0.00    -0.106 A  
HETATM    4  C   UNL     1      -6.636   6.548  74.556  1.00  0.00    -0.081 C  
HETATM    5  N   UNL     1      -9.059   7.922  73.763  1.00  0.00    -0.277 NA 
HETATM    6  N   UNL     1     -10.334   7.611  73.439  1.00  0.00    -0.343 NA 
HETATM    7  C   UNL     1     -10.331   6.919  72.320  1.00  0.00    -0.196 A  
HETATM    8  N   UNL     1      -9.032   6.809  71.856  1.00  0.00    -0.136 NA 
HETATM    9  C   UNL     1     -11.579   6.391  71.733  1.00  0.00    -0.367 C  
ENDROOT
BRANCH   8  10
HETATM   10  C   UNL     1      -8.489   6.182  70.632  1.00  0.00    -0.134 C  
HETATM   11  C   UNL     1      -9.493   5.832  69.508  1.00  0.00    -0.168 C  
HETATM   12  C   UNL     1      -9.165   6.287  68.073  1.00  0.00    -0.116 C  
HETATM   13  C   UNL     1      -8.268   5.213  67.460  1.00  0.00    -0.103 C  
HETATM   14  C   UNL     1      -6.890   5.606  67.968  1.00  0.00    -0.064 C  
HETATM   15  C   UNL     1      -7.083   7.023  68.584  1.00  0.00    -0.092 C  
HETATM   16  C   UNL     1      -7.213   6.911  70.111  1.00  0.00    -0.076 C  
HETATM   17  N   UNL     1      -8.320   7.498  67.947  1.00  0.00    -0.123 NA 
BRANCH  17  18
HETATM   18  C   UNL     1      -8.958   8.790  68.385  1.00  0.00    -0.141 C  
BRANCH  18  19
HETATM   19  C   UNL     1     -10.540   8.976  68.287  1.00  0.00    -0.213 C  
HETATM   20  C   UNL     1     -11.266  10.424  68.398  1.00  0.00    -0.258 C  
BRANCH  20  21
HETATM   21  C   UNL     1     -11.871  11.140  69.646  1.00  0.00    -0.419 A  
HETATM   22  C   UNL     1     -13.163  12.300  71.942  1.00  0.00    -0.481 A  
HETATM   23  C   UNL     1     -12.508  10.355  70.660  1.00  0.00    -0.437 A  
HETATM   24  C   UNL     1     -12.560  13.093  70.957  1.00  0.00    -0.397 A  
HETATM   25  C   UNL     1     -11.930  12.525  69.826  1.00  0.00    -0.359 A  
HETATM   26  C   UNL     1     -13.139  10.919  71.789  1.00  0.00    -0.564 A  
ENDBRANCH  20  21
BRANCH  20  27
HETATM   27  N   UNL     1     -10.564  11.404  67.581  1.00  0.00    -0.193 N  
HETATM   28  H   UNL     1     -10.091  12.194  68.019  1.00  0.00     0.000 HD 
HETATM   29  C   UNL     1     -10.542  11.256  66.220  1.00  0.00    -0.263 C  
HETATM   30  O   UNL     1     -11.158  10.349  65.660  1.00  0.00     0.229 OA 
BRANCH  29  31
HETATM   31  C   UNL     1      -9.822  12.338  65.428  1.00  0.00    -0.209 C  
HETATM   32  C   UNL     1     -11.766  13.127  64.041  1.00  0.00    -0.496 C  
HETATM   33  C   UNL     1     -10.343  12.582  64.007  1.00  0.00    -0.429 C  
HETATM   34  C   UNL     1     -11.888  14.373  64.902  1.00  0.00    -0.417 C  
HETATM   35  F   UNL     1     -13.190  14.732  65.001  1.00  0.00    -0.165 F  
HETATM   36  F   UNL     1     -11.249  15.402  64.285  1.00  0.00    -0.315 F  
HETATM   37  C   UNL     1     -11.312  14.212  66.288  1.00  0.00    -0.340 C  
HETATM   38  C   UNL     1      -9.895  13.647  66.221  1.00  0.00    -0.310 C  
ENDBRANCH  29  31
ENDBRANCH  20  27
ENDBRANCH  18  19
ENDBRANCH  17  18
ENDBRANCH   8  10
TORSDOF 6
ENDMDL
MODEL       91
REMARK 921   NORMALIZED FREE ENERGY PREDICTED BY IDOCK:   -5.74 KCAL/MOL
REMARK 922        TOTAL FREE ENERGY PREDICTED BY IDOCK:   -9.30 KCAL/MOL
REMARK 923 INTER-LIGAND FREE ENERGY PREDICTED BY IDOCK:   -8.10 KCAL/MOL
REMARK 924 INTRA-LIGAND FREE ENERGY PREDICTED BY IDOCK:   -1.20 KCAL/MOL
REMARK 927      BINDING AFFINITY PREDICTED BY RF-SCORE:    0.00 PKD
ROOT
HETATM    1  C   UNL     1      -5.130  12.601  69.785  1.00  0.00    -0.076 C  
HETATM    2  C   UNL     1      -6.352  11.928  69.137  1.00  0.00    -0.092 C  
HETATM    3  C   UNL     1      -5.991  11.316  67.818  1.00  0.00    -0.048 A  
HETATM    4  C   UNL     1      -7.465  12.957  68.896  1.00  0.00     0.020 C  
HETATM    5  N   UNL     1      -5.772  12.032  66.736  1.00  0.00    -0.280 NA 
HETATM    6  N   UNL     1      -5.859  11.207  65.670  1.00  0.00    -0.086 NA 
HETATM    7  C   UNL     1      -6.027   9.974  66.099  1.00  0.00    -0.068 A  
HETATM    8  N   UNL     1      -5.996   9.966  67.483  1.00  0.00    -0.054 NA 
HETATM    9  C   UNL     1      -6.204   8.845  65.164  1.00  0.00    -0.060 C  
ENDROOT
BRANCH   8  10
HETATM   10  C   UNL     1      -6.087   8.851  68.449  1.00  0.00    -0.046 C  
HETATM   11  C   UNL     1      -5.832   9.180  69.940  1.00  0.00    -0.035 C  
HETATM   12  C   UNL     1      -6.857   8.684  70.978  1.00  0.00    -0.066 C  
HETATM   13  C   UNL     1      -6.467   7.252  71.338  1.00  0.00    -0.036 C  
HETATM   14  C   UNL     1      -7.110   6.444  70.223  1.00  0.00    -0.078 C  
HETATM   15  C   UNL     1      -8.045   7.452  69.492  1.00  0.00    -0.129 C  
HETATM   16  C   UNL     1      -7.354   7.973  68.222  1.00  0.00    -0.095 C  
HETATM   17  N   UNL     1      -8.247   8.508  70.494  1.00  0.00    -0.106 NA 
BRANCH  17  18
HETATM   18  C   UNL     1      -8.980   9.774  70.136  1.00  0.00    -0.195 C  
BRANCH  18  19
HETATM   19  C   UNL     1     -10.561   9.750  69.915  1.00  0.00    -0.301 C  
HETATM   20  C   UNL     1     -11.412  11.066  69.491  1.00  0.00    -0.299 C  
BRANCH  20  21
HETATM   21  C   UNL     1     -12.166  12.095  70.390  1.00  0.00    -0.378 A  
HETATM   22  C   UNL     1     -13.367  14.133  72.030  1.00  0.00    -0.502 A  
HETATM   23  C   UNL     1     -12.010  13.494  70.131  1.00  0.00    -0.399 A  
HETATM   24  C   UNL     1     -13.524  12.770  72.316  1.00  0.00    -0.591 A  
HETATM   25  C   UNL     1     -12.931  11.769  71.514  1.00  0.00    -0.446 A  
HETATM   26  C   UNL     1     -12.600  14.497  70.929  1.00  0.00    -0.414 A  
ENDBRANCH  20  21
BRANCH  20  27
HETATM   27  N   UNL     1     -10.735  11.779  68.416  1.00  0.00    -0.209 N  
HETATM   28  H   UNL     1     -10.433  12.743  68.550  1.00  0.00     0.000 HD 
HETATM   29  C   UNL     1     -10.508  11.143  67.224  1.00  0.00    -0.226 C  
HETATM   30  O   UNL     1     -10.919  10.004  67.013  1.00  0.00    -0.181 OA 
BRANCH  29  31
HETATM   31  C   UNL     1      -9.831  11.962  66.134  1.00  0.00    -0.254 C  
HETATM   32  C   UNL     1     -11.248  11.225  64.192  1.00  0.00    -0.222 C  
HETATM   33  C   UNL     1      -9.828  11.337  64.735  1.00  0.00    -0.312 C  
HETATM   34  C   UNL     1     -11.980  12.557  64.207  1.00  0.00    -0.408 C  
HETATM   35  F   UNL     1     -13.270  12.371  63.842  1.00  0.00    -0.360 F  
HETATM   36  F   UNL     1     -11.427  13.377  63.274  1.00  0.00    -0.331 F  
HETATM   37  C   UNL     1     -11.940  13.257  65.544  1.00  0.00    -0.445 C  
HETATM   38  C   UNL     1     -10.508  13.335  66.069  1.00  0.00    -0.289 C  
ENDBRANCH  29  31
ENDBRANCH  20  27
ENDBRANCH  18  19
ENDBRANCH  17  18
ENDBRANCH   8  10
TORSDOF 6
ENDMDL
MODEL       92
REMARK 921   NORMALIZED FREE ENERGY PREDICTED BY IDOCK:   -5.74 KCAL/MOL
REMARK 922        TOTAL FREE ENERGY PREDICTED BY IDOCK:   -9.29 KCAL/MOL
REMARK 923 INTER-LIGAND FREE ENERGY PREDICTED BY IDOCK:  -10.12 KCAL/MOL
REMARK 924 INTRA-LIGAND FREE ENERGY PREDICTED BY IDOCK:    0.83 KCAL/MOL
REMARK 927      BINDING AFFINITY PREDICTED BY RF-SCORE:    0.00 PKD
ROOT
HETATM    1  C   UNL     1      -5.493   8.754  70.703  1.00  0.00    -0.027 C  
HETATM    2  C   UNL     1      -6.737   7.921  70.347  1.00  0.00    -0.038 C  
HETATM    3  C   UNL     1      -7.992   8.628  70.760  1.00  0.00    -0.118 A  
HETATM    4  C   UNL     1      -6.696   6.565  71.064  1.00  0.00    -0.055 C  
HETATM    5  N   UNL     1      -8.376   8.724  72.015  1.00  0.00    -0.368 NA 
HETATM    6  N   UNL     1      -9.687   9.053  72.022  1.00  0.00    -0.288 NA 
HETATM    7  C   UNL     1     -10.079   9.261  70.783  1.00  0.00    -0.291 A  
HETATM    8  N   UNL     1      -8.996   9.121  69.933  1.00  0.00    -0.160 NA 
HETATM    9  C   UNL     1     -11.481   9.592  70.459  1.00  0.00    -0.352 C  
ENDROOT
BRANCH   8  10
HETATM   10  C   UNL     1      -8.882   9.295  68.469  1.00  0.00    -0.129 C  
HETATM   11  C   UNL     1     -10.198   9.430  67.666  1.00  0.00    -0.281 C  
HETATM   12  C   UNL     1     -10.323  10.597  66.669  1.00  0.00    -0.241 C  
HETATM   13  C   UNL     1      -9.695  10.130  65.357  1.00  0.00    -0.355 C  
HETATM   14  C   UNL     1      -8.216  10.400  65.584  1.00  0.00    -0.158 C  
HETATM   15  C   UNL     1      -8.165  11.257  66.884  1.00  0.00    -0.153 C  
HETATM   16  C   UNL     1      -7.814  10.361  68.082  1.00  0.00    -0.108 C  
HETATM   17  N   UNL     1      -9.525  11.808  66.974  1.00  0.00    -0.182 NA 
BRANCH  17  18
HETATM   18  C   UNL     1      -9.956  12.587  68.189  1.00  0.00    -0.224 C  
BRANCH  18  19
HETATM   19  C   UNL     1     -11.502  12.682  68.574  1.00  0.00    -0.349 C  
HETATM   20  C   UNL     1     -12.200  14.054  69.089  1.00  0.00    -0.262 C  
BRANCH  20  21
HETATM   21  C   UNL     1     -12.433  14.564  70.546  1.00  0.00    -0.408 A  
HETATM   22  C   UNL     1     -13.087  15.427  73.213  1.00  0.00    -0.642 A  
HETATM   23  C   UNL     1     -13.285  13.815  71.419  1.00  0.00    -0.378 A  
HETATM   24  C   UNL     1     -12.261  16.187  72.375  1.00  0.00    -0.592 A  
HETATM   25  C   UNL     1     -11.944  15.767  71.063  1.00  0.00    -0.462 A  
HETATM   26  C   UNL     1     -13.605  14.232  72.729  1.00  0.00    -0.538 A  
ENDBRANCH  20  21
BRANCH  20  27
HETATM   27  N   UNL     1     -11.789  15.173  68.253  1.00  0.00    -0.498 N  
HETATM   28  H   UNL     1     -12.382  15.484  67.484  1.00  0.00     0.000 HD 
HETATM   29  C   UNL     1     -10.601  15.805  68.508  1.00  0.00    -0.253 C  
HETATM   30  O   UNL     1      -9.837  15.410  69.387  1.00  0.00    -0.242 OA 
BRANCH  29  31
HETATM   31  C   UNL     1     -10.219  16.941  67.569  1.00  0.00    -0.295 C  
HETATM   32  C   UNL     1      -7.842  17.255  68.327  1.00  0.00    -0.244 C  
HETATM   33  C   UNL     1      -9.188  17.936  68.113  1.00  0.00    -0.278 C  
HETATM   34  C   UNL     1      -7.338  16.559  67.074  1.00  0.00    -0.210 C  
HETATM   35  F   UNL     1      -6.213  15.863  67.360  1.00  0.00    -0.153 F  
HETATM   36  F   UNL     1      -6.991  17.499  66.155  1.00  0.00    -0.244 F  
HETATM   37  C   UNL     1      -8.349  15.628  66.449  1.00  0.00    -0.215 C  
HETATM   38  C   UNL     1      -9.691  16.334  66.265  1.00  0.00    -0.329 C  
ENDBRANCH  29  31
ENDBRANCH  20  27
ENDBRANCH  18  19
ENDBRANCH  17  18
ENDBRANCH   8  10
TORSDOF 6
ENDMDL
MODEL       93
REMARK 921   NORMALIZED FREE ENERGY PREDICTED BY IDOCK:   -5.72 KCAL/MOL
REMARK 922        TOTAL FREE ENERGY PREDICTED BY IDOCK:   -9.26 KCAL/MOL
REMARK 923 INTER-LIGAND FREE ENERGY PREDICTED BY IDOCK:   -7.76 KCAL/MOL
REMARK 924 INTRA-LIGAND FREE ENERGY PREDICTED BY IDOCK:   -1.51 KCAL/MOL
REMARK 927      BINDING AFFINITY PREDICTED BY RF-SCORE:    0.00 PKD
ROOT
HETATM    1  C   UNL     1     -10.564  18.026  67.592  1.00  0.00    -0.413 C  
HETATM    2  C   UNL     1     -10.070  16.670  68.126  1.00  0.00    -0.267 C  
HETATM    3  C   UNL     1     -11.033  16.103  69.125  1.00  0.00    -0.309 A  
HETATM    4  C   UNL     1      -8.709  16.831  68.816  1.00  0.00    -0.258 C  
HETATM    5  N   UNL     1     -11.154  16.577  70.347  1.00  0.00    -0.254 NA 
HETATM    6  N   UNL     1     -11.785  15.642  71.091  1.00  0.00    -0.372 NA 
HETATM    7  C   UNL     1     -12.142  14.646  70.308  1.00  0.00    -0.319 A  
HETATM    8  N   UNL     1     -11.792  14.945  69.003  1.00  0.00    -0.308 NA 
HETATM    9  C   UNL     1     -12.813  13.444  70.842  1.00  0.00    -0.279 C  
ENDROOT
BRANCH   8  10
HETATM   10  C   UNL     1     -12.007  14.197  67.745  1.00  0.00    -0.354 C  
HETATM   11  C   UNL     1     -11.599  14.896  66.426  1.00  0.00    -0.238 C  
HETATM   12  C   UNL     1     -10.723  14.111  65.431  1.00  0.00    -0.342 C  
HETATM   13  C   UNL     1     -11.668  13.274  64.571  1.00  0.00    -0.420 C  
HETATM   14  C   UNL     1     -11.898  12.044  65.435  1.00  0.00    -0.258 C  
HETATM   15  C   UNL     1     -10.844  12.159  66.575  1.00  0.00    -0.270 C  
HETATM   16  C   UNL     1     -11.508  12.724  67.841  1.00  0.00    -0.365 C  
HETATM   17  N   UNL     1      -9.840  13.073  66.012  1.00  0.00    -0.272 NA 
BRANCH  17  18
HETATM   18  C   UNL     1      -8.704  13.580  66.862  1.00  0.00    -0.145 C  
BRANCH  18  19
HETATM   19  C   UNL     1      -7.767  12.553  67.645  1.00  0.00    -0.151 C  
HETATM   20  C   UNL     1      -7.841  10.947  67.423  1.00  0.00    -0.113 C  
BRANCH  20  21
HETATM   21  C   UNL     1      -8.648   9.871  68.214  1.00  0.00    -0.115 A  
HETATM   22  C   UNL     1      -9.956   7.873  69.824  1.00  0.00    -0.186 A  
HETATM   23  C   UNL     1      -8.570   9.849  69.643  1.00  0.00    -0.207 A  
HETATM   24  C   UNL     1     -10.038   7.862  68.425  1.00  0.00    -0.218 A  
HETATM   25  C   UNL     1      -9.393   8.839  67.633  1.00  0.00    -0.157 A  
HETATM   26  C   UNL     1      -9.212   8.875  70.437  1.00  0.00    -0.222 A  
ENDBRANCH  20  21
BRANCH  20  27
HETATM   27  N   UNL     1      -7.899  10.637  66.002  1.00  0.00    -0.154 N  
HETATM   28  H   UNL     1      -8.782  10.708  65.496  1.00  0.00     0.000 HD 
HETATM   29  C   UNL     1      -6.759  10.249  65.348  1.00  0.00    -0.123 C  
HETATM   30  O   UNL     1      -5.696  10.092  65.947  1.00  0.00    -0.061 OA 
BRANCH  29  31
HETATM   31  C   UNL     1      -6.903   9.904  63.873  1.00  0.00    -0.125 C  
HETATM   32  C   UNL     1      -5.780   7.655  63.915  1.00  0.00    -0.044 C  
HETATM   33  C   UNL     1      -5.786   9.040  63.279  1.00  0.00    -0.076 C  
HETATM   34  C   UNL     1      -7.130   6.966  63.815  1.00  0.00    -0.061 C  
HETATM   35  F   UNL     1      -7.101   5.804  64.510  1.00  0.00    -0.047 F  
HETATM   36  F   UNL     1      -7.365   6.636  62.517  1.00  0.00    -0.049 F  
HETATM   37  C   UNL     1      -8.280   7.810  64.311  1.00  0.00    -0.030 C  
HETATM   38  C   UNL     1      -8.247   9.196  63.671  1.00  0.00    -0.174 C  
ENDBRANCH  29  31
ENDBRANCH  20  27
ENDBRANCH  18  19
ENDBRANCH  17  18
ENDBRANCH   8  10
TORSDOF 6
ENDMDL
MODEL       94
REMARK 921   NORMALIZED FREE ENERGY PREDICTED BY IDOCK:   -5.68 KCAL/MOL
REMARK 922        TOTAL FREE ENERGY PREDICTED BY IDOCK:   -9.21 KCAL/MOL
REMARK 923 INTER-LIGAND FREE ENERGY PREDICTED BY IDOCK:   -7.87 KCAL/MOL
REMARK 924 INTRA-LIGAND FREE ENERGY PREDICTED BY IDOCK:   -1.33 KCAL/MOL
REMARK 927      BINDING AFFINITY PREDICTED BY RF-SCORE:    0.00 PKD
ROOT
HETATM    1  C   UNL     1      -8.855   6.580  67.121  1.00  0.00    -0.110 C  
HETATM    2  C   UNL     1      -9.989   5.653  67.592  1.00  0.00    -0.177 C  
HETATM    3  C   UNL     1      -9.514   4.728  68.671  1.00  0.00    -0.150 A  
HETATM    4  C   UNL     1     -10.502   4.799  66.425  1.00  0.00    -0.283 C  
HETATM    5  N   UNL     1      -8.729   3.699  68.433  1.00  0.00    -0.097 NA 
HETATM    6  N   UNL     1      -8.803   2.869  69.497  1.00  0.00    -0.082 NA 
HETATM    7  C   UNL     1      -9.544   3.434  70.426  1.00  0.00    -0.157 A  
HETATM    8  N   UNL     1      -9.931   4.692  69.997  1.00  0.00    -0.231 NA 
HETATM    9  C   UNL     1      -9.852   2.747  71.696  1.00  0.00    -0.211 C  
ENDROOT
BRANCH   8  10
HETATM   10  C   UNL     1     -10.721   5.746  70.669  1.00  0.00    -0.281 C  
HETATM   11  C   UNL     1     -10.151   6.328  71.985  1.00  0.00    -0.205 C  
HETATM   12  C   UNL     1     -10.073   7.860  72.127  1.00  0.00    -0.220 C  
HETATM   13  C   UNL     1     -11.436   8.330  72.633  1.00  0.00    -0.423 C  
HETATM   14  C   UNL     1     -12.248   8.427  71.352  1.00  0.00    -0.335 C  
HETATM   15  C   UNL     1     -11.202   8.282  70.208  1.00  0.00    -0.176 C  
HETATM   16  C   UNL     1     -11.212   6.841  69.675  1.00  0.00    -0.345 C  
HETATM   17  N   UNL     1      -9.935   8.629  70.868  1.00  0.00    -0.194 NA 
BRANCH  17  18
HETATM   18  C   UNL     1      -8.625   8.467  70.142  1.00  0.00    -0.131 C  
BRANCH  18  19
HETATM   19  C   UNL     1      -7.821   9.751  69.642  1.00  0.00    -0.142 C  
HETATM   20  C   UNL     1      -8.248  10.600  68.325  1.00  0.00    -0.120 C  
BRANCH  20  21
HETATM   21  C   UNL     1      -7.748  10.468  66.853  1.00  0.00    -0.114 A  
HETATM   22  C   UNL     1      -6.985  10.050  64.108  1.00  0.00    -0.124 A  
HETATM   23  C   UNL     1      -8.692  10.165  65.820  1.00  0.00    -0.166 A  
HETATM   24  C   UNL     1      -6.038  10.332  65.102  1.00  0.00    -0.130 A  
HETATM   25  C   UNL     1      -6.410  10.532  66.450  1.00  0.00    -0.100 A  
HETATM   26  C   UNL     1      -8.323   9.963  64.473  1.00  0.00    -0.168 A  
ENDBRANCH  20  21
BRANCH  20  27
HETATM   27  N   UNL     1      -9.685  10.836  68.322  1.00  0.00    -0.159 N  
HETATM   28  H   UNL     1     -10.334  10.051  68.303  1.00  0.00     0.000 HD 
HETATM   29  C   UNL     1     -10.157  12.122  68.343  1.00  0.00    -0.209 C  
HETATM   30  O   UNL     1      -9.397  13.088  68.299  1.00  0.00    -0.212 OA 
BRANCH  29  31
HETATM   31  C   UNL     1     -11.669  12.293  68.298  1.00  0.00    -0.392 C  
HETATM   32  C   UNL     1     -12.099  12.369  70.775  1.00  0.00    -0.245 C  
HETATM   33  C   UNL     1     -12.445  11.671  69.464  1.00  0.00    -0.017 C  
HETATM   34  C   UNL     1     -12.310  13.872  70.703  1.00  0.00    -0.381 C  
HETATM   35  F   UNL     1     -11.863  14.449  71.843  1.00  0.00    -0.365 F  
HETATM   36  F   UNL     1     -13.643  14.129  70.634  1.00  0.00    -0.282 F  
HETATM   37  C   UNL     1     -11.634  14.524  69.521  1.00  0.00    -0.350 C  
HETATM   38  C   UNL     1     -11.984  13.791  68.227  1.00  0.00    -0.392 C  
ENDBRANCH  29  31
ENDBRANCH  20  27
ENDBRANCH  18  19
ENDBRANCH  17  18
ENDBRANCH   8  10
TORSDOF 6
ENDMDL
MODEL       95
REMARK 921   NORMALIZED FREE ENERGY PREDICTED BY IDOCK:   -5.66 KCAL/MOL
REMARK 922        TOTAL FREE ENERGY PREDICTED BY IDOCK:   -9.18 KCAL/MOL
REMARK 923 INTER-LIGAND FREE ENERGY PREDICTED BY IDOCK:   -7.22 KCAL/MOL
REMARK 924 INTRA-LIGAND FREE ENERGY PREDICTED BY IDOCK:   -1.96 KCAL/MOL
REMARK 927      BINDING AFFINITY PREDICTED BY RF-SCORE:    0.00 PKD
ROOT
HETATM    1  C   UNL     1     -11.850  15.635  69.259  1.00  0.00    -0.378 C  
HETATM    2  C   UNL     1     -10.813  15.760  68.129  1.00  0.00    -0.307 C  
HETATM    3  C   UNL     1      -9.448  15.368  68.608  1.00  0.00    -0.205 A  
HETATM    4  C   UNL     1     -10.744  17.208  67.625  1.00  0.00    -0.302 C  
HETATM    5  N   UNL     1      -8.725  16.131  69.400  1.00  0.00    -0.182 NA 
HETATM    6  N   UNL     1      -7.445  15.702  69.329  1.00  0.00    -0.202 NA 
HETATM    7  C   UNL     1      -7.400  14.620  68.582  1.00  0.00    -0.125 A  
HETATM    8  N   UNL     1      -8.684  14.285  68.188  1.00  0.00    -0.167 NA 
HETATM    9  C   UNL     1      -6.125  13.942  68.276  1.00  0.00    -0.112 C  
ENDROOT
BRANCH   8  10
HETATM   10  C   UNL     1      -9.189  13.146  67.391  1.00  0.00    -0.213 C  
HETATM   11  C   UNL     1      -8.176  12.416  66.477  1.00  0.00     0.160 C  
HETATM   12  C   UNL     1      -8.104  10.879  66.557  1.00  0.00    -0.154 C  
HETATM   13  C   UNL     1      -9.181  10.334  65.621  1.00  0.00    -0.225 C  
HETATM   14  C   UNL     1     -10.428  10.383  66.488  1.00  0.00    -0.262 C  
HETATM   15  C   UNL     1      -9.902  10.680  67.923  1.00  0.00    -0.161 C  
HETATM   16  C   UNL     1     -10.065  12.175  68.237  1.00  0.00    -0.210 C  
HETATM   17  N   UNL     1      -8.491  10.272  67.853  1.00  0.00    -0.117 NA 
BRANCH  17  18
HETATM   18  C   UNL     1      -7.558  10.538  69.005  1.00  0.00    -0.117 C  
BRANCH  18  19
HETATM   19  C   UNL     1      -7.610   9.618  70.308  1.00  0.00    -0.175 C  
HETATM   20  C   UNL     1      -8.463   8.239  70.380  1.00  0.00    -0.129 C  
BRANCH  20  21
HETATM   21  C   UNL     1      -9.917   7.995  70.893  1.00  0.00    -0.207 A  
HETATM   22  C   UNL     1     -12.656   7.485  71.618  1.00  0.00    -0.376 A  
HETATM   23  C   UNL     1     -10.679   6.914  70.346  1.00  0.00    -0.278 A  
HETATM   24  C   UNL     1     -11.939   8.560  72.160  1.00  0.00    -0.451 A  
HETATM   25  C   UNL     1     -10.596   8.815  71.801  1.00  0.00    -0.417 A  
HETATM   26  C   UNL     1     -12.020   6.657  70.701  1.00  0.00    -0.404 A  
ENDBRANCH  20  21
BRANCH  20  27
HETATM   27  N   UNL     1      -8.244   7.447  69.178  1.00  0.00    -0.120 N  
HETATM   28  H   UNL     1      -8.655   7.735  68.291  1.00  0.00     0.000 HD 
HETATM   29  C   UNL     1      -7.480   6.312  69.248  1.00  0.00    -0.094 C  
HETATM   30  O   UNL     1      -7.026   5.906  70.317  1.00  0.00    -0.058 OA 
BRANCH  29  31
HETATM   31  C   UNL     1      -7.325   5.515  67.962  1.00  0.00    -0.073 C  
HETATM   32  C   UNL     1      -9.576   4.393  67.956  1.00  0.00    -0.204 C  
HETATM   33  C   UNL     1      -8.068   4.175  67.914  1.00  0.00    -0.090 C  
HETATM   34  C   UNL     1     -10.056   5.335  66.865  1.00  0.00    -0.219 C  
HETATM   35  F   UNL     1     -11.373   5.594  67.034  1.00  0.00    -0.187 F  
HETATM   36  F   UNL     1      -9.933   4.716  65.661  1.00  0.00    -0.169 F  
HETATM   37  C   UNL     1      -9.298   6.640  66.813  1.00  0.00    -0.184 C  
HETATM   38  C   UNL     1      -7.791   6.388  66.792  1.00  0.00    -0.104 C  
ENDBRANCH  29  31
ENDBRANCH  20  27
ENDBRANCH  18  19
ENDBRANCH  17  18
ENDBRANCH   8  10
TORSDOF 6
ENDMDL
MODEL       96
REMARK 921   NORMALIZED FREE ENERGY PREDICTED BY IDOCK:   -5.66 KCAL/MOL
REMARK 922        TOTAL FREE ENERGY PREDICTED BY IDOCK:   -9.18 KCAL/MOL
REMARK 923 INTER-LIGAND FREE ENERGY PREDICTED BY IDOCK:   -7.72 KCAL/MOL
REMARK 924 INTRA-LIGAND FREE ENERGY PREDICTED BY IDOCK:   -1.46 KCAL/MOL
REMARK 927      BINDING AFFINITY PREDICTED BY RF-SCORE:    0.00 PKD
ROOT
HETATM    1  C   UNL     1      -9.512  11.502  65.035  1.00  0.00    -0.174 C  
HETATM    2  C   UNL     1      -9.441  10.352  64.016  1.00  0.00    -0.351 C  
HETATM    3  C   UNL     1      -8.105   9.675  64.062  1.00  0.00    -0.152 A  
HETATM    4  C   UNL     1      -9.655  10.886  62.592  1.00  0.00    -0.290 C  
HETATM    5  N   UNL     1      -7.012  10.221  63.572  1.00  0.00    -0.115 NA 
HETATM    6  N   UNL     1      -6.096   9.240  63.414  1.00  0.00    -0.089 NA 
HETATM    7  C   UNL     1      -6.585   8.119  63.902  1.00  0.00    -0.067 A  
HETATM    8  N   UNL     1      -7.833   8.367  64.446  1.00  0.00    -0.134 NA 
HETATM    9  C   UNL     1      -5.833   6.850  63.832  1.00  0.00    -0.032 C  
ENDROOT
BRANCH   8  10
HETATM   10  C   UNL     1      -8.777   7.475  65.154  1.00  0.00     0.136 C  
HETATM   11  C   UNL     1      -8.296   6.039  65.469  1.00  0.00    -0.146 C  
HETATM   12  C   UNL     1      -8.469   5.514  66.907  1.00  0.00    -0.110 C  
HETATM   13  C   UNL     1      -9.884   4.948  67.007  1.00  0.00    -0.214 C  
HETATM   14  C   UNL     1     -10.716   6.188  67.291  1.00  0.00    -0.414 C  
HETATM   15  C   UNL     1      -9.675   7.300  67.612  1.00  0.00    -0.142 C  
HETATM   16  C   UNL     1      -9.454   8.177  66.370  1.00  0.00    -0.285 C  
HETATM   17  N   UNL     1      -8.474   6.536  67.981  1.00  0.00    -0.119 NA 
BRANCH  17  18
HETATM   18  C   UNL     1      -7.163   7.239  68.222  1.00  0.00    -0.094 C  
BRANCH  18  19
HETATM   19  C   UNL     1      -7.119   8.580  69.086  1.00  0.00    -0.064 C  
HETATM   20  C   UNL     1      -8.299   9.002  70.118  1.00  0.00    -0.151 C  
BRANCH  20  21
HETATM   21  C   UNL     1      -9.543   9.916  69.885  1.00  0.00    -0.265 A  
HETATM   22  C   UNL     1     -11.972  11.416  69.515  1.00  0.00    -0.409 A  
HETATM   23  C   UNL     1     -10.684   9.773  70.738  1.00  0.00    -0.393 A  
HETATM   24  C   UNL     1     -10.875  11.566  68.656  1.00  0.00    -0.253 A  
HETATM   25  C   UNL     1      -9.684  10.826  68.833  1.00  0.00    -0.207 A  
HETATM   26  C   UNL     1     -11.875  10.509  70.563  1.00  0.00    -0.442 A  
ENDBRANCH  20  21
BRANCH  20  27
HETATM   27  N   UNL     1      -8.693   7.859  70.929  1.00  0.00    -0.135 N  
HETATM   28  H   UNL     1      -9.226   7.095  70.515  1.00  0.00     0.000 HD 
HETATM   29  C   UNL     1      -8.342   7.817  72.252  1.00  0.00    -0.119 C  
HETATM   30  O   UNL     1      -7.756   8.754  72.793  1.00  0.00    -0.369 OA 
BRANCH  29  31
HETATM   31  C   UNL     1      -8.821   6.611  73.046  1.00  0.00    -0.138 C  
HETATM   32  C   UNL     1     -11.248   7.240  73.235  1.00  0.00    -0.180 C  
HETATM   33  C   UNL     1      -9.988   6.865  74.006  1.00  0.00    -0.371 C  
HETATM   34  C   UNL     1     -11.610   6.209  72.180  1.00  0.00    -0.317 C  
HETATM   35  F   UNL     1     -12.652   6.658  71.442  1.00  0.00    -0.378 F  
HETATM   36  F   UNL     1     -12.031   5.073  72.796  1.00  0.00    -0.292 F  
HETATM   37  C   UNL     1     -10.467   5.858  71.257  1.00  0.00    -0.289 C  
HETATM   38  C   UNL     1      -9.215   5.507  72.059  1.00  0.00    -0.154 C  
ENDBRANCH  29  31
ENDBRANCH  20  27
ENDBRANCH  18  19
ENDBRANCH  17  18
ENDBRANCH   8  10
TORSDOF 6
ENDMDL
MODEL       97
REMARK 921   NORMALIZED FREE ENERGY PREDICTED BY IDOCK:   -5.65 KCAL/MOL
REMARK 922        TOTAL FREE ENERGY PREDICTED BY IDOCK:   -9.17 KCAL/MOL
REMARK 923 INTER-LIGAND FREE ENERGY PREDICTED BY IDOCK:   -8.81 KCAL/MOL
REMARK 924 INTRA-LIGAND FREE ENERGY PREDICTED BY IDOCK:   -0.36 KCAL/MOL
REMARK 927      BINDING AFFINITY PREDICTED BY RF-SCORE:    0.00 PKD
ROOT
HETATM    1  C   UNL     1     -10.754   7.746  69.944  1.00  0.00    -0.245 C  
HETATM    2  C   UNL     1     -10.120   9.146  70.032  1.00  0.00    -0.230 C  
HETATM    3  C   UNL     1      -8.664   9.055  70.375  1.00  0.00    -0.199 A  
HETATM    4  C   UNL     1     -10.814   9.979  71.119  1.00  0.00    -0.083 C  
HETATM    5  N   UNL     1      -8.233   8.748  71.580  1.00  0.00    -0.284 NA 
HETATM    6  N   UNL     1      -6.938   9.124  71.663  1.00  0.00    -0.301 NA 
HETATM    7  C   UNL     1      -6.546   9.562  70.485  1.00  0.00    -0.094 A  
HETATM    8  N   UNL     1      -7.585   9.426  69.581  1.00  0.00    -0.085 NA 
HETATM    9  C   UNL     1      -5.185  10.091  70.269  1.00  0.00    -0.039 C  
ENDROOT
BRANCH   8  10
HETATM   10  C   UNL     1      -7.655   9.718  68.133  1.00  0.00    -0.082 C  
HETATM   11  C   UNL     1      -8.961   9.339  67.395  1.00  0.00    -0.135 C  
HETATM   12  C   UNL     1      -9.626  10.405  66.503  1.00  0.00    -0.179 C  
HETATM   13  C   UNL     1      -8.954  10.321  65.134  1.00  0.00    -0.220 C  
HETATM   14  C   UNL     1      -7.707  11.168  65.326  1.00  0.00     0.414 C  
HETATM   15  C   UNL     1      -7.924  11.890  66.689  1.00  0.00    -0.032 C  
HETATM   16  C   UNL     1      -7.152  11.153  67.795  1.00  0.00    -0.086 C  
HETATM   17  N   UNL     1      -9.380  11.818  66.877  1.00  0.00    -0.187 NA 
BRANCH  17  18
HETATM   18  C   UNL     1     -10.009  12.273  68.168  1.00  0.00    -0.210 C  
BRANCH  18  19
HETATM   19  C   UNL     1     -11.212  13.322  68.148  1.00  0.00    -0.302 C  
HETATM   20  C   UNL     1     -11.228  14.661  69.065  1.00  0.00    -0.269 C  
BRANCH  20  21
HETATM   21  C   UNL     1     -11.855  14.893  70.475  1.00  0.00    -0.358 A  
HETATM   22  C   UNL     1     -13.209  15.214  72.996  1.00  0.00    -0.604 A  
HETATM   23  C   UNL     1     -12.725  13.896  71.024  1.00  0.00    -0.428 A  
HETATM   24  C   UNL     1     -12.374  16.212  72.475  1.00  0.00    -0.564 A  
HETATM   25  C   UNL     1     -11.713  16.058  71.235  1.00  0.00    -0.516 A  
HETATM   26  C   UNL     1     -13.388  14.048  72.261  1.00  0.00    -0.574 A  
ENDBRANCH  20  21
BRANCH  20  27
HETATM   27  N   UNL     1      -9.937  15.331  69.002  1.00  0.00    -0.218 N  
HETATM   28  H   UNL     1      -9.109  14.888  69.399  1.00  0.00     0.000 HD 
HETATM   29  C   UNL     1      -9.843  16.560  68.405  1.00  0.00    -0.237 C  
HETATM   30  O   UNL     1     -10.836  17.146  67.977  1.00  0.00    -0.378 OA 
BRANCH  29  31
HETATM   31  C   UNL     1      -8.470  17.217  68.411  1.00  0.00    -0.254 C  
HETATM   32  C   UNL     1      -8.825  18.816  66.503  1.00  0.00    -0.315 C  
HETATM   33  C   UNL     1      -7.953  17.691  67.049  1.00  0.00    -0.242 C  
HETATM   34  C   UNL     1      -8.959  19.971  67.481  1.00  0.00    -0.346 C  
HETATM   35  F   UNL     1      -9.847  20.874  67.001  1.00  0.00    -0.599 F  
HETATM   36  F   UNL     1      -7.765  20.613  67.575  1.00  0.00    -0.340 F  
HETATM   37  C   UNL     1      -9.386  19.547  68.866  1.00  0.00    -0.393 C  
HETATM   38  C   UNL     1      -8.507  18.407  69.376  1.00  0.00     0.405 C  
ENDBRANCH  29  31
ENDBRANCH  20  27
ENDBRANCH  18  19
ENDBRANCH  17  18
ENDBRANCH   8  10
TORSDOF 6
ENDMDL
MODEL       98
REMARK 921   NORMALIZED FREE ENERGY PREDICTED BY IDOCK:   -5.64 KCAL/MOL
REMARK 922        TOTAL FREE ENERGY PREDICTED BY IDOCK:   -9.15 KCAL/MOL
REMARK 923 INTER-LIGAND FREE ENERGY PREDICTED BY IDOCK:   -8.19 KCAL/MOL
REMARK 924 INTRA-LIGAND FREE ENERGY PREDICTED BY IDOCK:   -0.97 KCAL/MOL
REMARK 927      BINDING AFFINITY PREDICTED BY RF-SCORE:    0.00 PKD
ROOT
HETATM    1  C   UNL     1     -10.811  19.219  67.802  1.00  0.00    -0.416 C  
HETATM    2  C   UNL     1     -10.011  18.511  66.695  1.00  0.00    -0.394 C  
HETATM    3  C   UNL     1      -9.178  17.401  67.261  1.00  0.00    -0.234 A  
HETATM    4  C   UNL     1      -9.071  19.503  65.997  1.00  0.00    -0.240 C  
HETATM    5  N   UNL     1      -8.084  17.615  67.959  1.00  0.00    -0.236 NA 
HETATM    6  N   UNL     1      -7.377  16.464  67.983  1.00  0.00    -0.133 NA 
HETATM    7  C   UNL     1      -8.082  15.521  67.394  1.00  0.00    -0.177 A  
HETATM    8  N   UNL     1      -9.308  16.038  67.016  1.00  0.00    -0.213 NA 
HETATM    9  C   UNL     1      -7.553  14.153  67.221  1.00  0.00    -0.104 C  
ENDROOT
BRANCH   8  10
HETATM   10  C   UNL     1     -10.474  15.397  66.370  1.00  0.00    -0.303 C  
HETATM   11  C   UNL     1     -10.218  14.611  65.063  1.00  0.00    -0.395 C  
HETATM   12  C   UNL     1     -10.786  13.183  64.952  1.00  0.00    -0.332 C  
HETATM   13  C   UNL     1     -12.228  13.315  64.464  1.00  0.00    -0.456 C  
HETATM   14  C   UNL     1     -12.989  13.586  65.752  1.00  0.00    -0.166 C  
HETATM   15  C   UNL     1     -11.961  13.300  66.887  1.00  0.00    -0.375 C  
HETATM   16  C   UNL     1     -11.362  14.623  67.390  1.00  0.00    -0.368 C  
HETATM   17  N   UNL     1     -10.962  12.447  66.226  1.00  0.00    -0.275 NA 
BRANCH  17  18
HETATM   18  C   UNL     1      -9.693  12.060  66.939  1.00  0.00    -0.203 C  
BRANCH  18  19
HETATM   19  C   UNL     1      -9.629  12.088  68.534  1.00  0.00    -0.146 C  
HETATM   20  C   UNL     1      -9.764  10.751  69.444  1.00  0.00    -0.061 C  
BRANCH  20  21
HETATM   21  C   UNL     1     -11.029  10.129  70.114  1.00  0.00    -0.376 A  
HETATM   22  C   UNL     1     -13.367   9.169  71.495  1.00  0.00    -0.416 A  
HETATM   23  C   UNL     1     -12.077  10.995  70.566  1.00  0.00    -0.470 A  
HETATM   24  C   UNL     1     -12.350   8.301  71.076  1.00  0.00    -0.145 A  
HETATM   25  C   UNL     1     -11.199   8.772  70.403  1.00  0.00    -0.247 A  
HETATM   26  C   UNL     1     -13.226  10.528  71.239  1.00  0.00    -0.399 A  
ENDBRANCH  20  21
BRANCH  20  27
HETATM   27  N   UNL     1      -8.941   9.683  68.897  1.00  0.00    -0.139 N  
HETATM   28  H   UNL     1      -9.359   8.962  68.309  1.00  0.00     0.000 HD 
HETATM   29  C   UNL     1      -7.601   9.652  69.179  1.00  0.00    -0.082 C  
HETATM   30  O   UNL     1      -7.083  10.470  69.938  1.00  0.00    -0.140 OA 
BRANCH  29  31
HETATM   31  C   UNL     1      -6.811   8.485  68.605  1.00  0.00    -0.063 C  
HETATM   32  C   UNL     1      -7.683   8.579  66.248  1.00  0.00    -0.094 C  
HETATM   33  C   UNL     1      -7.499   7.702  67.481  1.00  0.00    -0.104 C  
HETATM   34  C   UNL     1      -6.377   9.198  65.778  1.00  0.00    -0.060 C  
HETATM   35  F   UNL     1      -6.623  10.067  64.768  1.00  0.00    -0.101 F  
HETATM   36  F   UNL     1      -5.583   8.222  65.265  1.00  0.00    -0.040 F  
HETATM   37  C   UNL     1      -5.616   9.911  66.869  1.00  0.00    -0.046 C  
HETATM   38  C   UNL     1      -5.466   9.015  68.096  1.00  0.00    -0.038 C  
ENDBRANCH  29  31
ENDBRANCH  20  27
ENDBRANCH  18  19
ENDBRANCH  17  18
ENDBRANCH   8  10
TORSDOF 6
ENDMDL
MODEL       99
REMARK 921   NORMALIZED FREE ENERGY PREDICTED BY IDOCK:   -5.60 KCAL/MOL
REMARK 922        TOTAL FREE ENERGY PREDICTED BY IDOCK:   -9.10 KCAL/MOL
REMARK 923 INTER-LIGAND FREE ENERGY PREDICTED BY IDOCK:   -7.75 KCAL/MOL
REMARK 924 INTRA-LIGAND FREE ENERGY PREDICTED BY IDOCK:   -1.35 KCAL/MOL
REMARK 927      BINDING AFFINITY PREDICTED BY RF-SCORE:    0.00 PKD
ROOT
HETATM    1  C   UNL     1     -11.401   7.980  69.125  1.00  0.00     0.479 C  
HETATM    2  C   UNL     1     -11.049   9.478  69.136  1.00  0.00    -0.082 C  
HETATM    3  C   UNL     1      -9.707   9.718  68.513  1.00  0.00    -0.154 A  
HETATM    4  C   UNL     1     -11.005  10.006  70.577  1.00  0.00    -0.392 C  
HETATM    5  N   UNL     1      -8.577   9.415  69.115  1.00  0.00    -0.134 NA 
HETATM    6  N   UNL     1      -7.584  10.090  68.494  1.00  0.00    -0.086 NA 
HETATM    7  C   UNL     1      -8.086  10.721  67.453  1.00  0.00    -0.112 A  
HETATM    8  N   UNL     1      -9.432  10.418  67.343  1.00  0.00    -0.149 NA 
HETATM    9  C   UNL     1      -7.253  11.588  66.597  1.00  0.00    -0.068 C  
ENDROOT
BRANCH   8  10
HETATM   10  C   UNL     1     -10.438  10.820  66.336  1.00  0.00    -0.233 C  
HETATM   11  C   UNL     1     -11.525  11.827  66.782  1.00  0.00    -0.352 C  
HETATM   12  C   UNL     1     -11.782  13.058  65.891  1.00  0.00    -0.394 C  
HETATM   13  C   UNL     1     -12.774  12.627  64.812  1.00  0.00    -0.460 C  
HETATM   14  C   UNL     1     -11.871  11.984  63.772  1.00  0.00    -0.581 C  
HETATM   15  C   UNL     1     -10.426  12.360  64.214  1.00  0.00    -0.363 C  
HETATM   16  C   UNL     1      -9.790  11.181  64.966  1.00  0.00    -0.315 C  
HETATM   17  N   UNL     1     -10.636  13.530  65.080  1.00  0.00    -0.350 NA 
BRANCH  17  18
HETATM   18  C   UNL     1      -9.489  14.127  65.852  1.00  0.00    -0.098 C  
BRANCH  18  19
HETATM   19  C   UNL     1      -9.699  14.603  67.361  1.00  0.00    -0.218 C  
HETATM   20  C   UNL     1      -8.761  15.722  68.071  1.00  0.00    -0.171 C  
BRANCH  20  21
HETATM   21  C   UNL     1      -7.486  15.536  68.950  1.00  0.00    -0.158 A  
HETATM   22  C   UNL     1      -5.249  15.024  70.690  1.00  0.00    -0.130 A  
HETATM   23  C   UNL     1      -7.124  14.221  69.386  1.00  0.00    -0.086 A  
HETATM   24  C   UNL     1      -5.589  16.323  70.290  1.00  0.00    -0.174 A  
HETATM   25  C   UNL     1      -6.690  16.576  69.440  1.00  0.00    -0.213 A  
HETATM   26  C   UNL     1      -6.026  13.965  70.236  1.00  0.00    -0.155 A  
ENDBRANCH  20  21
BRANCH  20  27
HETATM   27  N   UNL     1      -8.563  16.854  67.177  1.00  0.00    -0.192 N  
HETATM   28  H   UNL     1      -7.832  16.827  66.467  1.00  0.00     0.000 HD 
HETATM   29  C   UNL     1      -9.366  17.957  67.298  1.00  0.00    -0.258 C  
HETATM   30  O   UNL     1     -10.212  18.044  68.187  1.00  0.00    -0.345 OA 
BRANCH  29  31
HETATM   31  C   UNL     1      -9.077  19.117  66.357  1.00  0.00    -0.362 C  
HETATM   32  C   UNL     1      -8.053  20.694  68.027  1.00  0.00     0.068 C  
HETATM   33  C   UNL     1      -9.146  20.515  66.980  1.00  0.00    -0.416 C  
HETATM   34  C   UNL     1      -6.669  20.398  67.474  1.00  0.00    -0.278 C  
HETATM   35  F   UNL     1      -5.759  20.443  68.476  1.00  0.00    -0.244 F  
HETATM   36  F   UNL     1      -6.325  21.376  66.594  1.00  0.00    -0.329 F  
HETATM   37  C   UNL     1      -6.567  19.065  66.773  1.00  0.00    -0.200 C  
HETATM   38  C   UNL     1      -7.686  18.909  65.746  1.00  0.00    -0.042 C  
ENDBRANCH  29  31
ENDBRANCH  20  27
ENDBRANCH  18  19
ENDBRANCH  17  18
ENDBRANCH   8  10
TORSDOF 6
ENDMDL
MODEL      100
REMARK 921   NORMALIZED FREE ENERGY PREDICTED BY IDOCK:   -5.59 KCAL/MOL
REMARK 922        TOTAL FREE ENERGY PREDICTED BY IDOCK:   -9.08 KCAL/MOL
REMARK 923 INTER-LIGAND FREE ENERGY PREDICTED BY IDOCK:   -7.69 KCAL/MOL
REMARK 924 INTRA-LIGAND FREE ENERGY PREDICTED BY IDOCK:   -1.39 KCAL/MOL
REMARK 927      BINDING AFFINITY PREDICTED BY RF-SCORE:    0.00 PKD
ROOT
HETATM    1  C   UNL     1     -10.028   5.194  67.521  1.00  0.00    -0.211 C  
HETATM    2  C   UNL     1      -9.889   6.573  68.190  1.00  0.00    -0.131 C  
HETATM    3  C   UNL     1     -10.570   6.594  69.525  1.00  0.00    -0.241 A  
HETATM    4  C   UNL     1     -10.529   7.659  67.313  1.00  0.00    -0.396 C  
HETATM    5  N   UNL     1     -11.879   6.625  69.657  1.00  0.00    -0.168 NA 
HETATM    6  N   UNL     1     -12.157   7.023  70.918  1.00  0.00    -0.364 NA 
HETATM    7  C   UNL     1     -11.029   7.134  71.587  1.00  0.00    -0.228 A  
HETATM    8  N   UNL     1      -9.977   6.750  70.773  1.00  0.00    -0.187 NA 
HETATM    9  C   UNL     1     -11.001   7.601  72.987  1.00  0.00    -0.457 C  
ENDROOT
BRANCH   8  10
HETATM   10  C   UNL     1      -8.528   6.643  71.045  1.00  0.00    -0.129 C  
HETATM   11  C   UNL     1      -7.639   6.041  69.931  1.00  0.00    -0.081 C  
HETATM   12  C   UNL     1      -6.368   6.809  69.522  1.00  0.00    -0.042 C  
HETATM   13  C   UNL     1      -5.262   6.384  70.487  1.00  0.00    -0.014 C  
HETATM   14  C   UNL     1      -5.501   7.291  71.683  1.00  0.00    -0.036 C  
HETATM   15  C   UNL     1      -6.535   8.343  71.183  1.00  0.00    -0.044 C  
HETATM   16  C   UNL     1      -7.944   7.952  71.657  1.00  0.00    -0.112 C  
HETATM   17  N   UNL     1      -6.397   8.277  69.721  1.00  0.00    -0.035 NA 
BRANCH  17  18
HETATM   18  C   UNL     1      -7.341   9.040  68.827  1.00  0.00    -0.076 C  
BRANCH  18  19
HETATM   19  C   UNL     1      -6.772  10.103  67.782  1.00  0.00    -0.071 C  
HETATM   20  C   UNL     1      -7.695  10.799  66.642  1.00  0.00    -0.141 C  
BRANCH  20  21
HETATM   21  C   UNL     1      -7.929  10.376  65.158  1.00  0.00    -0.134 A  
HETATM   22  C   UNL     1      -8.164   9.719  62.365  1.00  0.00    -0.147 A  
HETATM   23  C   UNL     1      -6.798  10.086  64.328  1.00  0.00    -0.126 A  
HETATM   24  C   UNL     1      -9.288  10.012  63.150  1.00  0.00    -0.297 A  
HETATM   25  C   UNL     1      -9.173  10.340  64.520  1.00  0.00    -0.295 A  
HETATM   26  C   UNL     1      -6.909   9.760  62.960  1.00  0.00    -0.113 A  
ENDBRANCH  20  21
BRANCH  20  27
HETATM   27  N   UNL     1      -8.958  11.240  67.216  1.00  0.00    -0.148 N  
HETATM   28  H   UNL     1      -9.655  10.557  67.511  1.00  0.00     0.000 HD 
HETATM   29  C   UNL     1      -9.203  12.580  67.358  1.00  0.00    -0.186 C  
HETATM   30  O   UNL     1      -8.409  13.427  66.952  1.00  0.00    -0.125 OA 
BRANCH  29  31
HETATM   31  C   UNL     1     -10.559  12.968  67.930  1.00  0.00    -0.239 C  
HETATM   32  C   UNL     1     -11.123  14.808  66.312  1.00  0.00    -0.341 C  
HETATM   33  C   UNL     1     -10.948  14.443  67.781  1.00  0.00    -0.283 C  
HETATM   34  C   UNL     1     -12.110  13.897  65.602  1.00  0.00    -0.421 C  
HETATM   35  F   UNL     1     -12.123  14.182  64.278  1.00  0.00    -0.424 F  
HETATM   36  F   UNL     1     -13.362  14.152  66.066  1.00  0.00    -0.377 F  
HETATM   37  C   UNL     1     -11.820  12.427  65.787  1.00  0.00    -0.467 C  
HETATM   38  C   UNL     1     -11.631  12.097  67.266  1.00  0.00    -0.404 C  
ENDBRANCH  29  31
ENDBRANCH  20  27
ENDBRANCH  18  19
ENDBRANCH  17  18
ENDBRANCH   8  10
TORSDOF 6
ENDMDL
MODEL      101
REMARK 921   NORMALIZED FREE ENERGY PREDICTED BY IDOCK:   -5.54 KCAL/MOL
REMARK 922        TOTAL FREE ENERGY PREDICTED BY IDOCK:   -9.02 KCAL/MOL
REMARK 923 INTER-LIGAND FREE ENERGY PREDICTED BY IDOCK:   -8.22 KCAL/MOL
REMARK 924 INTRA-LIGAND FREE ENERGY PREDICTED BY IDOCK:   -0.81 KCAL/MOL
REMARK 927      BINDING AFFINITY PREDICTED BY RF-SCORE:    0.00 PKD
ROOT
HETATM    1  C   UNL     1      -8.609   6.279  73.310  1.00  0.00    -0.122 C  
HETATM    2  C   UNL     1      -9.873   5.989  72.482  1.00  0.00    -0.179 C  
HETATM    3  C   UNL     1     -10.629   7.252  72.197  1.00  0.00    -0.211 A  
HETATM    4  C   UNL     1     -10.805   5.038  73.244  1.00  0.00    -0.356 C  
HETATM    5  N   UNL     1     -11.333   7.882  73.113  1.00  0.00    -0.286 NA 
HETATM    6  N   UNL     1     -12.180   8.722  72.476  1.00  0.00    -0.333 NA 
HETATM    7  C   UNL     1     -11.924   8.685  71.185  1.00  0.00    -0.279 A  
HETATM    8  N   UNL     1     -10.849   7.844  70.959  1.00  0.00    -0.232 NA 
HETATM    9  C   UNL     1     -12.720   9.464  70.215  1.00  0.00     0.487 C  
ENDROOT
BRANCH   8  10
HETATM   10  C   UNL     1     -10.137   7.493  69.710  1.00  0.00    -0.194 C  
HETATM   11  C   UNL     1     -11.001   7.091  68.491  1.00  0.00    -0.135 C  
HETATM   12  C   UNL     1     -10.713   7.776  67.141  1.00  0.00    -0.267 C  
HETATM   13  C   UNL     1      -9.589   6.986  66.472  1.00  0.00    -0.201 C  
HETATM   14  C   UNL     1      -8.344   7.579  67.110  1.00  0.00    -0.121 C  
HETATM   15  C   UNL     1      -8.850   8.843  67.867  1.00  0.00    -0.133 C  
HETATM   16  C   UNL     1      -9.019   8.520  69.360  1.00  0.00    -0.149 C  
HETATM   17  N   UNL     1     -10.130   9.137  67.208  1.00  0.00    -0.214 NA 
BRANCH  17  18
HETATM   18  C   UNL     1     -11.039  10.212  67.744  1.00  0.00    -0.227 C  
BRANCH  18  19
HETATM   19  C   UNL     1     -10.495  11.256  68.822  1.00  0.00    -0.232 C  
HETATM   20  C   UNL     1      -9.552  12.518  68.430  1.00  0.00    -0.176 C  
BRANCH  20  21
HETATM   21  C   UNL     1      -7.996  12.633  68.433  1.00  0.00    -0.134 A  
HETATM   22  C   UNL     1      -5.139  12.920  68.214  1.00  0.00    -0.076 A  
HETATM   23  C   UNL     1      -7.373  13.704  67.714  1.00  0.00    -0.170 A  
HETATM   24  C   UNL     1      -5.721  11.854  68.913  1.00  0.00    -0.051 A  
HETATM   25  C   UNL     1      -7.123  11.709  69.017  1.00  0.00    -0.108 A  
HETATM   26  C   UNL     1      -5.974  13.850  67.607  1.00  0.00    -0.059 A  
ENDBRANCH  20  21
BRANCH  20  27
HETATM   27  N   UNL     1     -10.077  13.193  67.252  1.00  0.00    -0.231 N  
HETATM   28  H   UNL     1      -9.603  13.104  66.354  1.00  0.00     0.000 HD 
HETATM   29  C   UNL     1     -11.214  13.950  67.360  1.00  0.00    -0.312 C  
HETATM   30  O   UNL     1     -11.769  14.129  68.443  1.00  0.00    -0.306 OA 
BRANCH  29  31
HETATM   31  C   UNL     1     -11.683  14.658  66.097  1.00  0.00    -0.316 C  
HETATM   32  C   UNL     1     -10.444  13.259  64.414  1.00  0.00    -0.424 C  
HETATM   33  C   UNL     1     -10.688  14.672  64.932  1.00  0.00    -0.447 C  
HETATM   34  C   UNL     1     -11.734  12.550  64.038  1.00  0.00    -0.423 C  
HETATM   35  F   UNL     1     -11.468  11.262  63.715  1.00  0.00    -0.465 F  
HETATM   36  F   UNL     1     -12.250  13.131  62.922  1.00  0.00    -0.589 F  
HETATM   37  C   UNL     1     -12.783  12.581  65.123  1.00  0.00    -0.208 C  
HETATM   38  C   UNL     1     -12.990  14.005  65.633  1.00  0.00    -0.337 C  
ENDBRANCH  29  31
ENDBRANCH  20  27
ENDBRANCH  18  19
ENDBRANCH  17  18
ENDBRANCH   8  10
TORSDOF 6
ENDMDL
MODEL      102
REMARK 921   NORMALIZED FREE ENERGY PREDICTED BY IDOCK:   -5.53 KCAL/MOL
REMARK 922        TOTAL FREE ENERGY PREDICTED BY IDOCK:   -9.00 KCAL/MOL
REMARK 923 INTER-LIGAND FREE ENERGY PREDICTED BY IDOCK:   -7.62 KCAL/MOL
REMARK 924 INTRA-LIGAND FREE ENERGY PREDICTED BY IDOCK:   -1.38 KCAL/MOL
REMARK 927      BINDING AFFINITY PREDICTED BY RF-SCORE:    0.00 PKD
ROOT
HETATM    1  C   UNL     1      -9.873  15.469  66.298  1.00  0.00    -0.317 C  
HETATM    2  C   UNL     1      -9.767  14.563  67.537  1.00  0.00    -0.211 C  
HETATM    3  C   UNL     1     -10.463  13.255  67.306  1.00  0.00    -0.247 A  
HETATM    4  C   UNL     1     -10.417  15.240  68.751  1.00  0.00    -0.237 C  
HETATM    5  N   UNL     1     -11.774  13.138  67.291  1.00  0.00    -0.357 NA 
HETATM    6  N   UNL     1     -12.073  11.831  67.453  1.00  0.00    -0.530 NA 
HETATM    7  C   UNL     1     -10.954  11.137  67.461  1.00  0.00    -0.275 A  
HETATM    8  N   UNL     1      -9.887  11.991  67.246  1.00  0.00    -0.191 NA 
HETATM    9  C   UNL     1     -10.951   9.675  67.669  1.00  0.00    -0.190 C  
ENDROOT
BRANCH   8  10
HETATM   10  C   UNL     1      -8.439  11.722  67.116  1.00  0.00    -0.170 C  
HETATM   11  C   UNL     1      -7.603  11.693  68.418  1.00  0.00    -0.126 C  
HETATM   12  C   UNL     1      -6.667  10.493  68.653  1.00  0.00    -0.053 C  
HETATM   13  C   UNL     1      -5.352  10.808  67.941  1.00  0.00    -0.039 C  
HETATM   14  C   UNL     1      -5.641  10.383  66.511  1.00  0.00    -0.057 C  
HETATM   15  C   UNL     1      -6.986   9.602  66.593  1.00  0.00    -0.085 C  
HETATM   16  C   UNL     1      -8.145  10.519  66.170  1.00  0.00    -0.145 C  
HETATM   17  N   UNL     1      -7.062   9.217  68.010  1.00  0.00    -0.077 NA 
BRANCH  17  18
HETATM   18  C   UNL     1      -8.303   8.564  68.560  1.00  0.00    -0.123 C  
BRANCH  18  19
HETATM   19  C   UNL     1      -8.612   8.620  70.125  1.00  0.00    -0.138 C  
HETATM   20  C   UNL     1      -9.823   7.788  70.814  1.00  0.00    -0.180 C  
BRANCH  20  21
HETATM   21  C   UNL     1     -11.284   8.237  71.130  1.00  0.00    -0.296 A  
HETATM   22  C   UNL     1     -13.888   9.214  71.873  1.00  0.00    -0.455 A  
HETATM   23  C   UNL     1     -11.540   9.610  71.445  1.00  0.00    -0.472 A  
HETATM   24  C   UNL     1     -13.664   7.862  71.582  1.00  0.00    -0.422 A  
HETATM   25  C   UNL     1     -12.385   7.380  71.223  1.00  0.00    -0.380 A  
HETATM   26  C   UNL     1     -12.815  10.094  71.806  1.00  0.00    -0.554 A  
ENDBRANCH  20  21
BRANCH  20  27
HETATM   27  N   UNL     1      -9.843   6.420  70.316  1.00  0.00    -0.167 N  
HETATM   28  H   UNL     1     -10.041   6.234  69.334  1.00  0.00     0.000 HD 
HETATM   29  C   UNL     1      -9.592   5.384  71.177  1.00  0.00    -0.164 C  
HETATM   30  O   UNL     1      -9.414   5.575  72.379  1.00  0.00    -0.144 OA 
BRANCH  29  31
HETATM   31  C   UNL     1      -9.667   3.980  70.595  1.00  0.00    -0.266 C  
HETATM   32  C   UNL     1      -7.939   4.243  68.787  1.00  0.00    -0.072 C  
HETATM   33  C   UNL     1      -9.384   3.865  69.093  1.00  0.00    -0.240 C  
HETATM   34  C   UNL     1      -6.944   3.438  69.606  1.00  0.00    -0.041 C  
HETATM   35  F   UNL     1      -5.692   3.908  69.391  1.00  0.00    -0.015 F  
HETATM   36  F   UNL     1      -6.955   2.150  69.173  1.00  0.00    -0.035 F  
HETATM   37  C   UNL     1      -7.228   3.449  71.088  1.00  0.00    -0.033 C  
HETATM   38  C   UNL     1      -8.687   3.085  71.360  1.00  0.00    -0.118 C  
ENDBRANCH  29  31
ENDBRANCH  20  27
ENDBRANCH  18  19
ENDBRANCH  17  18
ENDBRANCH   8  10
TORSDOF 6
ENDMDL
MODEL      103
REMARK 921   NORMALIZED FREE ENERGY PREDICTED BY IDOCK:   -5.50 KCAL/MOL
REMARK 922        TOTAL FREE ENERGY PREDICTED BY IDOCK:   -8.97 KCAL/MOL
REMARK 923 INTER-LIGAND FREE ENERGY PREDICTED BY IDOCK:   -7.37 KCAL/MOL
REMARK 924 INTRA-LIGAND FREE ENERGY PREDICTED BY IDOCK:   -1.60 KCAL/MOL
REMARK 927      BINDING AFFINITY PREDICTED BY RF-SCORE:    0.00 PKD
ROOT
HETATM    1  C   UNL     1     -12.026  12.312  68.745  1.00  0.00    -0.281 C  
HETATM    2  C   UNL     1     -11.092  12.376  67.524  1.00  0.00    -0.313 C  
HETATM    3  C   UNL     1     -10.449  13.725  67.410  1.00  0.00    -0.256 A  
HETATM    4  C   UNL     1     -11.882  12.115  66.234  1.00  0.00    -0.320 C  
HETATM    5  N   UNL     1     -11.102  14.795  67.008  1.00  0.00    -0.325 NA 
HETATM    6  N   UNL     1     -10.189  15.723  66.646  1.00  0.00    -0.277 NA 
HETATM    7  C   UNL     1      -8.986  15.267  66.922  1.00  0.00    -0.249 A  
HETATM    8  N   UNL     1      -9.098  14.029  67.532  1.00  0.00    -0.187 NA 
HETATM    9  C   UNL     1      -7.771  16.039  66.595  1.00  0.00    -0.239 C  
ENDROOT
BRANCH   8  10
HETATM   10  C   UNL     1      -8.067  13.120  68.079  1.00  0.00    -0.157 C  
HETATM   11  C   UNL     1      -8.508  12.131  69.184  1.00  0.00     0.519 C  
HETATM   12  C   UNL     1      -8.130  10.646  69.021  1.00  0.00    -0.148 C  
HETATM   13  C   UNL     1      -6.720  10.482  69.584  1.00  0.00    -0.108 C  
HETATM   14  C   UNL     1      -5.846  10.897  68.412  1.00  0.00    -0.043 C  
HETATM   15  C   UNL     1      -6.822  10.985  67.202  1.00  0.00    -0.098 C  
HETATM   16  C   UNL     1      -7.216  12.451  66.958  1.00  0.00    -0.013 C  
HETATM   17  N   UNL     1      -7.962  10.162  67.631  1.00  0.00    -0.102 NA 
BRANCH  17  18
HETATM   18  C   UNL     1      -9.218  10.101  66.802  1.00  0.00    -0.151 C  
BRANCH  18  19
HETATM   19  C   UNL     1      -9.874   8.691  66.442  1.00  0.00    -0.341 C  
HETATM   20  C   UNL     1      -9.513   7.322  67.236  1.00  0.00    -0.138 C  
BRANCH  20  21
HETATM   21  C   UNL     1      -8.453   6.228  66.899  1.00  0.00    -0.109 A  
HETATM   22  C   UNL     1      -6.677   4.057  66.250  1.00  0.00    -0.053 A  
HETATM   23  C   UNL     1      -8.754   5.249  65.899  1.00  0.00    -0.138 A  
HETATM   24  C   UNL     1      -6.363   4.994  67.244  1.00  0.00    -0.040 A  
HETATM   25  C   UNL     1      -7.236   6.057  67.568  1.00  0.00    -0.076 A  
HETATM   26  C   UNL     1      -7.884   4.186  65.575  1.00  0.00    -0.090 A  
ENDBRANCH  20  21
BRANCH  20  27
HETATM   27  N   UNL     1      -9.515   7.558  68.673  1.00  0.00    -0.146 N  
HETATM   28  H   UNL     1      -8.791   8.137  69.099  1.00  0.00     0.000 HD 
HETATM   29  C   UNL     1     -10.495   6.998  69.447  1.00  0.00    -0.214 C  
HETATM   30  O   UNL     1     -11.341   6.243  68.970  1.00  0.00    -0.390 OA 
BRANCH  29  31
HETATM   31  C   UNL     1     -10.411   7.255  70.945  1.00  0.00    -0.225 C  
HETATM   32  C   UNL     1     -11.527   9.508  70.990  1.00  0.00    -0.420 C  
HETATM   33  C   UNL     1     -10.275   8.724  71.362  1.00  0.00    -0.350 C  
HETATM   34  C   UNL     1     -12.792   8.883  71.555  1.00  0.00    -0.334 C  
HETATM   35  F   UNL     1     -13.876   9.543  71.082  1.00  0.00    -0.415 F  
HETATM   36  F   UNL     1     -12.799   9.041  72.905  1.00  0.00    -0.442 F  
HETATM   37  C   UNL     1     -12.933   7.413  71.243  1.00  0.00    -0.358 C  
HETATM   38  C   UNL     1     -11.657   6.659  71.609  1.00  0.00    -0.350 C  
ENDBRANCH  29  31
ENDBRANCH  20  27
ENDBRANCH  18  19
ENDBRANCH  17  18
ENDBRANCH   8  10
TORSDOF 6
ENDMDL
MODEL      104
REMARK 921   NORMALIZED FREE ENERGY PREDICTED BY IDOCK:   -5.50 KCAL/MOL
REMARK 922        TOTAL FREE ENERGY PREDICTED BY IDOCK:   -8.96 KCAL/MOL
REMARK 923 INTER-LIGAND FREE ENERGY PREDICTED BY IDOCK:   -8.21 KCAL/MOL
REMARK 924 INTRA-LIGAND FREE ENERGY PREDICTED BY IDOCK:   -0.75 KCAL/MOL
REMARK 927      BINDING AFFINITY PREDICTED BY RF-SCORE:    0.00 PKD
ROOT
HETATM    1  C   UNL     1      -6.686  16.112  67.325  1.00  0.00    -0.233 C  
HETATM    2  C   UNL     1      -7.370  14.861  67.904  1.00  0.00    -0.159 C  
HETATM    3  C   UNL     1      -8.690  15.209  68.524  1.00  0.00    -0.172 A  
HETATM    4  C   UNL     1      -6.489  14.225  68.988  1.00  0.00    -0.100 C  
HETATM    5  N   UNL     1      -8.793  15.839  69.674  1.00  0.00    -0.166 NA 
HETATM    6  N   UNL     1     -10.051  15.656  70.133  1.00  0.00    -0.240 NA 
HETATM    7  C   UNL     1     -10.746  15.008  69.221  1.00  0.00    -0.248 A  
HETATM    8  N   UNL     1      -9.952  14.800  68.107  1.00  0.00    -0.217 NA 
HETATM    9  C   UNL     1     -12.151  14.616  69.451  1.00  0.00    -0.317 C  
ENDROOT
BRANCH   8  10
HETATM   10  C   UNL     1     -10.255  14.173  66.802  1.00  0.00    -0.262 C  
HETATM   11  C   UNL     1      -9.463  12.898  66.427  1.00  0.00    -0.228 C  
HETATM   12  C   UNL     1     -10.255  11.670  65.937  1.00  0.00    -0.238 C  
HETATM   13  C   UNL     1     -10.470  11.851  64.435  1.00  0.00    -0.356 C  
HETATM   14  C   UNL     1     -11.699  12.743  64.382  1.00  0.00    -0.426 C  
HETATM   15  C   UNL     1     -12.242  12.757  65.842  1.00  0.00    -0.359 C  
HETATM   16  C   UNL     1     -11.788  14.041  66.552  1.00  0.00    -0.439 C  
HETATM   17  N   UNL     1     -11.647  11.548  66.431  1.00  0.00    -0.387 NA 
BRANCH  17  18
HETATM   18  C   UNL     1     -11.797  11.260  67.902  1.00  0.00    -0.133 C  
BRANCH  18  19
HETATM   19  C   UNL     1     -10.522  11.301  68.861  1.00  0.00    -0.232 C  
HETATM   20  C   UNL     1      -9.827   9.963  69.462  1.00  0.00    -0.223 C  
BRANCH  20  21
HETATM   21  C   UNL     1     -10.070   9.245  70.826  1.00  0.00    -0.358 A  
HETATM   22  C   UNL     1     -10.312   7.807  73.309  1.00  0.00    -0.364 A  
HETATM   23  C   UNL     1      -8.954   8.975  71.682  1.00  0.00    -0.144 A  
HETATM   24  C   UNL     1     -11.420   8.045  72.484  1.00  0.00    -0.471 A  
HETATM   25  C   UNL     1     -11.302   8.746  71.262  1.00  0.00    -0.357 A  
HETATM   26  C   UNL     1      -9.069   8.275  72.901  1.00  0.00    -0.332 A  
ENDBRANCH  20  21
BRANCH  20  27
HETATM   27  N   UNL     1      -9.675   8.961  68.417  1.00  0.00    -0.157 N  
HETATM   28  H   UNL     1     -10.471   8.699  67.836  1.00  0.00     0.000 HD 
HETATM   29  C   UNL     1      -8.454   8.373  68.219  1.00  0.00    -0.135 C  
HETATM   30  O   UNL     1      -7.494   8.621  68.946  1.00  0.00    -0.086 OA 
BRANCH  29  31
HETATM   31  C   UNL     1      -8.379   7.307  67.135  1.00  0.00    -0.118 C  
HETATM   32  C   UNL     1      -8.994   8.746  65.167  1.00  0.00    -0.152 C  
HETATM   33  C   UNL     1      -9.339   7.488  65.955  1.00  0.00     0.022 C  
HETATM   34  C   UNL     1      -7.543   8.766  64.714  1.00  0.00    -0.107 C  
HETATM   35  F   UNL     1      -7.262   9.959  64.140  1.00  0.00    -0.114 F  
HETATM   36  F   UNL     1      -7.367   7.821  63.753  1.00  0.00    -0.074 F  
HETATM   37  C   UNL     1      -6.557   8.508  65.827  1.00  0.00    -0.056 C  
HETATM   38  C   UNL     1      -6.941   7.253  66.608  1.00  0.00    -0.073 C  
ENDBRANCH  29  31
ENDBRANCH  20  27
ENDBRANCH  18  19
ENDBRANCH  17  18
ENDBRANCH   8  10
TORSDOF 6
ENDMDL
MODEL      105
REMARK 921   NORMALIZED FREE ENERGY PREDICTED BY IDOCK:   -5.47 KCAL/MOL
REMARK 922        TOTAL FREE ENERGY PREDICTED BY IDOCK:   -8.93 KCAL/MOL
REMARK 923 INTER-LIGAND FREE ENERGY PREDICTED BY IDOCK:   -8.54 KCAL/MOL
REMARK 924 INTRA-LIGAND FREE ENERGY PREDICTED BY IDOCK:   -0.40 KCAL/MOL
REMARK 927      BINDING AFFINITY PREDICTED BY RF-SCORE:    0.00 PKD
ROOT
HETATM    1  C   UNL     1     -10.346  15.234  67.992  1.00  0.00    -0.244 C  
HETATM    2  C   UNL     1     -10.846  13.797  67.768  1.00  0.00    -0.262 C  
HETATM    3  C   UNL     1     -11.493  13.657  66.423  1.00  0.00    -0.338 A  
HETATM    4  C   UNL     1     -11.882  13.419  68.836  1.00  0.00    -0.373 C  
HETATM    5  N   UNL     1     -12.683  14.148  66.150  1.00  0.00    -0.355 NA 
HETATM    6  N   UNL     1     -13.134  13.538  65.032  1.00  0.00    -0.717 NA 
HETATM    7  C   UNL     1     -12.186  12.755  64.563  1.00  0.00    -0.433 A  
HETATM    8  N   UNL     1     -11.057  12.884  65.353  1.00  0.00    -0.277 NA 
HETATM    9  C   UNL     1     -12.397  11.913  63.369  1.00  0.00    -0.577 C  
ENDROOT
BRANCH   8  10
HETATM   10  C   UNL     1      -9.716  12.272  65.236  1.00  0.00    -0.113 C  
HETATM   11  C   UNL     1      -8.777  12.382  66.461  1.00  0.00    -0.059 C  
HETATM   12  C   UNL     1      -8.089  11.099  66.966  1.00  0.00    -0.148 C  
HETATM   13  C   UNL     1      -6.816  10.922  66.139  1.00  0.00    -0.100 C  
HETATM   14  C   UNL     1      -7.329  10.230  64.887  1.00  0.00    -0.110 C  
HETATM   15  C   UNL     1      -8.791   9.818  65.233  1.00  0.00    -0.175 C  
HETATM   16  C   UNL     1      -9.773  10.836  64.632  1.00  0.00    -0.344 C  
HETATM   17  N   UNL     1      -8.802   9.827  66.703  1.00  0.00    -0.137 NA 
BRANCH  17  18
HETATM   18  C   UNL     1     -10.089   9.629  67.460  1.00  0.00    -0.197 C  
BRANCH  18  19
HETATM   19  C   UNL     1     -10.282  10.290  68.900  1.00  0.00    -0.220 C  
HETATM   20  C   UNL     1     -10.556   9.419  70.241  1.00  0.00    -0.250 C  
BRANCH  20  21
HETATM   21  C   UNL     1     -11.909   9.027  70.913  1.00  0.00    -0.302 A  
HETATM   22  C   UNL     1     -14.364   8.474  72.312  1.00  0.00    -0.483 A  
HETATM   23  C   UNL     1     -12.728  10.053  71.485  1.00  0.00    -0.532 A  
HETATM   24  C   UNL     1     -13.575   7.448  71.774  1.00  0.00    -0.396 A  
HETATM   25  C   UNL     1     -12.367   7.718  71.091  1.00  0.00    -0.268 A  
HETATM   26  C   UNL     1     -13.933   9.787  72.168  1.00  0.00    -0.146 A  
ENDBRANCH  20  21
BRANCH  20  27
HETATM   27  N   UNL     1      -9.650   8.280  70.296  1.00  0.00    -0.167 N  
HETATM   28  H   UNL     1     -10.017   7.330  70.267  1.00  0.00     0.000 HD 
HETATM   29  C   UNL     1      -8.300   8.496  70.388  1.00  0.00    -0.124 C  
HETATM   30  O   UNL     1      -7.835   9.630  70.490  1.00  0.00    -0.164 OA 
BRANCH  29  31
HETATM   31  C   UNL     1      -7.417   7.260  70.480  1.00  0.00    -0.083 C  
HETATM   32  C   UNL     1      -5.660   8.183  72.023  1.00  0.00    -0.037 C  
HETATM   33  C   UNL     1      -5.920   7.523  70.674  1.00  0.00    -0.031 C  
HETATM   34  C   UNL     1      -6.241   7.386  73.179  1.00  0.00    -0.059 C  
HETATM   35  F   UNL     1      -6.096   8.083  74.331  1.00  0.00    -0.083 F  
HETATM   36  F   UNL     1      -5.528   6.239  73.329  1.00  0.00    -0.033 F  
HETATM   37  C   UNL     1      -7.696   7.027  72.998  1.00  0.00    -0.097 C  
HETATM   38  C   UNL     1      -7.927   6.386  71.631  1.00  0.00    -0.102 C  
ENDBRANCH  29  31
ENDBRANCH  20  27
ENDBRANCH  18  19
ENDBRANCH  17  18
ENDBRANCH   8  10
TORSDOF 6
ENDMDL
MODEL      106
REMARK 921   NORMALIZED FREE ENERGY PREDICTED BY IDOCK:   -5.46 KCAL/MOL
REMARK 922        TOTAL FREE ENERGY PREDICTED BY IDOCK:   -8.91 KCAL/MOL
REMARK 923 INTER-LIGAND FREE ENERGY PREDICTED BY IDOCK:   -7.65 KCAL/MOL
REMARK 924 INTRA-LIGAND FREE ENERGY PREDICTED BY IDOCK:   -1.26 KCAL/MOL
REMARK 927      BINDING AFFINITY PREDICTED BY RF-SCORE:    0.00 PKD
ROOT
HETATM    1  C   UNL     1      -8.015  16.980  66.249  1.00  0.00    -0.343 C  
HETATM    2  C   UNL     1      -8.416  16.155  67.485  1.00  0.00    -0.177 C  
HETATM    3  C   UNL     1      -9.733  15.472  67.270  1.00  0.00    -0.218 A  
HETATM    4  C   UNL     1      -8.547  17.064  68.715  1.00  0.00    -0.238 C  
HETATM    5  N   UNL     1     -10.881  16.115  67.286  1.00  0.00    -0.281 NA 
HETATM    6  N   UNL     1     -11.863  15.202  67.454  1.00  0.00    -0.183 NA 
HETATM    7  C   UNL     1     -11.331  13.998  67.435  1.00  0.00    -0.329 A  
HETATM    8  N   UNL     1      -9.972  14.105  67.195  1.00  0.00    -0.251 NA 
HETATM    9  C   UNL     1     -12.150  12.787  67.642  1.00  0.00    -0.200 C  
ENDROOT
BRANCH   8  10
HETATM   10  C   UNL     1      -8.932  13.067  67.031  1.00  0.00    -0.225 C  
HETATM   11  C   UNL     1      -7.941  12.863  68.202  1.00  0.00    -0.153 C  
HETATM   12  C   UNL     1      -7.706  11.429  68.713  1.00  0.00    -0.135 C  
HETATM   13  C   UNL     1      -6.622  10.814  67.829  1.00  0.00    -0.064 C  
HETATM   14  C   UNL     1      -7.415  10.324  66.628  1.00  0.00    -0.110 C  
HETATM   15  C   UNL     1      -8.906  10.444  67.061  1.00  0.00    -0.136 C  
HETATM   16  C   UNL     1      -9.513  11.730  66.478  1.00  0.00    -0.225 C  
HETATM   17  N   UNL     1      -8.826  10.476  68.528  1.00  0.00    -0.136 NA 
BRANCH  17  18
HETATM   18  C   UNL     1     -10.055  10.743  69.357  1.00  0.00    -0.139 C  
BRANCH  18  19
HETATM   19  C   UNL     1     -11.206   9.642  69.462  1.00  0.00    -0.144 C  
HETATM   20  C   UNL     1     -10.915   8.099  69.874  1.00  0.00    -0.168 C  
BRANCH  20  21
HETATM   21  C   UNL     1     -10.654   6.860  68.963  1.00  0.00    -0.240 A  
HETATM   22  C   UNL     1      -9.991   4.519  67.423  1.00  0.00    -0.171 A  
HETATM   23  C   UNL     1     -10.206   5.637  69.558  1.00  0.00    -0.320 A  
HETATM   24  C   UNL     1     -10.414   5.707  66.812  1.00  0.00    -0.353 A  
HETATM   25  C   UNL     1     -10.734   6.859  67.566  1.00  0.00    -0.368 A  
HETATM   26  C   UNL     1      -9.884   4.486  68.808  1.00  0.00    -0.180 A  
ENDBRANCH  20  21
BRANCH  20  27
HETATM   27  N   UNL     1     -10.019   8.044  71.020  1.00  0.00    -0.181 N  
HETATM   28  H   UNL     1      -9.008   8.056  70.884  1.00  0.00     0.000 HD 
HETATM   29  C   UNL     1     -10.543   7.977  72.284  1.00  0.00    -0.291 C  
HETATM   30  O   UNL     1     -11.756   7.895  72.475  1.00  0.00    -0.358 OA 
BRANCH  29  31
HETATM   31  C   UNL     1      -9.547   7.883  73.431  1.00  0.00    -0.331 C  
HETATM   32  C   UNL     1      -9.397   5.377  73.578  1.00  0.00    -0.134 C  
HETATM   33  C   UNL     1      -9.695   6.661  74.344  1.00  0.00    -0.329 C  
HETATM   34  C   UNL     1      -8.036   5.408  72.904  1.00  0.00    -0.102 C  
HETATM   35  F   UNL     1      -7.884   4.304  72.134  1.00  0.00    -0.073 F  
HETATM   36  F   UNL     1      -7.068   5.353  73.857  1.00  0.00    -0.079 F  
HETATM   37  C   UNL     1      -7.806   6.636  72.057  1.00  0.00    -0.097 C  
HETATM   38  C   UNL     1      -8.131   7.903  72.845  1.00  0.00    -0.189 C  
ENDBRANCH  29  31
ENDBRANCH  20  27
ENDBRANCH  18  19
ENDBRANCH  17  18
ENDBRANCH   8  10
TORSDOF 6
ENDMDL
MODEL      107
REMARK 921   NORMALIZED FREE ENERGY PREDICTED BY IDOCK:   -5.46 KCAL/MOL
REMARK 922        TOTAL FREE ENERGY PREDICTED BY IDOCK:   -8.91 KCAL/MOL
REMARK 923 INTER-LIGAND FREE ENERGY PREDICTED BY IDOCK:   -8.24 KCAL/MOL
REMARK 924 INTRA-LIGAND FREE ENERGY PREDICTED BY IDOCK:   -0.67 KCAL/MOL
REMARK 927      BINDING AFFINITY PREDICTED BY RF-SCORE:    0.00 PKD
ROOT
HETATM    1  C   UNL     1     -10.907   7.850  67.008  1.00  0.00    -0.148 C  
HETATM    2  C   UNL     1     -10.281   6.486  67.346  1.00  0.00    -0.227 C  
HETATM    3  C   UNL     1      -8.791   6.593  67.463  1.00  0.00    -0.116 A  
HETATM    4  C   UNL     1     -10.599   5.464  66.245  1.00  0.00    -0.268 C  
HETATM    5  N   UNL     1      -8.002   6.733  66.419  1.00  0.00    -0.104 NA 
HETATM    6  N   UNL     1      -6.747   6.412  66.804  1.00  0.00    -0.058 NA 
HETATM    7  C   UNL     1      -6.747   6.178  68.100  1.00  0.00    -0.064 A  
HETATM    8  N   UNL     1      -8.017   6.400  68.602  1.00  0.00    -0.105 NA 
HETATM    9  C   UNL     1      -5.524   5.755  68.811  1.00  0.00    -0.011 C  
ENDROOT
BRANCH   8  10
HETATM   10  C   UNL     1      -8.540   6.330  69.984  1.00  0.00    -0.134 C  
HETATM   11  C   UNL     1      -7.775   7.119  71.073  1.00  0.00    -0.090 C  
HETATM   12  C   UNL     1      -8.585   8.038  72.007  1.00  0.00    -0.146 C  
HETATM   13  C   UNL     1      -9.101   7.166  73.151  1.00  0.00    -0.173 C  
HETATM   14  C   UNL     1     -10.360   6.555  72.558  1.00  0.00    -0.216 C  
HETATM   15  C   UNL     1     -10.604   7.349  71.241  1.00  0.00    -0.216 C  
HETATM   16  C   UNL     1     -10.083   6.540  70.042  1.00  0.00    -0.203 C  
HETATM   17  N   UNL     1      -9.844   8.590  71.453  1.00  0.00    -0.206 NA 
BRANCH  17  18
HETATM   18  C   UNL     1      -9.685   9.591  70.339  1.00  0.00    -0.271 C  
BRANCH  18  19
HETATM   19  C   UNL     1     -10.969  10.150  69.574  1.00  0.00    -0.295 C  
HETATM   20  C   UNL     1     -11.374  11.722  69.564  1.00  0.00    -0.248 C  
BRANCH  20  21
HETATM   21  C   UNL     1     -12.347  12.504  70.502  1.00  0.00    -0.345 A  
HETATM   22  C   UNL     1     -13.997  14.132  72.209  1.00  0.00    -0.646 A  
HETATM   23  C   UNL     1     -12.584  13.895  70.259  1.00  0.00    -0.328 A  
HETATM   24  C   UNL     1     -13.771  12.776  72.479  1.00  0.00    -0.333 A  
HETATM   25  C   UNL     1     -12.957  11.976  71.645  1.00  0.00    -0.439 A  
HETATM   26  C   UNL     1     -13.395  14.696  71.090  1.00  0.00    -0.433 A  
ENDBRANCH  20  21
BRANCH  20  27
HETATM   27  N   UNL     1     -10.200  12.544  69.305  1.00  0.00    -0.316 N  
HETATM   28  H   UNL     1      -9.498  12.681  70.031  1.00  0.00     0.000 HD 
HETATM   29  C   UNL     1     -10.046  13.130  68.077  1.00  0.00    -0.232 C  
HETATM   30  O   UNL     1     -10.908  13.035  67.204  1.00  0.00    -0.255 OA 
BRANCH  29  31
HETATM   31  C   UNL     1      -8.815  14.006  67.890  1.00  0.00    -0.185 C  
HETATM   32  C   UNL     1      -9.985  16.176  67.391  1.00  0.00    -0.247 C  
HETATM   33  C   UNL     1      -8.963  15.160  66.892  1.00  0.00    -0.277 C  
HETATM   34  C   UNL     1      -9.663  16.682  68.787  1.00  0.00    -0.254 C  
HETATM   35  F   UNL     1     -10.669  17.474  69.228  1.00  0.00    -0.309 F  
HETATM   36  F   UNL     1      -8.552  17.463  68.730  1.00  0.00    -0.265 F  
HETATM   37  C   UNL     1      -9.424  15.582  69.792  1.00  0.00    -0.178 C  
HETATM   38  C   UNL     1      -8.412  14.572  69.256  1.00  0.00     0.099 C  
ENDBRANCH  29  31
ENDBRANCH  20  27
ENDBRANCH  18  19
ENDBRANCH  17  18
ENDBRANCH   8  10
TORSDOF 6
ENDMDL
MODEL      108
REMARK 921   NORMALIZED FREE ENERGY PREDICTED BY IDOCK:   -5.45 KCAL/MOL
REMARK 922        TOTAL FREE ENERGY PREDICTED BY IDOCK:   -8.90 KCAL/MOL
REMARK 923 INTER-LIGAND FREE ENERGY PREDICTED BY IDOCK:   -8.47 KCAL/MOL
REMARK 924 INTRA-LIGAND FREE ENERGY PREDICTED BY IDOCK:   -0.43 KCAL/MOL
REMARK 927      BINDING AFFINITY PREDICTED BY RF-SCORE:    0.00 PKD
ROOT
HETATM    1  C   UNL     1     -10.500   3.009  63.735  1.00  0.00    -0.198 C  
HETATM    2  C   UNL     1      -9.049   3.340  64.124  1.00  0.00    -0.115 C  
HETATM    3  C   UNL     1      -8.772   4.805  63.972  1.00  0.00    -0.138 A  
HETATM    4  C   UNL     1      -8.067   2.575  63.226  1.00  0.00    -0.073 C  
HETATM    5  N   UNL     1      -8.625   5.384  62.800  1.00  0.00    -0.091 NA 
HETATM    6  N   UNL     1      -8.017   6.574  63.002  1.00  0.00    -0.102 NA 
HETATM    7  C   UNL     1      -7.888   6.771  64.297  1.00  0.00    -0.109 A  
HETATM    8  N   UNL     1      -8.469   5.716  64.978  1.00  0.00    -0.146 NA 
HETATM    9  C   UNL     1      -7.214   7.970  64.835  1.00  0.00    -0.073 C  
ENDROOT
BRANCH   8  10
HETATM   10  C   UNL     1      -8.640   5.472  66.426  1.00  0.00    -0.121 C  
HETATM   11  C   UNL     1      -7.987   6.484  67.398  1.00  0.00    -0.113 C  
HETATM   12  C   UNL     1      -8.854   7.063  68.532  1.00  0.00    -0.124 C  
HETATM   13  C   UNL     1      -8.790   6.070  69.692  1.00  0.00    -0.133 C  
HETATM   14  C   UNL     1      -9.854   5.052  69.313  1.00  0.00    -0.266 C  
HETATM   15  C   UNL     1     -10.623   5.704  68.127  1.00  0.00    -0.183 C  
HETATM   16  C   UNL     1     -10.113   5.125  66.798  1.00  0.00    -0.264 C  
HETATM   17  N   UNL     1     -10.311   7.134  68.272  1.00  0.00    -0.188 NA 
BRANCH  17  18
HETATM   18  C   UNL     1     -10.741   8.122  67.220  1.00  0.00    -0.193 C  
BRANCH  18  19
HETATM   19  C   UNL     1      -9.792   9.345  66.832  1.00  0.00    -0.261 C  
HETATM   20  C   UNL     1      -9.904  10.805  67.533  1.00  0.00    -0.172 C  
BRANCH  20  21
HETATM   21  C   UNL     1     -10.698  12.068  67.075  1.00  0.00    -0.280 A  
HETATM   22  C   UNL     1     -12.131  14.325  66.007  1.00  0.00    -0.423 A  
HETATM   23  C   UNL     1     -11.583  11.969  65.954  1.00  0.00    -0.364 A  
HETATM   24  C   UNL     1     -11.261  14.454  67.098  1.00  0.00    -0.337 A  
HETATM   25  C   UNL     1     -10.552  13.348  67.620  1.00  0.00    -0.249 A  
HETATM   26  C   UNL     1     -12.290  13.071  65.429  1.00  0.00    -0.538 A  
ENDBRANCH  20  21
BRANCH  20  27
HETATM   27  N   UNL     1     -10.027  10.663  68.977  1.00  0.00    -0.206 N  
HETATM   28  H   UNL     1      -9.194  10.572  69.557  1.00  0.00     0.000 HD 
HETATM   29  C   UNL     1     -11.271  10.652  69.551  1.00  0.00    -0.272 C  
HETATM   30  O   UNL     1     -12.295  10.695  68.870  1.00  0.00    -0.358 OA 
BRANCH  29  31
HETATM   31  C   UNL     1     -11.324  10.462  71.059  1.00  0.00    -0.208 C  
HETATM   32  C   UNL     1     -13.658   9.542  71.228  1.00  0.00    -0.298 C  
HETATM   33  C   UNL     1     -12.704  10.630  71.705  1.00  0.00    -0.531 C  
HETATM   34  C   UNL     1     -13.104   8.145  71.455  1.00  0.00    -0.225 C  
HETATM   35  F   UNL     1     -13.930   7.231  70.894  1.00  0.00    -0.416 F  
HETATM   36  F   UNL     1     -13.087   7.886  72.789  1.00  0.00    -0.029 F  
HETATM   37  C   UNL     1     -11.709   7.951  70.911  1.00  0.00    -0.271 C  
HETATM   38  C   UNL     1     -10.783   9.066  71.390  1.00  0.00    -0.401 C  
ENDBRANCH  29  31
ENDBRANCH  20  27
ENDBRANCH  18  19
ENDBRANCH  17  18
ENDBRANCH   8  10
TORSDOF 6
ENDMDL
MODEL      109
REMARK 921   NORMALIZED FREE ENERGY PREDICTED BY IDOCK:   -5.43 KCAL/MOL
REMARK 922        TOTAL FREE ENERGY PREDICTED BY IDOCK:   -8.87 KCAL/MOL
REMARK 923 INTER-LIGAND FREE ENERGY PREDICTED BY IDOCK:   -7.87 KCAL/MOL
REMARK 924 INTRA-LIGAND FREE ENERGY PREDICTED BY IDOCK:   -1.00 KCAL/MOL
REMARK 927      BINDING AFFINITY PREDICTED BY RF-SCORE:    0.00 PKD
ROOT
HETATM    1  C   UNL     1     -12.014  11.179  69.356  1.00  0.00    -0.420 C  
HETATM    2  C   UNL     1     -12.069  10.743  70.831  1.00  0.00    -0.475 C  
HETATM    3  C   UNL     1     -12.718   9.399  70.969  1.00  0.00    -0.201 A  
HETATM    4  C   UNL     1     -12.880  11.751  71.656  1.00  0.00    -0.433 C  
HETATM    5  N   UNL     1     -14.014   9.217  70.833  1.00  0.00     0.049 NA 
HETATM    6  N   UNL     1     -14.323   8.023  71.386  1.00  0.00    -0.402 NA 
HETATM    7  C   UNL     1     -13.210   7.430  71.766  1.00  0.00    -0.318 A  
HETATM    8  N   UNL     1     -12.130   8.219  71.410  1.00  0.00    -0.296 NA 
HETATM    9  C   UNL     1     -13.224   6.123  72.453  1.00  0.00     0.490 C  
ENDROOT
BRANCH   8  10
HETATM   10  C   UNL     1     -10.676   7.997  71.559  1.00  0.00    -0.227 C  
HETATM   11  C   UNL     1     -10.035   6.888  70.690  1.00  0.00    -0.198 C  
HETATM   12  C   UNL     1      -8.766   7.237  69.889  1.00  0.00    -0.141 C  
HETATM   13  C   UNL     1      -7.578   7.039  70.829  1.00  0.00    -0.090 C  
HETATM   14  C   UNL     1      -7.536   8.355  71.589  1.00  0.00    -0.118 C  
HETATM   15  C   UNL     1      -8.516   9.289  70.820  1.00  0.00    -0.195 C  
HETATM   16  C   UNL     1      -9.870   9.331  71.546  1.00  0.00    -0.245 C  
HETATM   17  N   UNL     1      -8.609   8.657  69.495  1.00  0.00    -0.129 NA 
BRANCH  17  18
HETATM   18  C   UNL     1      -9.590   9.165  68.472  1.00  0.00    -0.148 C  
BRANCH  18  19
HETATM   19  C   UNL     1      -9.085   9.597  67.021  1.00  0.00    -0.154 C  
HETATM   20  C   UNL     1      -9.423  11.042  66.364  1.00  0.00    -0.193 C  
BRANCH  20  21
HETATM   21  C   UNL     1     -10.589  11.452  65.411  1.00  0.00    -0.333 A  
HETATM   22  C   UNL     1     -12.577  12.245  63.486  1.00  0.00    -0.589 A  
HETATM   23  C   UNL     1     -10.518  11.095  64.026  1.00  0.00    -0.447 A  
HETATM   24  C   UNL     1     -12.665  12.621  64.833  1.00  0.00    -0.450 A  
HETATM   25  C   UNL     1     -11.687  12.237  65.778  1.00  0.00    -0.445 A  
HETATM   26  C   UNL     1     -11.492  11.478  63.080  1.00  0.00    -0.039 A  
ENDBRANCH  20  21
BRANCH  20  27
HETATM   27  N   UNL     1      -9.209  12.102  67.339  1.00  0.00    -0.177 N  
HETATM   28  H   UNL     1      -9.990  12.458  67.890  1.00  0.00     0.000 HD 
HETATM   29  C   UNL     1      -7.952  12.616  67.512  1.00  0.00    -0.174 C  
HETATM   30  O   UNL     1      -7.005  12.251  66.816  1.00  0.00    -0.012 OA 
BRANCH  29  31
HETATM   31  C   UNL     1      -7.811  13.748  68.520  1.00  0.00    -0.132 C  
HETATM   32  C   UNL     1      -8.044  15.683  66.931  1.00  0.00    -0.290 C  
HETATM   33  C   UNL     1      -7.165  15.033  67.994  1.00  0.00    -0.140 C  
HETATM   34  C   UNL     1      -9.460  15.931  67.424  1.00  0.00    -0.219 C  
HETATM   35  F   UNL     1     -10.225  16.382  66.402  1.00  0.00    -0.268 F  
HETATM   36  F   UNL     1      -9.437  16.919  68.357  1.00  0.00    -0.226 F  
HETATM   37  C   UNL     1     -10.114  14.713  68.031  1.00  0.00    -0.227 C  
HETATM   38  C   UNL     1      -9.201  14.076  69.076  1.00  0.00     0.146 C  
ENDBRANCH  29  31
ENDBRANCH  20  27
ENDBRANCH  18  19
ENDBRANCH  17  18
ENDBRANCH   8  10
TORSDOF 6
ENDMDL
MODEL      110
REMARK 921   NORMALIZED FREE ENERGY PREDICTED BY IDOCK:   -5.40 KCAL/MOL
REMARK 922        TOTAL FREE ENERGY PREDICTED BY IDOCK:   -8.84 KCAL/MOL
REMARK 923 INTER-LIGAND FREE ENERGY PREDICTED BY IDOCK:   -8.40 KCAL/MOL
REMARK 924 INTRA-LIGAND FREE ENERGY PREDICTED BY IDOCK:   -0.43 KCAL/MOL
REMARK 927      BINDING AFFINITY PREDICTED BY RF-SCORE:    0.00 PKD
ROOT
HETATM    1  C   UNL     1      -9.983  14.609  68.255  1.00  0.00    -0.222 C  
HETATM    2  C   UNL     1     -10.703  13.308  67.861  1.00  0.00    -0.252 C  
HETATM    3  C   UNL     1     -11.355  13.441  66.517  1.00  0.00    -0.320 A  
HETATM    4  C   UNL     1     -11.793  12.968  68.887  1.00  0.00    -0.358 C  
HETATM    5  N   UNL     1     -12.450  14.144  66.323  1.00  0.00    -0.439 NA 
HETATM    6  N   UNL     1     -12.985  13.757  65.144  1.00  0.00    -0.762 NA 
HETATM    7  C   UNL     1     -12.170  12.899  64.569  1.00  0.00    -0.426 A  
HETATM    8  N   UNL     1     -11.039  12.749  65.353  1.00  0.00    -0.279 NA 
HETATM    9  C   UNL     1     -12.503  12.257  63.282  1.00  0.00    -0.490 C  
ENDROOT
BRANCH   8  10
HETATM   10  C   UNL     1      -9.812  11.952  65.144  1.00  0.00    -0.218 C  
HETATM   11  C   UNL     1      -8.709  12.049  66.226  1.00  0.00    -0.027 C  
HETATM   12  C   UNL     1      -8.122  10.738  66.783  1.00  0.00    -0.137 C  
HETATM   13  C   UNL     1      -7.004  10.312  65.833  1.00  0.00    -0.126 C  
HETATM   14  C   UNL     1      -7.762   9.581  64.738  1.00  0.00    -0.119 C  
HETATM   15  C   UNL     1      -9.203   9.406  65.302  1.00  0.00    -0.238 C  
HETATM   16  C   UNL     1     -10.125  10.486  64.716  1.00  0.00    -0.406 C  
HETATM   17  N   UNL     1      -9.014   9.555  66.752  1.00  0.00    -0.136 NA 
BRANCH  17  18
HETATM   18  C   UNL     1     -10.202   9.607  67.678  1.00  0.00    -0.216 C  
BRANCH  18  19
HETATM   19  C   UNL     1      -9.988   9.808  69.247  1.00  0.00    -0.201 C  
HETATM   20  C   UNL     1     -10.479   8.724  70.350  1.00  0.00    -0.209 C  
BRANCH  20  21
HETATM   21  C   UNL     1     -11.812   8.662  71.157  1.00  0.00    -0.331 A  
HETATM   22  C   UNL     1     -14.378   8.468  72.451  1.00  0.00    -0.412 A  
HETATM   23  C   UNL     1     -12.732   7.593  70.907  1.00  0.00    -0.056 A  
HETATM   24  C   UNL     1     -13.504   9.533  72.704  1.00  0.00    -0.253 A  
HETATM   25  C   UNL     1     -12.246   9.633  72.066  1.00  0.00    -0.330 A  
HETATM   26  C   UNL     1     -13.988   7.492  71.542  1.00  0.00    -0.522 A  
ENDBRANCH  20  21
BRANCH  20  27
HETATM   27  N   UNL     1     -10.113   7.378  69.931  1.00  0.00    -0.192 N  
HETATM   28  H   UNL     1     -10.709   6.860  69.286  1.00  0.00     0.000 HD 
HETATM   29  C   UNL     1      -8.961   6.812  70.411  1.00  0.00    -0.152 C  
HETATM   30  O   UNL     1      -8.258   7.387  71.240  1.00  0.00    -0.104 OA 
BRANCH  29  31
HETATM   31  C   UNL     1      -8.663   5.389  69.961  1.00  0.00    -0.130 C  
HETATM   32  C   UNL     1      -6.167   5.426  70.270  1.00  0.00    -0.023 C  
HETATM   33  C   UNL     1      -7.304   5.175  69.286  1.00  0.00    -0.058 C  
HETATM   34  C   UNL     1      -6.301   4.592  71.533  1.00  0.00    -0.019 C  
HETATM   35  F   UNL     1      -5.344   4.953  72.421  1.00  0.00    -0.006 F  
HETATM   36  F   UNL     1      -6.074   3.287  71.228  1.00  0.00    -0.013 F  
HETATM   37  C   UNL     1      -7.654   4.701  72.193  1.00  0.00    -0.083 C  
HETATM   38  C   UNL     1      -8.770   4.464  71.178  1.00  0.00    -0.136 C  
ENDBRANCH  29  31
ENDBRANCH  20  27
ENDBRANCH  18  19
ENDBRANCH  17  18
ENDBRANCH   8  10
TORSDOF 6
ENDMDL
MODEL      111
REMARK 921   NORMALIZED FREE ENERGY PREDICTED BY IDOCK:   -5.38 KCAL/MOL
REMARK 922        TOTAL FREE ENERGY PREDICTED BY IDOCK:   -8.81 KCAL/MOL
REMARK 923 INTER-LIGAND FREE ENERGY PREDICTED BY IDOCK:   -6.91 KCAL/MOL
REMARK 924 INTRA-LIGAND FREE ENERGY PREDICTED BY IDOCK:   -1.90 KCAL/MOL
REMARK 927      BINDING AFFINITY PREDICTED BY RF-SCORE:    0.00 PKD
ROOT
HETATM    1  C   UNL     1     -12.811  12.807  71.967  1.00  0.00    -0.269 C  
HETATM    2  C   UNL     1     -13.269  13.911  70.998  1.00  0.00    -0.260 C  
HETATM    3  C   UNL     1     -12.143  14.847  70.678  1.00  0.00    -0.307 A  
HETATM    4  C   UNL     1     -14.406  14.732  71.622  1.00  0.00    -0.645 C  
HETATM    5  N   UNL     1     -11.693  15.739  71.534  1.00  0.00    -0.411 NA 
HETATM    6  N   UNL     1     -10.979  16.653  70.839  1.00  0.00     0.114 NA 
HETATM    7  C   UNL     1     -10.903  16.267  69.583  1.00  0.00    -0.345 A  
HETATM    8  N   UNL     1     -11.533  15.043  69.444  1.00  0.00    -0.281 NA 
HETATM    9  C   UNL     1     -10.222  17.087  68.561  1.00  0.00    -0.324 C  
ENDROOT
BRANCH   8  10
HETATM   10  C   UNL     1     -11.688  14.160  68.268  1.00  0.00    -0.348 C  
HETATM   11  C   UNL     1     -11.349  14.757  66.882  1.00  0.00    -0.358 C  
HETATM   12  C   UNL     1     -10.413  13.957  65.956  1.00  0.00    -0.298 C  
HETATM   13  C   UNL     1     -11.285  12.961  65.195  1.00  0.00    -0.319 C  
HETATM   14  C   UNL     1     -11.403  11.807  66.178  1.00  0.00    -0.342 C  
HETATM   15  C   UNL     1     -10.358  12.123  67.288  1.00  0.00    -0.212 C  
HETATM   16  C   UNL     1     -11.063  12.751  68.500  1.00  0.00    -0.300 C  
HETATM   17  N   UNL     1      -9.440  13.061  66.625  1.00  0.00    -0.253 NA 
BRANCH  17  18
HETATM   18  C   UNL     1      -8.348  13.745  67.406  1.00  0.00    -0.193 C  
BRANCH  18  19
HETATM   19  C   UNL     1      -6.975  12.987  67.697  1.00  0.00    -0.154 C  
HETATM   20  C   UNL     1      -6.800  11.382  67.527  1.00  0.00    -0.086 C  
BRANCH  20  21
HETATM   21  C   UNL     1      -6.946  10.249  68.590  1.00  0.00    -0.066 A  
HETATM   22  C   UNL     1      -7.398   8.076  70.424  1.00  0.00    -0.063 A  
HETATM   23  C   UNL     1      -7.327   8.936  68.163  1.00  0.00    -0.084 A  
HETATM   24  C   UNL     1      -7.038   9.355  70.871  1.00  0.00    -0.098 A  
HETATM   25  C   UNL     1      -6.821  10.424  69.972  1.00  0.00    -0.151 A  
HETATM   26  C   UNL     1      -7.546   7.868  69.058  1.00  0.00    -0.099 A  
ENDBRANCH  20  21
BRANCH  20  27
HETATM   27  N   UNL     1      -7.396  10.940  66.275  1.00  0.00    -0.178 N  
HETATM   28  H   UNL     1      -8.405  10.811  66.204  1.00  0.00     0.000 HD 
HETATM   29  C   UNL     1      -6.592  10.700  65.193  1.00  0.00     0.035 C  
HETATM   30  O   UNL     1      -5.367  10.785  65.269  1.00  0.00    -0.135 OA 
BRANCH  29  31
HETATM   31  C   UNL     1      -7.280  10.204  63.929  1.00  0.00    -0.103 C  
HETATM   32  C   UNL     1      -6.740   7.758  64.157  1.00  0.00    -0.057 C  
HETATM   33  C   UNL     1      -6.641   8.984  63.257  1.00  0.00    -0.090 C  
HETATM   34  C   UNL     1      -8.168   7.472  64.590  1.00  0.00    -0.049 C  
HETATM   35  F   UNL     1      -8.177   6.460  65.489  1.00  0.00    -0.114 F  
HETATM   36  F   UNL     1      -8.879   7.041  63.514  1.00  0.00     0.312 F  
HETATM   37  C   UNL     1      -8.874   8.667  65.183  1.00  0.00    -0.147 C  
HETATM   38  C   UNL     1      -8.740   9.882  64.268  1.00  0.00    -0.229 C  
ENDBRANCH  29  31
ENDBRANCH  20  27
ENDBRANCH  18  19
ENDBRANCH  17  18
ENDBRANCH   8  10
TORSDOF 6
ENDMDL
MODEL      112
REMARK 921   NORMALIZED FREE ENERGY PREDICTED BY IDOCK:   -5.36 KCAL/MOL
REMARK 922        TOTAL FREE ENERGY PREDICTED BY IDOCK:   -8.78 KCAL/MOL
REMARK 923 INTER-LIGAND FREE ENERGY PREDICTED BY IDOCK:   -7.14 KCAL/MOL
REMARK 924 INTRA-LIGAND FREE ENERGY PREDICTED BY IDOCK:   -1.65 KCAL/MOL
REMARK 927      BINDING AFFINITY PREDICTED BY RF-SCORE:    0.00 PKD
ROOT
HETATM    1  C   UNL     1      -7.087  10.958  68.208  1.00  0.00    -0.075 C  
HETATM    2  C   UNL     1      -6.396   9.835  69.000  1.00  0.00    -0.041 C  
HETATM    3  C   UNL     1      -7.371   9.130  69.894  1.00  0.00    -0.064 A  
HETATM    4  C   UNL     1      -5.277  10.411  69.879  1.00  0.00    -0.038 C  
HETATM    5  N   UNL     1      -7.841   9.666  71.000  1.00  0.00    -0.266 NA 
HETATM    6  N   UNL     1      -8.361   8.670  71.752  1.00  0.00    -0.246 NA 
HETATM    7  C   UNL     1      -8.307   7.548  71.067  1.00  0.00    -0.113 A  
HETATM    8  N   UNL     1      -7.789   7.806  69.810  1.00  0.00    -0.104 NA 
HETATM    9  C   UNL     1      -8.760   6.266  71.643  1.00  0.00    -0.134 C  
ENDROOT
BRANCH   8  10
HETATM   10  C   UNL     1      -7.566   6.916  68.650  1.00  0.00    -0.105 C  
HETATM   11  C   UNL     1      -8.819   6.361  67.931  1.00  0.00    -0.113 C  
HETATM   12  C   UNL     1      -8.891   6.487  66.397  1.00  0.00    -0.143 C  
HETATM   13  C   UNL     1      -8.153   5.282  65.816  1.00  0.00    -0.112 C  
HETATM   14  C   UNL     1      -6.703   5.735  65.849  1.00  0.00    -0.056 C  
HETATM   15  C   UNL     1      -6.770   7.257  66.175  1.00  0.00    -0.053 C  
HETATM   16  C   UNL     1      -6.494   7.480  67.670  1.00  0.00    -0.057 C  
HETATM   17  N   UNL     1      -8.144   7.619  65.798  1.00  0.00    -0.119 NA 
BRANCH  17  18
HETATM   18  C   UNL     1      -8.684   8.992  66.099  1.00  0.00    -0.147 C  
BRANCH  18  19
HETATM   19  C   UNL     1     -10.256   9.218  66.262  1.00  0.00    -0.273 C  
HETATM   20  C   UNL     1     -10.886  10.453  67.106  1.00  0.00    -0.238 C  
BRANCH  20  21
HETATM   21  C   UNL     1     -11.340  10.507  68.598  1.00  0.00    -0.315 A  
HETATM   22  C   UNL     1     -12.134  10.840  71.346  1.00  0.00    -0.297 A  
HETATM   23  C   UNL     1     -12.065  11.650  69.067  1.00  0.00    -0.288 A  
HETATM   24  C   UNL     1     -11.413   9.717  70.918  1.00  0.00    -0.427 A  
HETATM   25  C   UNL     1     -11.018   9.555  69.571  1.00  0.00    -0.217 A  
HETATM   26  C   UNL     1     -12.460  11.815  70.411  1.00  0.00    -0.280 A  
ENDBRANCH  20  21
BRANCH  20  27
HETATM   27  N   UNL     1     -10.202  11.694  66.772  1.00  0.00    -0.213 N  
HETATM   28  H   UNL     1      -9.290  11.904  67.177  1.00  0.00     0.000 HD 
HETATM   29  C   UNL     1     -10.792  12.578  65.907  1.00  0.00    -0.269 C  
HETATM   30  O   UNL     1     -11.919  12.381  65.455  1.00  0.00    -0.408 OA 
BRANCH  29  31
HETATM   31  C   UNL     1     -10.037  13.870  65.634  1.00  0.00    -0.332 C  
HETATM   32  C   UNL     1     -11.533  15.441  66.906  1.00  0.00    -0.071 C  
HETATM   33  C   UNL     1     -10.893  15.139  65.556  1.00  0.00    -0.373 C  
HETATM   34  C   UNL     1     -10.509  15.528  68.025  1.00  0.00    -0.259 C  
HETATM   35  F   UNL     1     -11.144  15.664  69.213  1.00  0.00    -0.229 F  
HETATM   36  F   UNL     1      -9.760  16.649  67.855  1.00  0.00    -0.231 F  
HETATM   37  C   UNL     1      -9.582  14.338  68.093  1.00  0.00    -0.218 C  
HETATM   38  C   UNL     1      -8.974  14.049  66.723  1.00  0.00    -0.217 C  
ENDBRANCH  29  31
ENDBRANCH  20  27
ENDBRANCH  18  19
ENDBRANCH  17  18
ENDBRANCH   8  10
TORSDOF 6
ENDMDL
MODEL      113
REMARK 921   NORMALIZED FREE ENERGY PREDICTED BY IDOCK:   -5.33 KCAL/MOL
REMARK 922        TOTAL FREE ENERGY PREDICTED BY IDOCK:   -8.74 KCAL/MOL
REMARK 923 INTER-LIGAND FREE ENERGY PREDICTED BY IDOCK:   -7.59 KCAL/MOL
REMARK 924 INTRA-LIGAND FREE ENERGY PREDICTED BY IDOCK:   -1.15 KCAL/MOL
REMARK 927      BINDING AFFINITY PREDICTED BY RF-SCORE:    0.00 PKD
ROOT
HETATM    1  C   UNL     1     -10.827   7.345  72.972  1.00  0.00    -0.423 C  
HETATM    2  C   UNL     1     -10.085   6.378  72.032  1.00  0.00    -0.197 C  
HETATM    3  C   UNL     1     -10.376   6.695  70.597  1.00  0.00    -0.202 A  
HETATM    4  C   UNL     1     -10.524   4.931  72.298  1.00  0.00    -0.267 C  
HETATM    5  N   UNL     1     -11.528   6.418  70.025  1.00  0.00    -0.430 NA 
HETATM    6  N   UNL     1     -11.345   6.459  68.687  1.00  0.00    -0.251 NA 
HETATM    7  C   UNL     1     -10.116   6.861  68.438  1.00  0.00    -0.168 A  
HETATM    8  N   UNL     1      -9.480   7.147  69.634  1.00  0.00    -0.152 NA 
HETATM    9  C   UNL     1      -9.598   6.960  67.059  1.00  0.00    -0.197 C  
ENDROOT
BRANCH   8  10
HETATM   10  C   UNL     1      -8.126   7.673  69.911  1.00  0.00    -0.124 C  
HETATM   11  C   UNL     1      -7.124   7.708  68.733  1.00  0.00    -0.080 C  
HETATM   12  C   UNL     1      -6.361   9.020  68.468  1.00  0.00    -0.054 C  
HETATM   13  C   UNL     1      -5.132   9.011  69.375  1.00  0.00    -0.035 C  
HETATM   14  C   UNL     1      -5.689   9.527  70.691  1.00  0.00    -0.057 C  
HETATM   15  C   UNL     1      -7.112  10.053  70.341  1.00  0.00    -0.122 C  
HETATM   16  C   UNL     1      -8.164   9.001  70.726  1.00  0.00    -0.213 C  
HETATM   17  N   UNL     1      -7.040  10.269  68.888  1.00  0.00    -0.071 NA 
BRANCH  17  18
HETATM   18  C   UNL     1      -8.273  10.638  68.106  1.00  0.00    -0.116 C  
BRANCH  18  19
HETATM   19  C   UNL     1      -8.149  11.515  66.778  1.00  0.00    -0.158 C  
HETATM   20  C   UNL     1      -9.045  12.841  66.510  1.00  0.00    -0.147 C  
BRANCH  20  21
HETATM   21  C   UNL     1     -10.400  12.987  65.749  1.00  0.00    -0.296 A  
HETATM   22  C   UNL     1     -12.774  13.303  64.150  1.00  0.00    -0.112 A  
HETATM   23  C   UNL     1     -10.495  12.527  64.396  1.00  0.00    -0.384 A  
HETATM   24  C   UNL     1     -12.704  13.775  65.468  1.00  0.00    -0.530 A  
HETATM   25  C   UNL     1     -11.538  13.626  66.252  1.00  0.00    -0.372 A  
HETATM   26  C   UNL     1     -11.657  12.676  63.611  1.00  0.00    -0.575 A  
ENDBRANCH  20  21
BRANCH  20  27
HETATM   27  N   UNL     1      -9.074  13.679  67.700  1.00  0.00    -0.197 N  
HETATM   28  H   UNL     1      -9.537  13.352  68.547  1.00  0.00     0.000 HD 
HETATM   29  C   UNL     1      -8.474  14.910  67.673  1.00  0.00    -0.167 C  
HETATM   30  O   UNL     1      -7.966  15.356  66.646  1.00  0.00    -0.201 OA 
BRANCH  29  31
HETATM   31  C   UNL     1      -8.578  15.747  68.940  1.00  0.00    -0.220 C  
HETATM   32  C   UNL     1     -10.836  16.770  68.517  1.00  0.00    -0.345 C  
HETATM   33  C   UNL     1      -9.368  17.054  68.813  1.00  0.00    -0.257 C  
HETATM   34  C   UNL     1     -11.463  15.836  69.539  1.00  0.00    -0.353 C  
HETATM   35  F   UNL     1     -12.720  15.516  69.152  1.00  0.00    -0.103 F  
HETATM   36  F   UNL     1     -11.576  16.490  70.725  1.00  0.00    -0.388 F  
HETATM   37  C   UNL     1     -10.677  14.567  69.764  1.00  0.00    -0.075 C  
HETATM   38  C   UNL     1      -9.208  14.884  70.039  1.00  0.00     0.452 C  
ENDBRANCH  29  31
ENDBRANCH  20  27
ENDBRANCH  18  19
ENDBRANCH  17  18
ENDBRANCH   8  10
TORSDOF 6
ENDMDL
MODEL      114
REMARK 921   NORMALIZED FREE ENERGY PREDICTED BY IDOCK:   -5.30 KCAL/MOL
REMARK 922        TOTAL FREE ENERGY PREDICTED BY IDOCK:   -8.70 KCAL/MOL
REMARK 923 INTER-LIGAND FREE ENERGY PREDICTED BY IDOCK:   -7.26 KCAL/MOL
REMARK 924 INTRA-LIGAND FREE ENERGY PREDICTED BY IDOCK:   -1.43 KCAL/MOL
REMARK 927      BINDING AFFINITY PREDICTED BY RF-SCORE:    0.00 PKD
ROOT
HETATM    1  C   UNL     1      -9.676  12.588  68.749  1.00  0.00     0.045 C  
HETATM    2  C   UNL     1     -10.235  11.453  67.874  1.00  0.00    -0.201 C  
HETATM    3  C   UNL     1     -10.946  12.002  66.673  1.00  0.00    -0.287 A  
HETATM    4  C   UNL     1     -11.236  10.606  68.672  1.00  0.00    -0.337 C  
HETATM    5  N   UNL     1     -12.128  12.574  66.745  1.00  0.00    -0.546 NA 
HETATM    6  N   UNL     1     -12.650  12.600  65.498  1.00  0.00    -0.605 NA 
HETATM    7  C   UNL     1     -11.751  12.143  64.652  1.00  0.00    -0.332 A  
HETATM    8  N   UNL     1     -10.584  11.855  65.339  1.00  0.00    -0.261 NA 
HETATM    9  C   UNL     1     -12.044  12.003  63.211  1.00  0.00    -0.509 C  
ENDROOT
BRANCH   8  10
HETATM   10  C   UNL     1      -9.272  11.369  64.861  1.00  0.00    -0.058 C  
HETATM   11  C   UNL     1      -8.086  11.439  65.852  1.00  0.00     0.131 C  
HETATM   12  C   UNL     1      -7.227  10.176  66.046  1.00  0.00    -0.118 C  
HETATM   13  C   UNL     1      -6.169  10.183  64.944  1.00  0.00    -0.125 C  
HETATM   14  C   UNL     1      -6.913   9.573  63.768  1.00  0.00    -0.105 C  
HETATM   15  C   UNL     1      -8.230   9.011  64.380  1.00  0.00    -0.165 C  
HETATM   16  C   UNL     1      -9.381   9.998  64.129  1.00  0.00    -0.335 C  
HETATM   17  N   UNL     1      -7.905   8.879  65.808  1.00  0.00    -0.097 NA 
BRANCH  17  18
HETATM   18  C   UNL     1      -8.970   8.505  66.805  1.00  0.00    -0.146 C  
BRANCH  18  19
HETATM   19  C   UNL     1      -8.599   8.324  68.346  1.00  0.00    -0.133 C  
HETATM   20  C   UNL     1      -9.306   7.217  69.299  1.00  0.00    -0.146 C  
BRANCH  20  21
HETATM   21  C   UNL     1     -10.540   7.361  70.243  1.00  0.00    -0.241 A  
HETATM   22  C   UNL     1     -12.666   7.641  72.165  1.00  0.00    -0.191 A  
HETATM   23  C   UNL     1     -10.453   8.228  71.379  1.00  0.00    -0.276 A  
HETATM   24  C   UNL     1     -12.773   6.774  71.069  1.00  0.00    -0.197 A  
HETATM   25  C   UNL     1     -11.728   6.631  70.128  1.00  0.00    -0.412 A  
HETATM   26  C   UNL     1     -11.494   8.372  72.321  1.00  0.00    -0.454 A  
ENDBRANCH  20  21
BRANCH  20  27
HETATM   27  N   UNL     1      -9.377   5.934  68.614  1.00  0.00    -0.117 N  
HETATM   28  H   UNL     1     -10.272   5.581  68.276  1.00  0.00     0.000 HD 
HETATM   29  C   UNL     1      -8.233   5.204  68.427  1.00  0.00    -0.090 C  
HETATM   30  O   UNL     1      -7.151   5.575  68.881  1.00  0.00    -0.058 OA 
BRANCH  29  31
HETATM   31  C   UNL     1      -8.389   3.857  67.738  1.00  0.00    -0.098 C  
HETATM   32  C   UNL     1      -9.903   4.579  65.864  1.00  0.00    -0.236 C  
HETATM   33  C   UNL     1      -9.730   3.618  67.035  1.00  0.00    -0.100 C  
HETATM   34  C   UNL     1      -8.742   4.515  64.886  1.00  0.00    -0.140 C  
HETATM   35  F   UNL     1      -8.885   5.478  63.946  1.00  0.00    -0.086 F  
HETATM   36  F   UNL     1      -8.780   3.324  64.231  1.00  0.00    -0.092 F  
HETATM   37  C   UNL     1      -7.389   4.660  65.540  1.00  0.00    -0.076 C  
HETATM   38  C   UNL     1      -7.255   3.699  66.720  1.00  0.00    -0.067 C  
ENDBRANCH  29  31
ENDBRANCH  20  27
ENDBRANCH  18  19
ENDBRANCH  17  18
ENDBRANCH   8  10
TORSDOF 6
ENDMDL
MODEL      115
REMARK 921   NORMALIZED FREE ENERGY PREDICTED BY IDOCK:   -5.29 KCAL/MOL
REMARK 922        TOTAL FREE ENERGY PREDICTED BY IDOCK:   -8.68 KCAL/MOL
REMARK 923 INTER-LIGAND FREE ENERGY PREDICTED BY IDOCK:   -7.11 KCAL/MOL
REMARK 924 INTRA-LIGAND FREE ENERGY PREDICTED BY IDOCK:   -1.58 KCAL/MOL
REMARK 927      BINDING AFFINITY PREDICTED BY RF-SCORE:    0.00 PKD
ROOT
HETATM    1  C   UNL     1     -11.736  13.235  70.079  1.00  0.00    -0.295 C  
HETATM    2  C   UNL     1     -12.439  14.398  69.358  1.00  0.00    -0.113 C  
HETATM    3  C   UNL     1     -11.460  15.470  68.987  1.00  0.00    -0.352 A  
HETATM    4  C   UNL     1     -13.507  15.023  70.267  1.00  0.00     0.210 C  
HETATM    5  N   UNL     1     -10.934  16.292  69.870  1.00  0.00    -0.358 NA 
HETATM    6  N   UNL     1     -10.424  17.348  69.199  1.00  0.00    -0.313 NA 
HETATM    7  C   UNL     1     -10.541  17.127  67.907  1.00  0.00    -0.376 A  
HETATM    8  N   UNL     1     -11.092  15.873  67.708  1.00  0.00    -0.315 NA 
HETATM    9  C   UNL     1     -10.114  18.127  66.907  1.00  0.00    -0.362 C  
ENDROOT
BRANCH   8  10
HETATM   10  C   UNL     1     -11.386  15.128  66.465  1.00  0.00    -0.234 C  
HETATM   11  C   UNL     1     -10.179  14.624  65.638  1.00  0.00    -0.382 C  
HETATM   12  C   UNL     1     -10.169  13.150  65.192  1.00  0.00    -0.284 C  
HETATM   13  C   UNL     1     -10.960  13.074  63.887  1.00  0.00    -0.375 C  
HETATM   14  C   UNL     1     -12.396  12.982  64.377  1.00  0.00    -0.442 C  
HETATM   15  C   UNL     1     -12.277  12.725  65.908  1.00  0.00    -0.359 C  
HETATM   16  C   UNL     1     -12.485  14.042  66.672  1.00  0.00    -0.296 C  
HETATM   17  N   UNL     1     -10.912  12.200  66.054  1.00  0.00    -0.281 NA 
BRANCH  17  18
HETATM   18  C   UNL     1     -10.326  11.960  67.421  1.00  0.00    -0.207 C  
BRANCH  18  19
HETATM   19  C   UNL     1      -9.330  10.736  67.663  1.00  0.00    -0.156 C  
HETATM   20  C   UNL     1      -7.915  10.584  66.884  1.00  0.00    -0.121 C  
BRANCH  20  21
HETATM   21  C   UNL     1      -7.580   9.805  65.575  1.00  0.00    -0.118 A  
HETATM   22  C   UNL     1      -6.764   8.494  63.144  1.00  0.00    -0.090 A  
HETATM   23  C   UNL     1      -6.219   9.459  65.296  1.00  0.00    -0.066 A  
HETATM   24  C   UNL     1      -8.102   8.833  63.385  1.00  0.00    -0.170 A  
HETATM   25  C   UNL     1      -8.503   9.481  64.575  1.00  0.00    -0.191 A  
HETATM   26  C   UNL     1      -5.815   8.813  64.108  1.00  0.00    -0.070 A  
ENDBRANCH  20  21
BRANCH  20  27
HETATM   27  N   UNL     1      -7.204  11.855  66.877  1.00  0.00    -0.310 N  
HETATM   28  H   UNL     1      -7.314  12.501  66.096  1.00  0.00     0.000 HD 
HETATM   29  C   UNL     1      -6.386  12.176  67.928  1.00  0.00    -0.078 C  
HETATM   30  O   UNL     1      -6.184  11.389  68.851  1.00  0.00    -0.048 OA 
BRANCH  29  31
HETATM   31  C   UNL     1      -5.646  13.503  67.834  1.00  0.00    -0.116 C  
HETATM   32  C   UNL     1      -7.616  15.040  68.120  1.00  0.00    -0.113 C  
HETATM   33  C   UNL     1      -6.437  14.667  67.228  1.00  0.00     0.263 C  
HETATM   34  C   UNL     1      -7.189  15.339  69.547  1.00  0.00    -0.205 C  
HETATM   35  F   UNL     1      -8.285  15.531  70.319  1.00  0.00     0.023 F  
HETATM   36  F   UNL     1      -6.492  16.505  69.566  1.00  0.00    -0.182 F  
HETATM   37  C   UNL     1      -6.333  14.259  70.164  1.00  0.00    -0.144 C  
HETATM   38  C   UNL     1      -5.175  13.894  69.239  1.00  0.00    -0.081 C  
ENDBRANCH  29  31
ENDBRANCH  20  27
ENDBRANCH  18  19
ENDBRANCH  17  18
ENDBRANCH   8  10
TORSDOF 6
ENDMDL
MODEL      116
REMARK 921   NORMALIZED FREE ENERGY PREDICTED BY IDOCK:   -5.26 KCAL/MOL
REMARK 922        TOTAL FREE ENERGY PREDICTED BY IDOCK:   -8.65 KCAL/MOL
REMARK 923 INTER-LIGAND FREE ENERGY PREDICTED BY IDOCK:   -7.32 KCAL/MOL
REMARK 924 INTRA-LIGAND FREE ENERGY PREDICTED BY IDOCK:   -1.33 KCAL/MOL
REMARK 927      BINDING AFFINITY PREDICTED BY RF-SCORE:    0.00 PKD
ROOT
HETATM    1  C   UNL     1      -9.919   6.954  73.912  1.00  0.00    -0.365 C  
HETATM    2  C   UNL     1      -9.943   5.853  72.837  1.00  0.00    -0.189 C  
HETATM    3  C   UNL     1     -10.538   6.364  71.560  1.00  0.00    -0.231 A  
HETATM    4  C   UNL     1     -10.786   4.661  73.311  1.00  0.00    -0.313 C  
HETATM    5  N   UNL     1     -11.827   6.583  71.412  1.00  0.00    -0.329 NA 
HETATM    6  N   UNL     1     -12.084   6.653  70.087  1.00  0.00    -0.224 NA 
HETATM    7  C   UNL     1     -10.946   6.583  69.429  1.00  0.00    -0.337 A  
HETATM    8  N   UNL     1      -9.901   6.519  70.334  1.00  0.00    -0.175 NA 
HETATM    9  C   UNL     1     -10.903   6.585  67.953  1.00  0.00    -0.383 C  
ENDROOT
BRANCH   8  10
HETATM   10  C   UNL     1      -8.437   6.477  70.125  1.00  0.00    -0.135 C  
HETATM   11  C   UNL     1      -7.932   6.021  68.735  1.00  0.00    -0.104 C  
HETATM   12  C   UNL     1      -6.882   6.894  68.023  1.00  0.00    -0.078 C  
HETATM   13  C   UNL     1      -5.514   6.459  68.545  1.00  0.00    -0.011 C  
HETATM   14  C   UNL     1      -5.387   7.250  69.837  1.00  0.00    -0.023 C  
HETATM   15  C   UNL     1      -6.558   8.275  69.790  1.00  0.00    -0.039 C  
HETATM   16  C   UNL     1      -7.729   7.764  70.644  1.00  0.00    -0.091 C  
HETATM   17  N   UNL     1      -6.892   8.337  68.360  1.00  0.00    -0.064 NA 
BRANCH  17  18
HETATM   18  C   UNL     1      -8.094   9.112  67.886  1.00  0.00    -0.105 C  
BRANCH  18  19
HETATM   19  C   UNL     1      -8.700  10.281  68.787  1.00  0.00    -0.144 C  
HETATM   20  C   UNL     1      -8.905  11.797  68.243  1.00  0.00    -0.172 C  
BRANCH  20  21
HETATM   21  C   UNL     1      -7.956  13.030  68.356  1.00  0.00    -0.135 A  
HETATM   22  C   UNL     1      -6.062  15.172  68.701  1.00  0.00    -0.086 A  
HETATM   23  C   UNL     1      -6.539  12.821  68.379  1.00  0.00    -0.083 A  
HETATM   24  C   UNL     1      -7.444  15.404  68.697  1.00  0.00    -0.130 A  
HETATM   25  C   UNL     1      -8.375  14.352  68.533  1.00  0.00    -0.157 A  
HETATM   26  C   UNL     1      -5.608  13.868  68.544  1.00  0.00    -0.094 A  
ENDBRANCH  20  21
BRANCH  20  27
HETATM   27  N   UNL     1      -9.507  11.779  66.918  1.00  0.00    -0.188 N  
HETATM   28  H   UNL     1      -8.933  11.597  66.095  1.00  0.00     0.000 HD 
HETATM   29  C   UNL     1     -10.851  12.010  66.784  1.00  0.00    -0.266 C  
HETATM   30  O   UNL     1     -11.555  12.297  67.751  1.00  0.00    -0.313 OA 
BRANCH  29  31
HETATM   31  C   UNL     1     -11.404  12.015  65.366  1.00  0.00    -0.375 C  
HETATM   32  C   UNL     1     -12.682  14.177  65.481  1.00  0.00    -0.468 C  
HETATM   33  C   UNL     1     -12.770  12.685  65.185  1.00  0.00    -0.329 C  
HETATM   34  C   UNL     1     -11.609  14.868  64.657  1.00  0.00    -0.395 C  
HETATM   35  F   UNL     1     -11.487  16.156  65.057  1.00  0.00    -0.246 F  
HETATM   36  F   UNL     1     -12.002  14.902  63.356  1.00  0.00     0.151 F  
HETATM   37  C   UNL     1     -10.259  14.197  64.733  1.00  0.00    -0.311 C  
HETATM   38  C   UNL     1     -10.383  12.701  64.451  1.00  0.00    -0.386 C  
ENDBRANCH  29  31
ENDBRANCH  20  27
ENDBRANCH  18  19
ENDBRANCH  17  18
ENDBRANCH   8  10
TORSDOF 6
ENDMDL
MODEL      117
REMARK 921   NORMALIZED FREE ENERGY PREDICTED BY IDOCK:   -5.26 KCAL/MOL
REMARK 922        TOTAL FREE ENERGY PREDICTED BY IDOCK:   -8.64 KCAL/MOL
REMARK 923 INTER-LIGAND FREE ENERGY PREDICTED BY IDOCK:   -9.52 KCAL/MOL
REMARK 924 INTRA-LIGAND FREE ENERGY PREDICTED BY IDOCK:    0.88 KCAL/MOL
REMARK 927      BINDING AFFINITY PREDICTED BY RF-SCORE:    0.00 PKD
ROOT
HETATM    1  C   UNL     1      -6.530   8.949  70.712  1.00  0.00    -0.052 C  
HETATM    2  C   UNL     1      -7.788   8.198  70.239  1.00  0.00    -0.093 C  
HETATM    3  C   UNL     1      -9.007   9.061  70.366  1.00  0.00    -0.205 A  
HETATM    4  C   UNL     1      -8.007   6.937  71.087  1.00  0.00    -0.101 C  
HETATM    5  N   UNL     1      -9.567   9.337  71.524  1.00  0.00    -0.278 NA 
HETATM    6  N   UNL     1     -10.819   9.784  71.281  1.00  0.00    -0.291 NA 
HETATM    7  C   UNL     1     -10.990   9.881  69.979  1.00  0.00    -0.291 A  
HETATM    8  N   UNL     1      -9.810   9.544  69.339  1.00  0.00    -0.177 NA 
HETATM    9  C   UNL     1     -12.281  10.299  69.396  1.00  0.00     0.120 C  
ENDROOT
BRANCH   8  10
HETATM   10  C   UNL     1      -9.453   9.534  67.904  1.00  0.00    -0.132 C  
HETATM   11  C   UNL     1     -10.569   9.889  66.893  1.00  0.00    -0.248 C  
HETATM   12  C   UNL     1     -10.262  10.944  65.813  1.00  0.00    -0.259 C  
HETATM   13  C   UNL     1      -9.591  10.210  64.653  1.00  0.00    -0.379 C  
HETATM   14  C   UNL     1      -8.138  10.150  65.097  1.00  0.00    -0.148 C  
HETATM   15  C   UNL     1      -8.060  11.100  66.328  1.00  0.00    -0.142 C  
HETATM   16  C   UNL     1      -8.112  10.276  67.624  1.00  0.00    -0.106 C  
HETATM   17  N   UNL     1      -9.241  11.960  66.162  1.00  0.00    -0.221 NA 
BRANCH  17  18
HETATM   18  C   UNL     1      -9.633  12.939  67.238  1.00  0.00    -0.220 C  
BRANCH  18  19
HETATM   19  C   UNL     1     -11.172  13.164  67.595  1.00  0.00    -0.313 C  
HETATM   20  C   UNL     1     -11.745  14.564  68.183  1.00  0.00    -0.337 C  
BRANCH  20  21
HETATM   21  C   UNL     1     -11.966  15.003  69.664  1.00  0.00    -0.356 A  
HETATM   22  C   UNL     1     -12.585  15.901  72.329  1.00  0.00    -0.531 A  
HETATM   23  C   UNL     1     -13.283  14.932  70.225  1.00  0.00     0.005 A  
HETATM   24  C   UNL     1     -11.290  15.996  71.802  1.00  0.00    -0.279 A  
HETATM   25  C   UNL     1     -10.986  15.560  70.492  1.00  0.00    -0.368 A  
HETATM   26  C   UNL     1     -13.589  15.367  71.531  1.00  0.00    -0.604 A  
ENDBRANCH  20  21
BRANCH  20  27
HETATM   27  N   UNL     1     -11.204  15.686  67.430  1.00  0.00    -0.271 N  
HETATM   28  H   UNL     1     -11.802  16.216  66.797  1.00  0.00     0.000 HD 
HETATM   29  C   UNL     1      -9.885  16.025  67.578  1.00  0.00    -0.235 C  
HETATM   30  O   UNL     1      -9.126  15.364  68.284  1.00  0.00    -0.181 OA 
BRANCH  29  31
HETATM   31  C   UNL     1      -9.380  17.184  66.730  1.00  0.00    -0.268 C  
HETATM   32  C   UNL     1     -10.858  18.991  67.666  1.00  0.00    -0.439 C  
HETATM   33  C   UNL     1     -10.412  18.268  66.400  1.00  0.00    -0.387 C  
HETATM   34  C   UNL     1      -9.688  19.556  68.453  1.00  0.00    -0.410 C  
HETATM   35  F   UNL     1     -10.132  20.066  69.626  1.00  0.00    -0.451 F  
HETATM   36  F   UNL     1      -9.147  20.592  67.759  1.00  0.00    -0.384 F  
HETATM   37  C   UNL     1      -8.601  18.547  68.733  1.00  0.00    -0.266 C  
HETATM   38  C   UNL     1      -8.190  17.827  67.450  1.00  0.00    -0.221 C  
ENDBRANCH  29  31
ENDBRANCH  20  27
ENDBRANCH  18  19
ENDBRANCH  17  18
ENDBRANCH   8  10
TORSDOF 6
ENDMDL
MODEL      118
REMARK 921   NORMALIZED FREE ENERGY PREDICTED BY IDOCK:   -5.25 KCAL/MOL
REMARK 922        TOTAL FREE ENERGY PREDICTED BY IDOCK:   -8.63 KCAL/MOL
REMARK 923 INTER-LIGAND FREE ENERGY PREDICTED BY IDOCK:   -7.48 KCAL/MOL
REMARK 924 INTRA-LIGAND FREE ENERGY PREDICTED BY IDOCK:   -1.14 KCAL/MOL
REMARK 927      BINDING AFFINITY PREDICTED BY RF-SCORE:    0.00 PKD
ROOT
HETATM    1  C   UNL     1     -11.354  12.953  69.949  1.00  0.00    -0.032 C  
HETATM    2  C   UNL     1     -11.895  14.251  69.324  1.00  0.00    -0.372 C  
HETATM    3  C   UNL     1     -10.783  15.074  68.749  1.00  0.00    -0.241 A  
HETATM    4  C   UNL     1     -12.612  15.096  70.386  1.00  0.00    -0.405 C  
HETATM    5  N   UNL     1      -9.935  15.748  69.496  1.00  0.00    -0.270 NA 
HETATM    6  N   UNL     1      -9.330  16.665  68.708  1.00  0.00    -0.249 NA 
HETATM    7  C   UNL     1      -9.726  16.485  67.466  1.00  0.00    -0.242 A  
HETATM    8  N   UNL     1     -10.572  15.391  67.411  1.00  0.00    -0.283 NA 
HETATM    9  C   UNL     1      -9.273  17.368  66.373  1.00  0.00    -0.272 C  
ENDROOT
BRANCH   8  10
HETATM   10  C   UNL     1     -11.246  14.741  66.267  1.00  0.00    -0.343 C  
HETATM   11  C   UNL     1     -10.355  14.279  65.089  1.00  0.00    -0.440 C  
HETATM   12  C   UNL     1     -10.531  12.839  64.568  1.00  0.00    -0.368 C  
HETATM   13  C   UNL     1     -11.673  12.869  63.554  1.00  0.00    -0.576 C  
HETATM   14  C   UNL     1     -12.904  12.766  64.440  1.00  0.00    -0.288 C  
HETATM   15  C   UNL     1     -12.349  12.399  65.848  1.00  0.00     0.052 C  
HETATM   16  C   UNL     1     -12.274  13.662  66.721  1.00  0.00    -0.416 C  
HETATM   17  N   UNL     1     -11.021  11.843  65.550  1.00  0.00    -0.291 NA 
BRANCH  17  18
HETATM   18  C   UNL     1     -10.067  11.497  66.663  1.00  0.00    -0.210 C  
BRANCH  18  19
HETATM   19  C   UNL     1     -10.126  10.058  67.352  1.00  0.00    -0.256 C  
HETATM   20  C   UNL     1      -8.882   9.016  67.323  1.00  0.00    -0.117 C  
BRANCH  20  21
HETATM   21  C   UNL     1      -8.583   7.853  66.327  1.00  0.00    -0.160 A  
HETATM   22  C   UNL     1      -8.034   5.561  64.673  1.00  0.00    -0.115 A  
HETATM   23  C   UNL     1      -9.185   6.572  66.547  1.00  0.00    -0.179 A  
HETATM   24  C   UNL     1      -7.420   6.799  64.443  1.00  0.00    -0.100 A  
HETATM   25  C   UNL     1      -7.685   7.924  65.257  1.00  0.00    -0.097 A  
HETATM   26  C   UNL     1      -8.922   5.447  65.737  1.00  0.00    -0.161 A  
ENDBRANCH  20  21
BRANCH  20  27
HETATM   27  N   UNL     1      -7.639   9.706  67.637  1.00  0.00    -0.091 N  
HETATM   28  H   UNL     1      -6.968   9.916  66.900  1.00  0.00     0.000 HD 
HETATM   29  C   UNL     1      -7.379  10.071  68.932  1.00  0.00    -0.080 C  
HETATM   30  O   UNL     1      -8.141   9.773  69.851  1.00  0.00    -0.148 OA 
BRANCH  29  31
HETATM   31  C   UNL     1      -6.044  10.754  69.192  1.00  0.00    -0.043 C  
HETATM   32  C   UNL     1      -5.938  12.153  67.104  1.00  0.00    -0.143 C  
HETATM   33  C   UNL     1      -5.221  11.104  67.947  1.00  0.00    -0.039 C  
HETATM   34  C   UNL     1      -6.295  13.394  67.905  1.00  0.00    -0.151 C  
HETATM   35  F   UNL     1      -7.043  14.227  67.144  1.00  0.00    -0.194 F  
HETATM   36  F   UNL     1      -5.154  14.067  68.211  1.00  0.00    -0.083 F  
HETATM   37  C   UNL     1      -7.035  13.097  69.187  1.00  0.00    -0.028 C  
HETATM   38  C   UNL     1      -6.302  12.031  69.998  1.00  0.00    -0.053 C  
ENDBRANCH  29  31
ENDBRANCH  20  27
ENDBRANCH  18  19
ENDBRANCH  17  18
ENDBRANCH   8  10
TORSDOF 6
ENDMDL
MODEL      119
REMARK 921   NORMALIZED FREE ENERGY PREDICTED BY IDOCK:   -5.24 KCAL/MOL
REMARK 922        TOTAL FREE ENERGY PREDICTED BY IDOCK:   -8.61 KCAL/MOL
REMARK 923 INTER-LIGAND FREE ENERGY PREDICTED BY IDOCK:   -7.92 KCAL/MOL
REMARK 924 INTRA-LIGAND FREE ENERGY PREDICTED BY IDOCK:   -0.69 KCAL/MOL
REMARK 927      BINDING AFFINITY PREDICTED BY RF-SCORE:    0.00 PKD
ROOT
HETATM    1  C   UNL     1     -11.852  13.090  64.012  1.00  0.00    -0.510 C  
HETATM    2  C   UNL     1     -10.730  13.271  65.049  1.00  0.00    -0.346 C  
HETATM    3  C   UNL     1     -11.204  12.903  66.422  1.00  0.00    -0.300 A  
HETATM    4  C   UNL     1     -10.264  14.733  65.082  1.00  0.00    -0.410 C  
HETATM    5  N   UNL     1     -12.018  13.663  67.123  1.00  0.00    -0.396 NA 
HETATM    6  N   UNL     1     -11.941  13.270  68.413  1.00  0.00    -0.338 NA 
HETATM    7  C   UNL     1     -11.166  12.209  68.489  1.00  0.00    -0.260 A  
HETATM    8  N   UNL     1     -10.759  11.851  67.215  1.00  0.00    -0.227 NA 
HETATM    9  C   UNL     1     -10.848  11.572  69.783  1.00  0.00     0.049 C  
ENDROOT
BRANCH   8  10
HETATM   10  C   UNL     1      -9.930  10.721  66.743  1.00  0.00    -0.206 C  
HETATM   11  C   UNL     1      -8.394  10.894  66.803  1.00  0.00    -0.138 C  
HETATM   12  C   UNL     1      -7.562   9.773  67.454  1.00  0.00    -0.091 C  
HETATM   13  C   UNL     1      -7.296   8.730  66.370  1.00  0.00    -0.084 C  
HETATM   14  C   UNL     1      -8.564   7.892  66.399  1.00  0.00    -0.156 C  
HETATM   15  C   UNL     1      -9.313   8.352  67.684  1.00  0.00    -0.137 C  
HETATM   16  C   UNL     1     -10.417   9.354  67.311  1.00  0.00    -0.332 C  
HETATM   17  N   UNL     1      -8.248   8.966  68.491  1.00  0.00    -0.115 NA 
BRANCH  17  18
HETATM   18  C   UNL     1      -8.576   9.688  69.771  1.00  0.00    -0.199 C  
BRANCH  18  19
HETATM   19  C   UNL     1      -8.934   8.861  71.089  1.00  0.00    -0.305 C  
HETATM   20  C   UNL     1     -10.065   7.697  71.119  1.00  0.00    -0.184 C  
BRANCH  20  21
HETATM   21  C   UNL     1     -11.575   7.789  71.502  1.00  0.00    -0.303 A  
HETATM   22  C   UNL     1     -14.410   7.847  72.004  1.00  0.00    -0.490 A  
HETATM   23  C   UNL     1     -12.448   6.704  71.166  1.00  0.00    -0.255 A  
HETATM   24  C   UNL     1     -13.581   8.929  72.331  1.00  0.00    -0.500 A  
HETATM   25  C   UNL     1     -12.190   8.904  72.080  1.00  0.00    -0.447 A  
HETATM   26  C   UNL     1     -13.837   6.727  71.414  1.00  0.00    -0.100 A  
ENDBRANCH  20  21
BRANCH  20  27
HETATM   27  N   UNL     1      -9.919   6.822  69.965  1.00  0.00    -0.175 N  
HETATM   28  H   UNL     1     -10.207   7.139  69.040  1.00  0.00     0.000 HD 
HETATM   29  C   UNL     1      -9.390   5.569  70.131  1.00  0.00    -0.146 C  
HETATM   30  O   UNL     1      -9.094   5.137  71.244  1.00  0.00    -0.139 OA 
BRANCH  29  31
HETATM   31  C   UNL     1      -9.303   4.696  68.888  1.00  0.00    -0.200 C  
HETATM   32  C   UNL     1      -6.815   4.806  68.540  1.00  0.00    -0.051 C  
HETATM   33  C   UNL     1      -8.180   5.045  67.905  1.00  0.00    -0.097 C  
HETATM   34  C   UNL     1      -6.666   3.393  69.077  1.00  0.00    -0.037 C  
HETATM   35  F   UNL     1      -5.493   3.280  69.744  1.00  0.00    -0.013 F  
HETATM   36  F   UNL     1      -6.603   2.526  68.032  1.00  0.00    -0.033 F  
HETATM   37  C   UNL     1      -7.793   2.967  69.986  1.00  0.00    -0.048 C  
HETATM   38  C   UNL     1      -9.146   3.237  69.331  1.00  0.00    -0.201 C  
ENDBRANCH  29  31
ENDBRANCH  20  27
ENDBRANCH  18  19
ENDBRANCH  17  18
ENDBRANCH   8  10
TORSDOF 6
ENDMDL
MODEL      120
REMARK 921   NORMALIZED FREE ENERGY PREDICTED BY IDOCK:   -5.21 KCAL/MOL
REMARK 922        TOTAL FREE ENERGY PREDICTED BY IDOCK:   -8.57 KCAL/MOL
REMARK 923 INTER-LIGAND FREE ENERGY PREDICTED BY IDOCK:   -8.30 KCAL/MOL
REMARK 924 INTRA-LIGAND FREE ENERGY PREDICTED BY IDOCK:   -0.27 KCAL/MOL
REMARK 927      BINDING AFFINITY PREDICTED BY RF-SCORE:    0.00 PKD
ROOT
HETATM    1  C   UNL     1      -7.906   9.877  69.729  1.00  0.00    -0.169 C  
HETATM    2  C   UNL     1      -8.222   8.636  70.583  1.00  0.00    -0.147 C  
HETATM    3  C   UNL     1      -9.694   8.524  70.845  1.00  0.00    -0.187 A  
HETATM    4  C   UNL     1      -7.504   8.723  71.937  1.00  0.00    -0.051 C  
HETATM    5  N   UNL     1     -10.329   9.308  71.689  1.00  0.00    -0.315 NA 
HETATM    6  N   UNL     1     -11.510   8.722  71.987  1.00  0.00    -0.361 NA 
HETATM    7  C   UNL     1     -11.644   7.640  71.251  1.00  0.00    -0.278 A  
HETATM    8  N   UNL     1     -10.556   7.527  70.403  1.00  0.00    -0.224 NA 
HETATM    9  C   UNL     1     -12.818   6.753  71.384  1.00  0.00    -0.287 C  
ENDROOT
BRANCH   8  10
HETATM   10  C   UNL     1     -10.242   6.534  69.353  1.00  0.00    -0.183 C  
HETATM   11  C   UNL     1     -11.276   6.353  68.216  1.00  0.00    -0.276 C  
HETATM   12  C   UNL     1     -10.768   6.390  66.762  1.00  0.00    -0.285 C  
HETATM   13  C   UNL     1     -10.301   4.977  66.418  1.00  0.00    -0.335 C  
HETATM   14  C   UNL     1      -8.888   4.952  66.977  1.00  0.00    -0.106 C  
HETATM   15  C   UNL     1      -8.575   6.436  67.332  1.00  0.00    -0.107 C  
HETATM   16  C   UNL     1      -8.777   6.663  68.838  1.00  0.00    -0.128 C  
HETATM   17  N   UNL     1      -9.542   7.185  66.516  1.00  0.00    -0.169 NA 
BRANCH  17  18
HETATM   18  C   UNL     1      -9.685   8.676  66.675  1.00  0.00    -0.247 C  
BRANCH  18  19
HETATM   19  C   UNL     1      -9.094   9.661  65.568  1.00  0.00    -0.252 C  
HETATM   20  C   UNL     1      -9.450  11.244  65.515  1.00  0.00    -0.229 C  
BRANCH  20  21
HETATM   21  C   UNL     1     -10.559  11.987  64.708  1.00  0.00    -0.340 A  
HETATM   22  C   UNL     1     -12.644  13.490  63.410  1.00  0.00     0.022 A  
HETATM   23  C   UNL     1     -10.738  13.395  64.898  1.00  0.00    -0.381 A  
HETATM   24  C   UNL     1     -12.502  12.110  63.217  1.00  0.00    -0.528 A  
HETATM   25  C   UNL     1     -11.482  11.369  63.857  1.00  0.00    -0.232 A  
HETATM   26  C   UNL     1     -11.755  14.136  64.261  1.00  0.00    -0.365 A  
ENDBRANCH  20  21
BRANCH  20  27
HETATM   27  N   UNL     1      -9.360  11.825  66.847  1.00  0.00    -0.187 N  
HETATM   28  H   UNL     1      -8.467  12.169  67.199  1.00  0.00     0.000 HD 
HETATM   29  C   UNL     1     -10.485  11.906  67.625  1.00  0.00    -0.208 C  
HETATM   30  O   UNL     1     -11.561  11.440  67.252  1.00  0.00    -0.523 OA 
BRANCH  29  31
HETATM   31  C   UNL     1     -10.308  12.490  69.019  1.00  0.00     0.030 C  
HETATM   32  C   UNL     1      -9.717  14.843  68.357  1.00  0.00    -0.209 C  
HETATM   33  C   UNL     1      -9.276  13.615  69.146  1.00  0.00     0.460 C  
HETATM   34  C   UNL     1     -11.107  15.314  68.751  1.00  0.00    -0.270 C  
HETATM   35  F   UNL     1     -11.496  16.318  67.930  1.00  0.00    -0.308 F  
HETATM   36  F   UNL     1     -11.059  15.836  70.005  1.00  0.00    -0.238 F  
HETATM   37  C   UNL     1     -12.149  14.222  68.725  1.00  0.00    -0.300 C  
HETATM   38  C   UNL     1     -11.669  13.001  69.506  1.00  0.00    -0.381 C  
ENDBRANCH  29  31
ENDBRANCH  20  27
ENDBRANCH  18  19
ENDBRANCH  17  18
ENDBRANCH   8  10
TORSDOF 6
ENDMDL
MODEL      121
REMARK 921   NORMALIZED FREE ENERGY PREDICTED BY IDOCK:   -5.19 KCAL/MOL
REMARK 922        TOTAL FREE ENERGY PREDICTED BY IDOCK:   -8.55 KCAL/MOL
REMARK 923 INTER-LIGAND FREE ENERGY PREDICTED BY IDOCK:   -7.67 KCAL/MOL
REMARK 924 INTRA-LIGAND FREE ENERGY PREDICTED BY IDOCK:   -0.88 KCAL/MOL
REMARK 927      BINDING AFFINITY PREDICTED BY RF-SCORE:    0.00 PKD
ROOT
HETATM    1  C   UNL     1      -6.926   6.031  72.994  1.00  0.00    -0.080 C  
HETATM    2  C   UNL     1      -8.160   5.215  72.570  1.00  0.00    -0.109 C  
HETATM    3  C   UNL     1      -9.376   6.086  72.486  1.00  0.00    -0.141 A  
HETATM    4  C   UNL     1      -8.441   4.102  73.589  1.00  0.00    -0.092 C  
HETATM    5  N   UNL     1     -10.002   6.541  73.551  1.00  0.00    -0.192 NA 
HETATM    6  N   UNL     1     -11.233   6.943  73.165  1.00  0.00    -0.189 NA 
HETATM    7  C   UNL     1     -11.325   6.835  71.857  1.00  0.00    -0.271 A  
HETATM    8  N   UNL     1     -10.112   6.402  71.350  1.00  0.00    -0.188 NA 
HETATM    9  C   UNL     1     -12.575   7.157  71.139  1.00  0.00    -0.384 C  
ENDROOT
BRANCH   8  10
HETATM   10  C   UNL     1      -9.671   6.168  69.958  1.00  0.00    -0.164 C  
HETATM   11  C   UNL     1     -10.752   5.762  68.929  1.00  0.00    -0.334 C  
HETATM   12  C   UNL     1     -10.811   6.532  67.596  1.00  0.00    -0.337 C  
HETATM   13  C   UNL     1      -9.813   5.864  66.652  1.00  0.00    -0.197 C  
HETATM   14  C   UNL     1      -8.498   6.518  67.044  1.00  0.00    -0.113 C  
HETATM   15  C   UNL     1      -8.905   7.700  67.972  1.00  0.00    -0.127 C  
HETATM   16  C   UNL     1      -8.723   7.293  69.442  1.00  0.00    -0.137 C  
HETATM   17  N   UNL     1     -10.315   7.929  67.623  1.00  0.00    -0.226 NA 
BRANCH  17  18
HETATM   18  C   UNL     1     -11.150   8.905  68.410  1.00  0.00     0.264 C  
BRANCH  18  19
HETATM   19  C   UNL     1     -10.449   9.957  69.385  1.00  0.00    -0.250 C  
HETATM   20  C   UNL     1      -9.932  11.412  68.885  1.00  0.00    -0.131 C  
BRANCH  20  21
HETATM   21  C   UNL     1      -8.517  11.848  68.392  1.00  0.00    -0.155 A  
HETATM   22  C   UNL     1      -6.015  12.817  67.348  1.00  0.00    -0.110 A  
HETATM   23  C   UNL     1      -8.256  13.237  68.161  1.00  0.00    -0.160 A  
HETATM   24  C   UNL     1      -6.249  11.450  67.551  1.00  0.00    -0.069 A  
HETATM   25  C   UNL     1      -7.479  10.973  68.058  1.00  0.00    -0.090 A  
HETATM   26  C   UNL     1      -7.030  13.717  67.654  1.00  0.00    -0.183 A  
ENDBRANCH  20  21
BRANCH  20  27
HETATM   27  N   UNL     1     -10.944  12.048  68.054  1.00  0.00    -0.210 N  
HETATM   28  H   UNL     1     -11.633  12.673  68.471  1.00  0.00     0.000 HD 
HETATM   29  C   UNL     1     -10.962  11.802  66.707  1.00  0.00    -0.288 C  
HETATM   30  O   UNL     1     -10.185  11.004  66.187  1.00  0.00    -0.232 OA 
BRANCH  29  31
HETATM   31  C   UNL     1     -12.071  12.471  65.907  1.00  0.00    -0.420 C  
HETATM   32  C   UNL     1     -11.524  14.863  66.457  1.00  0.00    -0.286 C  
HETATM   33  C   UNL     1     -12.605  13.789  66.480  1.00  0.00    -0.242 C  
HETATM   34  C   UNL     1     -10.930  15.057  65.072  1.00  0.00    -0.423 C  
HETATM   35  F   UNL     1      -9.891  15.922  65.139  1.00  0.00    -0.297 F  
HETATM   36  F   UNL     1     -11.862  15.633  64.267  1.00  0.00    -0.442 F  
HETATM   37  C   UNL     1     -10.465  13.774  64.426  1.00  0.00    -0.265 C  
HETATM   38  C   UNL     1     -11.562  12.713  64.482  1.00  0.00    -0.399 C  
ENDBRANCH  29  31
ENDBRANCH  20  27
ENDBRANCH  18  19
ENDBRANCH  17  18
ENDBRANCH   8  10
TORSDOF 6
ENDMDL
MODEL      122
REMARK 921   NORMALIZED FREE ENERGY PREDICTED BY IDOCK:   -5.13 KCAL/MOL
REMARK 922        TOTAL FREE ENERGY PREDICTED BY IDOCK:   -8.46 KCAL/MOL
REMARK 923 INTER-LIGAND FREE ENERGY PREDICTED BY IDOCK:   -7.16 KCAL/MOL
REMARK 924 INTRA-LIGAND FREE ENERGY PREDICTED BY IDOCK:   -1.31 KCAL/MOL
REMARK 927      BINDING AFFINITY PREDICTED BY RF-SCORE:    0.00 PKD
ROOT
HETATM    1  C   UNL     1     -12.940  14.258  73.092  1.00  0.00    -0.426 C  
HETATM    2  C   UNL     1     -13.533  13.924  71.712  1.00  0.00    -0.464 C  
HETATM    3  C   UNL     1     -12.471  13.429  70.777  1.00  0.00    -0.341 A  
HETATM    4  C   UNL     1     -14.172  15.172  71.089  1.00  0.00    -0.433 C  
HETATM    5  N   UNL     1     -11.572  14.223  70.235  1.00  0.00    -0.254 NA 
HETATM    6  N   UNL     1     -11.033  13.575  69.179  1.00  0.00    -0.216 NA 
HETATM    7  C   UNL     1     -11.520  12.353  69.136  1.00  0.00    -0.302 A  
HETATM    8  N   UNL     1     -12.363  12.161  70.217  1.00  0.00    -0.238 NA 
HETATM    9  C   UNL     1     -11.155  11.411  68.060  1.00  0.00    -0.317 C  
ENDROOT
BRANCH   8  10
HETATM   10  C   UNL     1     -13.118  10.969  70.659  1.00  0.00    -0.008 C  
HETATM   11  C   UNL     1     -12.908   9.660  69.861  1.00  0.00     0.909 C  
HETATM   12  C   UNL     1     -12.598   8.372  70.648  1.00  0.00     0.343 C  
HETATM   13  C   UNL     1     -13.940   7.775  71.069  1.00  0.00    -0.098 C  
HETATM   14  C   UNL     1     -14.261   8.548  72.338  1.00  0.00    -0.406 C  
HETATM   15  C   UNL     1     -12.947   9.309  72.682  1.00  0.00    -0.212 C  
HETATM   16  C   UNL     1     -13.050  10.765  72.203  1.00  0.00    -0.350 C  
HETATM   17  N   UNL     1     -11.920   8.549  71.954  1.00  0.00    -0.320 NA 
BRANCH  17  18
HETATM   18  C   UNL     1     -10.500   9.046  71.892  1.00  0.00    -0.303 C  
BRANCH  18  19
HETATM   19  C   UNL     1      -9.290   8.009  71.815  1.00  0.00    -0.218 C  
HETATM   20  C   UNL     1      -9.385   6.602  71.010  1.00  0.00    -0.160 C  
BRANCH  20  21
HETATM   21  C   UNL     1      -9.768   5.183  71.532  1.00  0.00    -0.221 A  
HETATM   22  C   UNL     1     -10.450   2.648  72.716  1.00  0.00    -0.221 A  
HETATM   23  C   UNL     1     -10.561   5.066  72.719  1.00  0.00    -0.274 A  
HETATM   24  C   UNL     1      -9.659   2.733  71.561  1.00  0.00    -0.221 A  
HETATM   25  C   UNL     1      -9.319   3.977  70.982  1.00  0.00    -0.219 A  
HETATM   26  C   UNL     1     -10.901   3.826  73.300  1.00  0.00    -0.293 A  
ENDBRANCH  20  21
BRANCH  20  27
HETATM   27  N   UNL     1      -9.993   6.809  69.703  1.00  0.00    -0.171 N  
HETATM   28  H   UNL     1     -10.996   6.678  69.577  1.00  0.00     0.000 HD 
HETATM   29  C   UNL     1      -9.207   7.182  68.645  1.00  0.00    -0.135 C  
HETATM   30  O   UNL     1      -7.986   7.283  68.753  1.00  0.00    -0.119 OA 
BRANCH  29  31
HETATM   31  C   UNL     1      -9.905   7.342  67.302  1.00  0.00    -0.230 C  
HETATM   32  C   UNL     1      -8.433   5.822  65.943  1.00  0.00    -0.139 C  
HETATM   33  C   UNL     1      -9.006   7.229  66.066  1.00  0.00    -0.149 C  
HETATM   34  C   UNL     1      -9.514   4.754  65.946  1.00  0.00    -0.166 C  
HETATM   35  F   UNL     1      -8.942   3.527  65.970  1.00  0.00    -0.117 F  
HETATM   36  F   UNL     1     -10.217   4.832  64.785  1.00  0.00    -0.085 F  
HETATM   37  C   UNL     1     -10.480   4.872  67.100  1.00  0.00    -0.130 C  
HETATM   38  C   UNL     1     -11.021   6.296  67.208  1.00  0.00    -0.455 C  
ENDBRANCH  29  31
ENDBRANCH  20  27
ENDBRANCH  18  19
ENDBRANCH  17  18
ENDBRANCH   8  10
TORSDOF 6
ENDMDL
MODEL      123
REMARK 921   NORMALIZED FREE ENERGY PREDICTED BY IDOCK:   -5.12 KCAL/MOL
REMARK 922        TOTAL FREE ENERGY PREDICTED BY IDOCK:   -8.46 KCAL/MOL
REMARK 923 INTER-LIGAND FREE ENERGY PREDICTED BY IDOCK:   -6.63 KCAL/MOL
REMARK 924 INTRA-LIGAND FREE ENERGY PREDICTED BY IDOCK:   -1.83 KCAL/MOL
REMARK 927      BINDING AFFINITY PREDICTED BY RF-SCORE:    0.00 PKD
ROOT
HETATM    1  C   UNL     1     -12.016  14.709  69.188  1.00  0.00    -0.329 C  
HETATM    2  C   UNL     1     -11.051  14.850  67.998  1.00  0.00    -0.301 C  
HETATM    3  C   UNL     1      -9.647  14.516  68.402  1.00  0.00    -0.213 A  
HETATM    4  C   UNL     1     -11.063  16.291  67.468  1.00  0.00    -0.140 C  
HETATM    5  N   UNL     1      -8.907  15.317  69.139  1.00  0.00    -0.225 NA 
HETATM    6  N   UNL     1      -7.619  14.932  69.001  1.00  0.00    -0.141 NA 
HETATM    7  C   UNL     1      -7.579  13.840  68.268  1.00  0.00    -0.129 A  
HETATM    8  N   UNL     1      -8.870  13.453  67.955  1.00  0.00    -0.184 NA 
HETATM    9  C   UNL     1      -6.299  13.202  67.899  1.00  0.00    -0.139 C  
ENDROOT
BRANCH   8  10
HETATM   10  C   UNL     1      -9.378  12.284  67.206  1.00  0.00    -0.185 C  
HETATM   11  C   UNL     1      -8.361  11.494  66.348  1.00  0.00    -0.118 C  
HETATM   12  C   UNL     1      -8.314   9.962  66.506  1.00  0.00    -0.125 C  
HETATM   13  C   UNL     1      -9.383   9.387  65.578  1.00  0.00    -0.315 C  
HETATM   14  C   UNL     1     -10.645   9.498  66.418  1.00  0.00    -0.083 C  
HETATM   15  C   UNL     1     -10.140   9.857  67.846  1.00  0.00    -0.173 C  
HETATM   16  C   UNL     1     -10.285  11.369  68.083  1.00  0.00    -0.200 C  
HETATM   17  N   UNL     1      -8.734   9.426  67.822  1.00  0.00    -0.117 NA 
BRANCH  17  18
HETATM   18  C   UNL     1      -7.818   9.735  68.978  1.00  0.00    -0.087 C  
BRANCH  18  19
HETATM   19  C   UNL     1      -8.258   9.374  70.469  1.00  0.00    -0.221 C  
HETATM   20  C   UNL     1      -9.163   8.076  70.831  1.00  0.00    -0.149 C  
BRANCH  20  21
HETATM   21  C   UNL     1     -10.710   7.958  70.996  1.00  0.00    -0.239 A  
HETATM   22  C   UNL     1     -13.540   7.836  71.517  1.00  0.00    -0.391 A  
HETATM   23  C   UNL     1     -11.418   8.985  71.702  1.00  0.00    -0.431 A  
HETATM   24  C   UNL     1     -12.871   6.810  70.835  1.00  0.00    -0.051 A  
HETATM   25  C   UNL     1     -11.481   6.866  70.584  1.00  0.00    -0.383 A  
HETATM   26  C   UNL     1     -12.804   8.931  71.956  1.00  0.00    -0.456 A  
ENDBRANCH  20  21
BRANCH  20  27
HETATM   27  N   UNL     1      -8.669   6.903  70.123  1.00  0.00    -0.141 N  
HETATM   28  H   UNL     1      -9.051   6.655  69.211  1.00  0.00     0.000 HD 
HETATM   29  C   UNL     1      -7.687   6.136  70.692  1.00  0.00    -0.105 C  
HETATM   30  O   UNL     1      -7.255   6.374  71.818  1.00  0.00    -0.083 OA 
BRANCH  29  31
HETATM   31  C   UNL     1      -7.248   4.905  69.912  1.00  0.00    -0.055 C  
HETATM   32  C   UNL     1      -7.546   3.196  71.733  1.00  0.00    -0.052 C  
HETATM   33  C   UNL     1      -6.569   3.804  70.734  1.00  0.00    -0.031 C  
HETATM   34  C   UNL     1      -8.817   2.693  71.068  1.00  0.00    -0.074 C  
HETATM   35  F   UNL     1      -9.697   2.290  72.015  1.00  0.00    -0.158 F  
HETATM   36  F   UNL     1      -8.521   1.597  70.321  1.00  0.00    -0.056 F  
HETATM   37  C   UNL     1      -9.481   3.716  70.178  1.00  0.00    -0.258 C  
HETATM   38  C   UNL     1      -8.473   4.319  69.203  1.00  0.00    -0.099 C  
ENDBRANCH  29  31
ENDBRANCH  20  27
ENDBRANCH  18  19
ENDBRANCH  17  18
ENDBRANCH   8  10
TORSDOF 6
ENDMDL
MODEL      124
REMARK 921   NORMALIZED FREE ENERGY PREDICTED BY IDOCK:   -5.11 KCAL/MOL
REMARK 922        TOTAL FREE ENERGY PREDICTED BY IDOCK:   -8.44 KCAL/MOL
REMARK 923 INTER-LIGAND FREE ENERGY PREDICTED BY IDOCK:   -6.85 KCAL/MOL
REMARK 924 INTRA-LIGAND FREE ENERGY PREDICTED BY IDOCK:   -1.60 KCAL/MOL
REMARK 927      BINDING AFFINITY PREDICTED BY RF-SCORE:    0.00 PKD
ROOT
HETATM    1  C   UNL     1     -11.354  11.988  69.505  1.00  0.00    -0.298 C  
HETATM    2  C   UNL     1     -10.643  12.126  68.148  1.00  0.00    -0.236 C  
HETATM    3  C   UNL     1      -9.853  13.398  68.083  1.00  0.00    -0.234 A  
HETATM    4  C   UNL     1     -11.668  12.143  67.006  1.00  0.00    -0.373 C  
HETATM    5  N   UNL     1     -10.416  14.580  67.945  1.00  0.00    -0.240 NA 
HETATM    6  N   UNL     1      -9.462  15.445  67.535  1.00  0.00    -0.204 NA 
HETATM    7  C   UNL     1      -8.302  14.824  67.523  1.00  0.00    -0.183 A  
HETATM    8  N   UNL     1      -8.473  13.531  67.986  1.00  0.00    -0.165 NA 
HETATM    9  C   UNL     1      -7.067  15.497  67.072  1.00  0.00    -0.072 C  
ENDROOT
BRANCH   8  10
HETATM   10  C   UNL     1      -7.495  12.445  68.214  1.00  0.00    -0.124 C  
HETATM   11  C   UNL     1      -7.917  11.299  69.165  1.00  0.00    -0.002 C  
HETATM   12  C   UNL     1      -7.729   9.849  68.681  1.00  0.00    -0.081 C  
HETATM   13  C   UNL     1      -6.291   9.452  69.013  1.00  0.00    -0.042 C  
HETATM   14  C   UNL     1      -5.514  10.013  67.833  1.00  0.00    -0.038 C  
HETATM   15  C   UNL     1      -6.604  10.424  66.800  1.00  0.00    -0.078 C  
HETATM   16  C   UNL     1      -6.856  11.938  66.886  1.00  0.00    -0.075 C  
HETATM   17  N   UNL     1      -7.773   9.635  67.215  1.00  0.00    -0.092 NA 
BRANCH  17  18
HETATM   18  C   UNL     1      -9.113   9.851  66.563  1.00  0.00    -0.152 C  
BRANCH  18  19
HETATM   19  C   UNL     1     -10.172   8.659  66.493  1.00  0.00    -0.295 C  
HETATM   20  C   UNL     1     -10.397   7.607  67.709  1.00  0.00    -0.219 C  
BRANCH  20  21
HETATM   21  C   UNL     1      -9.751   6.207  67.944  1.00  0.00    -0.117 A  
HETATM   22  C   UNL     1      -8.347   3.728  68.364  1.00  0.00    -0.098 A  
HETATM   23  C   UNL     1      -8.562   6.110  68.736  1.00  0.00    -0.120 A  
HETATM   24  C   UNL     1      -9.500   3.796  67.572  1.00  0.00    -0.237 A  
HETATM   25  C   UNL     1     -10.188   5.013  67.360  1.00  0.00    -0.201 A  
HETATM   26  C   UNL     1      -7.873   4.897  68.948  1.00  0.00    -0.077 A  
ENDBRANCH  20  21
BRANCH  20  27
HETATM   27  N   UNL     1     -10.475   8.315  68.979  1.00  0.00    -0.266 N  
HETATM   28  H   UNL     1      -9.933   9.165  69.127  1.00  0.00     0.000 HD 
HETATM   29  C   UNL     1     -11.283   7.829  69.973  1.00  0.00    -0.117 C  
HETATM   30  O   UNL     1     -11.897   6.771  69.845  1.00  0.00    -0.283 OA 
BRANCH  29  31
HETATM   31  C   UNL     1     -11.285   8.599  71.286  1.00  0.00    -0.338 C  
HETATM   32  C   UNL     1     -10.472   6.754  72.790  1.00  0.00    -0.247 C  
HETATM   33  C   UNL     1     -11.579   7.773  72.543  1.00  0.00    -0.422 C  
HETATM   34  C   UNL     1      -9.097   7.398  72.855  1.00  0.00    -0.148 C  
HETATM   35  F   UNL     1      -8.148   6.437  72.942  1.00  0.00    -0.106 F  
HETATM   36  F   UNL     1      -9.008   8.136  73.993  1.00  0.00    -0.320 F  
HETATM   37  C   UNL     1      -8.789   8.293  71.679  1.00  0.00    -0.224 C  
HETATM   38  C   UNL     1      -9.925   9.287  71.446  1.00  0.00    -0.323 C  
ENDBRANCH  29  31
ENDBRANCH  20  27
ENDBRANCH  18  19
ENDBRANCH  17  18
ENDBRANCH   8  10
TORSDOF 6
ENDMDL
MODEL      125
REMARK 921   NORMALIZED FREE ENERGY PREDICTED BY IDOCK:   -5.09 KCAL/MOL
REMARK 922        TOTAL FREE ENERGY PREDICTED BY IDOCK:   -8.42 KCAL/MOL
REMARK 923 INTER-LIGAND FREE ENERGY PREDICTED BY IDOCK:   -7.69 KCAL/MOL
REMARK 924 INTRA-LIGAND FREE ENERGY PREDICTED BY IDOCK:   -0.73 KCAL/MOL
REMARK 927      BINDING AFFINITY PREDICTED BY RF-SCORE:    0.00 PKD
ROOT
HETATM    1  C   UNL     1     -12.508  14.082  64.817  1.00  0.00    -0.392 C  
HETATM    2  C   UNL     1     -11.042  14.514  64.997  1.00  0.00    -0.393 C  
HETATM    3  C   UNL     1     -10.548  14.176  66.371  1.00  0.00    -0.280 A  
HETATM    4  C   UNL     1     -10.903  16.030  64.801  1.00  0.00    -0.315 C  
HETATM    5  N   UNL     1     -10.912  14.846  67.444  1.00  0.00    -0.305 NA 
HETATM    6  N   UNL     1     -10.026  14.566  68.425  1.00  0.00    -0.234 NA 
HETATM    7  C   UNL     1      -9.187  13.650  67.991  1.00  0.00    -0.197 A  
HETATM    8  N   UNL     1      -9.550  13.270  66.711  1.00  0.00    -0.251 NA 
HETATM    9  C   UNL     1      -8.067  13.168  68.824  1.00  0.00     0.073 C  
ENDROOT
BRANCH   8  10
HETATM   10  C   UNL     1      -8.978  12.254  65.801  1.00  0.00     0.228 C  
HETATM   11  C   UNL     1      -8.024  11.205  66.419  1.00  0.00    -0.147 C  
HETATM   12  C   UNL     1      -8.278   9.718  66.105  1.00  0.00    -0.120 C  
HETATM   13  C   UNL     1      -7.580   9.417  64.780  1.00  0.00    -0.111 C  
HETATM   14  C   UNL     1      -8.606   9.874  63.756  1.00  0.00    -0.205 C  
HETATM   15  C   UNL     1      -9.904  10.126  64.579  1.00  0.00    -0.264 C  
HETATM   16  C   UNL     1     -10.054  11.629  64.862  1.00  0.00    -0.303 C  
HETATM   17  N   UNL     1      -9.680   9.343  65.803  1.00  0.00    -0.283 NA 
BRANCH  17  18
HETATM   18  C   UNL     1     -10.645   9.433  66.956  1.00  0.00    -0.201 C  
BRANCH  18  19
HETATM   19  C   UNL     1     -10.103   9.433  68.457  1.00  0.00    -0.208 C  
HETATM   20  C   UNL     1     -10.617   8.380  69.580  1.00  0.00    -0.219 C  
BRANCH  20  21
HETATM   21  C   UNL     1     -11.756   8.531  70.637  1.00  0.00    -0.161 A  
HETATM   22  C   UNL     1     -13.987   8.664  72.452  1.00  0.00    -0.435 A  
HETATM   23  C   UNL     1     -12.583   7.401  70.938  1.00  0.00    -0.187 A  
HETATM   24  C   UNL     1     -13.202   9.789  72.165  1.00  0.00    -0.530 A  
HETATM   25  C   UNL     1     -12.110   9.726  71.270  1.00  0.00    -0.470 A  
HETATM   26  C   UNL     1     -13.675   7.461  71.829  1.00  0.00    -0.417 A  
ENDBRANCH  20  21
BRANCH  20  27
HETATM   27  N   UNL     1     -10.655   7.033  69.028  1.00  0.00    -0.213 N  
HETATM   28  H   UNL     1     -11.354   6.784  68.329  1.00  0.00     0.000 HD 
HETATM   29  C   UNL     1      -9.745   6.103  69.455  1.00  0.00    -0.146 C  
HETATM   30  O   UNL     1      -8.933   6.357  70.344  1.00  0.00    -0.152 OA 
BRANCH  29  31
HETATM   31  C   UNL     1      -9.869   4.706  68.863  1.00  0.00    -0.211 C  
HETATM   32  C   UNL     1      -8.905   5.187  66.591  1.00  0.00    -0.112 C  
HETATM   33  C   UNL     1     -10.108   4.642  67.351  1.00  0.00    -0.150 C  
HETATM   34  C   UNL     1      -7.611   4.492  66.981  1.00  0.00    -0.086 C  
HETATM   35  F   UNL     1      -6.565   5.105  66.377  1.00  0.00    -0.043 F  
HETATM   36  F   UNL     1      -7.635   3.216  66.514  1.00  0.00    -0.072 F  
HETATM   37  C   UNL     1      -7.368   4.453  68.471  1.00  0.00    -0.060 C  
HETATM   38  C   UNL     1      -8.597   3.922  69.204  1.00  0.00    -0.113 C  
ENDBRANCH  29  31
ENDBRANCH  20  27
ENDBRANCH  18  19
ENDBRANCH  17  18
ENDBRANCH   8  10
TORSDOF 6
ENDMDL
MODEL      126
REMARK 921   NORMALIZED FREE ENERGY PREDICTED BY IDOCK:   -5.09 KCAL/MOL
REMARK 922        TOTAL FREE ENERGY PREDICTED BY IDOCK:   -8.42 KCAL/MOL
REMARK 923 INTER-LIGAND FREE ENERGY PREDICTED BY IDOCK:   -7.81 KCAL/MOL
REMARK 924 INTRA-LIGAND FREE ENERGY PREDICTED BY IDOCK:   -0.61 KCAL/MOL
REMARK 927      BINDING AFFINITY PREDICTED BY RF-SCORE:    0.00 PKD
ROOT
HETATM    1  C   UNL     1     -11.017   5.661  70.796  1.00  0.00    -0.257 C  
HETATM    2  C   UNL     1      -9.718   4.948  71.210  1.00  0.00    -0.241 C  
HETATM    3  C   UNL     1      -8.791   4.801  70.041  1.00  0.00    -0.086 A  
HETATM    4  C   UNL     1     -10.027   3.546  71.751  1.00  0.00    -0.202 C  
HETATM    5  N   UNL     1      -8.996   3.934  69.073  1.00  0.00    -0.107 NA 
HETATM    6  N   UNL     1      -7.831   3.773  68.409  1.00  0.00    -0.067 NA 
HETATM    7  C   UNL     1      -6.943   4.613  68.898  1.00  0.00    -0.052 A  
HETATM    8  N   UNL     1      -7.542   5.390  69.874  1.00  0.00    -0.072 NA 
HETATM    9  C   UNL     1      -5.551   4.643  68.406  1.00  0.00    -0.016 C  
ENDROOT
BRANCH   8  10
HETATM   10  C   UNL     1      -7.011   6.503  70.691  1.00  0.00    -0.064 C  
HETATM   11  C   UNL     1      -5.709   7.182  70.203  1.00  0.00    -0.024 C  
HETATM   12  C   UNL     1      -5.682   8.719  70.112  1.00  0.00    -0.030 C  
HETATM   13  C   UNL     1      -5.310   9.241  71.498  1.00  0.00    -0.058 C  
HETATM   14  C   UNL     1      -6.647   9.244  72.220  1.00  0.00     0.299 C  
HETATM   15  C   UNL     1      -7.702   8.999  71.102  1.00  0.00    -0.110 C  
HETATM   16  C   UNL     1      -8.119   7.520  71.097  1.00  0.00    -0.100 C  
HETATM   17  N   UNL     1      -6.986   9.384  69.877  1.00  0.00    -0.063 NA 
BRANCH  17  18
HETATM   18  C   UNL     1      -7.605   9.152  68.523  1.00  0.00    -0.085 C  
BRANCH  18  19
HETATM   19  C   UNL     1      -9.131   8.703  68.405  1.00  0.00    -0.138 C  
HETATM   20  C   UNL     1     -10.364   9.758  68.420  1.00  0.00    -0.201 C  
BRANCH  20  21
HETATM   21  C   UNL     1     -11.236  10.251  69.616  1.00  0.00    -0.322 A  
HETATM   22  C   UNL     1     -12.953  10.950  71.820  1.00  0.00    -0.557 A  
HETATM   23  C   UNL     1     -11.602   9.323  70.643  1.00  0.00    -0.305 A  
HETATM   24  C   UNL     1     -12.622  11.876  70.821  1.00  0.00    -0.325 A  
HETATM   25  C   UNL     1     -11.784  11.532  69.736  1.00  0.00    -0.426 A  
HETATM   26  C   UNL     1     -12.440   9.662  71.727  1.00  0.00    -0.487 A  
ENDBRANCH  20  21
BRANCH  20  27
HETATM   27  N   UNL     1     -10.072  10.886  67.546  1.00  0.00    -0.180 N  
HETATM   28  H   UNL     1      -9.969  11.823  67.934  1.00  0.00     0.000 HD 
HETATM   29  C   UNL     1      -9.937  10.679  66.199  1.00  0.00    -0.228 C  
HETATM   30  O   UNL     1     -10.121   9.572  65.696  1.00  0.00    -0.285 OA 
BRANCH  29  31
HETATM   31  C   UNL     1      -9.671  11.909  65.344  1.00  0.00    -0.228 C  
HETATM   32  C   UNL     1     -11.188  11.349  63.418  1.00  0.00    -0.252 C  
HETATM   33  C   UNL     1      -9.763  11.700  63.829  1.00  0.00    -0.276 C  
HETATM   34  C   UNL     1     -12.199  12.374  63.902  1.00  0.00    -0.513 C  
HETATM   35  F   UNL     1     -13.453  11.943  63.626  1.00  0.00    -0.441 F  
HETATM   36  F   UNL     1     -12.025  13.530  63.208  1.00  0.00    -0.503 F  
HETATM   37  C   UNL     1     -12.096  12.680  65.376  1.00  0.00    -0.516 C  
HETATM   38  C   UNL     1     -10.654  13.009  65.759  1.00  0.00    -0.291 C  
ENDBRANCH  29  31
ENDBRANCH  20  27
ENDBRANCH  18  19
ENDBRANCH  17  18
ENDBRANCH   8  10
TORSDOF 6
ENDMDL
MODEL      127
REMARK 921   NORMALIZED FREE ENERGY PREDICTED BY IDOCK:   -5.05 KCAL/MOL
REMARK 922        TOTAL FREE ENERGY PREDICTED BY IDOCK:   -8.37 KCAL/MOL
REMARK 923 INTER-LIGAND FREE ENERGY PREDICTED BY IDOCK:   -7.12 KCAL/MOL
REMARK 924 INTRA-LIGAND FREE ENERGY PREDICTED BY IDOCK:   -1.24 KCAL/MOL
REMARK 927      BINDING AFFINITY PREDICTED BY RF-SCORE:    0.00 PKD
ROOT
HETATM    1  C   UNL     1      -7.701  18.111  66.972  1.00  0.00    -0.237 C  
HETATM    2  C   UNL     1      -8.748  17.115  67.499  1.00  0.00    -0.211 C  
HETATM    3  C   UNL     1      -9.381  16.356  66.372  1.00  0.00    -0.292 A  
HETATM    4  C   UNL     1      -9.859  17.856  68.255  1.00  0.00    -0.348 C  
HETATM    5  N   UNL     1     -10.258  16.896  65.553  1.00  0.00    -0.614 NA 
HETATM    6  N   UNL     1     -10.910  15.892  64.926  1.00  0.00    -0.563 NA 
HETATM    7  C   UNL     1     -10.366  14.747  65.278  1.00  0.00    -0.398 A  
HETATM    8  N   UNL     1      -9.292  14.992  66.117  1.00  0.00    -0.302 NA 
HETATM    9  C   UNL     1     -10.894  13.456  64.793  1.00  0.00    -0.387 C  
ENDROOT
BRANCH   8  10
HETATM   10  C   UNL     1      -8.324  14.070  66.748  1.00  0.00     0.105 C  
HETATM   11  C   UNL     1      -8.194  14.124  68.289  1.00  0.00    -0.148 C  
HETATM   12  C   UNL     1      -8.262  12.797  69.069  1.00  0.00     0.396 C  
HETATM   13  C   UNL     1      -6.851  12.212  69.077  1.00  0.00    -0.098 C  
HETATM   14  C   UNL     1      -6.784  11.495  67.739  1.00  0.00    -0.072 C  
HETATM   15  C   UNL     1      -8.251  11.491  67.217  1.00  0.00    -0.155 C  
HETATM   16  C   UNL     1      -8.439  12.619  66.191  1.00  0.00     0.525 C  
HETATM   17  N   UNL     1      -9.040  11.705  68.439  1.00  0.00    -0.185 NA 
BRANCH  17  18
HETATM   18  C   UNL     1     -10.529  11.923  68.360  1.00  0.00    -0.217 C  
BRANCH  18  19
HETATM   19  C   UNL     1     -11.519  10.675  68.274  1.00  0.00    -0.318 C  
HETATM   20  C   UNL     1     -11.081   9.171  68.703  1.00  0.00     0.160 C  
BRANCH  20  21
HETATM   21  C   UNL     1     -10.520   8.011  67.823  1.00  0.00    -0.280 A  
HETATM   22  C   UNL     1      -9.428   6.034  66.038  1.00  0.00    -0.068 A  
HETATM   23  C   UNL     1      -9.343   8.235  67.039  1.00  0.00    -0.203 A  
HETATM   24  C   UNL     1     -10.590   5.792  66.783  1.00  0.00    -0.373 A  
HETATM   25  C   UNL     1     -11.130   6.764  67.656  1.00  0.00    -0.309 A  
HETATM   26  C   UNL     1      -8.802   7.268  66.166  1.00  0.00    -0.181 A  
ENDBRANCH  20  21
BRANCH  20  27
HETATM   27  N   UNL     1     -10.365   9.197  69.970  1.00  0.00    -0.196 N  
HETATM   28  H   UNL     1      -9.472   9.683  70.046  1.00  0.00     0.000 HD 
HETATM   29  C   UNL     1     -10.900   8.564  71.061  1.00  0.00    -0.241 C  
HETATM   30  O   UNL     1     -11.943   7.916  70.982  1.00  0.00    -0.298 OA 
BRANCH  29  31
HETATM   31  C   UNL     1     -10.078   8.600  72.341  1.00  0.00    -0.321 C  
HETATM   32  C   UNL     1     -10.118   6.141  72.867  1.00  0.00    -0.196 C  
HETATM   33  C   UNL     1     -10.431   7.539  73.389  1.00  0.00    -0.404 C  
HETATM   34  C   UNL     1      -8.679   6.006  72.399  1.00  0.00    -0.126 C  
HETATM   35  F   UNL     1      -8.499   4.793  71.826  1.00  0.00    -0.108 F  
HETATM   36  F   UNL     1      -7.856   6.051  73.480  1.00  0.00    -0.099 F  
HETATM   37  C   UNL     1      -8.254   7.080  71.427  1.00  0.00    -0.109 C  
HETATM   38  C   UNL     1      -8.598   8.465  71.969  1.00  0.00    -0.254 C  
ENDBRANCH  29  31
ENDBRANCH  20  27
ENDBRANCH  18  19
ENDBRANCH  17  18
ENDBRANCH   8  10
TORSDOF 6
ENDMDL
MODEL      128
REMARK 921   NORMALIZED FREE ENERGY PREDICTED BY IDOCK:   -5.04 KCAL/MOL
REMARK 922        TOTAL FREE ENERGY PREDICTED BY IDOCK:   -8.35 KCAL/MOL
REMARK 923 INTER-LIGAND FREE ENERGY PREDICTED BY IDOCK:   -5.94 KCAL/MOL
REMARK 924 INTRA-LIGAND FREE ENERGY PREDICTED BY IDOCK:   -2.41 KCAL/MOL
REMARK 927      BINDING AFFINITY PREDICTED BY RF-SCORE:    0.00 PKD
ROOT
HETATM    1  C   UNL     1     -11.962  10.098  71.448  1.00  0.00    -0.447 C  
HETATM    2  C   UNL     1     -10.744   9.223  71.103  1.00  0.00    -0.403 C  
HETATM    3  C   UNL     1     -11.123   8.123  70.158  1.00  0.00    -0.187 A  
HETATM    4  C   UNL     1     -10.169   8.581  72.373  1.00  0.00    -0.369 C  
HETATM    5  N   UNL     1     -11.816   7.069  70.533  1.00  0.00    -0.316 NA 
HETATM    6  N   UNL     1     -11.656   6.115  69.589  1.00  0.00    -0.300 NA 
HETATM    7  C   UNL     1     -10.958   6.615  68.592  1.00  0.00    -0.251 A  
HETATM    8  N   UNL     1     -10.690   7.948  68.848  1.00  0.00    -0.134 NA 
HETATM    9  C   UNL     1     -10.578   5.795  67.424  1.00  0.00    -0.340 C  
ENDROOT
BRANCH   8  10
HETATM   10  C   UNL     1      -9.991   8.971  68.040  1.00  0.00    -0.176 C  
HETATM   11  C   UNL     1      -8.504   9.240  68.369  1.00  0.00    -0.120 C  
HETATM   12  C   UNL     1      -7.493   9.243  67.206  1.00  0.00    -0.091 C  
HETATM   13  C   UNL     1      -7.506  10.649  66.609  1.00  0.00    -0.129 C  
HETATM   14  C   UNL     1      -8.692  10.594  65.661  1.00  0.00    -0.198 C  
HETATM   15  C   UNL     1      -9.071   9.086  65.587  1.00  0.00    -0.223 C  
HETATM   16  C   UNL     1     -10.264   8.805  66.514  1.00  0.00    -0.314 C  
HETATM   17  N   UNL     1      -7.843   8.411  66.031  1.00  0.00    -0.095 NA 
BRANCH  17  18
HETATM   18  C   UNL     1      -7.826   6.921  66.256  1.00  0.00    -0.101 C  
BRANCH  18  19
HETATM   19  C   UNL     1      -6.860   6.287  67.357  1.00  0.00    -0.063 C  
HETATM   20  C   UNL     1      -7.237   4.949  68.195  1.00  0.00    -0.062 C  
BRANCH  20  21
HETATM   21  C   UNL     1      -7.917   4.812  69.593  1.00  0.00    -0.066 A  
HETATM   22  C   UNL     1      -9.363   4.474  72.060  1.00  0.00    -0.184 A  
HETATM   23  C   UNL     1      -8.786   3.700  69.841  1.00  0.00    -0.130 A  
HETATM   24  C   UNL     1      -8.529   5.579  71.839  1.00  0.00    -0.123 A  
HETATM   25  C   UNL     1      -7.823   5.749  70.627  1.00  0.00    -0.101 A  
HETATM   26  C   UNL     1      -9.493   3.529  71.049  1.00  0.00    -0.226 A  
ENDBRANCH  20  21
BRANCH  20  27
HETATM   27  N   UNL     1      -7.770   3.929  67.303  1.00  0.00    -0.079 N  
HETATM   28  H   UNL     1      -8.778   3.816  67.197  1.00  0.00     0.000 HD 
HETATM   29  C   UNL     1      -6.908   3.123  66.609  1.00  0.00    -0.053 C  
HETATM   30  O   UNL     1      -5.690   3.194  66.767  1.00  0.00    -0.021 OA 
BRANCH  29  31
HETATM   31  C   UNL     1      -7.536   2.054  65.726  1.00  0.00    -0.071 C  
HETATM   32  C   UNL     1      -9.188   3.510  64.511  1.00  0.00    -0.136 C  
HETATM   33  C   UNL     1      -9.012   2.265  65.372  1.00  0.00    -0.126 C  
HETATM   34  C   UNL     1      -8.315   3.483  63.268  1.00  0.00    -0.089 C  
HETATM   35  F   UNL     1      -8.412   4.665  62.617  1.00  0.00    -0.079 F  
HETATM   36  F   UNL     1      -8.785   2.532  62.418  1.00  0.00    -0.072 F  
HETATM   37  C   UNL     1      -6.861   3.194  63.554  1.00  0.00    -0.039 C  
HETATM   38  C   UNL     1      -6.720   1.953  64.433  1.00  0.00    -0.027 C  
ENDBRANCH  29  31
ENDBRANCH  20  27
ENDBRANCH  18  19
ENDBRANCH  17  18
ENDBRANCH   8  10
TORSDOF 6
ENDMDL
MODEL      129
REMARK 921   NORMALIZED FREE ENERGY PREDICTED BY IDOCK:   -4.99 KCAL/MOL
REMARK 922        TOTAL FREE ENERGY PREDICTED BY IDOCK:   -8.29 KCAL/MOL
REMARK 923 INTER-LIGAND FREE ENERGY PREDICTED BY IDOCK:   -7.48 KCAL/MOL
REMARK 924 INTRA-LIGAND FREE ENERGY PREDICTED BY IDOCK:   -0.80 KCAL/MOL
REMARK 927      BINDING AFFINITY PREDICTED BY RF-SCORE:    0.00 PKD
ROOT
HETATM    1  C   UNL     1     -10.222  18.833  66.251  1.00  0.00    -0.466 C  
HETATM    2  C   UNL     1     -10.642  17.353  66.279  1.00  0.00    -0.194 C  
HETATM    3  C   UNL     1      -9.593  16.510  66.939  1.00  0.00    -0.243 A  
HETATM    4  C   UNL     1     -10.847  16.828  64.852  1.00  0.00    -0.088 C  
HETATM    5  N   UNL     1      -8.452  16.208  66.357  1.00  0.00    -0.313 NA 
HETATM    6  N   UNL     1      -7.919  15.155  67.015  1.00  0.00    -0.213 NA 
HETATM    7  C   UNL     1      -8.675  14.878  68.056  1.00  0.00    -0.165 A  
HETATM    8  N   UNL     1      -9.705  15.799  68.128  1.00  0.00    -0.211 NA 
HETATM    9  C   UNL     1      -8.377  13.740  68.950  1.00  0.00     0.111 C  
ENDROOT
BRANCH   8  10
HETATM   10  C   UNL     1     -10.789  15.967  69.120  1.00  0.00    -0.281 C  
HETATM   11  C   UNL     1     -12.193  15.444  68.733  1.00  0.00    -0.061 C  
HETATM   12  C   UNL     1     -12.934  14.542  69.738  1.00  0.00     0.334 C  
HETATM   13  C   UNL     1     -13.664  15.467  70.710  1.00  0.00    -0.186 C  
HETATM   14  C   UNL     1     -12.580  15.807  71.719  1.00  0.00    -0.524 C  
HETATM   15  C   UNL     1     -11.415  14.825  71.396  1.00  0.00    -0.175 C  
HETATM   16  C   UNL     1     -10.349  15.543  70.554  1.00  0.00    -0.036 C  
HETATM   17  N   UNL     1     -12.084  13.746  70.655  1.00  0.00    -0.344 NA 
BRANCH  17  18
HETATM   18  C   UNL     1     -11.281  12.645  70.012  1.00  0.00     0.302 C  
BRANCH  18  19
HETATM   19  C   UNL     1     -11.844  11.887  68.727  1.00  0.00    -0.371 C  
HETATM   20  C   UNL     1     -11.095  10.612  68.056  1.00  0.00    -0.301 C  
BRANCH  20  21
HETATM   21  C   UNL     1     -10.070  10.568  66.880  1.00  0.00    -0.265 A  
HETATM   22  C   UNL     1      -8.329  10.338  64.598  1.00  0.00    -0.169 A  
HETATM   23  C   UNL     1     -10.555  10.504  65.534  1.00  0.00    -0.138 A  
HETATM   24  C   UNL     1      -7.828  10.385  65.906  1.00  0.00    -0.148 A  
HETATM   25  C   UNL     1      -8.682  10.492  67.027  1.00  0.00    -0.132 A  
HETATM   26  C   UNL     1      -9.705  10.396  64.413  1.00  0.00    -0.396 A  
ENDBRANCH  20  21
BRANCH  20  27
HETATM   27  N   UNL     1     -10.677   9.673  69.088  1.00  0.00    -0.221 N  
HETATM   28  H   UNL     1     -10.338  10.015  69.987  1.00  0.00     0.000 HD 
HETATM   29  C   UNL     1     -10.742   8.328  68.842  1.00  0.00    -0.062 C  
HETATM   30  O   UNL     1     -11.085   7.889  67.745  1.00  0.00     0.029 OA 
BRANCH  29  31
HETATM   31  C   UNL     1     -10.253   7.408  69.951  1.00  0.00    -0.212 C  
HETATM   32  C   UNL     1     -10.334   9.053  71.851  1.00  0.00    -0.357 C  
HETATM   33  C   UNL     1      -9.455   8.081  71.072  1.00  0.00    -0.179 C  
HETATM   34  C   UNL     1     -11.596   8.393  72.382  1.00  0.00    -0.380 C  
HETATM   35  F   UNL     1     -12.396   9.329  72.945  1.00  0.00    -0.227 F  
HETATM   36  F   UNL     1     -11.258   7.525  73.372  1.00  0.00    -0.408 F  
HETATM   37  C   UNL     1     -12.377   7.642  71.331  1.00  0.00    -0.358 C  
HETATM   38  C   UNL     1     -11.465   6.693  70.557  1.00  0.00    -0.432 C  
ENDBRANCH  29  31
ENDBRANCH  20  27
ENDBRANCH  18  19
ENDBRANCH  17  18
ENDBRANCH   8  10
TORSDOF 6
ENDMDL
MODEL      130
REMARK 921   NORMALIZED FREE ENERGY PREDICTED BY IDOCK:   -4.97 KCAL/MOL
REMARK 922        TOTAL FREE ENERGY PREDICTED BY IDOCK:   -8.26 KCAL/MOL
REMARK 923 INTER-LIGAND FREE ENERGY PREDICTED BY IDOCK:   -8.19 KCAL/MOL
REMARK 924 INTRA-LIGAND FREE ENERGY PREDICTED BY IDOCK:   -0.06 KCAL/MOL
REMARK 927      BINDING AFFINITY PREDICTED BY RF-SCORE:    0.00 PKD
ROOT
HETATM    1  C   UNL     1     -10.548   8.246  68.908  1.00  0.00    -0.160 C  
HETATM    2  C   UNL     1     -10.907   9.740  68.825  1.00  0.00    -0.219 C  
HETATM    3  C   UNL     1      -9.714  10.556  68.428  1.00  0.00    -0.159 A  
HETATM    4  C   UNL     1     -11.399  10.248  70.187  1.00  0.00    -0.388 C  
HETATM    5  N   UNL     1      -8.717  10.808  69.249  1.00  0.00    -0.089 NA 
HETATM    6  N   UNL     1      -8.022  11.852  68.746  1.00  0.00    -0.090 NA 
HETATM    7  C   UNL     1      -8.526  12.172  67.573  1.00  0.00    -0.169 A  
HETATM    8  N   UNL     1      -9.544  11.289  67.259  1.00  0.00    -0.173 NA 
HETATM    9  C   UNL     1      -8.007  13.313  66.792  1.00  0.00     0.303 C  
ENDROOT
BRANCH   8  10
HETATM   10  C   UNL     1     -10.393  11.177  66.053  1.00  0.00    -0.254 C  
HETATM   11  C   UNL     1     -11.784  11.853  66.098  1.00  0.00    -0.217 C  
HETATM   12  C   UNL     1     -12.183  12.769  64.926  1.00  0.00    -0.463 C  
HETATM   13  C   UNL     1     -12.773  11.871  63.840  1.00  0.00    -0.413 C  
HETATM   14  C   UNL     1     -11.534  11.375  63.113  1.00  0.00     0.083 C  
HETATM   15  C   UNL     1     -10.373  12.255  63.662  1.00  0.00    -0.432 C  
HETATM   16  C   UNL     1      -9.603  11.481  64.744  1.00  0.00    -0.198 C  
HETATM   17  N   UNL     1     -11.071  13.430  64.202  1.00  0.00    -0.367 NA 
BRANCH  17  18
HETATM   18  C   UNL     1     -10.318  14.479  64.978  1.00  0.00    -0.413 C  
BRANCH  18  19
HETATM   19  C   UNL     1     -11.112  15.598  65.794  1.00  0.00    -0.173 C  
HETATM   20  C   UNL     1     -10.688  16.066  67.289  1.00  0.00    -0.295 C  
BRANCH  20  21
HETATM   21  C   UNL     1     -11.202  15.558  68.672  1.00  0.00    -0.326 A  
HETATM   22  C   UNL     1     -11.934  14.664  71.309  1.00  0.00    -0.401 A  
HETATM   23  C   UNL     1     -10.732  16.192  69.867  1.00  0.00    -0.328 A  
HETATM   24  C   UNL     1     -12.398  14.016  70.157  1.00  0.00    -0.409 A  
HETATM   25  C   UNL     1     -12.035  14.450  68.861  1.00  0.00    -0.337 A  
HETATM   26  C   UNL     1     -11.092  15.760  71.162  1.00  0.00    -0.300 A  
ENDBRANCH  20  21
BRANCH  20  27
HETATM   27  N   UNL     1      -9.248  16.273  67.363  1.00  0.00    -0.210 N  
HETATM   28  H   UNL     1      -8.667  15.649  67.922  1.00  0.00     0.000 HD 
HETATM   29  C   UNL     1      -8.681  17.314  66.676  1.00  0.00    -0.257 C  
HETATM   30  O   UNL     1      -9.365  18.120  66.048  1.00  0.00    -0.507 OA 
BRANCH  29  31
HETATM   31  C   UNL     1      -7.177  17.493  66.831  1.00  0.00    -0.232 C  
HETATM   32  C   UNL     1      -7.089  17.673  69.338  1.00  0.00    -0.033 C  
HETATM   33  C   UNL     1      -6.727  18.348  68.020  1.00  0.00    -0.217 C  
HETATM   34  C   UNL     1      -6.545  16.257  69.432  1.00  0.00    -0.202 C  
HETATM   35  F   UNL     1      -7.009  15.665  70.558  1.00  0.00     0.090 F  
HETATM   36  F   UNL     1      -5.192  16.310  69.550  1.00  0.00    -0.111 F  
HETATM   37  C   UNL     1      -6.890  15.395  68.242  1.00  0.00    -0.121 C  
HETATM   38  C   UNL     1      -6.533  16.106  66.938  1.00  0.00    -0.006 C  
ENDBRANCH  29  31
ENDBRANCH  20  27
ENDBRANCH  18  19
ENDBRANCH  17  18
ENDBRANCH   8  10
TORSDOF 6
ENDMDL
MODEL      131
REMARK 921   NORMALIZED FREE ENERGY PREDICTED BY IDOCK:   -4.89 KCAL/MOL
REMARK 922        TOTAL FREE ENERGY PREDICTED BY IDOCK:   -8.14 KCAL/MOL
REMARK 923 INTER-LIGAND FREE ENERGY PREDICTED BY IDOCK:   -6.83 KCAL/MOL
REMARK 924 INTRA-LIGAND FREE ENERGY PREDICTED BY IDOCK:   -1.31 KCAL/MOL
REMARK 927      BINDING AFFINITY PREDICTED BY RF-SCORE:    0.00 PKD
ROOT
HETATM    1  C   UNL     1      -8.418   7.904  74.221  1.00  0.00    -0.278 C  
HETATM    2  C   UNL     1      -7.698   7.359  72.975  1.00  0.00    -0.105 C  
HETATM    3  C   UNL     1      -7.524   5.873  73.063  1.00  0.00    -0.095 A  
HETATM    4  C   UNL     1      -6.307   7.994  72.841  1.00  0.00    -0.076 C  
HETATM    5  N   UNL     1      -6.645   5.304  73.860  1.00  0.00    -0.072 NA 
HETATM    6  N   UNL     1      -6.462   4.035  73.433  1.00  0.00    -0.039 NA 
HETATM    7  C   UNL     1      -7.300   3.793  72.448  1.00  0.00    -0.050 A  
HETATM    8  N   UNL     1      -8.098   4.906  72.245  1.00  0.00    -0.109 NA 
HETATM    9  C   UNL     1      -7.309   2.498  71.738  1.00  0.00    -0.040 C  
ENDROOT
BRANCH   8  10
HETATM   10  C   UNL     1      -9.217   5.141  71.307  1.00  0.00    -0.145 C  
HETATM   11  C   UNL     1     -10.299   6.160  71.735  1.00  0.00    -0.250 C  
HETATM   12  C   UNL     1     -10.701   7.256  70.729  1.00  0.00    -0.231 C  
HETATM   13  C   UNL     1     -11.775   6.656  69.823  1.00  0.00    -0.279 C  
HETATM   14  C   UNL     1     -10.952   5.915  68.782  1.00  0.00    -0.311 C  
HETATM   15  C   UNL     1      -9.489   6.393  69.019  1.00  0.00    -0.129 C  
HETATM   16  C   UNL     1      -8.727   5.343  69.842  1.00  0.00    -0.128 C  
HETATM   17  N   UNL     1      -9.665   7.658  69.749  1.00  0.00    -0.171 NA 
BRANCH  17  18
HETATM   18  C   UNL     1      -8.475   8.387  70.316  1.00  0.00    -0.126 C  
BRANCH  18  19
HETATM   19  C   UNL     1      -7.577   9.311  69.374  1.00  0.00    -0.080 C  
HETATM   20  C   UNL     1      -8.137   9.984  68.008  1.00  0.00    -0.112 C  
BRANCH  20  21
HETATM   21  C   UNL     1      -8.061   9.462  66.539  1.00  0.00    -0.111 A  
HETATM   22  C   UNL     1      -7.767   8.335  63.906  1.00  0.00    -0.141 A  
HETATM   23  C   UNL     1      -7.942   8.055  66.303  1.00  0.00    -0.105 A  
HETATM   24  C   UNL     1      -7.867   9.718  64.108  1.00  0.00    -0.134 A  
HETATM   25  C   UNL     1      -8.006  10.273  65.401  1.00  0.00    -0.148 A  
HETATM   26  C   UNL     1      -7.802   7.498  65.015  1.00  0.00    -0.127 A  
ENDBRANCH  20  21
BRANCH  20  27
HETATM   27  N   UNL     1      -9.450  10.572  68.236  1.00  0.00    -0.151 N  
HETATM   28  H   UNL     1     -10.268   9.975  68.348  1.00  0.00     0.000 HD 
HETATM   29  C   UNL     1      -9.576  11.935  68.301  1.00  0.00    -0.201 C  
HETATM   30  O   UNL     1      -8.618  12.681  68.105  1.00  0.00    -0.177 OA 
BRANCH  29  31
HETATM   31  C   UNL     1     -10.983  12.479  68.504  1.00  0.00    -0.280 C  
HETATM   32  C   UNL     1     -10.780  14.547  67.088  1.00  0.00    -0.286 C  
HETATM   33  C   UNL     1     -11.118  14.005  68.472  1.00  0.00    -0.279 C  
HETATM   34  C   UNL     1     -11.603  13.891  65.992  1.00  0.00    -0.349 C  
HETATM   35  F   UNL     1     -11.168  14.313  64.781  1.00  0.00    -0.332 F  
HETATM   36  F   UNL     1     -12.895  14.300  66.104  1.00  0.00    -0.488 F  
HETATM   37  C   UNL     1     -11.573  12.383  66.030  1.00  0.00    -0.455 C  
HETATM   38  C   UNL     1     -11.896  11.872  67.433  1.00  0.00    -0.239 C  
ENDBRANCH  29  31
ENDBRANCH  20  27
ENDBRANCH  18  19
ENDBRANCH  17  18
ENDBRANCH   8  10
TORSDOF 6
ENDMDL
MODEL      132
REMARK 921   NORMALIZED FREE ENERGY PREDICTED BY IDOCK:   -4.88 KCAL/MOL
REMARK 922        TOTAL FREE ENERGY PREDICTED BY IDOCK:   -8.13 KCAL/MOL
REMARK 923 INTER-LIGAND FREE ENERGY PREDICTED BY IDOCK:   -8.05 KCAL/MOL
REMARK 924 INTRA-LIGAND FREE ENERGY PREDICTED BY IDOCK:   -0.08 KCAL/MOL
REMARK 927      BINDING AFFINITY PREDICTED BY RF-SCORE:    0.00 PKD
ROOT
HETATM    1  C   UNL     1      -9.844   3.750  72.479  1.00  0.00    -0.215 C  
HETATM    2  C   UNL     1      -9.293   4.903  71.622  1.00  0.00    -0.192 C  
HETATM    3  C   UNL     1      -9.799   4.815  70.214  1.00  0.00    -0.242 A  
HETATM    4  C   UNL     1      -7.760   4.852  71.581  1.00  0.00    -0.097 C  
HETATM    5  N   UNL     1      -9.360   3.922  69.354  1.00  0.00    -0.162 NA 
HETATM    6  N   UNL     1      -9.702   4.340  68.115  1.00  0.00    -0.136 NA 
HETATM    7  C   UNL     1     -10.438   5.426  68.221  1.00  0.00    -0.120 A  
HETATM    8  N   UNL     1     -10.637   5.712  69.560  1.00  0.00    -0.301 NA 
HETATM    9  C   UNL     1     -10.928   6.150  67.030  1.00  0.00    -0.414 C  
ENDROOT
BRANCH   8  10
HETATM   10  C   UNL     1     -11.419   6.780  70.219  1.00  0.00    -0.360 C  
HETATM   11  C   UNL     1     -11.195   6.992  71.735  1.00  0.00    -0.278 C  
HETATM   12  C   UNL     1     -10.927   8.424  72.236  1.00  0.00    -0.361 C  
HETATM   13  C   UNL     1     -12.289   9.081  72.453  1.00  0.00    -0.350 C  
HETATM   14  C   UNL     1     -12.647   9.568  71.059  1.00  0.00    -0.331 C  
HETATM   15  C   UNL     1     -11.338   9.401  70.232  1.00  0.00    -0.220 C  
HETATM   16  C   UNL     1     -11.409   8.108  69.404  1.00  0.00     0.356 C  
HETATM   17  N   UNL     1     -10.294   9.349  71.266  1.00  0.00    -0.320 NA 
BRANCH  17  18
HETATM   18  C   UNL     1      -8.867   9.037  70.899  1.00  0.00    -0.240 C  
BRANCH  18  19
HETATM   19  C   UNL     1      -7.982  10.119  70.129  1.00  0.00    -0.029 C  
HETATM   20  C   UNL     1      -8.452  10.816  68.740  1.00  0.00    -0.148 C  
BRANCH  20  21
HETATM   21  C   UNL     1      -8.137  10.406  67.267  1.00  0.00    -0.114 A  
HETATM   22  C   UNL     1      -7.343   9.751  64.578  1.00  0.00    -0.135 A  
HETATM   23  C   UNL     1      -6.812   9.982  66.928  1.00  0.00    -0.087 A  
HETATM   24  C   UNL     1      -8.644  10.177  64.879  1.00  0.00    -0.188 A  
HETATM   25  C   UNL     1      -9.033  10.505  66.198  1.00  0.00    -0.178 A  
HETATM   26  C   UNL     1      -6.420   9.656  65.613  1.00  0.00    -0.074 A  
ENDBRANCH  20  21
BRANCH  20  27
HETATM   27  N   UNL     1      -9.843  11.234  68.831  1.00  0.00    -0.339 N  
HETATM   28  H   UNL     1     -10.576  10.546  69.001  1.00  0.00     0.000 HD 
HETATM   29  C   UNL     1     -10.160  12.559  68.687  1.00  0.00    -0.130 C  
HETATM   30  O   UNL     1      -9.304  13.400  68.417  1.00  0.00    -0.206 OA 
BRANCH  29  31
HETATM   31  C   UNL     1     -11.637  12.917  68.756  1.00  0.00    -0.351 C  
HETATM   32  C   UNL     1     -11.599  14.206  70.916  1.00  0.00    -0.072 C  
HETATM   33  C   UNL     1     -12.229  13.038  70.165  1.00  0.00    -0.342 C  
HETATM   34  C   UNL     1     -11.709  15.513  70.150  1.00  0.00    -0.347 C  
HETATM   35  F   UNL     1     -11.019  16.480  70.800  1.00  0.00    -0.295 F  
HETATM   36  F   UNL     1     -13.009  15.909  70.134  1.00  0.00    -0.344 F  
HETATM   37  C   UNL     1     -11.216  15.426  68.726  1.00  0.00    -0.305 C  
HETATM   38  C   UNL     1     -11.851  14.237  68.007  1.00  0.00    -0.379 C  
ENDBRANCH  29  31
ENDBRANCH  20  27
ENDBRANCH  18  19
ENDBRANCH  17  18
ENDBRANCH   8  10
TORSDOF 6
ENDMDL
MODEL      133
REMARK 921   NORMALIZED FREE ENERGY PREDICTED BY IDOCK:   -4.87 KCAL/MOL
REMARK 922        TOTAL FREE ENERGY PREDICTED BY IDOCK:   -8.12 KCAL/MOL
REMARK 923 INTER-LIGAND FREE ENERGY PREDICTED BY IDOCK:   -7.28 KCAL/MOL
REMARK 924 INTRA-LIGAND FREE ENERGY PREDICTED BY IDOCK:   -0.84 KCAL/MOL
REMARK 927      BINDING AFFINITY PREDICTED BY RF-SCORE:    0.00 PKD
ROOT
HETATM    1  C   UNL     1     -11.067   4.934  71.711  1.00  0.00     0.175 C  
HETATM    2  C   UNL     1      -9.800   4.234  72.235  1.00  0.00    -0.227 C  
HETATM    3  C   UNL     1      -8.692   4.308  71.228  1.00  0.00    -0.102 A  
HETATM    4  C   UNL     1     -10.087   2.753  72.519  1.00  0.00    -0.235 C  
HETATM    5  N   UNL     1      -8.678   3.584  70.130  1.00  0.00    -0.062 NA 
HETATM    6  N   UNL     1      -7.413   3.582  69.653  1.00  0.00    -0.045 NA 
HETATM    7  C   UNL     1      -6.679   4.385  70.395  1.00  0.00    -0.036 A  
HETATM    8  N   UNL     1      -7.480   4.978  71.355  1.00  0.00    -0.083 NA 
HETATM    9  C   UNL     1      -5.232   4.557  70.151  1.00  0.00     0.000 C  
ENDROOT
BRANCH   8  10
HETATM   10  C   UNL     1      -7.168   5.983  72.394  1.00  0.00    -0.086 C  
HETATM   11  C   UNL     1      -5.778   6.659  72.332  1.00  0.00    -0.038 C  
HETATM   12  C   UNL     1      -5.714   8.196  72.413  1.00  0.00    -0.045 C  
HETATM   13  C   UNL     1      -5.709   8.563  73.896  1.00  0.00    -0.109 C  
HETATM   14  C   UNL     1      -7.187   8.543  74.246  1.00  0.00    -0.176 C  
HETATM   15  C   UNL     1      -7.919   8.449  72.875  1.00  0.00    -0.091 C  
HETATM   16  C   UNL     1      -8.334   6.994  72.607  1.00  0.00    -0.119 C  
HETATM   17  N   UNL     1      -6.906   8.928  71.923  1.00  0.00    -0.255 NA 
BRANCH  17  18
HETATM   18  C   UNL     1      -7.154   8.855  70.439  1.00  0.00    -0.054 C  
BRANCH  18  19
HETATM   19  C   UNL     1      -8.513   8.229  69.883  1.00  0.00    -0.127 C  
HETATM   20  C   UNL     1      -9.793   9.134  69.463  1.00  0.00    -0.178 C  
BRANCH  20  21
HETATM   21  C   UNL     1     -11.040   9.544  70.307  1.00  0.00    -0.317 A  
HETATM   22  C   UNL     1     -13.251  10.519  71.873  1.00  0.00    -0.526 A  
HETATM   23  C   UNL     1     -11.610  10.845  70.124  1.00  0.00    -0.425 A  
HETATM   24  C   UNL     1     -12.704   9.246  72.083  1.00  0.00    -0.465 A  
HETATM   25  C   UNL     1     -11.616   8.768  71.318  1.00  0.00    -0.353 A  
HETATM   26  C   UNL     1     -12.695  11.326  70.887  1.00  0.00    -0.412 A  
ENDBRANCH  20  21
BRANCH  20  27
HETATM   27  N   UNL     1      -9.365  10.272  68.662  1.00  0.00    -0.154 N  
HETATM   28  H   UNL     1      -8.801  11.011  69.080  1.00  0.00     0.000 HD 
HETATM   29  C   UNL     1      -9.726  10.342  67.343  1.00  0.00    -0.163 C  
HETATM   30  O   UNL     1     -10.460   9.499  66.829  1.00  0.00    -0.239 OA 
BRANCH  29  31
HETATM   31  C   UNL     1      -9.275  11.579  66.578  1.00  0.00    -0.203 C  
HETATM   32  C   UNL     1     -11.535  12.615  66.199  1.00  0.00    -0.413 C  
HETATM   33  C   UNL     1     -10.260  12.111  65.532  1.00  0.00    -0.294 C  
HETATM   34  C   UNL     1     -11.255  13.648  67.277  1.00  0.00    -0.309 C  
HETATM   35  F   UNL     1     -12.405  13.957  67.921  1.00  0.00    -0.384 F  
HETATM   36  F   UNL     1     -10.818  14.794  66.691  1.00  0.00    -0.294 F  
HETATM   37  C   UNL     1     -10.225  13.205  68.289  1.00  0.00    -0.250 C  
HETATM   38  C   UNL     1      -8.969  12.689  67.590  1.00  0.00    -0.186 C  
ENDBRANCH  29  31
ENDBRANCH  20  27
ENDBRANCH  18  19
ENDBRANCH  17  18
ENDBRANCH   8  10
TORSDOF 6
ENDMDL
MODEL      134
REMARK 921   NORMALIZED FREE ENERGY PREDICTED BY IDOCK:   -4.87 KCAL/MOL
REMARK 922        TOTAL FREE ENERGY PREDICTED BY IDOCK:   -8.12 KCAL/MOL
REMARK 923 INTER-LIGAND FREE ENERGY PREDICTED BY IDOCK:   -5.86 KCAL/MOL
REMARK 924 INTRA-LIGAND FREE ENERGY PREDICTED BY IDOCK:   -2.25 KCAL/MOL
REMARK 927      BINDING AFFINITY PREDICTED BY RF-SCORE:    0.00 PKD
ROOT
HETATM    1  C   UNL     1      -8.124   6.884  74.419  1.00  0.00    -0.150 C  
HETATM    2  C   UNL     1      -7.521   8.121  73.730  1.00  0.00    -0.211 C  
HETATM    3  C   UNL     1      -7.211   7.837  72.291  1.00  0.00    -0.081 A  
HETATM    4  C   UNL     1      -6.217   8.538  74.424  1.00  0.00    -0.147 C  
HETATM    5  N   UNL     1      -6.194   7.091  71.915  1.00  0.00    -0.038 NA 
HETATM    6  N   UNL     1      -5.959   7.343  70.609  1.00  0.00    -0.031 NA 
HETATM    7  C   UNL     1      -6.890   8.157  70.159  1.00  0.00    -0.040 A  
HETATM    8  N   UNL     1      -7.798   8.414  71.171  1.00  0.00    -0.095 NA 
HETATM    9  C   UNL     1      -6.876   8.657  68.769  1.00  0.00    -0.062 C  
ENDROOT
BRANCH   8  10
HETATM   10  C   UNL     1      -9.041   9.215  71.179  1.00  0.00    -0.205 C  
HETATM   11  C   UNL     1      -9.573   9.713  69.814  1.00  0.00    -0.242 C  
HETATM   12  C   UNL     1     -11.058   9.471  69.482  1.00  0.00    -0.142 C  
HETATM   13  C   UNL     1     -11.845  10.630  70.092  1.00  0.00    -0.421 C  
HETATM   14  C   UNL     1     -12.029  10.182  71.533  1.00  0.00    -0.404 C  
HETATM   15  C   UNL     1     -11.585   8.690  71.544  1.00  0.00    -0.302 C  
HETATM   16  C   UNL     1     -10.147   8.580  72.075  1.00  0.00    -0.386 C  
HETATM   17  N   UNL     1     -11.692   8.299  70.131  1.00  0.00     0.093 NA 
BRANCH  17  18
HETATM   18  C   UNL     1     -11.202   6.951  69.670  1.00  0.00    -0.242 C  
BRANCH  18  19
HETATM   19  C   UNL     1     -11.286   6.552  68.127  1.00  0.00    -0.250 C  
HETATM   20  C   UNL     1      -9.972   6.369  67.191  1.00  0.00    -0.155 C  
BRANCH  20  21
HETATM   21  C   UNL     1      -9.265   7.400  66.258  1.00  0.00    -0.182 A  
HETATM   22  C   UNL     1      -8.174   9.398  64.495  1.00  0.00    -0.147 A  
HETATM   23  C   UNL     1      -9.743   8.750  66.219  1.00  0.00    -0.342 A  
HETATM   24  C   UNL     1      -7.695   8.081  64.502  1.00  0.00    -0.125 A  
HETATM   25  C   UNL     1      -8.234   7.098  65.363  1.00  0.00    -0.137 A  
HETATM   26  C   UNL     1      -9.209   9.733  65.360  1.00  0.00    -0.282 A  
ENDBRANCH  20  21
BRANCH  20  27
HETATM   27  N   UNL     1      -8.961   5.587  67.889  1.00  0.00    -0.109 N  
HETATM   28  H   UNL     1      -8.230   6.053  68.425  1.00  0.00     0.000 HD 
HETATM   29  C   UNL     1      -9.000   4.219  67.821  1.00  0.00    -0.118 C  
HETATM   30  O   UNL     1      -9.830   3.632  67.129  1.00  0.00    -0.140 OA 
BRANCH  29  31
HETATM   31  C   UNL     1      -7.890   3.469  68.542  1.00  0.00    -0.055 C  
HETATM   32  C   UNL     1      -8.315   4.336  70.864  1.00  0.00    -0.091 C  
HETATM   33  C   UNL     1      -7.281   4.183  69.754  1.00  0.00    -0.049 C  
HETATM   34  C   UNL     1      -8.944   3.010  71.256  1.00  0.00    -0.097 C  
HETATM   35  F   UNL     1      -9.943   3.225  72.145  1.00  0.00    -0.204 F  
HETATM   36  F   UNL     1      -8.015   2.250  71.893  1.00  0.00    -0.045 F  
HETATM   37  C   UNL     1      -9.485   2.225  70.085  1.00  0.00    -0.141 C  
HETATM   38  C   UNL     1      -8.434   2.106  68.984  1.00  0.00    -0.090 C  
ENDBRANCH  29  31
ENDBRANCH  20  27
ENDBRANCH  18  19
ENDBRANCH  17  18
ENDBRANCH   8  10
TORSDOF 6
ENDMDL
MODEL      135
REMARK 921   NORMALIZED FREE ENERGY PREDICTED BY IDOCK:   -4.84 KCAL/MOL
REMARK 922        TOTAL FREE ENERGY PREDICTED BY IDOCK:   -8.08 KCAL/MOL
REMARK 923 INTER-LIGAND FREE ENERGY PREDICTED BY IDOCK:   -6.91 KCAL/MOL
REMARK 924 INTRA-LIGAND FREE ENERGY PREDICTED BY IDOCK:   -1.17 KCAL/MOL
REMARK 927      BINDING AFFINITY PREDICTED BY RF-SCORE:    0.00 PKD
ROOT
HETATM    1  C   UNL     1     -10.452  19.106  66.538  1.00  0.00    -0.534 C  
HETATM    2  C   UNL     1     -10.781  17.605  66.473  1.00  0.00    -0.097 C  
HETATM    3  C   UNL     1      -9.585  16.777  66.832  1.00  0.00    -0.245 A  
HETATM    4  C   UNL     1     -11.222  17.215  65.055  1.00  0.00     0.358 C  
HETATM    5  N   UNL     1      -8.558  16.620  66.023  1.00  0.00    -0.477 NA 
HETATM    6  N   UNL     1      -7.858  15.546  66.450  1.00  0.00     0.109 NA 
HETATM    7  C   UNL     1      -8.390  15.110  67.572  1.00  0.00    -0.172 A  
HETATM    8  N   UNL     1      -9.435  15.942  67.933  1.00  0.00    -0.212 NA 
HETATM    9  C   UNL     1      -7.871  13.912  68.261  1.00  0.00    -0.146 C  
ENDROOT
BRANCH   8  10
HETATM   10  C   UNL     1     -10.322  15.928  69.117  1.00  0.00    -0.237 C  
HETATM   11  C   UNL     1     -11.848  15.955  68.861  1.00  0.00    -0.314 C  
HETATM   12  C   UNL     1     -12.724  14.916  69.586  1.00  0.00     0.047 C  
HETATM   13  C   UNL     1     -13.052  15.493  70.962  1.00  0.00    -0.551 C  
HETATM   14  C   UNL     1     -11.824  15.121  71.777  1.00  0.00    -0.471 C  
HETATM   15  C   UNL     1     -11.039  14.122  70.877  1.00  0.00     0.739 C  
HETATM   16  C   UNL     1      -9.893  14.856  70.164  1.00  0.00     0.304 C  
HETATM   17  N   UNL     1     -12.064  13.637  69.942  1.00  0.00    -0.337 NA 
BRANCH  17  18
HETATM   18  C   UNL     1     -11.687  12.751  68.784  1.00  0.00    -0.323 C  
BRANCH  18  19
HETATM   19  C   UNL     1     -10.395  11.818  68.875  1.00  0.00    -0.151 C  
HETATM   20  C   UNL     1     -10.222  10.462  68.000  1.00  0.00    -0.169 C  
BRANCH  20  21
HETATM   21  C   UNL     1     -10.563   8.987  68.377  1.00  0.00    -0.200 A  
HETATM   22  C   UNL     1     -11.301   6.246  68.861  1.00  0.00    -0.269 A  
HETATM   23  C   UNL     1     -10.547   7.984  67.355  1.00  0.00    -0.337 A  
HETATM   24  C   UNL     1     -11.339   7.210  69.878  1.00  0.00    -0.199 A  
HETATM   25  C   UNL     1     -10.983   8.557  69.640  1.00  0.00    -0.093 A  
HETATM   26  C   UNL     1     -10.904   6.639  67.589  1.00  0.00    -0.393 A  
ENDBRANCH  20  21
BRANCH  20  27
HETATM   27  N   UNL     1     -10.609  10.702  66.617  1.00  0.00    -0.236 N  
HETATM   28  H   UNL     1     -11.556  10.493  66.305  1.00  0.00     0.000 HD 
HETATM   29  C   UNL     1      -9.689  11.211  65.739  1.00  0.00    -0.225 C  
HETATM   30  O   UNL     1      -8.522  11.412  66.071  1.00  0.00    -0.151 OA 
BRANCH  29  31
HETATM   31  C   UNL     1     -10.152  11.400  64.301  1.00  0.00    -0.347 C  
HETATM   32  C   UNL     1     -12.497  12.176  64.773  1.00  0.00    -0.264 C  
HETATM   33  C   UNL     1     -11.641  11.148  64.042  1.00  0.00     0.324 C  
HETATM   34  C   UNL     1     -12.106  13.603  64.431  1.00  0.00    -0.427 C  
HETATM   35  F   UNL     1     -12.805  14.465  65.207  1.00  0.00    -0.460 F  
HETATM   36  F   UNL     1     -12.459  13.864  63.145  1.00  0.00    -0.476 F  
HETATM   37  C   UNL     1     -10.630  13.882  64.589  1.00  0.00    -0.432 C  
HETATM   38  C   UNL     1      -9.801  12.826  63.863  1.00  0.00     0.156 C  
ENDBRANCH  29  31
ENDBRANCH  20  27
ENDBRANCH  18  19
ENDBRANCH  17  18
ENDBRANCH   8  10
TORSDOF 6
ENDMDL
MODEL      136
REMARK 921   NORMALIZED FREE ENERGY PREDICTED BY IDOCK:   -4.84 KCAL/MOL
REMARK 922        TOTAL FREE ENERGY PREDICTED BY IDOCK:   -8.08 KCAL/MOL
REMARK 923 INTER-LIGAND FREE ENERGY PREDICTED BY IDOCK:   -6.80 KCAL/MOL
REMARK 924 INTRA-LIGAND FREE ENERGY PREDICTED BY IDOCK:   -1.27 KCAL/MOL
REMARK 927      BINDING AFFINITY PREDICTED BY RF-SCORE:    0.00 PKD
ROOT
HETATM    1  C   UNL     1     -10.506  15.563  65.332  1.00  0.00    -0.429 C  
HETATM    2  C   UNL     1     -10.547  14.871  66.706  1.00  0.00    -0.305 C  
HETATM    3  C   UNL     1     -10.595  13.381  66.555  1.00  0.00    -0.287 A  
HETATM    4  C   UNL     1     -11.792  15.311  67.488  1.00  0.00    -0.041 C  
HETATM    5  N   UNL     1     -11.675  12.739  66.163  1.00  0.00    -0.382 NA 
HETATM    6  N   UNL     1     -11.526  11.438  66.498  1.00  0.00    -0.377 NA 
HETATM    7  C   UNL     1     -10.320  11.264  66.997  1.00  0.00    -0.227 A  
HETATM    8  N   UNL     1      -9.629  12.461  66.945  1.00  0.00    -0.213 NA 
HETATM    9  C   UNL     1      -9.874   9.950  67.501  1.00  0.00    -0.209 C  
ENDROOT
BRANCH   8  10
HETATM   10  C   UNL     1      -8.240  12.797  67.328  1.00  0.00    -0.181 C  
HETATM   11  C   UNL     1      -7.971  13.108  68.819  1.00  0.00     0.050 C  
HETATM   12  C   UNL     1      -6.799  12.386  69.511  1.00  0.00     0.082 C  
HETATM   13  C   UNL     1      -5.540  13.203  69.223  1.00  0.00    -0.079 C  
HETATM   14  C   UNL     1      -5.125  12.697  67.851  1.00  0.00    -0.094 C  
HETATM   15  C   UNL     1      -6.012  11.441  67.606  1.00  0.00    -0.054 C  
HETATM   16  C   UNL     1      -7.202  11.814  66.707  1.00  0.00    -0.050 C  
HETATM   17  N   UNL     1      -6.431  11.059  68.962  1.00  0.00    -0.050 NA 
BRANCH  17  18
HETATM   18  C   UNL     1      -7.443   9.962  69.170  1.00  0.00    -0.087 C  
BRANCH  18  19
HETATM   19  C   UNL     1      -7.838   9.505  70.648  1.00  0.00    -0.149 C  
HETATM   20  C   UNL     1      -9.036   8.454  70.955  1.00  0.00    -0.160 C  
BRANCH  20  21
HETATM   21  C   UNL     1     -10.535   8.727  71.294  1.00  0.00    -0.326 A  
HETATM   22  C   UNL     1     -13.339   9.000  71.886  1.00  0.00    -0.474 A  
HETATM   23  C   UNL     1     -11.275   7.745  72.028  1.00  0.00    -0.327 A  
HETATM   24  C   UNL     1     -12.643   9.971  71.154  1.00  0.00    -0.480 A  
HETATM   25  C   UNL     1     -11.267   9.836  70.858  1.00  0.00    -0.429 A  
HETATM   26  C   UNL     1     -12.648   7.876  72.324  1.00  0.00    -0.229 A  
ENDBRANCH  20  21
BRANCH  20  27
HETATM   27  N   UNL     1      -8.952   7.316  70.050  1.00  0.00    -0.142 N  
HETATM   28  H   UNL     1      -9.648   7.192  69.315  1.00  0.00     0.000 HD 
HETATM   29  C   UNL     1      -7.932   6.414  70.194  1.00  0.00    -0.112 C  
HETATM   30  O   UNL     1      -7.118   6.503  71.112  1.00  0.00    -0.073 OA 
BRANCH  29  31
HETATM   31  C   UNL     1      -7.930   5.229  69.239  1.00  0.00    -0.088 C  
HETATM   32  C   UNL     1      -7.873   3.384  70.947  1.00  0.00    -0.047 C  
HETATM   33  C   UNL     1      -7.185   3.982  69.725  1.00  0.00    -0.042 C  
HETATM   34  C   UNL     1      -9.343   3.093  70.698  1.00  0.00    -0.155 C  
HETATM   35  F   UNL     1      -9.929   2.693  71.851  1.00  0.00    -0.211 F  
HETATM   36  F   UNL     1      -9.449   2.055  69.828  1.00  0.00    -0.171 F  
HETATM   37  C   UNL     1     -10.108   4.268  70.138  1.00  0.00    -0.078 C  
HETATM   38  C   UNL     1      -9.384   4.856  68.928  1.00  0.00    -0.180 C  
ENDBRANCH  29  31
ENDBRANCH  20  27
ENDBRANCH  18  19
ENDBRANCH  17  18
ENDBRANCH   8  10
TORSDOF 6
ENDMDL
MODEL      137
REMARK 921   NORMALIZED FREE ENERGY PREDICTED BY IDOCK:   -4.80 KCAL/MOL
REMARK 922        TOTAL FREE ENERGY PREDICTED BY IDOCK:   -8.02 KCAL/MOL
REMARK 923 INTER-LIGAND FREE ENERGY PREDICTED BY IDOCK:   -8.46 KCAL/MOL
REMARK 924 INTRA-LIGAND FREE ENERGY PREDICTED BY IDOCK:    0.44 KCAL/MOL
REMARK 927      BINDING AFFINITY PREDICTED BY RF-SCORE:    0.00 PKD
ROOT
HETATM    1  C   UNL     1     -11.469   6.453  72.251  1.00  0.00    -0.339 C  
HETATM    2  C   UNL     1     -10.050   6.154  72.767  1.00  0.00    -0.195 C  
HETATM    3  C   UNL     1      -9.420   5.040  71.987  1.00  0.00    -0.142 A  
HETATM    4  C   UNL     1     -10.096   5.734  74.243  1.00  0.00    -0.283 C  
HETATM    5  N   UNL     1      -9.774   3.780  72.130  1.00  0.00    -0.152 NA 
HETATM    6  N   UNL     1      -8.791   3.014  71.607  1.00  0.00    -0.074 NA 
HETATM    7  C   UNL     1      -7.891   3.798  71.052  1.00  0.00    -0.062 A  
HETATM    8  N   UNL     1      -8.305   5.114  71.159  1.00  0.00    -0.118 NA 
HETATM    9  C   UNL     1      -6.664   3.254  70.435  1.00  0.00    -0.033 C  
ENDROOT
BRANCH   8  10
HETATM   10  C   UNL     1      -7.695   6.367  70.665  1.00  0.00    -0.105 C  
HETATM   11  C   UNL     1      -8.254   6.959  69.349  1.00  0.00    -0.131 C  
HETATM   12  C   UNL     1      -8.633   8.452  69.329  1.00  0.00    -0.130 C  
HETATM   13  C   UNL     1      -7.358   9.230  69.012  1.00  0.00    -0.072 C  
HETATM   14  C   UNL     1      -6.698   9.352  70.376  1.00  0.00    -0.083 C  
HETATM   15  C   UNL     1      -7.788   8.887  71.386  1.00  0.00    -0.097 C  
HETATM   16  C   UNL     1      -7.528   7.428  71.794  1.00  0.00    -0.083 C  
HETATM   17  N   UNL     1      -9.037   9.043  70.626  1.00  0.00    -0.214 NA 
BRANCH  17  18
HETATM   18  C   UNL     1     -10.344   8.552  71.191  1.00  0.00    -0.215 C  
BRANCH  18  19
HETATM   19  C   UNL     1     -11.725   9.090  70.601  1.00  0.00    -0.237 C  
HETATM   20  C   UNL     1     -11.902  10.584  69.991  1.00  0.00    -0.308 C  
BRANCH  20  21
HETATM   21  C   UNL     1     -12.393  11.890  70.689  1.00  0.00    -0.405 A  
HETATM   22  C   UNL     1     -13.083  14.389  71.943  1.00  0.00    -0.433 A  
HETATM   23  C   UNL     1     -11.918  13.156  70.217  1.00  0.00    -0.366 A  
HETATM   24  C   UNL     1     -13.552  13.163  72.436  1.00  0.00    -0.667 A  
HETATM   25  C   UNL     1     -13.209  11.935  71.824  1.00  0.00    -0.426 A  
HETATM   26  C   UNL     1     -12.257  14.383  70.826  1.00  0.00    -0.413 A  
ENDBRANCH  20  21
BRANCH  20  27
HETATM   27  N   UNL     1     -10.786  10.905  69.112  1.00  0.00    -0.220 N  
HETATM   28  H   UNL     1      -9.897  11.216  69.503  1.00  0.00     0.000 HD 
HETATM   29  C   UNL     1     -10.939  10.784  67.757  1.00  0.00    -0.297 C  
HETATM   30  O   UNL     1     -12.019  10.474  67.255  1.00  0.00     0.248 OA 
BRANCH  29  31
HETATM   31  C   UNL     1      -9.744  11.173  66.899  1.00  0.00    -0.216 C  
HETATM   32  C   UNL     1     -10.941  11.430  64.702  1.00  0.00    -0.324 C  
HETATM   33  C   UNL     1      -9.802  10.729  65.433  1.00  0.00    -0.317 C  
HETATM   34  C   UNL     1     -10.863  12.942  64.823  1.00  0.00    -0.327 C  
HETATM   35  F   UNL     1     -11.966  13.501  64.272  1.00  0.00    -0.384 F  
HETATM   36  F   UNL     1      -9.800  13.390  64.103  1.00  0.00    -0.319 F  
HETATM   37  C   UNL     1     -10.719  13.431  66.244  1.00  0.00    -0.290 C  
HETATM   38  C   UNL     1      -9.584  12.697  66.954  1.00  0.00    -0.232 C  
ENDBRANCH  29  31
ENDBRANCH  20  27
ENDBRANCH  18  19
ENDBRANCH  17  18
ENDBRANCH   8  10
TORSDOF 6
ENDMDL
MODEL      138
REMARK 921   NORMALIZED FREE ENERGY PREDICTED BY IDOCK:   -4.80 KCAL/MOL
REMARK 922        TOTAL FREE ENERGY PREDICTED BY IDOCK:   -8.02 KCAL/MOL
REMARK 923 INTER-LIGAND FREE ENERGY PREDICTED BY IDOCK:   -6.79 KCAL/MOL
REMARK 924 INTRA-LIGAND FREE ENERGY PREDICTED BY IDOCK:   -1.23 KCAL/MOL
REMARK 927      BINDING AFFINITY PREDICTED BY RF-SCORE:    0.00 PKD
ROOT
HETATM    1  C   UNL     1     -10.509   7.411  66.905  1.00  0.00    -0.379 C  
HETATM    2  C   UNL     1      -9.790   6.051  66.884  1.00  0.00    -0.190 C  
HETATM    3  C   UNL     1      -8.616   6.080  65.952  1.00  0.00    -0.150 A  
HETATM    4  C   UNL     1     -10.746   4.948  66.411  1.00  0.00    -0.170 C  
HETATM    5  N   UNL     1      -8.745   6.069  64.642  1.00  0.00     0.079 NA 
HETATM    6  N   UNL     1      -7.554   5.712  64.113  1.00  0.00    -0.074 NA 
HETATM    7  C   UNL     1      -6.672   5.608  65.084  1.00  0.00    -0.047 A  
HETATM    8  N   UNL     1      -7.272   5.954  66.283  1.00  0.00    -0.078 NA 
HETATM    9  C   UNL     1      -5.282   5.183  64.826  1.00  0.00    -0.009 C  
ENDROOT
BRANCH   8  10
HETATM   10  C   UNL     1      -6.720   6.051  67.651  1.00  0.00    -0.058 C  
HETATM   11  C   UNL     1      -5.726   7.203  67.936  1.00  0.00    -0.025 C  
HETATM   12  C   UNL     1      -5.971   8.082  69.177  1.00  0.00    -0.038 C  
HETATM   13  C   UNL     1      -5.320   7.370  70.361  1.00  0.00    -0.023 C  
HETATM   14  C   UNL     1      -6.390   6.375  70.777  1.00  0.00    -0.040 C  
HETATM   15  C   UNL     1      -7.659   6.802  69.982  1.00  0.00    -0.100 C  
HETATM   16  C   UNL     1      -7.821   5.906  68.744  1.00  0.00    -0.095 C  
HETATM   17  N   UNL     1      -7.377   8.201  69.629  1.00  0.00    -0.072 NA 
BRANCH  17  18
HETATM   18  C   UNL     1      -8.299   8.959  68.710  1.00  0.00    -0.123 C  
BRANCH  18  19
HETATM   19  C   UNL     1      -8.850  10.396  69.133  1.00  0.00    -0.180 C  
HETATM   20  C   UNL     1     -10.400  10.836  68.945  1.00  0.00    -0.202 C  
BRANCH  20  21
HETATM   21  C   UNL     1     -11.081  11.598  67.765  1.00  0.00    -0.309 A  
HETATM   22  C   UNL     1     -12.151  12.941  65.454  1.00  0.00    -0.501 A  
HETATM   23  C   UNL     1     -10.964  11.075  66.436  1.00  0.00    -0.202 A  
HETATM   24  C   UNL     1     -12.268  13.483  66.741  1.00  0.00    -0.392 A  
HETATM   25  C   UNL     1     -11.738  12.827  67.876  1.00  0.00    -0.408 A  
HETATM   26  C   UNL     1     -11.490  11.728  65.302  1.00  0.00    -0.250 A  
ENDBRANCH  20  21
BRANCH  20  27
HETATM   27  N   UNL     1     -11.285   9.772  69.398  1.00  0.00    -0.401 N  
HETATM   28  H   UNL     1     -11.815   9.222  68.723  1.00  0.00     0.000 HD 
HETATM   29  C   UNL     1     -11.400   9.516  70.739  1.00  0.00    -0.321 C  
HETATM   30  O   UNL     1     -10.823  10.206  71.578  1.00  0.00     0.149 OA 
BRANCH  29  31
HETATM   31  C   UNL     1     -12.371   8.416  71.142  1.00  0.00    -0.219 C  
HETATM   32  C   UNL     1     -10.817   6.453  70.906  1.00  0.00    -0.316 C  
HETATM   33  C   UNL     1     -12.150   7.054  70.475  1.00  0.00    -0.278 C  
HETATM   34  C   UNL     1     -10.683   6.363  72.416  1.00  0.00    -0.226 C  
HETATM   35  F   UNL     1      -9.435   5.950  72.739  1.00  0.00    -0.148 F  
HETATM   36  F   UNL     1     -11.539   5.414  72.880  1.00  0.00    -0.326 F  
HETATM   37  C   UNL     1     -10.975   7.661  73.130  1.00  0.00    -0.411 C  
HETATM   38  C   UNL     1     -12.306   8.246  72.664  1.00  0.00    -0.256 C  
ENDBRANCH  29  31
ENDBRANCH  20  27
ENDBRANCH  18  19
ENDBRANCH  17  18
ENDBRANCH   8  10
TORSDOF 6
ENDMDL
MODEL      139
REMARK 921   NORMALIZED FREE ENERGY PREDICTED BY IDOCK:   -4.79 KCAL/MOL
REMARK 922        TOTAL FREE ENERGY PREDICTED BY IDOCK:   -8.01 KCAL/MOL
REMARK 923 INTER-LIGAND FREE ENERGY PREDICTED BY IDOCK:   -6.41 KCAL/MOL
REMARK 924 INTRA-LIGAND FREE ENERGY PREDICTED BY IDOCK:   -1.61 KCAL/MOL
REMARK 927      BINDING AFFINITY PREDICTED BY RF-SCORE:    0.00 PKD
ROOT
HETATM    1  C   UNL     1     -12.027  15.077  69.353  1.00  0.00    -0.336 C  
HETATM    2  C   UNL     1     -11.036  15.107  68.176  1.00  0.00    -0.306 C  
HETATM    3  C   UNL     1      -9.670  14.674  68.614  1.00  0.00    -0.220 A  
HETATM    4  C   UNL     1     -10.925  16.528  67.607  1.00  0.00    -0.207 C  
HETATM    5  N   UNL     1      -8.880  15.435  69.341  1.00  0.00    -0.257 NA 
HETATM    6  N   UNL     1      -7.624  14.946  69.235  1.00  0.00    -0.168 NA 
HETATM    7  C   UNL     1      -7.660  13.832  68.534  1.00  0.00    -0.134 A  
HETATM    8  N   UNL     1      -8.973  13.541  68.209  1.00  0.00    -0.186 NA 
HETATM    9  C   UNL     1      -6.430  13.084  68.205  1.00  0.00    -0.100 C  
ENDROOT
BRANCH   8  10
HETATM   10  C   UNL     1      -9.562  12.394  67.484  1.00  0.00    -0.185 C  
HETATM   11  C   UNL     1      -8.583  11.375  66.853  1.00  0.00    -0.154 C  
HETATM   12  C   UNL     1      -8.814   9.878  67.133  1.00  0.00    -0.138 C  
HETATM   13  C   UNL     1      -9.826   9.384  66.101  1.00  0.00    -0.356 C  
HETATM   14  C   UNL     1     -11.155   9.771  66.730  1.00  0.00     0.228 C  
HETATM   15  C   UNL     1     -10.797  10.190  68.187  1.00  0.00    -0.262 C  
HETATM   16  C   UNL     1     -10.720  11.722  68.281  1.00  0.00    -0.246 C  
HETATM   17  N   UNL     1      -9.494   9.547  68.408  1.00  0.00    -0.137 NA 
BRANCH  17  18
HETATM   18  C   UNL     1      -8.706   9.826  69.662  1.00  0.00    -0.199 C  
BRANCH  18  19
HETATM   19  C   UNL     1      -7.921   8.646  70.395  1.00  0.00    -0.101 C  
HETATM   20  C   UNL     1      -8.487   7.126  70.473  1.00  0.00    -0.139 C  
BRANCH  20  21
HETATM   21  C   UNL     1      -9.333   6.437  71.588  1.00  0.00    -0.147 A  
HETATM   22  C   UNL     1     -10.755   5.273  73.805  1.00  0.00    -0.343 A  
HETATM   23  C   UNL     1      -9.614   7.154  72.795  1.00  0.00    -0.183 A  
HETATM   24  C   UNL     1     -10.481   4.543  72.640  1.00  0.00    -0.258 A  
HETATM   25  C   UNL     1      -9.778   5.111  71.554  1.00  0.00    -0.221 A  
HETATM   26  C   UNL     1     -10.314   6.589  73.882  1.00  0.00    -0.356 A  
ENDBRANCH  20  21
BRANCH  20  27
HETATM   27  N   UNL     1      -8.984   6.706  69.170  1.00  0.00    -0.132 N  
HETATM   28  H   UNL     1      -9.953   6.883  68.908  1.00  0.00     0.000 HD 
HETATM   29  C   UNL     1      -8.138   6.073  68.298  1.00  0.00    -0.110 C  
HETATM   30  O   UNL     1      -6.983   5.789  68.612  1.00  0.00    -0.066 OA 
BRANCH  29  31
HETATM   31  C   UNL     1      -8.737   5.628  66.971  1.00  0.00    -0.108 C  
HETATM   32  C   UNL     1      -7.327   3.579  66.605  1.00  0.00    -0.075 C  
HETATM   33  C   UNL     1      -7.778   4.910  66.015  1.00  0.00    -0.091 C  
HETATM   34  C   UNL     1      -8.497   2.691  66.993  1.00  0.00    -0.100 C  
HETATM   35  F   UNL     1      -8.039   1.587  67.630  1.00  0.00    -0.057 F  
HETATM   36  F   UNL     1      -9.118   2.258  65.865  1.00  0.00    -0.129 F  
HETATM   37  C   UNL     1      -9.517   3.379  67.868  1.00  0.00    -0.220 C  
HETATM   38  C   UNL     1      -9.934   4.717  67.261  1.00  0.00    -0.203 C  
ENDBRANCH  29  31
ENDBRANCH  20  27
ENDBRANCH  18  19
ENDBRANCH  17  18
ENDBRANCH   8  10
TORSDOF 6
ENDMDL
MODEL      140
REMARK 921   NORMALIZED FREE ENERGY PREDICTED BY IDOCK:   -4.77 KCAL/MOL
REMARK 922        TOTAL FREE ENERGY PREDICTED BY IDOCK:   -7.99 KCAL/MOL
REMARK 923 INTER-LIGAND FREE ENERGY PREDICTED BY IDOCK:   -7.14 KCAL/MOL
REMARK 924 INTRA-LIGAND FREE ENERGY PREDICTED BY IDOCK:   -0.85 KCAL/MOL
REMARK 927      BINDING AFFINITY PREDICTED BY RF-SCORE:    0.00 PKD
ROOT
HETATM    1  C   UNL     1     -12.756  14.224  64.710  1.00  0.00    -0.191 C  
HETATM    2  C   UNL     1     -11.426  14.225  65.484  1.00  0.00    -0.329 C  
HETATM    3  C   UNL     1     -10.962  15.625  65.752  1.00  0.00    -0.248 A  
HETATM    4  C   UNL     1     -10.336  13.510  64.674  1.00  0.00    -0.406 C  
HETATM    5  N   UNL     1     -10.456  16.400  64.817  1.00  0.00    -0.543 NA 
HETATM    6  N   UNL     1      -9.795  17.407  65.428  1.00  0.00    -0.246 NA 
HETATM    7  C   UNL     1      -9.982  17.310  66.728  1.00  0.00    -0.301 A  
HETATM    8  N   UNL     1     -10.830  16.248  66.988  1.00  0.00    -0.236 NA 
HETATM    9  C   UNL     1      -9.342  18.246  67.674  1.00  0.00    -0.271 C  
ENDROOT
BRANCH   8  10
HETATM   10  C   UNL     1     -11.392  15.744  68.260  1.00  0.00    -0.354 C  
HETATM   11  C   UNL     1     -12.491  14.659  68.169  1.00  0.00     0.270 C  
HETATM   12  C   UNL     1     -12.335  13.394  69.033  1.00  0.00     0.023 C  
HETATM   13  C   UNL     1     -12.918  13.719  70.407  1.00  0.00    -0.048 C  
HETATM   14  C   UNL     1     -11.758  14.413  71.102  1.00  0.00    -0.225 C  
HETATM   15  C   UNL     1     -10.534  14.167  70.171  1.00  0.00     0.729 C  
HETATM   16  C   UNL     1     -10.284  15.411  69.304  1.00  0.00    -0.250 C  
HETATM   17  N   UNL     1     -10.948  13.002  69.376  1.00  0.00    -0.068 NA 
BRANCH  17  18
HETATM   18  C   UNL     1     -10.101  12.519  68.228  1.00  0.00    -0.228 C  
BRANCH  18  19
HETATM   19  C   UNL     1     -10.636  11.362  67.268  1.00  0.00    -0.264 C  
HETATM   20  C   UNL     1      -9.872   9.941  67.088  1.00  0.00    -0.186 C  
BRANCH  20  21
HETATM   21  C   UNL     1      -8.822   9.506  66.018  1.00  0.00    -0.183 A  
HETATM   22  C   UNL     1      -7.065   8.604  63.923  1.00  0.00    -0.094 A  
HETATM   23  C   UNL     1      -9.190   9.519  64.634  1.00  0.00    -0.247 A  
HETATM   24  C   UNL     1      -6.684   8.567  65.271  1.00  0.00    -0.063 A  
HETATM   25  C   UNL     1      -7.548   9.005  66.301  1.00  0.00    -0.092 A  
HETATM   26  C   UNL     1      -8.330   9.081  63.604  1.00  0.00    -0.178 A  
ENDBRANCH  20  21
BRANCH  20  27
HETATM   27  N   UNL     1      -9.475   9.415  68.386  1.00  0.00    -0.141 N  
HETATM   28  H   UNL     1      -8.957   9.999  69.041  1.00  0.00     0.000 HD 
HETATM   29  C   UNL     1      -9.804   8.128  68.721  1.00  0.00    -0.176 C  
HETATM   30  O   UNL     1     -10.371   7.380  67.926  1.00  0.00    -0.184 OA 
BRANCH  29  31
HETATM   31  C   UNL     1      -9.323   7.633  70.077  1.00  0.00    -0.154 C  
HETATM   32  C   UNL     1     -10.373   9.415  71.508  1.00  0.00    -0.265 C  
HETATM   33  C   UNL     1      -9.071   8.716  71.131  1.00  0.00    -0.263 C  
HETATM   34  C   UNL     1     -11.446   8.437  71.958  1.00  0.00    -0.349 C  
HETATM   35  F   UNL     1     -12.612   9.097  72.149  1.00  0.00    -0.383 F  
HETATM   36  F   UNL     1     -11.092   7.916  73.162  1.00  0.00    -0.422 F  
HETATM   37  C   UNL     1     -11.674   7.299  70.992  1.00  0.00    -0.340 C  
HETATM   38  C   UNL     1     -10.351   6.634  70.620  1.00  0.00    -0.233 C  
ENDBRANCH  29  31
ENDBRANCH  20  27
ENDBRANCH  18  19
ENDBRANCH  17  18
ENDBRANCH   8  10
TORSDOF 6
ENDMDL
MODEL      141
REMARK 921   NORMALIZED FREE ENERGY PREDICTED BY IDOCK:   -4.76 KCAL/MOL
REMARK 922        TOTAL FREE ENERGY PREDICTED BY IDOCK:   -7.97 KCAL/MOL
REMARK 923 INTER-LIGAND FREE ENERGY PREDICTED BY IDOCK:   -6.84 KCAL/MOL
REMARK 924 INTRA-LIGAND FREE ENERGY PREDICTED BY IDOCK:   -1.12 KCAL/MOL
REMARK 927      BINDING AFFINITY PREDICTED BY RF-SCORE:    0.00 PKD
ROOT
HETATM    1  C   UNL     1     -12.373  13.453  65.384  1.00  0.00    -0.522 C  
HETATM    2  C   UNL     1     -11.168  13.150  66.293  1.00  0.00    -0.328 C  
HETATM    3  C   UNL     1     -11.450  11.979  67.185  1.00  0.00    -0.335 A  
HETATM    4  C   UNL     1     -10.852  14.360  67.182  1.00  0.00    -0.292 C  
HETATM    5  N   UNL     1     -12.256  12.051  68.222  1.00  0.00    -0.314 NA 
HETATM    6  N   UNL     1     -12.000  10.990  69.019  1.00  0.00    -0.423 NA 
HETATM    7  C   UNL     1     -11.117  10.215  68.423  1.00  0.00    -0.218 A  
HETATM    8  N   UNL     1     -10.817  10.741  67.179  1.00  0.00    -0.280 NA 
HETATM    9  C   UNL     1     -10.597   8.994  69.070  1.00  0.00    -0.209 C  
ENDROOT
BRANCH   8  10
HETATM   10  C   UNL     1      -9.934  10.242  66.102  1.00  0.00    -0.238 C  
HETATM   11  C   UNL     1      -8.573  10.954  65.914  1.00  0.00    -0.179 C  
HETATM   12  C   UNL     1      -7.305  10.083  65.825  1.00  0.00    -0.117 C  
HETATM   13  C   UNL     1      -7.163   9.653  64.366  1.00  0.00    -0.122 C  
HETATM   14  C   UNL     1      -8.077   8.442  64.287  1.00  0.00    -0.151 C  
HETATM   15  C   UNL     1      -8.434   8.118  65.768  1.00  0.00    -0.149 C  
HETATM   16  C   UNL     1      -9.820   8.688  66.104  1.00  0.00    -0.269 C  
HETATM   17  N   UNL     1      -7.357   8.776  66.523  1.00  0.00    -0.080 NA 
BRANCH  17  18
HETATM   18  C   UNL     1      -7.405   8.839  68.027  1.00  0.00    -0.088 C  
BRANCH  18  19
HETATM   19  C   UNL     1      -6.626   7.753  68.900  1.00  0.00    -0.049 C  
HETATM   20  C   UNL     1      -7.384   6.691  69.866  1.00  0.00    -0.086 C  
BRANCH  20  21
HETATM   21  C   UNL     1      -7.709   6.791  71.389  1.00  0.00    -0.093 A  
HETATM   22  C   UNL     1      -8.458   6.792  74.169  1.00  0.00    -0.161 A  
HETATM   23  C   UNL     1      -7.951   5.590  72.131  1.00  0.00    -0.107 A  
HETATM   24  C   UNL     1      -8.240   7.984  73.464  1.00  0.00    -0.271 A  
HETATM   25  C   UNL     1      -7.877   7.984  72.098  1.00  0.00    -0.144 A  
HETATM   26  C   UNL     1      -8.315   5.586  73.494  1.00  0.00    -0.113 A  
ENDBRANCH  20  21
BRANCH  20  27
HETATM   27  N   UNL     1      -8.521   6.102  69.174  1.00  0.00    -0.118 N  
HETATM   28  H   UNL     1      -9.458   6.481  69.309  1.00  0.00     0.000 HD 
HETATM   29  C   UNL     1      -8.324   5.034  68.339  1.00  0.00    -0.088 C  
HETATM   30  O   UNL     1      -7.216   4.516  68.208  1.00  0.00    -0.062 OA 
BRANCH  29  31
HETATM   31  C   UNL     1      -9.563   4.446  67.680  1.00  0.00    -0.212 C  
HETATM   32  C   UNL     1      -8.900   4.798  65.280  1.00  0.00    -0.149 C  
HETATM   33  C   UNL     1      -9.963   5.068  66.338  1.00  0.00    -0.249 C  
HETATM   34  C   UNL     1      -8.588   3.317  65.138  1.00  0.00    -0.109 C  
HETATM   35  F   UNL     1      -7.549   3.150  64.286  1.00  0.00    -0.069 F  
HETATM   36  F   UNL     1      -9.656   2.692  64.574  1.00  0.00    -0.144 F  
HETATM   37  C   UNL     1      -8.269   2.635  66.446  1.00  0.00    -0.087 C  
HETATM   38  C   UNL     1      -9.342   2.942  67.490  1.00  0.00    -0.218 C  
ENDBRANCH  29  31
ENDBRANCH  20  27
ENDBRANCH  18  19
ENDBRANCH  17  18
ENDBRANCH   8  10
TORSDOF 6
ENDMDL
MODEL      142
REMARK 921   NORMALIZED FREE ENERGY PREDICTED BY IDOCK:   -4.74 KCAL/MOL
REMARK 922        TOTAL FREE ENERGY PREDICTED BY IDOCK:   -7.94 KCAL/MOL
REMARK 923 INTER-LIGAND FREE ENERGY PREDICTED BY IDOCK:   -6.72 KCAL/MOL
REMARK 924 INTRA-LIGAND FREE ENERGY PREDICTED BY IDOCK:   -1.22 KCAL/MOL
REMARK 927      BINDING AFFINITY PREDICTED BY RF-SCORE:    0.00 PKD
ROOT
HETATM    1  C   UNL     1      -9.885   4.122  67.033  1.00  0.00    -0.190 C  
HETATM    2  C   UNL     1      -9.007   4.584  68.209  1.00  0.00    -0.143 C  
HETATM    3  C   UNL     1      -8.250   5.829  67.858  1.00  0.00    -0.101 A  
HETATM    4  C   UNL     1      -7.989   3.495  68.576  1.00  0.00    -0.069 C  
HETATM    5  N   UNL     1      -7.216   5.828  67.044  1.00  0.00    -0.074 NA 
HETATM    6  N   UNL     1      -6.539   6.982  67.237  1.00  0.00    -0.050 NA 
HETATM    7  C   UNL     1      -7.209   7.731  68.086  1.00  0.00    -0.090 A  
HETATM    8  N   UNL     1      -8.387   7.089  68.428  1.00  0.00    -0.124 NA 
HETATM    9  C   UNL     1      -6.697   9.041  68.536  1.00  0.00    -0.059 C  
ENDROOT
BRANCH   8  10
HETATM   10  C   UNL     1      -9.506   7.513  69.297  1.00  0.00    -0.154 C  
HETATM   11  C   UNL     1      -9.153   7.991  70.726  1.00  0.00    -0.151 C  
HETATM   12  C   UNL     1      -9.745   9.328  71.210  1.00  0.00    -0.229 C  
HETATM   13  C   UNL     1     -11.133   9.024  71.770  1.00  0.00    -0.444 C  
HETATM   14  C   UNL     1     -11.999   9.021  70.521  1.00  0.00    -0.044 C  
HETATM   15  C   UNL     1     -11.085   9.604  69.403  1.00  0.00    -0.139 C  
HETATM   16  C   UNL     1     -10.501   8.459  68.560  1.00  0.00    -0.201 C  
HETATM   17  N   UNL     1     -10.053  10.327  70.160  1.00  0.00    -0.142 NA 
BRANCH  17  18
HETATM   18  C   UNL     1      -8.862  10.923  69.454  1.00  0.00     0.132 C  
BRANCH  18  19
HETATM   19  C   UNL     1      -9.021  12.269  68.610  1.00  0.00     0.016 C  
HETATM   20  C   UNL     1     -10.436  12.751  67.978  1.00  0.00    -0.226 C  
BRANCH  20  21
HETATM   21  C   UNL     1     -11.022  12.508  66.552  1.00  0.00    -0.303 A  
HETATM   22  C   UNL     1     -11.879  12.041  63.844  1.00  0.00    -0.543 A  
HETATM   23  C   UNL     1     -10.368  11.582  65.677  1.00  0.00    -0.308 A  
HETATM   24  C   UNL     1     -12.529  12.965  64.674  1.00  0.00    -0.499 A  
HETATM   25  C   UNL     1     -12.106  13.199  66.002  1.00  0.00    -0.495 A  
HETATM   26  C   UNL     1     -10.787  11.347  64.351  1.00  0.00    -0.397 A  
ENDBRANCH  20  21
BRANCH  20  27
HETATM   27  N   UNL     1     -11.501  12.610  68.961  1.00  0.00    -0.284 N  
HETATM   28  H   UNL     1     -11.823  11.684  69.241  1.00  0.00     0.000 HD 
HETATM   29  C   UNL     1     -12.068  13.732  69.507  1.00  0.00    -0.334 C  
HETATM   30  O   UNL     1     -11.745  14.860  69.141  1.00  0.00    -0.282 OA 
BRANCH  29  31
HETATM   31  C   UNL     1     -13.201  13.509  70.498  1.00  0.00     0.226 C  
HETATM   32  C   UNL     1     -11.915  13.920  72.620  1.00  0.00     0.850 C  
HETATM   33  C   UNL     1     -12.793  12.933  71.859  1.00  0.00    -0.315 C  
HETATM   34  C   UNL     1     -12.568  15.284  72.764  1.00  0.00    -0.391 C  
HETATM   35  F   UNL     1     -11.693  16.151  73.326  1.00  0.00    -0.507 F  
HETATM   36  F   UNL     1     -13.619  15.184  73.620  1.00  0.00    -0.390 F  
HETATM   37  C   UNL     1     -13.066  15.860  71.460  1.00  0.00    -0.278 C  
HETATM   38  C   UNL     1     -13.925  14.842  70.714  1.00  0.00     0.012 C  
ENDBRANCH  29  31
ENDBRANCH  20  27
ENDBRANCH  18  19
ENDBRANCH  17  18
ENDBRANCH   8  10
TORSDOF 6
ENDMDL
MODEL      143
REMARK 921   NORMALIZED FREE ENERGY PREDICTED BY IDOCK:   -4.71 KCAL/MOL
REMARK 922        TOTAL FREE ENERGY PREDICTED BY IDOCK:   -7.91 KCAL/MOL
REMARK 923 INTER-LIGAND FREE ENERGY PREDICTED BY IDOCK:   -6.93 KCAL/MOL
REMARK 924 INTRA-LIGAND FREE ENERGY PREDICTED BY IDOCK:   -0.97 KCAL/MOL
REMARK 927      BINDING AFFINITY PREDICTED BY RF-SCORE:    0.00 PKD
ROOT
HETATM    1  C   UNL     1      -6.671  15.482  67.459  1.00  0.00    -0.220 C  
HETATM    2  C   UNL     1      -7.294  14.413  68.374  1.00  0.00    -0.117 C  
HETATM    3  C   UNL     1      -8.724  14.739  68.684  1.00  0.00    -0.178 A  
HETATM    4  C   UNL     1      -6.526  14.331  69.700  1.00  0.00    -0.140 C  
HETATM    5  N   UNL     1      -9.072  15.699  69.514  1.00  0.00    -0.272 NA 
HETATM    6  N   UNL     1     -10.358  15.488  69.872  1.00  0.00    -0.304 NA 
HETATM    7  C   UNL     1     -10.828  14.468  69.187  1.00  0.00    -0.263 A  
HETATM    8  N   UNL     1      -9.854  14.020  68.312  1.00  0.00    -0.228 NA 
HETATM    9  C   UNL     1     -12.200  13.963  69.393  1.00  0.00    -0.338 C  
ENDROOT
BRANCH   8  10
HETATM   10  C   UNL     1      -9.882  12.946  67.295  1.00  0.00    -0.218 C  
HETATM   11  C   UNL     1      -8.524  12.480  66.718  1.00  0.00    -0.073 C  
HETATM   12  C   UNL     1      -8.231  10.968  66.684  1.00  0.00    -0.154 C  
HETATM   13  C   UNL     1      -8.845  10.424  65.396  1.00  0.00    -0.197 C  
HETATM   14  C   UNL     1     -10.295  10.198  65.791  1.00  0.00    -0.216 C  
HETATM   15  C   UNL     1     -10.313  10.360  67.340  1.00  0.00    -0.228 C  
HETATM   16  C   UNL     1     -10.812  11.766  67.709  1.00  0.00    -0.258 C  
HETATM   17  N   UNL     1      -8.908  10.146  67.715  1.00  0.00    -0.125 NA 
BRANCH  17  18
HETATM   18  C   UNL     1      -8.451  10.368  69.133  1.00  0.00    -0.164 C  
BRANCH  18  19
HETATM   19  C   UNL     1      -7.673   9.215  69.915  1.00  0.00    -0.087 C  
HETATM   20  C   UNL     1      -8.401   7.865  70.448  1.00  0.00    -0.121 C  
BRANCH  20  21
HETATM   21  C   UNL     1      -9.019   7.557  71.848  1.00  0.00    -0.144 A  
HETATM   22  C   UNL     1     -10.015   6.798  74.440  1.00  0.00    -0.310 A  
HETATM   23  C   UNL     1      -8.179   7.026  72.880  1.00  0.00    -0.119 A  
HETATM   24  C   UNL     1     -10.862   7.302  73.444  1.00  0.00    -0.370 A  
HETATM   25  C   UNL     1     -10.375   7.669  72.169  1.00  0.00    -0.270 A  
HETATM   26  C   UNL     1      -8.663   6.657  74.153  1.00  0.00    -0.167 A  
ENDBRANCH  20  21
BRANCH  20  27
HETATM   27  N   UNL     1      -9.266   7.317  69.414  1.00  0.00    -0.149 N  
HETATM   28  H   UNL     1      -9.995   7.893  68.995  1.00  0.00     0.000 HD 
HETATM   29  C   UNL     1      -9.094   6.020  69.008  1.00  0.00    -0.122 C  
HETATM   30  O   UNL     1      -8.266   5.283  69.541  1.00  0.00    -0.092 OA 
BRANCH  29  31
HETATM   31  C   UNL     1     -10.059   5.503  67.951  1.00  0.00    -0.218 C  
HETATM   32  C   UNL     1      -9.105   6.713  65.963  1.00  0.00    -0.104 C  
HETATM   33  C   UNL     1     -10.358   6.463  66.794  1.00  0.00    -0.279 C  
HETATM   34  C   UNL     1      -8.472   5.423  65.468  1.00  0.00    -0.141 C  
HETATM   35  F   UNL     1      -7.297   5.699  64.855  1.00  0.00    -0.063 F  
HETATM   36  F   UNL     1      -9.280   4.866  64.528  1.00  0.00    -0.158 F  
HETATM   37  C   UNL     1      -8.233   4.407  66.559  1.00  0.00    -0.102 C  
HETATM   38  C   UNL     1      -9.500   4.193  67.384  1.00  0.00    -0.223 C  
ENDBRANCH  29  31
ENDBRANCH  20  27
ENDBRANCH  18  19
ENDBRANCH  17  18
ENDBRANCH   8  10
TORSDOF 6
ENDMDL
MODEL      144
REMARK 921   NORMALIZED FREE ENERGY PREDICTED BY IDOCK:   -4.65 KCAL/MOL
REMARK 922        TOTAL FREE ENERGY PREDICTED BY IDOCK:   -7.82 KCAL/MOL
REMARK 923 INTER-LIGAND FREE ENERGY PREDICTED BY IDOCK:   -7.16 KCAL/MOL
REMARK 924 INTRA-LIGAND FREE ENERGY PREDICTED BY IDOCK:   -0.66 KCAL/MOL
REMARK 927      BINDING AFFINITY PREDICTED BY RF-SCORE:    0.00 PKD
ROOT
HETATM    1  C   UNL     1     -10.859  10.690  65.959  1.00  0.00    -0.051 C  
HETATM    2  C   UNL     1      -9.524  10.265  65.323  1.00  0.00    -0.296 C  
HETATM    3  C   UNL     1      -8.376  10.545  66.245  1.00  0.00    -0.152 A  
HETATM    4  C   UNL     1      -9.284  11.036  64.018  1.00  0.00    -0.178 C  
HETATM    5  N   UNL     1      -7.921  11.759  66.468  1.00  0.00    -0.072 NA 
HETATM    6  N   UNL     1      -6.687  11.644  67.006  1.00  0.00    -0.140 NA 
HETATM    7  C   UNL     1      -6.429  10.370  67.210  1.00  0.00    -0.067 A  
HETATM    8  N   UNL     1      -7.534   9.619  66.851  1.00  0.00    -0.091 NA 
HETATM    9  C   UNL     1      -5.129   9.919  67.748  1.00  0.00    -0.035 C  
ENDROOT
BRANCH   8  10
HETATM   10  C   UNL     1      -7.784   8.163  66.926  1.00  0.00    -0.096 C  
HETATM   11  C   UNL     1      -7.881   7.532  68.336  1.00  0.00    -0.122 C  
HETATM   12  C   UNL     1      -9.086   6.622  68.642  1.00  0.00    -0.126 C  
HETATM   13  C   UNL     1      -8.720   5.221  68.156  1.00  0.00    -0.102 C  
HETATM   14  C   UNL     1      -9.064   5.285  66.677  1.00  0.00    -0.122 C  
HETATM   15  C   UNL     1      -9.859   6.613  66.511  1.00  0.00    -0.104 C  
HETATM   16  C   UNL     1      -8.928   7.710  65.970  1.00  0.00    -0.178 C  
HETATM   17  N   UNL     1     -10.325   6.896  67.876  1.00  0.00    -0.179 NA 
BRANCH  17  18
HETATM   18  C   UNL     1     -11.019   8.195  68.195  1.00  0.00     0.213 C  
BRANCH  18  19
HETATM   19  C   UNL     1     -10.288   9.295  69.091  1.00  0.00    -0.222 C  
HETATM   20  C   UNL     1     -10.900   9.840  70.492  1.00  0.00    -0.323 C  
BRANCH  20  21
HETATM   21  C   UNL     1     -11.793  11.089  70.767  1.00  0.00    -0.383 A  
HETATM   22  C   UNL     1     -13.247  13.529  71.243  1.00  0.00    -0.290 A  
HETATM   23  C   UNL     1     -11.548  12.297  70.037  1.00  0.00    -0.236 A  
HETATM   24  C   UNL     1     -13.498  12.365  71.982  1.00  0.00    -0.460 A  
HETATM   25  C   UNL     1     -12.781  11.169  71.754  1.00  0.00    -0.396 A  
HETATM   26  C   UNL     1     -12.261  13.493  70.264  1.00  0.00    -0.417 A  
ENDBRANCH  20  21
BRANCH  20  27
HETATM   27  N   UNL     1     -11.378   8.726  71.300  1.00  0.00    -0.272 N  
HETATM   28  H   UNL     1     -12.305   8.334  71.139  1.00  0.00     0.000 HD 
HETATM   29  C   UNL     1     -10.571   8.209  72.279  1.00  0.00    -0.309 C  
HETATM   30  O   UNL     1      -9.476   8.703  72.539  1.00  0.00    -0.276 OA 
BRANCH  29  31
HETATM   31  C   UNL     1     -11.151   7.073  73.109  1.00  0.00    -0.260 C  
HETATM   32  C   UNL     1     -10.388   5.151  71.678  1.00  0.00    -0.274 C  
HETATM   33  C   UNL     1     -11.589   5.831  72.325  1.00  0.00    -0.300 C  
HETATM   34  C   UNL     1      -9.298   4.820  72.683  1.00  0.00    -0.130 C  
HETATM   35  F   UNL     1      -8.209   4.344  72.034  1.00  0.00    -0.090 F  
HETATM   36  F   UNL     1      -9.733   3.821  73.496  1.00  0.00    -0.113 F  
HETATM   37  C   UNL     1      -8.888   5.992  73.542  1.00  0.00    -0.125 C  
HETATM   38  C   UNL     1     -10.113   6.663  74.160  1.00  0.00    -0.390 C  
ENDBRANCH  29  31
ENDBRANCH  20  27
ENDBRANCH  18  19
ENDBRANCH  17  18
ENDBRANCH   8  10
TORSDOF 6
ENDMDL
MODEL      145
REMARK 921   NORMALIZED FREE ENERGY PREDICTED BY IDOCK:   -4.64 KCAL/MOL
REMARK 922        TOTAL FREE ENERGY PREDICTED BY IDOCK:   -7.81 KCAL/MOL
REMARK 923 INTER-LIGAND FREE ENERGY PREDICTED BY IDOCK:   -7.16 KCAL/MOL
REMARK 924 INTRA-LIGAND FREE ENERGY PREDICTED BY IDOCK:   -0.65 KCAL/MOL
REMARK 927      BINDING AFFINITY PREDICTED BY RF-SCORE:    0.00 PKD
ROOT
HETATM    1  C   UNL     1     -12.710  14.563  65.653  1.00  0.00    -0.186 C  
HETATM    2  C   UNL     1     -11.331  14.780  66.298  1.00  0.00    -0.334 C  
HETATM    3  C   UNL     1     -10.990  16.238  66.360  1.00  0.00     0.004 A  
HETATM    4  C   UNL     1     -10.241  14.071  65.482  1.00  0.00    -0.362 C  
HETATM    5  N   UNL     1     -10.639  16.933  65.299  1.00  0.00    -0.650 NA 
HETATM    6  N   UNL     1     -10.037  18.064  65.728  1.00  0.00    -0.574 NA 
HETATM    7  C   UNL     1     -10.110  18.113  67.041  1.00  0.00    -0.351 A  
HETATM    8  N   UNL     1     -10.825  17.019  67.498  1.00  0.00    -0.263 NA 
HETATM    9  C   UNL     1      -9.496  19.213  67.811  1.00  0.00    -0.362 C  
ENDROOT
BRANCH   8  10
HETATM   10  C   UNL     1     -11.232  16.628  68.865  1.00  0.00    -0.200 C  
HETATM   11  C   UNL     1     -12.464  15.702  69.000  1.00  0.00     0.216 C  
HETATM   12  C   UNL     1     -12.336  14.449  69.886  1.00  0.00    -0.314 C  
HETATM   13  C   UNL     1     -12.638  14.884  71.319  1.00  0.00    -0.402 C  
HETATM   14  C   UNL     1     -11.299  15.428  71.788  1.00  0.00    -0.457 C  
HETATM   15  C   UNL     1     -10.287  14.994  70.686  1.00  0.00     0.276 C  
HETATM   16  C   UNL     1     -10.021  16.170  69.733  1.00  0.00    -0.115 C  
HETATM   17  N   UNL     1     -10.975  13.878  70.021  1.00  0.00     0.135 NA 
BRANCH  17  18
HETATM   18  C   UNL     1     -10.400  13.256  68.776  1.00  0.00    -0.140 C  
BRANCH  18  19
HETATM   19  C   UNL     1     -11.166  12.059  68.049  1.00  0.00    -0.316 C  
HETATM   20  C   UNL     1     -10.424  10.697  67.573  1.00  0.00    -0.230 C  
BRANCH  20  21
HETATM   21  C   UNL     1      -9.807  10.334  66.186  1.00  0.00    -0.284 A  
HETATM   22  C   UNL     1      -8.460   9.738  63.712  1.00  0.00    -0.186 A  
HETATM   23  C   UNL     1      -8.485   9.787  66.132  1.00  0.00    -0.130 A  
HETATM   24  C   UNL     1      -9.750  10.287  63.736  1.00  0.00    -0.298 A  
HETATM   25  C   UNL     1     -10.410  10.585  64.950  1.00  0.00    -0.307 A  
HETATM   26  C   UNL     1      -7.822   9.490  64.922  1.00  0.00    -0.119 A  
ENDBRANCH  20  21
BRANCH  20  27
HETATM   27  N   UNL     1      -9.548  10.205  68.627  1.00  0.00    -0.157 N  
HETATM   28  H   UNL     1      -8.837  10.814  69.030  1.00  0.00     0.000 HD 
HETATM   29  C   UNL     1      -9.687   8.918  69.074  1.00  0.00    -0.171 C  
HETATM   30  O   UNL     1     -10.491   8.141  68.561  1.00  0.00    -0.207 OA 
BRANCH  29  31
HETATM   31  C   UNL     1      -8.712   8.461  70.150  1.00  0.00    -0.136 C  
HETATM   32  C   UNL     1      -8.293   6.133  69.296  1.00  0.00    -0.116 C  
HETATM   33  C   UNL     1      -8.746   6.967  70.489  1.00  0.00    -0.153 C  
HETATM   34  C   UNL     1      -6.929   6.556  68.778  1.00  0.00    -0.080 C  
HETATM   35  F   UNL     1      -6.641   5.875  67.644  1.00  0.00    -0.047 F  
HETATM   36  F   UNL     1      -5.982   6.210  69.690  1.00  0.00    -0.020 F  
HETATM   37  C   UNL     1      -6.815   8.037  68.507  1.00  0.00    -0.067 C  
HETATM   38  C   UNL     1      -7.294   8.844  69.712  1.00  0.00    -0.056 C  
ENDBRANCH  29  31
ENDBRANCH  20  27
ENDBRANCH  18  19
ENDBRANCH  17  18
ENDBRANCH   8  10
TORSDOF 6
ENDMDL
MODEL      146
REMARK 921   NORMALIZED FREE ENERGY PREDICTED BY IDOCK:   -4.64 KCAL/MOL
REMARK 922        TOTAL FREE ENERGY PREDICTED BY IDOCK:   -7.81 KCAL/MOL
REMARK 923 INTER-LIGAND FREE ENERGY PREDICTED BY IDOCK:   -8.57 KCAL/MOL
REMARK 924 INTRA-LIGAND FREE ENERGY PREDICTED BY IDOCK:    0.77 KCAL/MOL
REMARK 927      BINDING AFFINITY PREDICTED BY RF-SCORE:    0.00 PKD
ROOT
HETATM    1  C   UNL     1     -10.017  10.224  64.292  1.00  0.00    -0.293 C  
HETATM    2  C   UNL     1      -9.673  11.164  65.461  1.00  0.00    -0.271 C  
HETATM    3  C   UNL     1     -10.478  10.823  66.679  1.00  0.00    -0.246 A  
HETATM    4  C   UNL     1      -9.977  12.621  65.083  1.00  0.00    -0.194 C  
HETATM    5  N   UNL     1     -11.759  11.102  66.788  1.00  0.00    -0.247 NA 
HETATM    6  N   UNL     1     -12.086  11.034  68.097  1.00  0.00    -0.563 NA 
HETATM    7  C   UNL     1     -11.039  10.613  68.775  1.00  0.00    -0.265 A  
HETATM    8  N   UNL     1     -10.006  10.342  67.895  1.00  0.00    -0.163 NA 
HETATM    9  C   UNL     1     -11.071  10.481  70.245  1.00  0.00    -0.359 C  
ENDROOT
BRANCH   8  10
HETATM   10  C   UNL     1      -8.648   9.806  68.129  1.00  0.00    -0.118 C  
HETATM   11  C   UNL     1      -7.558  10.157  67.088  1.00  0.00    -0.092 C  
HETATM   12  C   UNL     1      -6.214  10.708  67.603  1.00  0.00    -0.055 C  
HETATM   13  C   UNL     1      -5.343   9.503  67.952  1.00  0.00    -0.037 C  
HETATM   14  C   UNL     1      -5.810   9.153  69.356  1.00  0.00    -0.034 C  
HETATM   15  C   UNL     1      -6.695  10.358  69.790  1.00  0.00    -0.117 C  
HETATM   16  C   UNL     1      -8.179  10.006  69.602  1.00  0.00    -0.185 C  
HETATM   17  N   UNL     1      -6.256  11.437  68.893  1.00  0.00    -0.050 NA 
BRANCH  17  18
HETATM   18  C   UNL     1      -6.977  12.759  68.875  1.00  0.00    -0.084 C  
BRANCH  18  19
HETATM   19  C   UNL     1      -8.337  12.920  68.056  1.00  0.00    -0.169 C  
HETATM   20  C   UNL     1      -9.180  14.306  68.010  1.00  0.00    -0.192 C  
BRANCH  20  21
HETATM   21  C   UNL     1     -10.373  14.774  68.900  1.00  0.00    -0.243 A  
HETATM   22  C   UNL     1     -12.417  15.677  70.715  1.00  0.00    -0.484 A  
HETATM   23  C   UNL     1     -10.181  15.864  69.809  1.00  0.00    -0.268 A  
HETATM   24  C   UNL     1     -12.628  14.599  69.846  1.00  0.00    -0.223 A  
HETATM   25  C   UNL     1     -11.624  14.151  68.958  1.00  0.00    -0.342 A  
HETATM   26  C   UNL     1     -11.181  16.312  70.698  1.00  0.00    -0.310 A  
ENDBRANCH  20  21
BRANCH  20  27
HETATM   27  N   UNL     1      -8.286  15.432  67.782  1.00  0.00    -0.143 N  
HETATM   28  H   UNL     1      -7.603  15.698  68.491  1.00  0.00     0.000 HD 
HETATM   29  C   UNL     1      -8.368  16.133  66.608  1.00  0.00    -0.286 C  
HETATM   30  O   UNL     1      -9.225  15.876  65.763  1.00  0.00    -0.318 OA 
BRANCH  29  31
HETATM   31  C   UNL     1      -7.429  17.321  66.455  1.00  0.00    -0.315 C  
HETATM   32  C   UNL     1      -9.048  19.145  67.068  1.00  0.00    -0.329 C  
HETATM   33  C   UNL     1      -8.081  18.633  66.007  1.00  0.00    -0.122 C  
HETATM   34  C   UNL     1      -8.390  19.287  68.430  1.00  0.00    -0.348 C  
HETATM   35  F   UNL     1      -9.323  19.614  69.355  1.00  0.00    -0.380 F  
HETATM   36  F   UNL     1      -7.505  20.318  68.390  1.00  0.00    -0.323 F  
HETATM   37  C   UNL     1      -7.659  18.046  68.884  1.00  0.00    -0.227 C  
HETATM   38  C   UNL     1      -6.714  17.547  67.792  1.00  0.00    -0.182 C  
ENDBRANCH  29  31
ENDBRANCH  20  27
ENDBRANCH  18  19
ENDBRANCH  17  18
ENDBRANCH   8  10
TORSDOF 6
ENDMDL
MODEL      147
REMARK 921   NORMALIZED FREE ENERGY PREDICTED BY IDOCK:   -4.64 KCAL/MOL
REMARK 922        TOTAL FREE ENERGY PREDICTED BY IDOCK:   -7.80 KCAL/MOL
REMARK 923 INTER-LIGAND FREE ENERGY PREDICTED BY IDOCK:   -7.92 KCAL/MOL
REMARK 924 INTRA-LIGAND FREE ENERGY PREDICTED BY IDOCK:    0.12 KCAL/MOL
REMARK 927      BINDING AFFINITY PREDICTED BY RF-SCORE:    0.00 PKD
ROOT
HETATM    1  C   UNL     1     -11.067  14.395  69.250  1.00  0.00    -0.300 C  
HETATM    2  C   UNL     1     -10.918  12.964  68.702  1.00  0.00    -0.295 C  
HETATM    3  C   UNL     1     -11.070  12.942  67.211  1.00  0.00    -0.274 A  
HETATM    4  C   UNL     1     -11.991  12.047  69.304  1.00  0.00    -0.329 C  
HETATM    5  N   UNL     1     -12.233  13.085  66.611  1.00  0.00    -0.407 NA 
HETATM    6  N   UNL     1     -12.100  12.638  65.343  1.00  0.00    -0.450 NA 
HETATM    7  C   UNL     1     -10.840  12.321  65.134  1.00  0.00    -0.301 A  
HETATM    8  N   UNL     1     -10.103  12.612  66.268  1.00  0.00    -0.248 NA 
HETATM    9  C   UNL     1     -10.387  11.753  63.848  1.00  0.00    -0.428 C  
ENDROOT
BRANCH   8  10
HETATM   10  C   UNL     1      -8.655  12.494  66.541  1.00  0.00     0.028 C  
HETATM   11  C   UNL     1      -8.160  12.918  67.945  1.00  0.00    -0.161 C  
HETATM   12  C   UNL     1      -7.246  11.947  68.716  1.00  0.00    -0.112 C  
HETATM   13  C   UNL     1      -5.817  12.215  68.248  1.00  0.00    -0.052 C  
HETATM   14  C   UNL     1      -5.726  11.389  66.975  1.00  0.00    -0.106 C  
HETATM   15  C   UNL     1      -7.006  10.503  66.985  1.00  0.00    -0.089 C  
HETATM   16  C   UNL     1      -8.075  11.126  66.073  1.00  0.00    -0.064 C  
HETATM   17  N   UNL     1      -7.405  10.507  68.400  1.00  0.00    -0.083 NA 
BRANCH  17  18
HETATM   18  C   UNL     1      -8.706   9.882  68.831  1.00  0.00    -0.140 C  
BRANCH  18  19
HETATM   19  C   UNL     1      -9.283  10.159  70.293  1.00  0.00     0.176 C  
HETATM   20  C   UNL     1     -10.005   9.013  71.188  1.00  0.00    -0.295 C  
BRANCH  20  21
HETATM   21  C   UNL     1     -11.520   8.663  71.319  1.00  0.00    -0.341 A  
HETATM   22  C   UNL     1     -14.329   8.181  71.730  1.00  0.00    -0.582 A  
HETATM   23  C   UNL     1     -12.459   9.711  71.582  1.00  0.00    -0.494 A  
HETATM   24  C   UNL     1     -13.429   7.134  71.488  1.00  0.00    -0.411 A  
HETATM   25  C   UNL     1     -12.049   7.369  71.291  1.00  0.00    -0.359 A  
HETATM   26  C   UNL     1     -13.837   9.480  71.780  1.00  0.00    -0.313 A  
ENDBRANCH  20  21
BRANCH  20  27
HETATM   27  N   UNL     1      -9.232   7.780  71.146  1.00  0.00    -0.145 N  
HETATM   28  H   UNL     1      -8.848   7.444  70.264  1.00  0.00     0.000 HD 
HETATM   29  C   UNL     1      -9.026   7.074  72.301  1.00  0.00    -0.133 C  
HETATM   30  O   UNL     1      -9.532   7.420  73.367  1.00  0.00    -0.181 OA 
BRANCH  29  31
HETATM   31  C   UNL     1      -8.243   5.775  72.175  1.00  0.00    -0.112 C  
HETATM   32  C   UNL     1      -9.838   4.532  70.681  1.00  0.00    -0.292 C  
HETATM   33  C   UNL     1      -9.082   4.504  72.004  1.00  0.00    -0.161 C  
HETATM   34  C   UNL     1      -8.918   4.757  69.493  1.00  0.00    -0.093 C  
HETATM   35  F   UNL     1      -9.655   4.905  68.367  1.00  0.00    -0.146 F  
HETATM   36  F   UNL     1      -8.150   3.649  69.311  1.00  0.00    -0.054 F  
HETATM   37  C   UNL     1      -8.007   5.951  69.648  1.00  0.00    -0.101 C  
HETATM   38  C   UNL     1      -7.280   5.904  70.990  1.00  0.00    -0.074 C  
ENDBRANCH  29  31
ENDBRANCH  20  27
ENDBRANCH  18  19
ENDBRANCH  17  18
ENDBRANCH   8  10
TORSDOF 6
ENDMDL
MODEL      148
REMARK 921   NORMALIZED FREE ENERGY PREDICTED BY IDOCK:   -4.58 KCAL/MOL
REMARK 922        TOTAL FREE ENERGY PREDICTED BY IDOCK:   -7.72 KCAL/MOL
REMARK 923 INTER-LIGAND FREE ENERGY PREDICTED BY IDOCK:   -6.19 KCAL/MOL
REMARK 924 INTRA-LIGAND FREE ENERGY PREDICTED BY IDOCK:   -1.54 KCAL/MOL
REMARK 927      BINDING AFFINITY PREDICTED BY RF-SCORE:    0.00 PKD
ROOT
HETATM    1  C   UNL     1     -11.013   5.650  72.567  1.00  0.00    -0.313 C  
HETATM    2  C   UNL     1      -9.664   5.015  72.187  1.00  0.00    -0.208 C  
HETATM    3  C   UNL     1      -9.485   4.984  70.699  1.00  0.00    -0.169 A  
HETATM    4  C   UNL     1      -9.587   3.573  72.706  1.00  0.00    -0.182 C  
HETATM    5  N   UNL     1     -10.136   4.146  69.920  1.00  0.00    -0.040 NA 
HETATM    6  N   UNL     1      -9.489   4.097  68.735  1.00  0.00    -0.162 NA 
HETATM    7  C   UNL     1      -8.510   4.977  68.749  1.00  0.00    -0.086 A  
HETATM    8  N   UNL     1      -8.536   5.668  69.948  1.00  0.00    -0.119 NA 
HETATM    9  C   UNL     1      -7.587   5.128  67.606  1.00  0.00    -0.087 C  
ENDROOT
BRANCH   8  10
HETATM   10  C   UNL     1      -7.698   6.780  70.446  1.00  0.00    -0.100 C  
HETATM   11  C   UNL     1      -6.289   6.939  69.826  1.00  0.00    -0.039 C  
HETATM   12  C   UNL     1      -5.871   8.333  69.321  1.00  0.00    -0.034 C  
HETATM   13  C   UNL     1      -5.312   9.092  70.523  1.00  0.00    -0.030 C  
HETATM   14  C   UNL     1      -6.568   9.638  71.182  1.00  0.00     0.016 C  
HETATM   15  C   UNL     1      -7.702   9.385  70.145  1.00  0.00    -0.136 C  
HETATM   16  C   UNL     1      -8.486   8.121  70.531  1.00  0.00    -0.125 C  
HETATM   17  N   UNL     1      -6.968   9.226  68.881  1.00  0.00    -0.063 NA 
BRANCH  17  18
HETATM   18  C   UNL     1      -7.688   8.808  67.625  1.00  0.00    -0.101 C  
BRANCH  18  19
HETATM   19  C   UNL     1      -7.547   9.676  66.293  1.00  0.00    -0.101 C  
HETATM   20  C   UNL     1      -8.270  11.117  66.099  1.00  0.00    -0.128 C  
BRANCH  20  21
HETATM   21  C   UNL     1      -9.647  11.458  65.449  1.00  0.00    -0.255 A  
HETATM   22  C   UNL     1     -12.067  12.156  64.055  1.00  0.00    -0.540 A  
HETATM   23  C   UNL     1      -9.838  11.214  64.051  1.00  0.00    -0.349 A  
HETATM   24  C   UNL     1     -11.902  12.419  65.421  1.00  0.00    -0.460 A  
HETATM   25  C   UNL     1     -10.712  12.082  66.106  1.00  0.00    -0.312 A  
HETATM   26  C   UNL     1     -11.024  11.551  63.365  1.00  0.00    -0.397 A  
ENDBRANCH  20  21
BRANCH  20  27
HETATM   27  N   UNL     1      -8.090  11.935  67.290  1.00  0.00    -0.163 N  
HETATM   28  H   UNL     1      -8.866  12.085  67.933  1.00  0.00     0.000 HD 
HETATM   29  C   UNL     1      -6.868  12.503  67.540  1.00  0.00    -0.150 C  
HETATM   30  O   UNL     1      -5.933  12.393  66.748  1.00  0.00    -0.245 OA 
BRANCH  29  31
HETATM   31  C   UNL     1      -6.764  13.377  68.781  1.00  0.00    -0.106 C  
HETATM   32  C   UNL     1      -5.301  15.187  67.830  1.00  0.00    -0.116 C  
HETATM   33  C   UNL     1      -5.454  14.155  68.941  1.00  0.00    -0.083 C  
HETATM   34  C   UNL     1      -6.496  16.121  67.740  1.00  0.00    -0.147 C  
HETATM   35  F   UNL     1      -6.366  16.924  66.658  1.00  0.00    -0.195 F  
HETATM   36  F   UNL     1      -6.506  16.935  68.828  1.00  0.00    -0.149 F  
HETATM   37  C   UNL     1      -7.823  15.404  67.666  1.00  0.00    -0.175 C  
HETATM   38  C   UNL     1      -7.936  14.364  68.778  1.00  0.00    -0.133 C  
ENDBRANCH  29  31
ENDBRANCH  20  27
ENDBRANCH  18  19
ENDBRANCH  17  18
ENDBRANCH   8  10
TORSDOF 6
ENDMDL
MODEL      149
REMARK 921   NORMALIZED FREE ENERGY PREDICTED BY IDOCK:   -4.52 KCAL/MOL
REMARK 922        TOTAL FREE ENERGY PREDICTED BY IDOCK:   -7.65 KCAL/MOL
REMARK 923 INTER-LIGAND FREE ENERGY PREDICTED BY IDOCK:   -7.66 KCAL/MOL
REMARK 924 INTRA-LIGAND FREE ENERGY PREDICTED BY IDOCK:    0.01 KCAL/MOL
REMARK 927      BINDING AFFINITY PREDICTED BY RF-SCORE:    0.00 PKD
ROOT
HETATM    1  C   UNL     1      -6.268  12.481  67.232  1.00  0.00    -0.124 C  
HETATM    2  C   UNL     1      -6.975  13.558  68.072  1.00  0.00    -0.133 C  
HETATM    3  C   UNL     1      -6.981  14.876  67.358  1.00  0.00    -0.130 A  
HETATM    4  C   UNL     1      -6.255  13.748  69.414  1.00  0.00    -0.107 C  
HETATM    5  N   UNL     1      -5.907  15.628  67.239  1.00  0.00    -0.332 NA 
HETATM    6  N   UNL     1      -6.311  16.875  66.911  1.00  0.00    -0.189 NA 
HETATM    7  C   UNL     1      -7.614  16.865  66.727  1.00  0.00    -0.245 A  
HETATM    8  N   UNL     1      -8.086  15.573  66.882  1.00  0.00    -0.243 NA 
HETATM    9  C   UNL     1      -8.360  18.098  66.402  1.00  0.00    -0.272 C  
ENDROOT
BRANCH   8  10
HETATM   10  C   UNL     1      -9.447  15.013  66.736  1.00  0.00    -0.246 C  
HETATM   11  C   UNL     1      -9.638  13.870  65.711  1.00  0.00    -0.114 C  
HETATM   12  C   UNL     1     -10.376  12.598  66.171  1.00  0.00    -0.256 C  
HETATM   13  C   UNL     1     -11.870  12.863  65.995  1.00  0.00    -0.485 C  
HETATM   14  C   UNL     1     -12.226  13.607  67.271  1.00  0.00    -0.317 C  
HETATM   15  C   UNL     1     -10.975  13.450  68.185  1.00  0.00    -0.255 C  
HETATM   16  C   UNL     1     -10.117  14.722  68.113  1.00  0.00    -0.221 C  
HETATM   17  N   UNL     1     -10.292  12.279  67.616  1.00  0.00    -0.202 NA 
BRANCH  17  18
HETATM   18  C   UNL     1      -8.932  11.867  68.118  1.00  0.00    -0.185 C  
BRANCH  18  19
HETATM   19  C   UNL     1      -8.780  11.183  69.551  1.00  0.00     0.472 C  
HETATM   20  C   UNL     1      -9.511   9.788  69.944  1.00  0.00    -0.231 C  
BRANCH  20  21
HETATM   21  C   UNL     1     -10.881   9.550  70.652  1.00  0.00    -0.371 A  
HETATM   22  C   UNL     1     -13.432   8.914  71.826  1.00  0.00    -0.447 A  
HETATM   23  C   UNL     1     -11.286   8.210  70.958  1.00  0.00    -0.284 A  
HETATM   24  C   UNL     1     -13.068  10.233  71.525  1.00  0.00    -0.534 A  
HETATM   25  C   UNL     1     -11.818  10.546  70.944  1.00  0.00    -0.455 A  
HETATM   26  C   UNL     1     -12.533   7.894  71.536  1.00  0.00    -0.341 A  
ENDBRANCH  20  21
BRANCH  20  27
HETATM   27  N   UNL     1      -9.354   8.817  68.871  1.00  0.00    -0.144 N  
HETATM   28  H   UNL     1     -10.080   8.710  68.164  1.00  0.00     0.000 HD 
HETATM   29  C   UNL     1      -8.223   8.046  68.820  1.00  0.00    -0.126 C  
HETATM   30  O   UNL     1      -7.361   8.107  69.695  1.00  0.00    -0.070 OA 
BRANCH  29  31
HETATM   31  C   UNL     1      -8.144   7.026  67.693  1.00  0.00    -0.114 C  
HETATM   32  C   UNL     1      -9.769   8.108  66.108  1.00  0.00    -0.154 C  
HETATM   33  C   UNL     1      -9.426   6.836  66.875  1.00  0.00    -0.189 C  
HETATM   34  C   UNL     1      -8.619   8.589  65.239  1.00  0.00    -0.165 C  
HETATM   35  F   UNL     1      -8.931   9.786  64.691  1.00  0.00    -0.184 F  
HETATM   36  F   UNL     1      -8.451   7.721  64.207  1.00  0.00    -0.107 F  
HETATM   37  C   UNL     1      -7.309   8.711  65.980  1.00  0.00    -0.085 C  
HETATM   38  C   UNL     1      -7.004   7.430  66.752  1.00  0.00    -0.077 C  
ENDBRANCH  29  31
ENDBRANCH  20  27
ENDBRANCH  18  19
ENDBRANCH  17  18
ENDBRANCH   8  10
TORSDOF 6
ENDMDL
MODEL      150
REMARK 921   NORMALIZED FREE ENERGY PREDICTED BY IDOCK:   -4.51 KCAL/MOL
REMARK 922        TOTAL FREE ENERGY PREDICTED BY IDOCK:   -7.64 KCAL/MOL
REMARK 923 INTER-LIGAND FREE ENERGY PREDICTED BY IDOCK:   -7.36 KCAL/MOL
REMARK 924 INTRA-LIGAND FREE ENERGY PREDICTED BY IDOCK:   -0.27 KCAL/MOL
REMARK 927      BINDING AFFINITY PREDICTED BY RF-SCORE:    0.00 PKD
ROOT
HETATM    1  C   UNL     1     -12.054  11.624  63.839  1.00  0.00    -0.298 C  
HETATM    2  C   UNL     1     -11.388  12.934  64.293  1.00  0.00    -0.417 C  
HETATM    3  C   UNL     1     -11.540  13.128  65.772  1.00  0.00    -0.347 A  
HETATM    4  C   UNL     1     -12.032  14.135  63.587  1.00  0.00    -0.008 C  
HETATM    5  N   UNL     1     -12.679  13.475  66.332  1.00  0.00    -0.188 NA 
HETATM    6  N   UNL     1     -12.405  13.938  67.571  1.00  0.00    -0.203 NA 
HETATM    7  C   UNL     1     -11.120  13.779  67.810  1.00  0.00    -0.268 A  
HETATM    8  N   UNL     1     -10.531  13.147  66.729  1.00  0.00    -0.259 NA 
HETATM    9  C   UNL     1     -10.505  14.237  69.072  1.00  0.00    -0.212 C  
ENDROOT
BRANCH   8  10
HETATM   10  C   UNL     1      -9.140  12.696  66.508  1.00  0.00    -0.162 C  
HETATM   11  C   UNL     1      -8.058  13.236  67.474  1.00  0.00    -0.187 C  
HETATM   12  C   UNL     1      -7.097  12.223  68.125  1.00  0.00    -0.091 C  
HETATM   13  C   UNL     1      -5.953  11.997  67.138  1.00  0.00    -0.153 C  
HETATM   14  C   UNL     1      -6.527  10.946  66.203  1.00  0.00    -0.114 C  
HETATM   15  C   UNL     1      -7.830  10.459  66.905  1.00  0.00    -0.114 C  
HETATM   16  C   UNL     1      -9.048  11.157  66.279  1.00  0.00    -0.207 C  
HETATM   17  N   UNL     1      -7.619  10.848  68.307  1.00  0.00    -0.095 NA 
BRANCH  17  18
HETATM   18  C   UNL     1      -8.725  10.696  69.319  1.00  0.00    -0.077 C  
BRANCH  18  19
HETATM   19  C   UNL     1     -10.122  10.056  68.889  1.00  0.00    -0.200 C  
HETATM   20  C   UNL     1     -10.522   8.516  69.209  1.00  0.00    -0.215 C  
BRANCH  20  21
HETATM   21  C   UNL     1     -10.360   7.242  68.322  1.00  0.00    -0.227 A  
HETATM   22  C   UNL     1     -10.124   5.026  66.499  1.00  0.00    -0.278 A  
HETATM   23  C   UNL     1      -9.842   7.378  66.993  1.00  0.00    -0.273 A  
HETATM   24  C   UNL     1     -10.648   4.866  67.790  1.00  0.00     0.120 A  
HETATM   25  C   UNL     1     -10.769   5.955  68.683  1.00  0.00    -0.339 A  
HETATM   26  C   UNL     1      -9.721   6.294  66.098  1.00  0.00    -0.021 A  
ENDBRANCH  20  21
BRANCH  20  27
HETATM   27  N   UNL     1     -10.186   8.183  70.586  1.00  0.00    -0.195 N  
HETATM   28  H   UNL     1     -10.863   8.336  71.332  1.00  0.00     0.000 HD 
HETATM   29  C   UNL     1      -8.951   7.664  70.872  1.00  0.00    -0.148 C  
HETATM   30  O   UNL     1      -8.091   7.530  70.002  1.00  0.00    -0.122 OA 
BRANCH  29  31
HETATM   31  C   UNL     1      -8.655   7.376  72.337  1.00  0.00    -0.138 C  
HETATM   32  C   UNL     1     -11.025   7.248  73.168  1.00  0.00    -0.384 C  
HETATM   33  C   UNL     1      -9.672   7.927  73.342  1.00  0.00    -0.318 C  
HETATM   34  C   UNL     1     -10.928   5.734  73.246  1.00  0.00    -0.253 C  
HETATM   35  F   UNL     1     -12.129   5.184  72.952  1.00  0.00    -0.359 F  
HETATM   36  F   UNL     1     -10.639   5.374  74.525  1.00  0.00    -0.285 F  
HETATM   37  C   UNL     1      -9.878   5.145  72.334  1.00  0.00    -0.208 C  
HETATM   38  C   UNL     1      -8.541   5.859  72.519  1.00  0.00    -0.120 C  
ENDBRANCH  29  31
ENDBRANCH  20  27
ENDBRANCH  18  19
ENDBRANCH  17  18
ENDBRANCH   8  10
TORSDOF 6
ENDMDL
MODEL      151
REMARK 921   NORMALIZED FREE ENERGY PREDICTED BY IDOCK:   -4.50 KCAL/MOL
REMARK 922        TOTAL FREE ENERGY PREDICTED BY IDOCK:   -7.61 KCAL/MOL
REMARK 923 INTER-LIGAND FREE ENERGY PREDICTED BY IDOCK:   -6.58 KCAL/MOL
REMARK 924 INTRA-LIGAND FREE ENERGY PREDICTED BY IDOCK:   -1.03 KCAL/MOL
REMARK 927      BINDING AFFINITY PREDICTED BY RF-SCORE:    0.00 PKD
ROOT
HETATM    1  C   UNL     1     -10.825  16.486  65.784  1.00  0.00    -0.137 C  
HETATM    2  C   UNL     1     -10.000  15.542  66.676  1.00  0.00    -0.272 C  
HETATM    3  C   UNL     1     -10.858  14.450  67.240  1.00  0.00    -0.290 A  
HETATM    4  C   UNL     1      -9.386  16.318  67.850  1.00  0.00    -0.209 C  
HETATM    5  N   UNL     1     -11.730  14.655  68.205  1.00  0.00    -0.328 NA 
HETATM    6  N   UNL     1     -12.042  13.454  68.740  1.00  0.00    -0.310 NA 
HETATM    7  C   UNL     1     -11.448  12.510  68.041  1.00  0.00    -0.317 A  
HETATM    8  N   UNL     1     -10.767  13.087  66.983  1.00  0.00    -0.257 NA 
HETATM    9  C   UNL     1     -11.559  11.085  68.412  1.00  0.00    -0.372 C  
ENDROOT
BRANCH   8  10
HETATM   10  C   UNL     1      -9.987  12.479  65.884  1.00  0.00    -0.257 C  
HETATM   11  C   UNL     1      -8.599  11.895  66.238  1.00  0.00    -0.016 C  
HETATM   12  C   UNL     1      -8.269  10.467  65.761  1.00  0.00    -0.160 C  
HETATM   13  C   UNL     1      -7.737  10.587  64.334  1.00  0.00     0.040 C  
HETATM   14  C   UNL     1      -9.013  10.636  63.509  1.00  0.00    -0.216 C  
HETATM   15  C   UNL     1     -10.145  10.253  64.507  1.00  0.00    -0.216 C  
HETATM   16  C   UNL     1     -10.850  11.524  65.005  1.00  0.00    -0.336 C  
HETATM   17  N   UNL     1      -9.423   9.554  65.580  1.00  0.00    -0.244 NA 
BRANCH  17  18
HETATM   18  C   UNL     1     -10.136   9.143  66.841  1.00  0.00    -0.258 C  
BRANCH  18  19
HETATM   19  C   UNL     1      -9.300   8.722  68.134  1.00  0.00    -0.148 C  
HETATM   20  C   UNL     1      -9.481   7.287  68.872  1.00  0.00    -0.143 C  
BRANCH  20  21
HETATM   21  C   UNL     1     -10.388   6.900  70.082  1.00  0.00    -0.218 A  
HETATM   22  C   UNL     1     -12.061   5.962  72.229  1.00  0.00    -0.138 A  
HETATM   23  C   UNL     1     -10.212   5.622  70.705  1.00  0.00    -0.291 A  
HETATM   24  C   UNL     1     -12.264   7.212  71.629  1.00  0.00    -0.385 A  
HETATM   25  C   UNL     1     -11.447   7.671  70.570  1.00  0.00    -0.236 A  
HETATM   26  C   UNL     1     -11.027   5.161  71.760  1.00  0.00    -0.078 A  
ENDBRANCH  20  21
BRANCH  20  27
HETATM   27  N   UNL     1      -9.516   6.215  67.888  1.00  0.00    -0.116 N  
HETATM   28  H   UNL     1     -10.397   5.946  67.452  1.00  0.00     0.000 HD 
HETATM   29  C   UNL     1      -8.355   5.570  67.553  1.00  0.00    -0.100 C  
HETATM   30  O   UNL     1      -7.289   5.829  68.110  1.00  0.00    -0.074 OA 
BRANCH  29  31
HETATM   31  C   UNL     1      -8.473   4.434  66.546  1.00  0.00    -0.112 C  
HETATM   32  C   UNL     1      -8.490   5.812  64.443  1.00  0.00    -0.019 C  
HETATM   33  C   UNL     1      -9.235   4.762  65.258  1.00  0.00    -0.155 C  
HETATM   34  C   UNL     1      -7.053   5.409  64.154  1.00  0.00    -0.049 C  
HETATM   35  F   UNL     1      -6.406   6.432  63.548  1.00  0.00    -0.025 F  
HETATM   36  F   UNL     1      -7.052   4.373  63.274  1.00  0.00    -0.041 F  
HETATM   37  C   UNL     1      -6.280   4.995  65.383  1.00  0.00    -0.034 C  
HETATM   38  C   UNL     1      -7.061   3.957  66.187  1.00  0.00    -0.064 C  
ENDBRANCH  29  31
ENDBRANCH  20  27
ENDBRANCH  18  19
ENDBRANCH  17  18
ENDBRANCH   8  10
TORSDOF 6
ENDMDL
MODEL      152
REMARK 921   NORMALIZED FREE ENERGY PREDICTED BY IDOCK:   -4.49 KCAL/MOL
REMARK 922        TOTAL FREE ENERGY PREDICTED BY IDOCK:   -7.61 KCAL/MOL
REMARK 923 INTER-LIGAND FREE ENERGY PREDICTED BY IDOCK:   -6.72 KCAL/MOL
REMARK 924 INTRA-LIGAND FREE ENERGY PREDICTED BY IDOCK:   -0.89 KCAL/MOL
REMARK 927      BINDING AFFINITY PREDICTED BY RF-SCORE:    0.00 PKD
ROOT
HETATM    1  C   UNL     1     -12.152  10.917  69.637  1.00  0.00    -0.400 C  
HETATM    2  C   UNL     1     -12.079  10.469  71.108  1.00  0.00    -0.473 C  
HETATM    3  C   UNL     1     -12.102   8.975  71.215  1.00  0.00    -0.314 A  
HETATM    4  C   UNL     1     -13.275  11.022  71.895  1.00  0.00    -0.503 C  
HETATM    5  N   UNL     1     -13.192   8.263  71.019  1.00  0.00     0.018 NA 
HETATM    6  N   UNL     1     -12.988   7.040  71.557  1.00  0.00    -0.382 NA 
HETATM    7  C   UNL     1     -11.747   6.967  71.988  1.00  0.00    -0.300 A  
HETATM    8  N   UNL     1     -11.089   8.146  71.683  1.00  0.00    -0.245 NA 
HETATM    9  C   UNL     1     -11.234   5.763  72.673  1.00  0.00    -0.348 C  
ENDROOT
BRANCH   8  10
HETATM   10  C   UNL     1      -9.685   8.557  71.899  1.00  0.00    -0.287 C  
HETATM   11  C   UNL     1      -8.772   7.582  72.679  1.00  0.00    -0.165 C  
HETATM   12  C   UNL     1      -7.400   7.230  72.073  1.00  0.00    -0.079 C  
HETATM   13  C   UNL     1      -6.427   8.323  72.509  1.00  0.00    -0.088 C  
HETATM   14  C   UNL     1      -6.672   9.415  71.480  1.00  0.00     0.097 C  
HETATM   15  C   UNL     1      -7.550   8.738  70.386  1.00  0.00    -0.082 C  
HETATM   16  C   UNL     1      -9.025   9.112  70.600  1.00  0.00    -0.292 C  
HETATM   17  N   UNL     1      -7.298   7.304  70.596  1.00  0.00    -0.070 NA 
BRANCH  17  18
HETATM   18  C   UNL     1      -8.083   6.269  69.833  1.00  0.00    -0.120 C  
BRANCH  18  19
HETATM   19  C   UNL     1      -7.375   5.406  68.692  1.00  0.00    -0.075 C  
HETATM   20  C   UNL     1      -7.437   5.803  67.120  1.00  0.00    -0.081 C  
BRANCH  20  21
HETATM   21  C   UNL     1      -8.429   5.328  66.013  1.00  0.00    -0.120 A  
HETATM   22  C   UNL     1     -10.317   4.271  64.114  1.00  0.00    -0.019 A  
HETATM   23  C   UNL     1      -9.680   4.748  66.399  1.00  0.00    -0.206 A  
HETATM   24  C   UNL     1      -9.094   4.821  63.708  1.00  0.00    -0.024 A  
HETATM   25  C   UNL     1      -8.163   5.335  64.640  1.00  0.00    -0.134 A  
HETATM   26  C   UNL     1     -10.610   4.233  65.472  1.00  0.00    -0.126 A  
ENDBRANCH  20  21
BRANCH  20  27
HETATM   27  N   UNL     1      -7.177   7.226  66.949  1.00  0.00    -0.085 N  
HETATM   28  H   UNL     1      -6.228   7.559  66.786  1.00  0.00     0.000 HD 
HETATM   29  C   UNL     1      -8.219   8.113  67.007  1.00  0.00    -0.115 C  
HETATM   30  O   UNL     1      -9.364   7.746  67.266  1.00  0.00    -0.137 OA 
BRANCH  29  31
HETATM   31  C   UNL     1      -7.868   9.586  66.858  1.00  0.00    -0.101 C  
HETATM   32  C   UNL     1      -8.554   9.883  64.457  1.00  0.00    -0.198 C  
HETATM   33  C   UNL     1      -7.417  10.026  65.461  1.00  0.00    -0.137 C  
HETATM   34  C   UNL     1      -9.809  10.619  64.895  1.00  0.00    -0.302 C  
HETATM   35  F   UNL     1     -10.820  10.346  64.036  1.00  0.00    -0.155 F  
HETATM   36  F   UNL     1      -9.587  11.957  64.820  1.00  0.00    -0.233 F  
HETATM   37  C   UNL     1     -10.251  10.284  66.299  1.00  0.00    -0.287 C  
HETATM   38  C   UNL     1      -9.086  10.418  67.277  1.00  0.00    -0.146 C  
ENDBRANCH  29  31
ENDBRANCH  20  27
ENDBRANCH  18  19
ENDBRANCH  17  18
ENDBRANCH   8  10
TORSDOF 6
ENDMDL
MODEL      153
REMARK 921   NORMALIZED FREE ENERGY PREDICTED BY IDOCK:   -4.47 KCAL/MOL
REMARK 922        TOTAL FREE ENERGY PREDICTED BY IDOCK:   -7.58 KCAL/MOL
REMARK 923 INTER-LIGAND FREE ENERGY PREDICTED BY IDOCK:   -8.32 KCAL/MOL
REMARK 924 INTRA-LIGAND FREE ENERGY PREDICTED BY IDOCK:    0.74 KCAL/MOL
REMARK 927      BINDING AFFINITY PREDICTED BY RF-SCORE:    0.00 PKD
ROOT
HETATM    1  C   UNL     1      -5.240   8.592  70.986  1.00  0.00    -0.028 C  
HETATM    2  C   UNL     1      -6.211   7.427  71.249  1.00  0.00    -0.036 C  
HETATM    3  C   UNL     1      -7.514   7.927  71.795  1.00  0.00    -0.074 A  
HETATM    4  C   UNL     1      -5.610   6.452  72.271  1.00  0.00    -0.036 C  
HETATM    5  N   UNL     1      -7.650   8.363  73.029  1.00  0.00    -0.298 NA 
HETATM    6  N   UNL     1      -8.969   8.366  73.323  1.00  0.00    -0.280 NA 
HETATM    7  C   UNL     1      -9.645   8.035  72.243  1.00  0.00    -0.223 A  
HETATM    8  N   UNL     1      -8.764   7.860  71.190  1.00  0.00    -0.133 NA 
HETATM    9  C   UNL     1     -11.116   7.905  72.259  1.00  0.00    -0.376 C  
ENDROOT
BRANCH   8  10
HETATM   10  C   UNL     1      -9.004   7.536  69.767  1.00  0.00    -0.141 C  
HETATM   11  C   UNL     1     -10.474   7.346  69.321  1.00  0.00    -0.222 C  
HETATM   12  C   UNL     1     -10.956   8.105  68.071  1.00  0.00     0.192 C  
HETATM   13  C   UNL     1     -10.589   7.248  66.861  1.00  0.00    -0.375 C  
HETATM   14  C   UNL     1      -9.140   7.632  66.612  1.00  0.00    -0.198 C  
HETATM   15  C   UNL     1      -8.899   8.876  67.516  1.00  0.00    -0.130 C  
HETATM   16  C   UNL     1      -8.184   8.449  68.807  1.00  0.00    -0.119 C  
HETATM   17  N   UNL     1     -10.258   9.376  67.766  1.00  0.00    -0.208 NA 
BRANCH  17  18
HETATM   18  C   UNL     1     -10.494  10.502  68.739  1.00  0.00    -0.196 C  
BRANCH  18  19
HETATM   19  C   UNL     1     -11.982  10.942  69.111  1.00  0.00    -0.359 C  
HETATM   20  C   UNL     1     -12.471  12.490  69.103  1.00  0.00     0.400 C  
BRANCH  20  21
HETATM   21  C   UNL     1     -12.524  13.521  70.273  1.00  0.00    -0.309 A  
HETATM   22  C   UNL     1     -12.798  15.296  72.524  1.00  0.00    -0.465 A  
HETATM   23  C   UNL     1     -12.796  13.059  71.600  1.00  0.00    -0.376 A  
HETATM   24  C   UNL     1     -12.546  15.778  71.232  1.00  0.00    -0.504 A  
HETATM   25  C   UNL     1     -12.417  14.908  70.125  1.00  0.00    -0.353 A  
HETATM   26  C   UNL     1     -12.927  13.924  72.707  1.00  0.00    -0.414 A  
ENDBRANCH  20  21
BRANCH  20  27
HETATM   27  N   UNL     1     -12.004  13.160  67.898  1.00  0.00    -0.338 N  
HETATM   28  H   UNL     1     -12.635  13.298  67.109  1.00  0.00     0.000 HD 
HETATM   29  C   UNL     1     -10.710  13.603  67.831  1.00  0.00    -0.247 C  
HETATM   30  O   UNL     1      -9.909  13.392  68.741  1.00  0.00    -0.152 OA 
BRANCH  29  31
HETATM   31  C   UNL     1     -10.280  14.259  66.527  1.00  0.00    -0.277 C  
HETATM   32  C   UNL     1     -10.277  12.208  65.072  1.00  0.00    -0.312 C  
HETATM   33  C   UNL     1      -9.451  13.384  65.581  1.00  0.00     0.100 C  
HETATM   34  C   UNL     1     -11.577  12.652  64.424  1.00  0.00    -0.357 C  
HETATM   35  F   UNL     1     -12.325  11.567  64.113  1.00  0.00    -0.298 F  
HETATM   36  F   UNL     1     -11.296  13.278  63.250  1.00  0.00    -0.346 F  
HETATM   37  C   UNL     1     -12.395  13.587  65.282  1.00  0.00    -0.506 C  
HETATM   38  C   UNL     1     -11.536  14.742  65.792  1.00  0.00    -0.322 C  
ENDBRANCH  29  31
ENDBRANCH  20  27
ENDBRANCH  18  19
ENDBRANCH  17  18
ENDBRANCH   8  10
TORSDOF 6
ENDMDL
MODEL      154
REMARK 921   NORMALIZED FREE ENERGY PREDICTED BY IDOCK:   -4.45 KCAL/MOL
REMARK 922        TOTAL FREE ENERGY PREDICTED BY IDOCK:   -7.56 KCAL/MOL
REMARK 923 INTER-LIGAND FREE ENERGY PREDICTED BY IDOCK:   -6.15 KCAL/MOL
REMARK 924 INTRA-LIGAND FREE ENERGY PREDICTED BY IDOCK:   -1.41 KCAL/MOL
REMARK 927      BINDING AFFINITY PREDICTED BY RF-SCORE:    0.00 PKD
ROOT
HETATM    1  C   UNL     1      -7.789   2.981  71.074  1.00  0.00    -0.047 C  
HETATM    2  C   UNL     1      -7.815   4.278  70.246  1.00  0.00    -0.052 C  
HETATM    3  C   UNL     1      -8.665   4.117  69.022  1.00  0.00    -0.087 A  
HETATM    4  C   UNL     1      -6.396   4.651  69.793  1.00  0.00    -0.027 C  
HETATM    5  N   UNL     1      -8.283   3.417  67.975  1.00  0.00    -0.078 NA 
HETATM    6  N   UNL     1      -9.060   3.779  66.931  1.00  0.00    -0.147 NA 
HETATM    7  C   UNL     1      -9.982   4.616  67.358  1.00  0.00    -0.141 A  
HETATM    8  N   UNL     1      -9.852   4.777  68.726  1.00  0.00    -0.165 NA 
HETATM    9  C   UNL     1     -10.958   5.229  66.435  1.00  0.00    -0.059 C  
ENDROOT
BRANCH   8  10
HETATM   10  C   UNL     1     -10.654   5.560  69.691  1.00  0.00    -0.305 C  
HETATM   11  C   UNL     1     -10.261   5.461  71.185  1.00  0.00    -0.287 C  
HETATM   12  C   UNL     1     -10.086   6.771  71.977  1.00  0.00    -0.182 C  
HETATM   13  C   UNL     1     -11.472   7.176  72.478  1.00  0.00    -0.297 C  
HETATM   14  C   UNL     1     -12.056   7.905  71.279  1.00  0.00    -0.317 C  
HETATM   15  C   UNL     1     -10.853   8.100  70.309  1.00  0.00    -0.244 C  
HETATM   16  C   UNL     1     -10.890   7.024  69.213  1.00  0.00    -0.241 C  
HETATM   17  N   UNL     1      -9.686   7.963  71.192  1.00  0.00    -0.158 NA 
BRANCH  17  18
HETATM   18  C   UNL     1      -8.292   7.932  70.621  1.00  0.00    -0.123 C  
BRANCH  18  19
HETATM   19  C   UNL     1      -7.541   9.295  70.267  1.00  0.00    -0.125 C  
HETATM   20  C   UNL     1      -7.646  10.007  68.812  1.00  0.00    -0.083 C  
BRANCH  20  21
HETATM   21  C   UNL     1      -6.707   9.878  67.572  1.00  0.00    -0.073 A  
HETATM   22  C   UNL     1      -5.143   9.748  65.158  1.00  0.00    -0.046 A  
HETATM   23  C   UNL     1      -6.677  10.935  66.606  1.00  0.00    -0.127 A  
HETATM   24  C   UNL     1      -5.164   8.693  66.080  1.00  0.00    -0.030 A  
HETATM   25  C   UNL     1      -5.936   8.754  67.263  1.00  0.00    -0.047 A  
HETATM   26  C   UNL     1      -5.910  10.877  65.424  1.00  0.00    -0.019 A  
ENDBRANCH  20  21
BRANCH  20  27
HETATM   27  N   UNL     1      -9.030  10.030  68.360  1.00  0.00    -0.119 N  
HETATM   28  H   UNL     1      -9.455   9.192  67.962  1.00  0.00     0.000 HD 
HETATM   29  C   UNL     1      -9.759  11.184  68.475  1.00  0.00    -0.196 C  
HETATM   30  O   UNL     1      -9.254  12.226  68.891  1.00  0.00     0.057 OA 
BRANCH  29  31
HETATM   31  C   UNL     1     -11.186  11.144  67.947  1.00  0.00    -0.365 C  
HETATM   32  C   UNL     1     -11.365  13.540  67.204  1.00  0.00    -0.346 C  
HETATM   33  C   UNL     1     -11.980  12.449  68.073  1.00  0.00    -0.264 C  
HETATM   34  C   UNL     1     -11.222  13.112  65.753  1.00  0.00    -0.286 C  
HETATM   35  F   UNL     1     -10.553  14.064  65.061  1.00  0.00    -0.316 F  
HETATM   36  F   UNL     1     -12.458  13.023  65.194  1.00  0.00    -0.434 F  
HETATM   37  C   UNL     1     -10.520  11.787  65.577  1.00  0.00    -0.311 C  
HETATM   38  C   UNL     1     -11.146  10.722  66.475  1.00  0.00    -0.061 C  
ENDBRANCH  29  31
ENDBRANCH  20  27
ENDBRANCH  18  19
ENDBRANCH  17  18
ENDBRANCH   8  10
TORSDOF 6
ENDMDL
MODEL      155
REMARK 921   NORMALIZED FREE ENERGY PREDICTED BY IDOCK:   -4.40 KCAL/MOL
REMARK 922        TOTAL FREE ENERGY PREDICTED BY IDOCK:   -7.48 KCAL/MOL
REMARK 923 INTER-LIGAND FREE ENERGY PREDICTED BY IDOCK:   -7.69 KCAL/MOL
REMARK 924 INTRA-LIGAND FREE ENERGY PREDICTED BY IDOCK:    0.21 KCAL/MOL
REMARK 927      BINDING AFFINITY PREDICTED BY RF-SCORE:    0.00 PKD
ROOT
HETATM    1  C   UNL     1      -6.152  12.582  67.422  1.00  0.00    -0.155 C  
HETATM    2  C   UNL     1      -7.096  13.461  68.261  1.00  0.00    -0.109 C  
HETATM    3  C   UNL     1      -7.244  14.822  67.652  1.00  0.00    -0.188 A  
HETATM    4  C   UNL     1      -6.543  13.633  69.682  1.00  0.00    -0.040 C  
HETATM    5  N   UNL     1      -6.295  15.733  67.705  1.00  0.00    -0.150 NA 
HETATM    6  N   UNL     1      -6.858  16.931  67.430  1.00  0.00    -0.141 NA 
HETATM    7  C   UNL     1      -8.120  16.743  67.108  1.00  0.00    -0.183 A  
HETATM    8  N   UNL     1      -8.395  15.387  67.115  1.00  0.00    -0.201 NA 
HETATM    9  C   UNL     1      -9.018  17.875  66.800  1.00  0.00    -0.272 C  
ENDROOT
BRANCH   8  10
HETATM   10  C   UNL     1      -9.631  14.645  66.783  1.00  0.00    -0.253 C  
HETATM   11  C   UNL     1      -9.541  13.583  65.661  1.00  0.00    -0.016 C  
HETATM   12  C   UNL     1     -10.110  12.179  65.944  1.00  0.00    -0.245 C  
HETATM   13  C   UNL     1     -11.603  12.233  65.628  1.00  0.00    -0.433 C  
HETATM   14  C   UNL     1     -12.191  12.798  66.911  1.00  0.00    -0.109 C  
HETATM   15  C   UNL     1     -11.023  12.747  67.939  1.00  0.00    -0.234 C  
HETATM   16  C   UNL     1     -10.373  14.135  68.055  1.00  0.00    -0.231 C  
HETATM   17  N   UNL     1     -10.113  11.747  67.361  1.00  0.00    -0.194 NA 
BRANCH  17  18
HETATM   18  C   UNL     1      -8.759  11.500  67.974  1.00  0.00    -0.151 C  
BRANCH  18  19
HETATM   19  C   UNL     1      -8.643  10.904  69.450  1.00  0.00     0.092 C  
HETATM   20  C   UNL     1      -9.457   9.586  69.935  1.00  0.00    -0.222 C  
BRANCH  20  21
HETATM   21  C   UNL     1     -10.836   9.480  70.657  1.00  0.00    -0.371 A  
HETATM   22  C   UNL     1     -13.354   9.510  72.053  1.00  0.00    -0.535 A  
HETATM   23  C   UNL     1     -11.718  10.609  70.649  1.00  0.00    -0.454 A  
HETATM   24  C   UNL     1     -12.505   8.396  72.089  1.00  0.00    -0.422 A  
HETATM   25  C   UNL     1     -11.266   8.382  71.409  1.00  0.00    -0.316 A  
HETATM   26  C   UNL     1     -12.954  10.626  71.328  1.00  0.00    -0.513 A  
ENDBRANCH  20  21
BRANCH  20  27
HETATM   27  N   UNL     1      -9.364   8.538  68.929  1.00  0.00    -0.146 N  
HETATM   28  H   UNL     1     -10.018   8.516  68.147  1.00  0.00     0.000 HD 
HETATM   29  C   UNL     1      -8.391   7.580  69.040  1.00  0.00    -0.129 C  
HETATM   30  O   UNL     1      -7.630   7.544  70.007  1.00  0.00    -0.085 OA 
BRANCH  29  31
HETATM   31  C   UNL     1      -8.378   6.494  67.974  1.00  0.00    -0.116 C  
HETATM   32  C   UNL     1      -8.028   4.510  69.480  1.00  0.00    -0.061 C  
HETATM   33  C   UNL     1      -7.497   5.276  68.274  1.00  0.00    -0.076 C  
HETATM   34  C   UNL     1      -9.487   4.118  69.319  1.00  0.00    -0.188 C  
HETATM   35  F   UNL     1      -9.938   3.562  70.469  1.00  0.00    -0.252 F  
HETATM   36  F   UNL     1      -9.585   3.159  68.361  1.00  0.00    -0.233 F  
HETATM   37  C   UNL     1     -10.387   5.269  68.940  1.00  0.00    -0.228 C  
HETATM   38  C   UNL     1      -9.819   6.026  67.742  1.00  0.00    -0.129 C  
ENDBRANCH  29  31
ENDBRANCH  20  27
ENDBRANCH  18  19
ENDBRANCH  17  18
ENDBRANCH   8  10
TORSDOF 6
ENDMDL
MODEL      156
REMARK 921   NORMALIZED FREE ENERGY PREDICTED BY IDOCK:   -4.36 KCAL/MOL
REMARK 922        TOTAL FREE ENERGY PREDICTED BY IDOCK:   -7.42 KCAL/MOL
REMARK 923 INTER-LIGAND FREE ENERGY PREDICTED BY IDOCK:   -6.11 KCAL/MOL
REMARK 924 INTRA-LIGAND FREE ENERGY PREDICTED BY IDOCK:   -1.32 KCAL/MOL
REMARK 927      BINDING AFFINITY PREDICTED BY RF-SCORE:    0.00 PKD
ROOT
HETATM    1  C   UNL     1     -10.951   6.480  66.947  1.00  0.00    -0.408 C  
HETATM    2  C   UNL     1     -10.179   7.195  68.070  1.00  0.00    -0.223 C  
HETATM    3  C   UNL     1     -10.624   6.714  69.418  1.00  0.00    -0.240 A  
HETATM    4  C   UNL     1     -10.420   8.710  68.003  1.00  0.00    -0.254 C  
HETATM    5  N   UNL     1     -11.779   7.052  69.951  1.00  0.00    -0.138 NA 
HETATM    6  N   UNL     1     -11.713   6.795  71.276  1.00  0.00    -0.318 NA 
HETATM    7  C   UNL     1     -10.566   6.205  71.537  1.00  0.00    -0.239 A  
HETATM    8  N   UNL     1      -9.872   6.015  70.355  1.00  0.00    -0.175 NA 
HETATM    9  C   UNL     1     -10.179   5.839  72.915  1.00  0.00    -0.214 C  
ENDROOT
BRANCH   8  10
HETATM   10  C   UNL     1      -8.571   5.363  70.087  1.00  0.00    -0.119 C  
HETATM   11  C   UNL     1      -8.411   4.628  68.735  1.00  0.00    -0.092 C  
HETATM   12  C   UNL     1      -7.164   4.935  67.885  1.00  0.00    -0.070 C  
HETATM   13  C   UNL     1      -6.046   4.026  68.391  1.00  0.00    -0.031 C  
HETATM   14  C   UNL     1      -5.503   4.800  69.581  1.00  0.00    -0.008 C  
HETATM   15  C   UNL     1      -6.165   6.206  69.474  1.00  0.00    -0.033 C  
HETATM   16  C   UNL     1      -7.365   6.288  70.430  1.00  0.00    -0.089 C  
HETATM   17  N   UNL     1      -6.566   6.280  68.062  1.00  0.00    -0.059 NA 
BRANCH  17  18
HETATM   18  C   UNL     1      -7.392   7.435  67.560  1.00  0.00    -0.102 C  
BRANCH  18  19
HETATM   19  C   UNL     1      -6.986   8.185  66.211  1.00  0.00    -0.062 C  
HETATM   20  C   UNL     1      -7.351   9.740  65.923  1.00  0.00    -0.103 C  
BRANCH  20  21
HETATM   21  C   UNL     1      -8.577  10.351  65.175  1.00  0.00    -0.189 A  
HETATM   22  C   UNL     1     -10.707  11.477  63.598  1.00  0.00    -0.491 A  
HETATM   23  C   UNL     1      -8.841   9.953  63.825  1.00  0.00    -0.254 A  
HETATM   24  C   UNL     1     -10.463  11.895  64.913  1.00  0.00    -0.331 A  
HETATM   25  C   UNL     1      -9.415  11.347  65.686  1.00  0.00    -0.253 A  
HETATM   26  C   UNL     1      -9.885  10.499  63.049  1.00  0.00    -0.267 A  
ENDBRANCH  20  21
BRANCH  20  27
HETATM   27  N   UNL     1      -7.055  10.553  67.094  1.00  0.00    -0.088 N  
HETATM   28  H   UNL     1      -7.617  10.460  67.939  1.00  0.00     0.000 HD 
HETATM   29  C   UNL     1      -6.014  11.443  67.052  1.00  0.00    -0.112 C  
HETATM   30  O   UNL     1      -5.361  11.622  66.026  1.00  0.00    -0.295 OA 
BRANCH  29  31
HETATM   31  C   UNL     1      -5.788  12.285  68.299  1.00  0.00    -0.057 C  
HETATM   32  C   UNL     1      -6.824  14.427  67.485  1.00  0.00    -0.162 C  
HETATM   33  C   UNL     1      -5.568  13.783  68.061  1.00  0.00    -0.127 C  
HETATM   34  C   UNL     1      -8.052  14.172  68.344  1.00  0.00    -0.144 C  
HETATM   35  F   UNL     1      -9.153  14.650  67.717  1.00  0.00    -0.177 F  
HETATM   36  F   UNL     1      -7.932  14.870  69.504  1.00  0.00    -0.181 F  
HETATM   37  C   UNL     1      -8.266  12.716  68.679  1.00  0.00     0.008 C  
HETATM   38  C   UNL     1      -6.986  12.096  69.235  1.00  0.00    -0.010 C  
ENDBRANCH  29  31
ENDBRANCH  20  27
ENDBRANCH  18  19
ENDBRANCH  17  18
ENDBRANCH   8  10
TORSDOF 6
ENDMDL
MODEL      157
REMARK 921   NORMALIZED FREE ENERGY PREDICTED BY IDOCK:   -4.31 KCAL/MOL
REMARK 922        TOTAL FREE ENERGY PREDICTED BY IDOCK:   -7.37 KCAL/MOL
REMARK 923 INTER-LIGAND FREE ENERGY PREDICTED BY IDOCK:   -6.18 KCAL/MOL
REMARK 924 INTRA-LIGAND FREE ENERGY PREDICTED BY IDOCK:   -1.19 KCAL/MOL
REMARK 927      BINDING AFFINITY PREDICTED BY RF-SCORE:    0.00 PKD
ROOT
HETATM    1  C   UNL     1      -8.438   7.903  74.110  1.00  0.00    -0.312 C  
HETATM    2  C   UNL     1      -7.549   7.574  72.898  1.00  0.00    -0.105 C  
HETATM    3  C   UNL     1      -7.159   6.126  72.896  1.00  0.00    -0.080 A  
HETATM    4  C   UNL     1      -6.265   8.412  72.934  1.00  0.00    -0.091 C  
HETATM    5  N   UNL     1      -6.269   5.627  73.727  1.00  0.00    -0.061 NA 
HETATM    6  N   UNL     1      -5.864   4.437  73.231  1.00  0.00    -0.008 NA 
HETATM    7  C   UNL     1      -6.576   4.159  72.160  1.00  0.00    -0.022 A  
HETATM    8  N   UNL     1      -7.515   5.157  71.965  1.00  0.00    -0.090 NA 
HETATM    9  C   UNL     1      -6.333   2.940  71.363  1.00  0.00    -0.018 C  
ENDROOT
BRANCH   8  10
HETATM   10  C   UNL     1      -8.580   5.303  70.949  1.00  0.00    -0.128 C  
HETATM   11  C   UNL     1      -9.851   6.082  71.362  1.00  0.00    -0.204 C  
HETATM   12  C   UNL     1     -10.355   7.198  70.426  1.00  0.00    -0.203 C  
HETATM   13  C   UNL     1     -11.234   6.530  69.371  1.00  0.00    -0.418 C  
HETATM   14  C   UNL     1     -10.217   6.046  68.351  1.00  0.00    -0.220 C  
HETATM   15  C   UNL     1      -8.881   6.729  68.769  1.00  0.00    -0.131 C  
HETATM   16  C   UNL     1      -8.017   5.735  69.562  1.00  0.00    -0.097 C  
HETATM   17  N   UNL     1      -9.328   7.863  69.590  1.00  0.00    -0.153 NA 
BRANCH  17  18
HETATM   18  C   UNL     1      -8.330   8.713  70.331  1.00  0.00    -0.130 C  
BRANCH  18  19
HETATM   19  C   UNL     1      -7.613   9.935  69.596  1.00  0.00    -0.136 C  
HETATM   20  C   UNL     1      -8.114  10.520  68.167  1.00  0.00    -0.113 C  
BRANCH  20  21
HETATM   21  C   UNL     1      -7.636  10.165  66.725  1.00  0.00    -0.105 A  
HETATM   22  C   UNL     1      -6.680   9.733  64.044  1.00  0.00    -0.120 A  
HETATM   23  C   UNL     1      -6.431  10.754  66.224  1.00  0.00    -0.134 A  
HETATM   24  C   UNL     1      -7.870   9.155  64.503  1.00  0.00    -0.120 A  
HETATM   25  C   UNL     1      -8.344   9.370  65.817  1.00  0.00    -0.126 A  
HETATM   26  C   UNL     1      -5.956  10.542  64.912  1.00  0.00    -0.087 A  
ENDBRANCH  20  21
BRANCH  20  27
HETATM   27  N   UNL     1      -9.562  10.672  68.165  1.00  0.00    -0.153 N  
HETATM   28  H   UNL     1     -10.165   9.851  68.119  1.00  0.00     0.000 HD 
HETATM   29  C   UNL     1     -10.109  11.927  68.225  1.00  0.00    -0.203 C  
HETATM   30  O   UNL     1      -9.406  12.937  68.215  1.00  0.00    -0.209 OA 
BRANCH  29  31
HETATM   31  C   UNL     1     -11.628  12.011  68.179  1.00  0.00    -0.403 C  
HETATM   32  C   UNL     1     -12.078  11.797  70.644  1.00  0.00    -0.407 C  
HETATM   33  C   UNL     1     -12.372  11.223  69.263  1.00  0.00    -0.172 C  
HETATM   34  C   UNL     1     -12.379  13.284  70.730  1.00  0.00    -0.344 C  
HETATM   35  F   UNL     1     -11.975  13.762  71.930  1.00  0.00    -0.199 F  
HETATM   36  F   UNL     1     -13.725  13.467  70.672  1.00  0.00     0.070 F  
HETATM   37  C   UNL     1     -11.737  14.097  69.632  1.00  0.00    -0.372 C  
HETATM   38  C   UNL     1     -12.033  13.487  68.264  1.00  0.00    -0.377 C  
ENDBRANCH  29  31
ENDBRANCH  20  27
ENDBRANCH  18  19
ENDBRANCH  17  18
ENDBRANCH   8  10
TORSDOF 6
ENDMDL
MODEL      158
REMARK 921   NORMALIZED FREE ENERGY PREDICTED BY IDOCK:   -4.30 KCAL/MOL
REMARK 922        TOTAL FREE ENERGY PREDICTED BY IDOCK:   -7.34 KCAL/MOL
REMARK 923 INTER-LIGAND FREE ENERGY PREDICTED BY IDOCK:   -5.91 KCAL/MOL
REMARK 924 INTRA-LIGAND FREE ENERGY PREDICTED BY IDOCK:   -1.43 KCAL/MOL
REMARK 927      BINDING AFFINITY PREDICTED BY RF-SCORE:    0.00 PKD
ROOT
HETATM    1  C   UNL     1      -8.503   5.700  66.675  1.00  0.00    -0.113 C  
HETATM    2  C   UNL     1      -9.662   4.764  67.059  1.00  0.00    -0.205 C  
HETATM    3  C   UNL     1      -9.226   3.763  68.086  1.00  0.00    -0.163 A  
HETATM    4  C   UNL     1     -10.157   3.994  65.826  1.00  0.00    -0.112 C  
HETATM    5  N   UNL     1      -8.450   2.740  67.800  1.00  0.00    -0.081 NA 
HETATM    6  N   UNL     1      -8.561   1.844  68.806  1.00  0.00    -0.059 NA 
HETATM    7  C   UNL     1      -9.318   2.359  69.752  1.00  0.00    -0.098 A  
HETATM    8  N   UNL     1      -9.676   3.648  69.397  1.00  0.00    -0.114 NA 
HETATM    9  C   UNL     1      -9.665   1.596  70.967  1.00  0.00    -0.172 C  
ENDROOT
BRANCH   8  10
HETATM   10  C   UNL     1     -10.467   4.669  70.117  1.00  0.00     0.183 C  
HETATM   11  C   UNL     1      -9.956   5.108  71.511  1.00  0.00    -0.248 C  
HETATM   12  C   UNL     1      -9.834   6.617  71.796  1.00  0.00    -0.161 C  
HETATM   13  C   UNL     1     -11.207   7.094  72.266  1.00  0.00    -0.297 C  
HETATM   14  C   UNL     1     -11.938   7.337  70.956  1.00  0.00    -0.362 C  
HETATM   15  C   UNL     1     -10.832   7.253  69.863  1.00  0.00    -0.247 C  
HETATM   16  C   UNL     1     -10.860   5.867  69.201  1.00  0.00    -0.406 C  
HETATM   17  N   UNL     1      -9.595   7.488  70.622  1.00  0.00    -0.171 NA 
BRANCH  17  18
HETATM   18  C   UNL     1      -8.250   7.339  69.959  1.00  0.00    -0.132 C  
BRANCH  18  19
HETATM   19  C   UNL     1      -7.424   8.633  69.521  1.00  0.00    -0.072 C  
HETATM   20  C   UNL     1      -7.791   9.510  68.206  1.00  0.00    -0.086 C  
BRANCH  20  21
HETATM   21  C   UNL     1      -7.227   9.408  66.754  1.00  0.00    -0.083 A  
HETATM   22  C   UNL     1      -6.033   9.393  64.134  1.00  0.00    -0.078 A  
HETATM   23  C   UNL     1      -5.821   9.581  66.538  1.00  0.00    -0.055 A  
HETATM   24  C   UNL     1      -7.414   9.235  64.316  1.00  0.00    -0.107 A  
HETATM   25  C   UNL     1      -8.002   9.248  65.601  1.00  0.00    -0.103 A  
HETATM   26  C   UNL     1      -5.232   9.570  65.256  1.00  0.00    -0.040 A  
ENDBRANCH  20  21
BRANCH  20  27
HETATM   27  N   UNL     1      -9.226   9.749  68.143  1.00  0.00    -0.129 N  
HETATM   28  H   UNL     1      -9.850   9.034  67.770  1.00  0.00     0.000 HD 
HETATM   29  C   UNL     1      -9.731  10.941  68.589  1.00  0.00    -0.185 C  
HETATM   30  O   UNL     1      -8.997  11.846  68.983  1.00  0.00     0.095 OA 
BRANCH  29  31
HETATM   31  C   UNL     1     -11.235  11.135  68.458  1.00  0.00    -0.318 C  
HETATM   32  C   UNL     1     -11.244  13.611  68.013  1.00  0.00    -0.295 C  
HETATM   33  C   UNL     1     -11.773  12.497  68.910  1.00  0.00    -0.367 C  
HETATM   34  C   UNL     1     -11.533  13.357  66.543  1.00  0.00    -0.341 C  
HETATM   35  F   UNL     1     -10.927  14.304  65.790  1.00  0.00    -0.290 F  
HETATM   36  F   UNL     1     -12.869  13.484  66.326  1.00  0.00    -0.379 F  
HETATM   37  C   UNL     1     -11.098  11.992  66.066  1.00  0.00    -0.364 C  
HETATM   38  C   UNL     1     -11.627  10.902  66.994  1.00  0.00     0.242 C  
ENDBRANCH  29  31
ENDBRANCH  20  27
ENDBRANCH  18  19
ENDBRANCH  17  18
ENDBRANCH   8  10
TORSDOF 6
ENDMDL
MODEL      159
REMARK 921   NORMALIZED FREE ENERGY PREDICTED BY IDOCK:   -4.29 KCAL/MOL
REMARK 922        TOTAL FREE ENERGY PREDICTED BY IDOCK:   -7.33 KCAL/MOL
REMARK 923 INTER-LIGAND FREE ENERGY PREDICTED BY IDOCK:   -5.52 KCAL/MOL
REMARK 924 INTRA-LIGAND FREE ENERGY PREDICTED BY IDOCK:   -1.81 KCAL/MOL
REMARK 927      BINDING AFFINITY PREDICTED BY RF-SCORE:    0.00 PKD
ROOT
HETATM    1  C   UNL     1      -8.893   7.960  73.954  1.00  0.00    -0.315 C  
HETATM    2  C   UNL     1      -7.968   7.507  72.811  1.00  0.00    -0.125 C  
HETATM    3  C   UNL     1      -7.695   6.036  72.893  1.00  0.00    -0.102 A  
HETATM    4  C   UNL     1      -6.624   8.245  72.888  1.00  0.00    -0.107 C  
HETATM    5  N   UNL     1      -6.894   5.508  73.795  1.00  0.00    -0.079 NA 
HETATM    6  N   UNL     1      -6.558   4.269  73.373  1.00  0.00    -0.049 NA 
HETATM    7  C   UNL     1      -7.230   3.997  72.275  1.00  0.00    -0.057 A  
HETATM    8  N   UNL     1      -8.074   5.055  71.984  1.00  0.00    -0.110 NA 
HETATM    9  C   UNL     1      -7.041   2.727  71.545  1.00  0.00    -0.032 C  
ENDROOT
BRANCH   8  10
HETATM   10  C   UNL     1      -9.066   5.236  70.902  1.00  0.00    -0.138 C  
HETATM   11  C   UNL     1     -10.171   6.296  71.122  1.00  0.00    -0.238 C  
HETATM   12  C   UNL     1     -10.425   7.323  70.003  1.00  0.00    -0.224 C  
HETATM   13  C   UNL     1     -11.393   6.674  69.015  1.00  0.00    -0.235 C  
HETATM   14  C   UNL     1     -10.466   5.851  68.136  1.00  0.00    -0.291 C  
HETATM   15  C   UNL     1      -9.033   6.327  68.517  1.00  0.00    -0.123 C  
HETATM   16  C   UNL     1      -8.398   5.327  69.497  1.00  0.00    -0.095 C  
HETATM   17  N   UNL     1      -9.269   7.642  69.131  1.00  0.00    -0.142 NA 
BRANCH  17  18
HETATM   18  C   UNL     1      -8.142   8.394  69.788  1.00  0.00    -0.117 C  
BRANCH  18  19
HETATM   19  C   UNL     1      -6.851   8.802  68.943  1.00  0.00    -0.061 C  
HETATM   20  C   UNL     1      -6.847   8.883  67.322  1.00  0.00    -0.077 C  
BRANCH  20  21
HETATM   21  C   UNL     1      -6.441   7.801  66.274  1.00  0.00    -0.046 A  
HETATM   22  C   UNL     1      -5.516   5.740  64.488  1.00  0.00    -0.017 A  
HETATM   23  C   UNL     1      -5.965   6.530  66.731  1.00  0.00    -0.025 A  
HETATM   24  C   UNL     1      -5.964   6.981  64.013  1.00  0.00    -0.036 A  
HETATM   25  C   UNL     1      -6.413   7.995  64.889  1.00  0.00    -0.048 A  
HETATM   26  C   UNL     1      -5.514   5.516  65.859  1.00  0.00    -0.013 A  
ENDBRANCH  20  21
BRANCH  20  27
HETATM   27  N   UNL     1      -8.034   9.581  66.850  1.00  0.00    -0.108 N  
HETATM   28  H   UNL     1      -8.896   9.066  66.670  1.00  0.00     0.000 HD 
HETATM   29  C   UNL     1      -7.986  10.935  66.649  1.00  0.00    -0.148 C  
HETATM   30  O   UNL     1      -6.943  11.571  66.795  1.00  0.00    -0.137 OA 
BRANCH  29  31
HETATM   31  C   UNL     1      -9.252  11.591  66.118  1.00  0.00    -0.230 C  
HETATM   32  C   UNL     1     -10.914  10.437  67.611  1.00  0.00    -0.374 C  
HETATM   33  C   UNL     1     -10.520  10.732  66.168  1.00  0.00    -0.278 C  
HETATM   34  C   UNL     1     -11.063  11.701  68.441  1.00  0.00    -0.234 C  
HETATM   35  F   UNL     1     -11.281  11.372  69.736  1.00  0.00    -0.288 F  
HETATM   36  F   UNL     1     -12.165  12.377  68.022  1.00  0.00    -0.387 F  
HETATM   37  C   UNL     1      -9.873  12.625  68.358  1.00  0.00    -0.200 C  
HETATM   38  C   UNL     1      -9.492  12.886  66.903  1.00  0.00    -0.237 C  
ENDBRANCH  29  31
ENDBRANCH  20  27
ENDBRANCH  18  19
ENDBRANCH  17  18
ENDBRANCH   8  10
TORSDOF 6
ENDMDL
MODEL      160
REMARK 921   NORMALIZED FREE ENERGY PREDICTED BY IDOCK:   -4.27 KCAL/MOL
REMARK 922        TOTAL FREE ENERGY PREDICTED BY IDOCK:   -7.31 KCAL/MOL
REMARK 923 INTER-LIGAND FREE ENERGY PREDICTED BY IDOCK:   -6.52 KCAL/MOL
REMARK 924 INTRA-LIGAND FREE ENERGY PREDICTED BY IDOCK:   -0.78 KCAL/MOL
REMARK 927      BINDING AFFINITY PREDICTED BY RF-SCORE:    0.00 PKD
ROOT
HETATM    1  C   UNL     1     -10.578  10.749  63.706  1.00  0.00    -0.116 C  
HETATM    2  C   UNL     1     -10.499  12.150  64.338  1.00  0.00    -0.352 C  
HETATM    3  C   UNL     1     -10.880  12.107  65.787  1.00  0.00    -0.281 A  
HETATM    4  C   UNL     1     -11.456  13.113  63.622  1.00  0.00    -0.376 C  
HETATM    5  N   UNL     1     -12.123  11.958  66.193  1.00  0.00    -0.427 NA 
HETATM    6  N   UNL     1     -12.184  12.344  67.486  1.00  0.00    -0.363 NA 
HETATM    7  C   UNL     1     -10.968  12.629  67.902  1.00  0.00    -0.230 A  
HETATM    8  N   UNL     1     -10.067  12.376  66.882  1.00  0.00    -0.218 NA 
HETATM    9  C   UNL     1     -10.713  13.129  69.268  1.00  0.00     0.022 C  
ENDROOT
BRANCH   8  10
HETATM   10  C   UNL     1      -8.593  12.480  66.842  1.00  0.00    -0.158 C  
HETATM   11  C   UNL     1      -7.878  12.936  68.136  1.00  0.00    -0.147 C  
HETATM   12  C   UNL     1      -6.686  12.100  68.640  1.00  0.00    -0.081 C  
HETATM   13  C   UNL     1      -5.446  12.603  67.904  1.00  0.00    -0.099 C  
HETATM   14  C   UNL     1      -5.508  11.839  66.591  1.00  0.00    -0.059 C  
HETATM   15  C   UNL     1      -6.612  10.762  66.811  1.00  0.00    -0.105 C  
HETATM   16  C   UNL     1      -7.931  11.234  66.180  1.00  0.00    -0.038 C  
HETATM   17  N   UNL     1      -6.694  10.663  68.276  1.00  0.00    -0.063 NA 
BRANCH  17  18
HETATM   18  C   UNL     1      -7.765   9.828  68.928  1.00  0.00    -0.082 C  
BRANCH  18  19
HETATM   19  C   UNL     1      -8.848   9.072  68.033  1.00  0.00    -0.129 C  
HETATM   20  C   UNL     1      -8.878   7.458  67.860  1.00  0.00    -0.132 C  
BRANCH  20  21
HETATM   21  C   UNL     1      -8.234   6.565  66.754  1.00  0.00    -0.110 A  
HETATM   22  C   UNL     1      -6.877   4.863  64.869  1.00  0.00    -0.049 A  
HETATM   23  C   UNL     1      -7.610   5.331  67.127  1.00  0.00    -0.092 A  
HETATM   24  C   UNL     1      -7.467   6.073  64.478  1.00  0.00    -0.081 A  
HETATM   25  C   UNL     1      -8.129   6.912  65.403  1.00  0.00    -0.133 A  
HETATM   26  C   UNL     1      -6.948   4.492  66.206  1.00  0.00    -0.063 A  
ENDBRANCH  20  21
BRANCH  20  27
HETATM   27  N   UNL     1      -8.709   6.810  69.153  1.00  0.00    -0.131 N  
HETATM   28  H   UNL     1      -7.802   6.819  69.618  1.00  0.00     0.000 HD 
HETATM   29  C   UNL     1      -9.779   6.188  69.740  1.00  0.00    -0.157 C  
HETATM   30  O   UNL     1     -10.867   6.105  69.173  1.00  0.00    -0.278 OA 
BRANCH  29  31
HETATM   31  C   UNL     1      -9.520   5.499  71.072  1.00  0.00    -0.203 C  
HETATM   32  C   UNL     1      -9.499   7.540  72.540  1.00  0.00    -0.207 C  
HETATM   33  C   UNL     1      -8.718   6.309  72.097  1.00  0.00    -0.133 C  
HETATM   34  C   UNL     1     -10.882   7.192  73.064  1.00  0.00    -0.328 C  
HETATM   35  F   UNL     1     -11.574   8.328  73.314  1.00  0.00    -0.323 F  
HETATM   36  F   UNL     1     -10.756   6.544  74.252  1.00  0.00    -0.307 F  
HETATM   37  C   UNL     1     -11.685   6.322  72.126  1.00  0.00    -0.368 C  
HETATM   38  C   UNL     1     -10.869   5.108  71.686  1.00  0.00    -0.124 C  
ENDBRANCH  29  31
ENDBRANCH  20  27
ENDBRANCH  18  19
ENDBRANCH  17  18
ENDBRANCH   8  10
TORSDOF 6
ENDMDL
MODEL      161
REMARK 921   NORMALIZED FREE ENERGY PREDICTED BY IDOCK:   -4.23 KCAL/MOL
REMARK 922        TOTAL FREE ENERGY PREDICTED BY IDOCK:   -7.26 KCAL/MOL
REMARK 923 INTER-LIGAND FREE ENERGY PREDICTED BY IDOCK:   -5.43 KCAL/MOL
REMARK 924 INTRA-LIGAND FREE ENERGY PREDICTED BY IDOCK:   -1.83 KCAL/MOL
REMARK 927      BINDING AFFINITY PREDICTED BY RF-SCORE:    0.00 PKD
ROOT
HETATM    1  C   UNL     1      -5.135   9.256  65.278  1.00  0.00    -0.036 C  
HETATM    2  C   UNL     1      -6.254   9.964  66.061  1.00  0.00    -0.074 C  
HETATM    3  C   UNL     1      -7.518   9.158  66.039  1.00  0.00    -0.095 A  
HETATM    4  C   UNL     1      -6.555  11.336  65.442  1.00  0.00     0.638 C  
HETATM    5  N   UNL     1      -8.282   9.060  64.972  1.00  0.00    -0.143 NA 
HETATM    6  N   UNL     1      -9.493   8.614  65.372  1.00  0.00     0.020 NA 
HETATM    7  C   UNL     1      -9.442   8.340  66.659  1.00  0.00    -0.209 A  
HETATM    8  N   UNL     1      -8.155   8.556  67.118  1.00  0.00    -0.104 NA 
HETATM    9  C   UNL     1     -10.632   7.876  67.400  1.00  0.00    -0.342 C  
ENDROOT
BRANCH   8  10
HETATM   10  C   UNL     1      -7.556   8.356  68.456  1.00  0.00    -0.096 C  
HETATM   11  C   UNL     1      -6.018   8.482  68.571  1.00  0.00    -0.045 C  
HETATM   12  C   UNL     1      -5.445   9.382  69.682  1.00  0.00    -0.034 C  
HETATM   13  C   UNL     1      -5.363   8.529  70.947  1.00  0.00    -0.028 C  
HETATM   14  C   UNL     1      -6.773   8.631  71.505  1.00  0.00    -0.078 C  
HETATM   15  C   UNL     1      -7.450   9.757  70.670  1.00  0.00    -0.025 C  
HETATM   16  C   UNL     1      -8.321   9.134  69.568  1.00  0.00    -0.126 C  
HETATM   17  N   UNL     1      -6.305  10.503  70.126  1.00  0.00    -0.117 NA 
BRANCH  17  18
HETATM   18  C   UNL     1      -6.518  11.604  69.120  1.00  0.00    -0.095 C  
BRANCH  18  19
HETATM   19  C   UNL     1      -7.343  12.910  69.522  1.00  0.00     0.486 C  
HETATM   20  C   UNL     1      -8.061  13.870  68.427  1.00  0.00    -0.145 C  
BRANCH  20  21
HETATM   21  C   UNL     1      -7.525  15.163  67.737  1.00  0.00    -0.179 A  
HETATM   22  C   UNL     1      -6.666  17.489  66.274  1.00  0.00    -0.309 A  
HETATM   23  C   UNL     1      -8.394  15.905  66.873  1.00  0.00    -0.281 A  
HETATM   24  C   UNL     1      -5.790  16.775  67.102  1.00  0.00    -0.206 A  
HETATM   25  C   UNL     1      -6.209  15.630  67.817  1.00  0.00    -0.179 A  
HETATM   26  C   UNL     1      -7.978  17.047  66.157  1.00  0.00    -0.299 A  
ENDBRANCH  20  21
BRANCH  20  27
HETATM   27  N   UNL     1      -8.777  13.069  67.446  1.00  0.00    -0.195 N  
HETATM   28  H   UNL     1      -8.267  12.569  66.718  1.00  0.00     0.000 HD 
HETATM   29  C   UNL     1     -10.143  12.990  67.507  1.00  0.00    -0.218 C  
HETATM   30  O   UNL     1     -10.789  13.633  68.333  1.00  0.00    -0.241 OA 
BRANCH  29  31
HETATM   31  C   UNL     1     -10.828  12.165  66.426  1.00  0.00    -0.306 C  
HETATM   32  C   UNL     1     -12.632  13.804  65.807  1.00  0.00    -0.525 C  
HETATM   33  C   UNL     1     -12.337  12.384  66.276  1.00  0.00     0.183 C  
HETATM   34  C   UNL     1     -11.888  14.158  64.530  1.00  0.00    -0.436 C  
HETATM   35  F   UNL     1     -12.082  15.465  64.237  1.00  0.00    -0.458 F  
HETATM   36  F   UNL     1     -12.414  13.446  63.499  1.00  0.00    -0.491 F  
HETATM   37  C   UNL     1     -10.405  13.881  64.596  1.00  0.00    -0.366 C  
HETATM   38  C   UNL     1     -10.142  12.459  65.087  1.00  0.00    -0.276 C  
ENDBRANCH  29  31
ENDBRANCH  20  27
ENDBRANCH  18  19
ENDBRANCH  17  18
ENDBRANCH   8  10
TORSDOF 6
ENDMDL
MODEL      162
REMARK 921   NORMALIZED FREE ENERGY PREDICTED BY IDOCK:   -4.15 KCAL/MOL
REMARK 922        TOTAL FREE ENERGY PREDICTED BY IDOCK:   -7.14 KCAL/MOL
REMARK 923 INTER-LIGAND FREE ENERGY PREDICTED BY IDOCK:   -6.87 KCAL/MOL
REMARK 924 INTRA-LIGAND FREE ENERGY PREDICTED BY IDOCK:   -0.26 KCAL/MOL
REMARK 927      BINDING AFFINITY PREDICTED BY RF-SCORE:    0.00 PKD
ROOT
HETATM    1  C   UNL     1     -11.662   8.519  72.173  1.00  0.00    -0.448 C  
HETATM    2  C   UNL     1     -10.888   7.273  71.709  1.00  0.00    -0.251 C  
HETATM    3  C   UNL     1     -10.925   7.144  70.216  1.00  0.00    -0.263 A  
HETATM    4  C   UNL     1     -11.507   6.004  72.311  1.00  0.00    -0.364 C  
HETATM    5  N   UNL     1     -11.999   6.761  69.559  1.00  0.00     0.078 NA 
HETATM    6  N   UNL     1     -11.612   6.376  68.323  1.00  0.00     0.214 NA 
HETATM    7  C   UNL     1     -10.325   6.619  68.186  1.00  0.00    -0.190 A  
HETATM    8  N   UNL     1      -9.852   7.229  69.335  1.00  0.00    -0.162 NA 
HETATM    9  C   UNL     1      -9.596   6.261  66.953  1.00  0.00    -0.173 C  
ENDROOT
BRANCH   8  10
HETATM   10  C   UNL     1      -8.510   7.747  69.676  1.00  0.00    -0.133 C  
HETATM   11  C   UNL     1      -7.633   8.268  68.513  1.00  0.00    -0.100 C  
HETATM   12  C   UNL     1      -6.977   9.654  68.664  1.00  0.00    -0.064 C  
HETATM   13  C   UNL     1      -5.665   9.445  69.418  1.00  0.00    -0.034 C  
HETATM   14  C   UNL     1      -6.117   9.432  70.869  1.00  0.00    -0.069 C  
HETATM   15  C   UNL     1      -7.596   9.918  70.828  1.00  0.00     0.268 C  
HETATM   16  C   UNL     1      -8.542   8.710  70.901  1.00  0.00    -0.204 C  
HETATM   17  N   UNL     1      -7.681  10.621  69.539  1.00  0.00    -0.138 NA 
BRANCH  17  18
HETATM   18  C   UNL     1      -9.005  11.124  69.027  1.00  0.00    -0.015 C  
BRANCH  18  19
HETATM   19  C   UNL     1      -9.097  12.540  68.297  1.00  0.00    -0.183 C  
HETATM   20  C   UNL     1     -10.481  13.129  67.688  1.00  0.00    -0.221 C  
BRANCH  20  21
HETATM   21  C   UNL     1     -11.050  13.029  66.238  1.00  0.00    -0.314 A  
HETATM   22  C   UNL     1     -12.302  12.938  63.647  1.00  0.00    -0.520 A  
HETATM   23  C   UNL     1     -11.920  14.060  65.757  1.00  0.00    -0.417 A  
HETATM   24  C   UNL     1     -11.466  11.908  64.098  1.00  0.00    -0.449 A  
HETATM   25  C   UNL     1     -10.855  11.949  65.372  1.00  0.00    -0.343 A  
HETATM   26  C   UNL     1     -12.533  14.022  64.486  1.00  0.00    -0.342 A  
ENDBRANCH  20  21
BRANCH  20  27
HETATM   27  N   UNL     1     -11.568  12.949  68.640  1.00  0.00    -0.294 N  
HETATM   28  H   UNL     1     -12.010  12.037  68.749  1.00  0.00     0.000 HD 
HETATM   29  C   UNL     1     -11.994  14.016  69.387  1.00  0.00    -0.343 C  
HETATM   30  O   UNL     1     -11.524  15.141  69.229  1.00  0.00    -0.273 OA 
BRANCH  29  31
HETATM   31  C   UNL     1     -13.159  13.763  70.333  1.00  0.00     0.083 C  
HETATM   32  C   UNL     1     -11.914  13.970  72.508  1.00  0.00     0.585 C  
HETATM   33  C   UNL     1     -12.807  13.075  71.656  1.00  0.00    -0.376 C  
HETATM   34  C   UNL     1     -12.521  15.343  72.738  1.00  0.00    -0.401 C  
HETATM   35  F   UNL     1     -11.630  16.133  73.382  1.00  0.00    -0.442 F  
HETATM   36  F   UNL     1     -13.596  15.220  73.560  1.00  0.00    -0.482 F  
HETATM   37  C   UNL     1     -12.964  16.031  71.469  1.00  0.00    -0.087 C  
HETATM   38  C   UNL     1     -13.840  15.103  70.630  1.00  0.00    -0.006 C  
ENDBRANCH  29  31
ENDBRANCH  20  27
ENDBRANCH  18  19
ENDBRANCH  17  18
ENDBRANCH   8  10
TORSDOF 6
ENDMDL
MODEL      163
REMARK 921   NORMALIZED FREE ENERGY PREDICTED BY IDOCK:   -4.13 KCAL/MOL
REMARK 922        TOTAL FREE ENERGY PREDICTED BY IDOCK:   -7.11 KCAL/MOL
REMARK 923 INTER-LIGAND FREE ENERGY PREDICTED BY IDOCK:   -6.04 KCAL/MOL
REMARK 924 INTRA-LIGAND FREE ENERGY PREDICTED BY IDOCK:   -1.07 KCAL/MOL
REMARK 927      BINDING AFFINITY PREDICTED BY RF-SCORE:    0.00 PKD
ROOT
HETATM    1  C   UNL     1     -12.701  14.203  73.162  1.00  0.00    -0.227 C  
HETATM    2  C   UNL     1     -13.390  13.883  71.824  1.00  0.00    -0.461 C  
HETATM    3  C   UNL     1     -12.408  13.340  70.831  1.00  0.00    -0.329 A  
HETATM    4  C   UNL     1     -14.017  15.151  71.228  1.00  0.00    -0.548 C  
HETATM    5  N   UNL     1     -11.513  14.093  70.228  1.00  0.00    -0.188 NA 
HETATM    6  N   UNL     1     -11.065  13.417  69.147  1.00  0.00    -0.240 NA 
HETATM    7  C   UNL     1     -11.602  12.215  69.146  1.00  0.00    -0.319 A  
HETATM    8  N   UNL     1     -12.384  12.064  70.278  1.00  0.00    -0.240 NA 
HETATM    9  C   UNL     1     -11.341  11.251  68.058  1.00  0.00    -0.372 C  
ENDROOT
BRANCH   8  10
HETATM   10  C   UNL     1     -13.157  10.906  70.777  1.00  0.00    -0.106 C  
HETATM   11  C   UNL     1     -13.033   9.579  69.991  1.00  0.00     0.955 C  
HETATM   12  C   UNL     1     -12.729   8.293  70.782  1.00  0.00     0.257 C  
HETATM   13  C   UNL     1     -14.068   7.750  71.280  1.00  0.00    -0.365 C  
HETATM   14  C   UNL     1     -14.298   8.553  72.550  1.00  0.00    -0.325 C  
HETATM   15  C   UNL     1     -12.942   9.271  72.816  1.00  0.00    -0.038 C  
HETATM   16  C   UNL     1     -13.018  10.723  72.318  1.00  0.00    -0.086 C  
HETATM   17  N   UNL     1     -11.980   8.465  72.050  1.00  0.00    -0.332 NA 
BRANCH  17  18
HETATM   18  C   UNL     1     -10.548   8.910  71.908  1.00  0.00    -0.349 C  
BRANCH  18  19
HETATM   19  C   UNL     1      -9.365   7.989  72.455  1.00  0.00    -0.272 C  
HETATM   20  C   UNL     1      -9.041   6.519  71.849  1.00  0.00    -0.148 C  
BRANCH  20  21
HETATM   21  C   UNL     1      -9.533   5.117  72.327  1.00  0.00    -0.164 A  
HETATM   22  C   UNL     1     -10.492   2.631  73.418  1.00  0.00    -0.238 A  
HETATM   23  C   UNL     1     -10.666   5.035  73.200  1.00  0.00    -0.314 A  
HETATM   24  C   UNL     1      -9.372   2.683  72.577  1.00  0.00    -0.146 A  
HETATM   25  C   UNL     1      -8.897   3.904  72.045  1.00  0.00    -0.130 A  
HETATM   26  C   UNL     1     -11.141   3.818  73.733  1.00  0.00    -0.285 A  
ENDBRANCH  20  21
BRANCH  20  27
HETATM   27  N   UNL     1      -9.056   6.558  70.394  1.00  0.00    -0.155 N  
HETATM   28  H   UNL     1      -9.925   6.398  69.884  1.00  0.00     0.000 HD 
HETATM   29  C   UNL     1      -7.895   6.812  69.713  1.00  0.00    -0.115 C  
HETATM   30  O   UNL     1      -6.821   6.943  70.299  1.00  0.00    -0.054 OA 
BRANCH  29  31
HETATM   31  C   UNL     1      -7.979   6.799  68.194  1.00  0.00    -0.114 C  
HETATM   32  C   UNL     1      -8.600   9.211  67.844  1.00  0.00    -0.121 C  
HETATM   33  C   UNL     1      -8.996   7.764  67.575  1.00  0.00    -0.126 C  
HETATM   34  C   UNL     1      -7.185   9.520  67.383  1.00  0.00    -0.087 C  
HETATM   35  F   UNL     1      -6.844  10.772  67.768  1.00  0.00    -0.069 F  
HETATM   36  F   UNL     1      -7.150   9.508  66.024  1.00  0.00    -0.086 F  
HETATM   37  C   UNL     1      -6.153   8.546  67.898  1.00  0.00    -0.048 C  
HETATM   38  C   UNL     1      -6.587   7.107  67.630  1.00  0.00    -0.056 C  
ENDBRANCH  29  31
ENDBRANCH  20  27
ENDBRANCH  18  19
ENDBRANCH  17  18
ENDBRANCH   8  10
TORSDOF 6
ENDMDL
MODEL      164
REMARK 921   NORMALIZED FREE ENERGY PREDICTED BY IDOCK:   -4.11 KCAL/MOL
REMARK 922        TOTAL FREE ENERGY PREDICTED BY IDOCK:   -7.09 KCAL/MOL
REMARK 923 INTER-LIGAND FREE ENERGY PREDICTED BY IDOCK:   -6.16 KCAL/MOL
REMARK 924 INTRA-LIGAND FREE ENERGY PREDICTED BY IDOCK:   -0.94 KCAL/MOL
REMARK 927      BINDING AFFINITY PREDICTED BY RF-SCORE:    0.00 PKD
ROOT
HETATM    1  C   UNL     1     -11.030   4.679  65.091  1.00  0.00     0.027 C  
HETATM    2  C   UNL     1     -10.062   3.662  64.461  1.00  0.00    -0.186 C  
HETATM    3  C   UNL     1      -8.809   4.336  63.990  1.00  0.00    -0.138 A  
HETATM    4  C   UNL     1     -10.717   2.976  63.254  1.00  0.00    -0.239 C  
HETATM    5  N   UNL     1      -8.767   5.091  62.913  1.00  0.00    -0.122 NA 
HETATM    6  N   UNL     1      -7.472   5.218  62.548  1.00  0.00    -0.049 NA 
HETATM    7  C   UNL     1      -6.716   4.634  63.453  1.00  0.00    -0.038 A  
HETATM    8  N   UNL     1      -7.518   4.152  64.473  1.00  0.00    -0.071 NA 
HETATM    9  C   UNL     1      -5.248   4.564  63.309  1.00  0.00    -0.009 C  
ENDROOT
BRANCH   8  10
HETATM   10  C   UNL     1      -7.173   3.467  65.737  1.00  0.00    -0.067 C  
HETATM   11  C   UNL     1      -6.221   4.205  66.708  1.00  0.00    -0.032 C  
HETATM   12  C   UNL     1      -6.636   4.318  68.187  1.00  0.00    -0.042 C  
HETATM   13  C   UNL     1      -6.174   3.036  68.877  1.00  0.00    -0.029 C  
HETATM   14  C   UNL     1      -7.304   2.068  68.568  1.00  0.00    -0.043 C  
HETATM   15  C   UNL     1      -8.438   2.958  67.978  1.00  0.00    -0.083 C  
HETATM   16  C   UNL     1      -8.425   2.865  66.444  1.00  0.00    -0.105 C  
HETATM   17  N   UNL     1      -8.092   4.303  68.461  1.00  0.00    -0.077 NA 
BRANCH  17  18
HETATM   18  C   UNL     1      -8.861   5.508  67.986  1.00  0.00    -0.105 C  
BRANCH  18  19
HETATM   19  C   UNL     1      -8.132   6.921  67.849  1.00  0.00    -0.114 C  
HETATM   20  C   UNL     1      -8.918   8.335  67.979  1.00  0.00    -0.138 C  
BRANCH  20  21
HETATM   21  C   UNL     1      -9.538   9.233  66.864  1.00  0.00    -0.229 A  
HETATM   22  C   UNL     1     -10.466  10.903  64.710  1.00  0.00    -0.373 A  
HETATM   23  C   UNL     1      -9.059   9.109  65.520  1.00  0.00    -0.275 A  
HETATM   24  C   UNL     1     -10.943  11.056  66.019  1.00  0.00    -0.136 A  
HETATM   25  C   UNL     1     -10.484  10.241  67.078  1.00  0.00    -0.304 A  
HETATM   26  C   UNL     1      -9.513   9.923  64.461  1.00  0.00    -0.328 A  
ENDBRANCH  20  21
BRANCH  20  27
HETATM   27  N   UNL     1      -9.817   8.308  69.124  1.00  0.00    -0.175 N  
HETATM   28  H   UNL     1     -10.772   7.967  69.019  1.00  0.00     0.000 HD 
HETATM   29  C   UNL     1      -9.371   8.744  70.343  1.00  0.00    -0.180 C  
HETATM   30  O   UNL     1      -8.245   9.221  70.484  1.00  0.00    -0.159 OA 
BRANCH  29  31
HETATM   31  C   UNL     1     -10.377   8.724  71.485  1.00  0.00    -0.374 C  
HETATM   32  C   UNL     1     -11.492   6.535  70.948  1.00  0.00    -0.408 C  
HETATM   33  C   UNL     1     -11.707   8.024  71.188  1.00  0.00    -0.307 C  
HETATM   34  C   UNL     1     -10.753   5.864  72.094  1.00  0.00    -0.231 C  
HETATM   35  F   UNL     1     -10.473   4.581  71.766  1.00  0.00    -0.261 F  
HETATM   36  F   UNL     1     -11.568   5.819  73.180  1.00  0.00    -0.276 F  
HETATM   37  C   UNL     1      -9.473   6.565  72.483  1.00  0.00    -0.148 C  
HETATM   38  C   UNL     1      -9.719   8.057  72.698  1.00  0.00    -0.332 C  
ENDBRANCH  29  31
ENDBRANCH  20  27
ENDBRANCH  18  19
ENDBRANCH  17  18
ENDBRANCH   8  10
TORSDOF 6
ENDMDL
MODEL      165
REMARK 921   NORMALIZED FREE ENERGY PREDICTED BY IDOCK:   -4.09 KCAL/MOL
REMARK 922        TOTAL FREE ENERGY PREDICTED BY IDOCK:   -7.07 KCAL/MOL
REMARK 923 INTER-LIGAND FREE ENERGY PREDICTED BY IDOCK:   -5.78 KCAL/MOL
REMARK 924 INTRA-LIGAND FREE ENERGY PREDICTED BY IDOCK:   -1.29 KCAL/MOL
REMARK 927      BINDING AFFINITY PREDICTED BY RF-SCORE:    0.00 PKD
ROOT
HETATM    1  C   UNL     1      -6.878   8.998  64.534  1.00  0.00    -0.081 C  
HETATM    2  C   UNL     1      -7.347   7.675  63.903  1.00  0.00    -0.092 C  
HETATM    3  C   UNL     1      -6.617   6.509  64.498  1.00  0.00    -0.038 A  
HETATM    4  C   UNL     1      -7.082   7.681  62.391  1.00  0.00    -0.078 C  
HETATM    5  N   UNL     1      -5.360   6.236  64.217  1.00  0.00    -0.017 NA 
HETATM    6  N   UNL     1      -5.125   4.956  64.581  1.00  0.00    -0.009 NA 
HETATM    7  C   UNL     1      -6.198   4.479  65.176  1.00  0.00    -0.034 A  
HETATM    8  N   UNL     1      -7.153   5.478  65.262  1.00  0.00    -0.064 NA 
HETATM    9  C   UNL     1      -6.266   3.081  65.647  1.00  0.00    -0.024 C  
ENDROOT
BRANCH   8  10
HETATM   10  C   UNL     1      -8.499   5.484  65.874  1.00  0.00    -0.130 C  
HETATM   11  C   UNL     1      -8.753   4.498  67.039  1.00  0.00    -0.104 C  
HETATM   12  C   UNL     1      -9.388   5.049  68.330  1.00  0.00    -0.126 C  
HETATM   13  C   UNL     1     -10.902   5.029  68.123  1.00  0.00     0.473 C  
HETATM   14  C   UNL     1     -11.150   6.327  67.372  1.00  0.00    -0.384 C  
HETATM   15  C   UNL     1      -9.804   7.104  67.469  1.00  0.00    -0.151 C  
HETATM   16  C   UNL     1      -9.008   6.927  66.167  1.00  0.00    -0.157 C  
HETATM   17  N   UNL     1      -9.140   6.480  68.623  1.00  0.00    -0.129 NA 
BRANCH  17  18
HETATM   18  C   UNL     1      -7.721   6.840  68.976  1.00  0.00    -0.110 C  
BRANCH  18  19
HETATM   19  C   UNL     1      -7.355   8.332  69.407  1.00  0.00    -0.074 C  
HETATM   20  C   UNL     1      -8.476   9.430  69.823  1.00  0.00    -0.165 C  
BRANCH  20  21
HETATM   21  C   UNL     1      -9.187  10.506  68.946  1.00  0.00    -0.188 A  
HETATM   22  C   UNL     1     -10.704  12.392  67.386  1.00  0.00    -0.257 A  
HETATM   23  C   UNL     1     -10.445  11.037  69.375  1.00  0.00    -0.177 A  
HETATM   24  C   UNL     1      -9.481  11.878  66.935  1.00  0.00    -0.205 A  
HETATM   25  C   UNL     1      -8.738  10.948  67.697  1.00  0.00    -0.127 A  
HETATM   26  C   UNL     1     -11.190  11.964  68.616  1.00  0.00    -0.311 A  
ENDBRANCH  20  21
BRANCH  20  27
HETATM   27  N   UNL     1      -9.448   8.837  70.731  1.00  0.00    -0.189 N  
HETATM   28  H   UNL     1     -10.389   8.618  70.404  1.00  0.00     0.000 HD 
HETATM   29  C   UNL     1      -9.090   8.576  72.027  1.00  0.00    -0.247 C  
HETATM   30  O   UNL     1      -7.984   8.890  72.465  1.00  0.00    -0.374 OA 
BRANCH  29  31
HETATM   31  C   UNL     1     -10.169   7.993  72.928  1.00  0.00    -0.384 C  
HETATM   32  C   UNL     1     -11.117   6.310  71.318  1.00  0.00    -0.345 C  
HETATM   33  C   UNL     1     -11.434   7.498  72.219  1.00  0.00    -0.348 C  
HETATM   34  C   UNL     1     -10.420   5.186  72.066  1.00  0.00    -0.215 C  
HETATM   35  F   UNL     1     -10.046   4.221  71.192  1.00  0.00    -0.252 F  
HETATM   36  F   UNL     1     -11.304   4.611  72.924  1.00  0.00    -0.288 F  
HETATM   37  C   UNL     1      -9.213   5.636  72.852  1.00  0.00    -0.135 C  
HETATM   38  C   UNL     1      -9.558   6.838  73.729  1.00  0.00    -0.241 C  
ENDBRANCH  29  31
ENDBRANCH  20  27
ENDBRANCH  18  19
ENDBRANCH  17  18
ENDBRANCH   8  10
TORSDOF 6
ENDMDL
MODEL      166
REMARK 921   NORMALIZED FREE ENERGY PREDICTED BY IDOCK:   -4.08 KCAL/MOL
REMARK 922        TOTAL FREE ENERGY PREDICTED BY IDOCK:   -7.05 KCAL/MOL
REMARK 923 INTER-LIGAND FREE ENERGY PREDICTED BY IDOCK:   -6.93 KCAL/MOL
REMARK 924 INTRA-LIGAND FREE ENERGY PREDICTED BY IDOCK:   -0.12 KCAL/MOL
REMARK 927      BINDING AFFINITY PREDICTED BY RF-SCORE:    0.00 PKD
ROOT
HETATM    1  C   UNL     1      -9.849  11.799  65.062  1.00  0.00    -0.257 C  
HETATM    2  C   UNL     1      -9.339  10.614  64.225  1.00  0.00    -0.298 C  
HETATM    3  C   UNL     1      -8.052  10.080  64.778  1.00  0.00    -0.155 A  
HETATM    4  C   UNL     1      -9.088  11.052  62.775  1.00  0.00    -0.361 C  
HETATM    5  N   UNL     1      -6.904  10.710  64.646  1.00  0.00     0.088 NA 
HETATM    6  N   UNL     1      -5.916   9.821  64.891  1.00  0.00    -0.081 NA 
HETATM    7  C   UNL     1      -6.454   8.682  65.272  1.00  0.00    -0.063 A  
HETATM    8  N   UNL     1      -7.828   8.827  65.337  1.00  0.00    -0.096 NA 
HETATM    9  C   UNL     1      -5.626   7.495  65.567  1.00  0.00    -0.033 C  
ENDROOT
BRANCH   8  10
HETATM   10  C   UNL     1      -8.886   7.880  65.753  1.00  0.00    -0.119 C  
HETATM   11  C   UNL     1      -8.449   6.435  66.095  1.00  0.00    -0.140 C  
HETATM   12  C   UNL     1      -8.941   5.824  67.420  1.00  0.00    -0.108 C  
HETATM   13  C   UNL     1     -10.322   5.230  67.151  1.00  0.00    -0.268 C  
HETATM   14  C   UNL     1     -11.235   6.436  67.296  1.00  0.00    -0.295 C  
HETATM   15  C   UNL     1     -10.331   7.544  67.914  1.00  0.00    -0.210 C  
HETATM   16  C   UNL     1      -9.850   8.497  66.809  1.00  0.00    -0.327 C  
HETATM   17  N   UNL     1      -9.229   6.779  68.516  1.00  0.00    -0.129 NA 
BRANCH  17  18
HETATM   18  C   UNL     1      -8.034   7.488  69.098  1.00  0.00    -0.121 C  
BRANCH  18  19
HETATM   19  C   UNL     1      -8.237   8.674  70.146  1.00  0.00    -0.123 C  
HETATM   20  C   UNL     1      -9.214   8.552  71.437  1.00  0.00    -0.210 C  
BRANCH  20  21
HETATM   21  C   UNL     1     -10.708   8.974  71.595  1.00  0.00    -0.441 A  
HETATM   22  C   UNL     1     -13.399   9.971  71.822  1.00  0.00    -0.492 A  
HETATM   23  C   UNL     1     -11.266   9.924  70.681  1.00  0.00    -0.416 A  
HETATM   24  C   UNL     1     -12.875   9.051  72.739  1.00  0.00    -0.151 A  
HETATM   25  C   UNL     1     -11.552   8.565  72.633  1.00  0.00    -0.284 A  
HETATM   26  C   UNL     1     -12.585  10.412  70.786  1.00  0.00    -0.462 A  
ENDBRANCH  20  21
BRANCH  20  27
HETATM   27  N   UNL     1      -9.005   7.278  72.109  1.00  0.00    -0.131 N  
HETATM   28  H   UNL     1      -8.263   7.177  72.801  1.00  0.00     0.000 HD 
HETATM   29  C   UNL     1      -9.813   6.214  71.805  1.00  0.00    -0.164 C  
HETATM   30  O   UNL     1     -10.673   6.288  70.928  1.00  0.00    -0.235 OA 
BRANCH  29  31
HETATM   31  C   UNL     1      -9.511   4.904  72.518  1.00  0.00    -0.164 C  
HETATM   32  C   UNL     1      -9.600   3.376  70.522  1.00  0.00    -0.231 C  
HETATM   33  C   UNL     1     -10.158   3.652  71.914  1.00  0.00    -0.182 C  
HETATM   34  C   UNL     1      -8.084   3.279  70.515  1.00  0.00    -0.052 C  
HETATM   35  F   UNL     1      -7.641   3.167  69.241  1.00  0.00    -0.047 F  
HETATM   36  F   UNL     1      -7.710   2.141  71.158  1.00  0.00    -0.035 F  
HETATM   37  C   UNL     1      -7.398   4.450  71.176  1.00  0.00    -0.048 C  
HETATM   38  C   UNL     1      -7.991   4.713  72.558  1.00  0.00    -0.092 C  
ENDBRANCH  29  31
ENDBRANCH  20  27
ENDBRANCH  18  19
ENDBRANCH  17  18
ENDBRANCH   8  10
TORSDOF 6
ENDMDL
MODEL      167
REMARK 921   NORMALIZED FREE ENERGY PREDICTED BY IDOCK:   -4.08 KCAL/MOL
REMARK 922        TOTAL FREE ENERGY PREDICTED BY IDOCK:   -7.04 KCAL/MOL
REMARK 923 INTER-LIGAND FREE ENERGY PREDICTED BY IDOCK:   -6.07 KCAL/MOL
REMARK 924 INTRA-LIGAND FREE ENERGY PREDICTED BY IDOCK:   -0.97 KCAL/MOL
REMARK 927      BINDING AFFINITY PREDICTED BY RF-SCORE:    0.00 PKD
ROOT
HETATM    1  C   UNL     1     -11.672   5.933  71.695  1.00  0.00    -0.111 C  
HETATM    2  C   UNL     1     -10.906   5.137  72.767  1.00  0.00    -0.314 C  
HETATM    3  C   UNL     1      -9.709   4.456  72.176  1.00  0.00    -0.162 A  
HETATM    4  C   UNL     1     -11.811   4.060  73.381  1.00  0.00     0.064 C  
HETATM    5  N   UNL     1      -9.801   3.394  71.405  1.00  0.00    -0.165 NA 
HETATM    6  N   UNL     1      -8.584   2.807  71.364  1.00  0.00    -0.063 NA 
HETATM    7  C   UNL     1      -7.727   3.562  72.018  1.00  0.00    -0.058 A  
HETATM    8  N   UNL     1      -8.371   4.704  72.461  1.00  0.00    -0.113 NA 
HETATM    9  C   UNL     1      -6.316   3.161  72.190  1.00  0.00    -0.014 C  
ENDROOT
BRANCH   8  10
HETATM   10  C   UNL     1      -7.861   5.883  73.193  1.00  0.00    -0.102 C  
HETATM   11  C   UNL     1      -6.577   6.555  72.651  1.00  0.00    -0.064 C  
HETATM   12  C   UNL     1      -6.586   8.082  72.450  1.00  0.00    -0.075 C  
HETATM   13  C   UNL     1      -6.220   8.710  73.794  1.00  0.00    -0.114 C  
HETATM   14  C   UNL     1      -7.554   8.734  74.522  1.00  0.00    -0.038 C  
HETATM   15  C   UNL     1      -8.608   8.386  73.430  1.00  0.00    -0.114 C  
HETATM   16  C   UNL     1      -8.991   6.901  73.533  1.00  0.00    -0.166 C  
HETATM   17  N   UNL     1      -7.906   8.699  72.177  1.00  0.00    -0.315 NA 
BRANCH  17  18
HETATM   18  C   UNL     1      -8.525   8.357  70.847  1.00  0.00    -0.140 C  
BRANCH  18  19
HETATM   19  C   UNL     1     -10.090   8.568  70.612  1.00  0.00    -0.225 C  
HETATM   20  C   UNL     1     -10.716   9.001  69.179  1.00  0.00    -0.157 C  
BRANCH  20  21
HETATM   21  C   UNL     1     -11.062  10.422  68.634  1.00  0.00    -0.313 A  
HETATM   22  C   UNL     1     -11.856  13.063  67.807  1.00  0.00    -0.395 A  
HETATM   23  C   UNL     1     -11.350  11.475  69.561  1.00  0.00    -0.342 A  
HETATM   24  C   UNL     1     -11.594  12.048  66.878  1.00  0.00    -0.389 A  
HETATM   25  C   UNL     1     -11.210  10.749  67.282  1.00  0.00    -0.272 A  
HETATM   26  C   UNL     1     -11.735  12.771  69.161  1.00  0.00    -0.375 A  
ENDBRANCH  20  21
BRANCH  20  27
HETATM   27  N   UNL     1     -10.119   8.213  68.110  1.00  0.00    -0.191 N  
HETATM   28  H   UNL     1      -9.322   8.576  67.588  1.00  0.00     0.000 HD 
HETATM   29  C   UNL     1     -10.637   6.981  67.809  1.00  0.00    -0.233 C  
HETATM   30  O   UNL     1     -11.639   6.548  68.377  1.00  0.00    -0.050 OA 
BRANCH  29  31
HETATM   31  C   UNL     1      -9.988   6.232  66.655  1.00  0.00    -0.207 C  
HETATM   32  C   UNL     1      -7.659   6.069  67.592  1.00  0.00    -0.090 C  
HETATM   33  C   UNL     1      -8.505   6.536  66.413  1.00  0.00    -0.124 C  
HETATM   34  C   UNL     1      -7.881   4.602  67.918  1.00  0.00    -0.082 C  
HETATM   35  F   UNL     1      -7.210   4.281  69.049  1.00  0.00    -0.049 F  
HETATM   36  F   UNL     1      -7.352   3.842  66.923  1.00  0.00    -0.067 F  
HETATM   37  C   UNL     1      -9.335   4.230  68.084  1.00  0.00    -0.204 C  
HETATM   38  C   UNL     1     -10.158   4.728  66.898  1.00  0.00    -0.246 C  
ENDBRANCH  29  31
ENDBRANCH  20  27
ENDBRANCH  18  19
ENDBRANCH  17  18
ENDBRANCH   8  10
TORSDOF 6
ENDMDL
MODEL      168
REMARK 921   NORMALIZED FREE ENERGY PREDICTED BY IDOCK:   -4.05 KCAL/MOL
REMARK 922        TOTAL FREE ENERGY PREDICTED BY IDOCK:   -7.02 KCAL/MOL
REMARK 923 INTER-LIGAND FREE ENERGY PREDICTED BY IDOCK:   -7.17 KCAL/MOL
REMARK 924 INTRA-LIGAND FREE ENERGY PREDICTED BY IDOCK:    0.15 KCAL/MOL
REMARK 927      BINDING AFFINITY PREDICTED BY RF-SCORE:    0.00 PKD
ROOT
HETATM    1  C   UNL     1     -10.673  20.010  67.368  1.00  0.00    -0.359 C  
HETATM    2  C   UNL     1      -9.525  19.053  67.003  1.00  0.00    -0.358 C  
HETATM    3  C   UNL     1      -8.521  19.730  66.121  1.00  0.00    -0.341 A  
HETATM    4  C   UNL     1     -10.068  17.829  66.252  1.00  0.00    -0.345 C  
HETATM    5  N   UNL     1      -8.748  19.993  64.852  1.00  0.00     0.939 NA 
HETATM    6  N   UNL     1      -7.557  20.232  64.260  1.00  0.00     0.677 NA 
HETATM    7  C   UNL     1      -6.616  20.220  65.180  1.00  0.00    -0.295 A  
HETATM    8  N   UNL     1      -7.195  20.023  66.421  1.00  0.00    -0.254 NA 
HETATM    9  C   UNL     1      -5.192  20.405  64.834  1.00  0.00    -0.193 C  
ENDROOT
BRANCH   8  10
HETATM   10  C   UNL     1      -6.599  19.976  67.774  1.00  0.00    -0.242 C  
HETATM   11  C   UNL     1      -7.546  20.209  68.975  1.00  0.00     0.040 C  
HETATM   12  C   UNL     1      -7.501  19.202  70.140  1.00  0.00     0.813 C  
HETATM   13  C   UNL     1      -6.379  19.651  71.074  1.00  0.00     0.089 C  
HETATM   14  C   UNL     1      -5.146  19.047  70.422  1.00  0.00    -0.212 C  
HETATM   15  C   UNL     1      -5.704  18.074  69.342  1.00  0.00    -0.221 C  
HETATM   16  C   UNL     1      -5.657  18.748  67.962  1.00  0.00    -0.187 C  
HETATM   17  N   UNL     1      -7.079  17.823  69.798  1.00  0.00     0.256 NA 
BRANCH  17  18
HETATM   18  C   UNL     1      -8.038  17.037  68.942  1.00  0.00    -0.210 C  
BRANCH  18  19
HETATM   19  C   UNL     1      -8.590  15.627  69.444  1.00  0.00    -0.248 C  
HETATM   20  C   UNL     1     -10.153  15.202  69.332  1.00  0.00    -0.240 C  
BRANCH  20  21
HETATM   21  C   UNL     1     -11.297  15.337  70.385  1.00  0.00    -0.325 A  
HETATM   22  C   UNL     1     -13.276  15.456  72.473  1.00  0.00    -0.543 A  
HETATM   23  C   UNL     1     -10.960  15.466  71.771  1.00  0.00    -0.095 A  
HETATM   24  C   UNL     1     -13.634  15.316  71.126  1.00  0.00    -0.540 A  
HETATM   25  C   UNL     1     -12.664  15.252  70.100  1.00  0.00    -0.278 A  
HETATM   26  C   UNL     1     -11.926  15.528  72.797  1.00  0.00    -0.573 A  
ENDBRANCH  20  21
BRANCH  20  27
HETATM   27  N   UNL     1     -10.674  15.540  68.016  1.00  0.00    -0.274 N  
HETATM   28  H   UNL     1     -10.766  16.515  67.734  1.00  0.00     0.000 HD 
HETATM   29  C   UNL     1     -11.040  14.537  67.157  1.00  0.00    -0.321 C  
HETATM   30  O   UNL     1     -11.002  13.354  67.494  1.00  0.00    -0.259 OA 
BRANCH  29  31
HETATM   31  C   UNL     1     -11.613  14.965  65.814  1.00  0.00    -0.234 C  
HETATM   32  C   UNL     1     -10.333  13.372  64.348  1.00  0.00    -0.347 C  
HETATM   33  C   UNL     1     -10.668  14.835  64.614  1.00  0.00    -0.279 C  
HETATM   34  C   UNL     1     -11.576  12.516  64.174  1.00  0.00    -0.389 C  
HETATM   35  F   UNL     1     -11.221  11.213  64.075  1.00  0.00    -0.434 F  
HETATM   36  F   UNL     1     -12.179  12.844  63.001  1.00  0.00    -0.593 F  
HETATM   37  C   UNL     1     -12.581  12.671  65.290  1.00  0.00    -0.388 C  
HETATM   38  C   UNL     1     -12.880  14.147  65.545  1.00  0.00    -0.404 C  
ENDBRANCH  29  31
ENDBRANCH  20  27
ENDBRANCH  18  19
ENDBRANCH  17  18
ENDBRANCH   8  10
TORSDOF 6
ENDMDL
MODEL      169
REMARK 921   NORMALIZED FREE ENERGY PREDICTED BY IDOCK:   -3.96 KCAL/MOL
REMARK 922        TOTAL FREE ENERGY PREDICTED BY IDOCK:   -6.89 KCAL/MOL
REMARK 923 INTER-LIGAND FREE ENERGY PREDICTED BY IDOCK:   -5.47 KCAL/MOL
REMARK 924 INTRA-LIGAND FREE ENERGY PREDICTED BY IDOCK:   -1.42 KCAL/MOL
REMARK 927      BINDING AFFINITY PREDICTED BY RF-SCORE:    0.00 PKD
ROOT
HETATM    1  C   UNL     1     -10.197   4.364  68.320  1.00  0.00     0.138 C  
HETATM    2  C   UNL     1      -9.745   5.750  68.811  1.00  0.00    -0.168 C  
HETATM    3  C   UNL     1     -10.384   6.088  70.124  1.00  0.00    -0.224 A  
HETATM    4  C   UNL     1     -10.141   6.832  67.797  1.00  0.00    -0.189 C  
HETATM    5  N   UNL     1     -11.651   6.426  70.235  1.00  0.00    -0.412 NA 
HETATM    6  N   UNL     1     -11.814   7.031  71.432  1.00  0.00    -0.300 NA 
HETATM    7  C   UNL     1     -10.679   6.971  72.096  1.00  0.00    -0.218 A  
HETATM    8  N   UNL     1      -9.752   6.265  71.350  1.00  0.00    -0.173 NA 
HETATM    9  C   UNL     1     -10.527   7.592  73.427  1.00  0.00    -0.361 C  
ENDROOT
BRANCH   8  10
HETATM   10  C   UNL     1      -8.358   5.874  71.652  1.00  0.00    -0.127 C  
HETATM   11  C   UNL     1      -7.634   4.974  70.623  1.00  0.00    -0.070 C  
HETATM   12  C   UNL     1      -6.230   5.396  70.151  1.00  0.00    -0.023 C  
HETATM   13  C   UNL     1      -5.234   4.848  71.171  1.00  0.00    -0.004 C  
HETATM   14  C   UNL     1      -5.257   5.910  72.258  1.00  0.00    -0.022 C  
HETATM   15  C   UNL     1      -6.041   7.101  71.632  1.00  0.00    -0.037 C  
HETATM   16  C   UNL     1      -7.495   7.082  72.127  1.00  0.00    -0.090 C  
HETATM   17  N   UNL     1      -5.935   6.848  70.188  1.00  0.00    -0.023 NA 
BRANCH  17  18
HETATM   18  C   UNL     1      -6.698   7.697  69.204  1.00  0.00    -0.048 C  
BRANCH  18  19
HETATM   19  C   UNL     1      -5.920   8.696  68.234  1.00  0.00    -0.042 C  
HETATM   20  C   UNL     1      -6.543   9.231  66.834  1.00  0.00    -0.068 C  
BRANCH  20  21
HETATM   21  C   UNL     1      -6.372   8.665  65.390  1.00  0.00    -0.055 A  
HETATM   22  C   UNL     1      -6.123   7.410  62.811  1.00  0.00    -0.054 A  
HETATM   23  C   UNL     1      -7.285   7.668  64.918  1.00  0.00    -0.066 A  
HETATM   24  C   UNL     1      -5.207   8.374  63.253  1.00  0.00    -0.062 A  
HETATM   25  C   UNL     1      -5.325   8.987  64.521  1.00  0.00    -0.054 A  
HETATM   26  C   UNL     1      -7.169   7.053  63.653  1.00  0.00    -0.071 A  
ENDBRANCH  20  21
BRANCH  20  27
HETATM   27  N   UNL     1      -7.927   9.642  67.024  1.00  0.00    -0.108 N  
HETATM   28  H   UNL     1      -8.670   8.945  67.065  1.00  0.00     0.000 HD 
HETATM   29  C   UNL     1      -8.224  10.974  67.146  1.00  0.00    -0.133 C  
HETATM   30  O   UNL     1      -7.357  11.840  67.035  1.00  0.00    -0.139 OA 
BRANCH  29  31
HETATM   31  C   UNL     1      -9.695  11.333  67.303  1.00  0.00    -0.192 C  
HETATM   32  C   UNL     1      -9.836  13.083  65.502  1.00  0.00    -0.150 C  
HETATM   33  C   UNL     1     -10.065  12.784  66.979  1.00  0.00    -0.240 C  
HETATM   34  C   UNL     1     -10.564  12.106  64.594  1.00  0.00    -0.300 C  
HETATM   35  F   UNL     1     -10.218  12.336  63.306  1.00  0.00    -0.414 F  
HETATM   36  F   UNL     1     -11.902  12.331  64.683  1.00  0.00    -0.380 F  
HETATM   37  C   UNL     1     -10.300  10.657  64.926  1.00  0.00    -0.347 C  
HETATM   38  C   UNL     1     -10.519  10.395  66.414  1.00  0.00    -0.246 C  
ENDBRANCH  29  31
ENDBRANCH  20  27
ENDBRANCH  18  19
ENDBRANCH  17  18
ENDBRANCH   8  10
TORSDOF 6
ENDMDL
MODEL      170
REMARK 921   NORMALIZED FREE ENERGY PREDICTED BY IDOCK:   -3.96 KCAL/MOL
REMARK 922        TOTAL FREE ENERGY PREDICTED BY IDOCK:   -6.88 KCAL/MOL
REMARK 923 INTER-LIGAND FREE ENERGY PREDICTED BY IDOCK:   -6.35 KCAL/MOL
REMARK 924 INTRA-LIGAND FREE ENERGY PREDICTED BY IDOCK:   -0.53 KCAL/MOL
REMARK 927      BINDING AFFINITY PREDICTED BY RF-SCORE:    0.00 PKD
ROOT
HETATM    1  C   UNL     1      -8.026  13.471  66.873  1.00  0.00     0.171 C  
HETATM    2  C   UNL     1      -9.204  12.485  66.967  1.00  0.00    -0.214 C  
HETATM    3  C   UNL     1     -10.222  12.761  65.903  1.00  0.00    -0.287 A  
HETATM    4  C   UNL     1      -9.896  12.609  68.332  1.00  0.00    -0.200 C  
HETATM    5  N   UNL     1     -11.039  13.792  65.948  1.00  0.00    -0.285 NA 
HETATM    6  N   UNL     1     -12.055  13.551  65.091  1.00  0.00    -0.381 NA 
HETATM    7  C   UNL     1     -11.811  12.429  64.447  1.00  0.00    -0.389 A  
HETATM    8  N   UNL     1     -10.579  11.937  64.841  1.00  0.00    -0.275 NA 
HETATM    9  C   UNL     1     -12.768  11.873  63.470  1.00  0.00    -0.530 C  
ENDROOT
BRANCH   8  10
HETATM   10  C   UNL     1      -9.820  10.749  64.394  1.00  0.00    -0.315 C  
HETATM   11  C   UNL     1      -8.411  10.989  63.801  1.00  0.00     0.198 C  
HETATM   12  C   UNL     1      -7.242  10.144  64.342  1.00  0.00    -0.115 C  
HETATM   13  C   UNL     1      -7.236   8.836  63.552  1.00  0.00    -0.094 C  
HETATM   14  C   UNL     1      -8.267   7.999  64.292  1.00  0.00    -0.070 C  
HETATM   15  C   UNL     1      -8.557   8.793  65.600  1.00  0.00    -0.172 C  
HETATM   16  C   UNL     1      -9.857   9.596  65.442  1.00  0.00    -0.322 C  
HETATM   17  N   UNL     1      -7.376   9.657  65.735  1.00  0.00    -0.097 NA 
BRANCH  17  18
HETATM   18  C   UNL     1      -7.319  10.715  66.806  1.00  0.00    -0.120 C  
BRANCH  18  19
HETATM   19  C   UNL     1      -6.060  10.801  67.783  1.00  0.00    -0.047 C  
HETATM   20  C   UNL     1      -6.154  11.390  69.293  1.00  0.00    -0.065 C  
BRANCH  20  21
HETATM   21  C   UNL     1      -5.888  12.837  69.813  1.00  0.00    -0.123 A  
HETATM   22  C   UNL     1      -5.249  15.535  70.590  1.00  0.00    -0.148 A  
HETATM   23  C   UNL     1      -5.709  13.897  68.868  1.00  0.00    -0.082 A  
HETATM   24  C   UNL     1      -5.405  14.513  71.536  1.00  0.00    -0.152 A  
HETATM   25  C   UNL     1      -5.713  13.187  71.156  1.00  0.00    -0.065 A  
HETATM   26  C   UNL     1      -5.401  15.222  69.244  1.00  0.00    -0.095 A  
ENDBRANCH  20  21
BRANCH  20  27
HETATM   27  N   UNL     1      -7.320  10.846  69.974  1.00  0.00    -0.321 N  
HETATM   28  H   UNL     1      -8.162  11.411  70.084  1.00  0.00     0.000 HD 
HETATM   29  C   UNL     1      -7.278   9.568  70.467  1.00  0.00    -0.135 C  
HETATM   30  O   UNL     1      -6.256   8.888  70.406  1.00  0.00    -0.036 OA 
BRANCH  29  31
HETATM   31  C   UNL     1      -8.519   9.080  71.201  1.00  0.00    -0.234 C  
HETATM   32  C   UNL     1     -10.063   8.898  69.224  1.00  0.00    -0.205 C  
HETATM   33  C   UNL     1      -9.861   9.515  70.603  1.00  0.00    -0.328 C  
HETATM   34  C   UNL     1      -9.924   7.385  69.241  1.00  0.00    -0.173 C  
HETATM   35  F   UNL     1      -9.979   6.909  67.975  1.00  0.00    -0.142 F  
HETATM   36  F   UNL     1     -10.984   6.850  69.903  1.00  0.00    -0.243 F  
HETATM   37  C   UNL     1      -8.654   6.899  69.897  1.00  0.00    -0.141 C  
HETATM   38  C   UNL     1      -8.472   7.550  71.267  1.00  0.00    -0.116 C  
ENDBRANCH  29  31
ENDBRANCH  20  27
ENDBRANCH  18  19
ENDBRANCH  17  18
ENDBRANCH   8  10
TORSDOF 6
ENDMDL
MODEL      171
REMARK 921   NORMALIZED FREE ENERGY PREDICTED BY IDOCK:   -3.95 KCAL/MOL
REMARK 922        TOTAL FREE ENERGY PREDICTED BY IDOCK:   -6.87 KCAL/MOL
REMARK 923 INTER-LIGAND FREE ENERGY PREDICTED BY IDOCK:   -8.09 KCAL/MOL
REMARK 924 INTRA-LIGAND FREE ENERGY PREDICTED BY IDOCK:    1.21 KCAL/MOL
REMARK 927      BINDING AFFINITY PREDICTED BY RF-SCORE:    0.00 PKD
ROOT
HETATM    1  C   UNL     1     -10.526  19.498  67.952  1.00  0.00    -0.552 C  
HETATM    2  C   UNL     1      -9.731  18.846  66.807  1.00  0.00    -0.362 C  
HETATM    3  C   UNL     1      -8.989  17.636  67.289  1.00  0.00    -0.240 A  
HETATM    4  C   UNL     1      -8.706  19.836  66.236  1.00  0.00    -0.403 C  
HETATM    5  N   UNL     1      -7.910  17.713  68.038  1.00  0.00    -0.228 NA 
HETATM    6  N   UNL     1      -7.277  16.521  67.974  1.00  0.00    -0.140 NA 
HETATM    7  C   UNL     1      -8.016  15.685  67.276  1.00  0.00    -0.197 A  
HETATM    8  N   UNL     1      -9.193  16.314  66.911  1.00  0.00    -0.209 NA 
HETATM    9  C   UNL     1      -7.566  14.308  66.988  1.00  0.00     0.175 C  
ENDROOT
BRANCH   8  10
HETATM   10  C   UNL     1     -10.372  15.813  66.171  1.00  0.00    -0.320 C  
HETATM   11  C   UNL     1     -10.108  14.895  64.954  1.00  0.00    -0.200 C  
HETATM   12  C   UNL     1     -10.887  13.569  64.863  1.00  0.00    -0.362 C  
HETATM   13  C   UNL     1     -12.227  13.885  64.200  1.00  0.00    -0.436 C  
HETATM   14  C   UNL     1     -13.067  14.371  65.370  1.00  0.00     0.012 C  
HETATM   15  C   UNL     1     -12.228  14.019  66.634  1.00  0.00    -0.428 C  
HETATM   16  C   UNL     1     -11.479  15.269  67.123  1.00  0.00    -0.202 C  
HETATM   17  N   UNL     1     -11.317  12.972  66.149  1.00  0.00    -0.303 NA 
BRANCH  17  18
HETATM   18  C   UNL     1     -10.212  12.451  67.030  1.00  0.00    -0.220 C  
BRANCH  18  19
HETATM   19  C   UNL     1      -9.924  13.133  68.444  1.00  0.00    -0.223 C  
HETATM   20  C   UNL     1     -10.616  12.629  69.823  1.00  0.00     0.839 C  
BRANCH  20  21
HETATM   21  C   UNL     1     -11.912  13.138  70.527  1.00  0.00    -0.303 A  
HETATM   22  C   UNL     1     -14.212  14.294  71.818  1.00  0.00    -0.540 A  
HETATM   23  C   UNL     1     -12.454  14.411  70.158  1.00  0.00    -0.395 A  
HETATM   24  C   UNL     1     -13.695  13.052  72.209  1.00  0.00    -0.608 A  
HETATM   25  C   UNL     1     -12.562  12.486  71.580  1.00  0.00    -0.189 A  
HETATM   26  C   UNL     1     -13.583  14.980  70.785  1.00  0.00    -0.266 A  
ENDBRANCH  20  21
BRANCH  20  27
HETATM   27  N   UNL     1     -10.564  11.177  69.912  1.00  0.00    -0.423 N  
HETATM   28  H   UNL     1      -9.804  10.720  70.416  1.00  0.00     0.000 HD 
HETATM   29  C   UNL     1     -11.543  10.429  69.315  1.00  0.00    -0.176 C  
HETATM   30  O   UNL     1     -12.434  10.950  68.646  1.00  0.00    -0.418 OA 
BRANCH  29  31
HETATM   31  C   UNL     1     -11.403   8.917  69.416  1.00  0.00     0.265 C  
HETATM   32  C   UNL     1      -9.305   8.654  68.054  1.00  0.00    -0.147 C  
HETATM   33  C   UNL     1     -10.760   8.224  68.210  1.00  0.00    -0.076 C  
HETATM   34  C   UNL     1      -8.497   8.431  69.321  1.00  0.00    -0.125 C  
HETATM   35  F   UNL     1      -7.257   8.952  69.167  1.00  0.00    -0.062 F  
HETATM   36  F   UNL     1      -8.336   7.096  69.515  1.00  0.00    -0.124 F  
HETATM   37  C   UNL     1      -9.131   9.022  70.557  1.00  0.00    -0.259 C  
HETATM   38  C   UNL     1     -10.590   8.589  70.674  1.00  0.00    -0.241 C  
ENDBRANCH  29  31
ENDBRANCH  20  27
ENDBRANCH  18  19
ENDBRANCH  17  18
ENDBRANCH   8  10
TORSDOF 6
ENDMDL
MODEL      172
REMARK 921   NORMALIZED FREE ENERGY PREDICTED BY IDOCK:   -3.93 KCAL/MOL
REMARK 922        TOTAL FREE ENERGY PREDICTED BY IDOCK:   -6.84 KCAL/MOL
REMARK 923 INTER-LIGAND FREE ENERGY PREDICTED BY IDOCK:   -6.11 KCAL/MOL
REMARK 924 INTRA-LIGAND FREE ENERGY PREDICTED BY IDOCK:   -0.73 KCAL/MOL
REMARK 927      BINDING AFFINITY PREDICTED BY RF-SCORE:    0.00 PKD
ROOT
HETATM    1  C   UNL     1     -10.214  10.938  64.796  1.00  0.00    -0.398 C  
HETATM    2  C   UNL     1      -9.280  10.024  63.984  1.00  0.00    -0.318 C  
HETATM    3  C   UNL     1      -8.050   9.682  64.769  1.00  0.00    -0.139 A  
HETATM    4  C   UNL     1      -8.840  10.723  62.691  1.00  0.00    -0.311 C  
HETATM    5  N   UNL     1      -7.077  10.543  64.981  1.00  0.00    -0.054 NA 
HETATM    6  N   UNL     1      -5.983   9.844  65.358  1.00  0.00    -0.072 NA 
HETATM    7  C   UNL     1      -6.310   8.575  65.479  1.00  0.00    -0.055 A  
HETATM    8  N   UNL     1      -7.664   8.428  65.230  1.00  0.00    -0.093 NA 
HETATM    9  C   UNL     1      -5.311   7.548  65.835  1.00  0.00    -0.028 C  
ENDROOT
BRANCH   8  10
HETATM   10  C   UNL     1      -8.536   7.235  65.280  1.00  0.00    -0.057 C  
HETATM   11  C   UNL     1      -7.871   5.859  65.034  1.00  0.00    -0.106 C  
HETATM   12  C   UNL     1      -8.155   4.727  66.039  1.00  0.00    -0.107 C  
HETATM   13  C   UNL     1      -9.456   4.057  65.599  1.00  0.00    -0.176 C  
HETATM   14  C   UNL     1     -10.514   4.956  66.217  1.00  0.00    -0.349 C  
HETATM   15  C   UNL     1      -9.728   5.886  67.187  1.00  0.00    -0.132 C  
HETATM   16  C   UNL     1      -9.484   7.247  66.516  1.00  0.00    -0.218 C  
HETATM   17  N   UNL     1      -8.481   5.145  67.423  1.00  0.00    -0.106 NA 
BRANCH  17  18
HETATM   18  C   UNL     1      -7.353   5.772  68.201  1.00  0.00    -0.077 C  
BRANCH  18  19
HETATM   19  C   UNL     1      -6.740   5.023  69.469  1.00  0.00    -0.051 C  
HETATM   20  C   UNL     1      -7.296   5.244  70.978  1.00  0.00    -0.078 C  
BRANCH  20  21
HETATM   21  C   UNL     1      -6.803   6.228  72.084  1.00  0.00    -0.073 A  
HETATM   22  C   UNL     1      -6.116   8.050  74.205  1.00  0.00    -0.101 A  
HETATM   23  C   UNL     1      -7.375   6.149  73.395  1.00  0.00    -0.088 A  
HETATM   24  C   UNL     1      -5.550   8.159  72.928  1.00  0.00    -0.049 A  
HETATM   25  C   UNL     1      -5.890   7.269  71.884  1.00  0.00    -0.037 A  
HETATM   26  C   UNL     1      -7.039   7.038  74.438  1.00  0.00    -0.101 A  
ENDBRANCH  20  21
BRANCH  20  27
HETATM   27  N   UNL     1      -8.752   5.206  70.989  1.00  0.00    -0.126 N  
HETATM   28  H   UNL     1      -9.241   4.332  71.179  1.00  0.00     0.000 HD 
HETATM   29  C   UNL     1      -9.458   6.353  70.743  1.00  0.00    -0.169 C  
HETATM   30  O   UNL     1      -8.895   7.406  70.447  1.00  0.00    -0.147 OA 
BRANCH  29  31
HETATM   31  C   UNL     1     -10.975   6.230  70.733  1.00  0.00    -0.357 C  
HETATM   32  C   UNL     1     -11.487   7.880  72.560  1.00  0.00    -0.455 C  
HETATM   33  C   UNL     1     -11.671   6.445  72.082  1.00  0.00    -0.366 C  
HETATM   34  C   UNL     1     -11.944   8.898  71.529  1.00  0.00    -0.333 C  
HETATM   35  F   UNL     1     -11.634  10.146  71.952  1.00  0.00    -0.341 F  
HETATM   36  F   UNL     1     -13.299   8.847  71.427  1.00  0.00    -0.336 F  
HETATM   37  C   UNL     1     -11.352   8.680  70.157  1.00  0.00    -0.083 C  
HETATM   38  C   UNL     1     -11.535   7.229  69.715  1.00  0.00    -0.026 C  
ENDBRANCH  29  31
ENDBRANCH  20  27
ENDBRANCH  18  19
ENDBRANCH  17  18
ENDBRANCH   8  10
TORSDOF 6
ENDMDL
MODEL      173
REMARK 921   NORMALIZED FREE ENERGY PREDICTED BY IDOCK:   -3.92 KCAL/MOL
REMARK 922        TOTAL FREE ENERGY PREDICTED BY IDOCK:   -6.83 KCAL/MOL
REMARK 923 INTER-LIGAND FREE ENERGY PREDICTED BY IDOCK:   -5.17 KCAL/MOL
REMARK 924 INTRA-LIGAND FREE ENERGY PREDICTED BY IDOCK:   -1.66 KCAL/MOL
REMARK 927      BINDING AFFINITY PREDICTED BY RF-SCORE:    0.00 PKD
ROOT
HETATM    1  C   UNL     1     -11.985  11.863  63.287  1.00  0.00    -0.441 C  
HETATM    2  C   UNL     1     -11.044  12.554  64.290  1.00  0.00    -0.403 C  
HETATM    3  C   UNL     1     -10.874  11.724  65.526  1.00  0.00    -0.297 A  
HETATM    4  C   UNL     1     -11.615  13.917  64.707  1.00  0.00    -0.383 C  
HETATM    5  N   UNL     1     -11.814  11.605  66.440  1.00  0.00    -0.405 NA 
HETATM    6  N   UNL     1     -11.236  11.140  67.569  1.00  0.00    -0.335 NA 
HETATM    7  C   UNL     1      -9.971  10.875  67.320  1.00  0.00    -0.186 A  
HETATM    8  N   UNL     1      -9.710  11.117  65.982  1.00  0.00    -0.216 NA 
HETATM    9  C   UNL     1      -9.058  10.392  68.375  1.00  0.00    -0.147 C  
ENDROOT
BRANCH   8  10
HETATM   10  C   UNL     1      -8.477  10.936  65.186  1.00  0.00    -0.038 C  
HETATM   11  C   UNL     1      -7.132  10.933  65.951  1.00  0.00    -0.029 C  
HETATM   12  C   UNL     1      -6.142   9.786  65.673  1.00  0.00    -0.070 C  
HETATM   13  C   UNL     1      -5.323  10.192  64.449  1.00  0.00    -0.111 C  
HETATM   14  C   UNL     1      -6.224   9.778  63.297  1.00  0.00    -0.115 C  
HETATM   15  C   UNL     1      -7.341   8.917  63.957  1.00  0.00    -0.101 C  
HETATM   16  C   UNL     1      -8.603   9.771  64.159  1.00  0.00    -0.207 C  
HETATM   17  N   UNL     1      -6.734   8.502  65.230  1.00  0.00    -0.063 NA 
BRANCH  17  18
HETATM   18  C   UNL     1      -7.548   7.766  66.263  1.00  0.00    -0.087 C  
BRANCH  18  19
HETATM   19  C   UNL     1      -8.600   6.654  65.811  1.00  0.00    -0.147 C  
HETATM   20  C   UNL     1      -8.313   5.062  65.948  1.00  0.00    -0.116 C  
BRANCH  20  21
HETATM   21  C   UNL     1      -7.729   4.064  64.901  1.00  0.00    -0.081 A  
HETATM   22  C   UNL     1      -6.601   2.409  62.832  1.00  0.00    -0.025 A  
HETATM   23  C   UNL     1      -6.576   4.444  64.141  1.00  0.00    -0.043 A  
HETATM   24  C   UNL     1      -7.739   2.018  63.551  1.00  0.00    -0.060 A  
HETATM   25  C   UNL     1      -8.297   2.832  64.563  1.00  0.00    -0.087 A  
HETATM   26  C   UNL     1      -6.018   3.635  63.129  1.00  0.00    -0.014 A  
ENDBRANCH  20  21
BRANCH  20  27
HETATM   27  N   UNL     1      -7.751   4.763  67.258  1.00  0.00    -0.090 N  
HETATM   28  H   UNL     1      -6.742   4.675  67.376  1.00  0.00     0.000 HD 
HETATM   29  C   UNL     1      -8.587   4.599  68.330  1.00  0.00    -0.098 C  
HETATM   30  O   UNL     1      -9.811   4.634  68.204  1.00  0.00    -0.152 OA 
BRANCH  29  31
HETATM   31  C   UNL     1      -7.932   4.250  69.658  1.00  0.00    -0.056 C  
HETATM   32  C   UNL     1      -6.456   6.274  69.879  1.00  0.00    -0.043 C  
HETATM   33  C   UNL     1      -6.496   4.750  69.845  1.00  0.00    -0.035 C  
HETATM   34  C   UNL     1      -7.389   6.854  70.928  1.00  0.00    -0.077 C  
HETATM   35  F   UNL     1      -7.412   8.204  70.820  1.00  0.00    -0.058 F  
HETATM   36  F   UNL     1      -6.899   6.571  72.163  1.00  0.00    -0.063 F  
HETATM   37  C   UNL     1      -8.802   6.328  70.841  1.00  0.00    -0.136 C  
HETATM   38  C   UNL     1      -8.807   4.802  70.789  1.00  0.00    -0.153 C  
ENDBRANCH  29  31
ENDBRANCH  20  27
ENDBRANCH  18  19
ENDBRANCH  17  18
ENDBRANCH   8  10
TORSDOF 6
ENDMDL
MODEL      174
REMARK 921   NORMALIZED FREE ENERGY PREDICTED BY IDOCK:   -3.91 KCAL/MOL
REMARK 922        TOTAL FREE ENERGY PREDICTED BY IDOCK:   -6.82 KCAL/MOL
REMARK 923 INTER-LIGAND FREE ENERGY PREDICTED BY IDOCK:   -7.95 KCAL/MOL
REMARK 924 INTRA-LIGAND FREE ENERGY PREDICTED BY IDOCK:    1.12 KCAL/MOL
REMARK 927      BINDING AFFINITY PREDICTED BY RF-SCORE:    0.00 PKD
ROOT
HETATM    1  C   UNL     1      -7.914   6.651  66.216  1.00  0.00    -0.108 C  
HETATM    2  C   UNL     1      -7.207   6.396  67.559  1.00  0.00    -0.086 C  
HETATM    3  C   UNL     1      -6.761   7.683  68.184  1.00  0.00    -0.059 A  
HETATM    4  C   UNL     1      -5.968   5.514  67.353  1.00  0.00    -0.022 C  
HETATM    5  N   UNL     1      -5.734   8.374  67.738  1.00  0.00    -0.039 NA 
HETATM    6  N   UNL     1      -5.360   9.233  68.712  1.00  0.00    -0.037 NA 
HETATM    7  C   UNL     1      -6.215   9.144  69.709  1.00  0.00    -0.039 A  
HETATM    8  N   UNL     1      -7.214   8.246  69.372  1.00  0.00    -0.059 NA 
HETATM    9  C   UNL     1      -6.045   9.929  70.948  1.00  0.00    -0.082 C  
ENDROOT
BRANCH   8  10
HETATM   10  C   UNL     1      -8.426   7.824  70.106  1.00  0.00    -0.134 C  
HETATM   11  C   UNL     1      -8.782   8.602  71.396  1.00  0.00    -0.262 C  
HETATM   12  C   UNL     1     -10.224   9.119  71.557  1.00  0.00    -0.333 C  
HETATM   13  C   UNL     1     -11.044   7.973  72.148  1.00  0.00    -0.372 C  
HETATM   14  C   UNL     1     -11.407   7.157  70.918  1.00  0.00    -0.319 C  
HETATM   15  C   UNL     1     -11.009   8.059  69.713  1.00  0.00    -0.137 C  
HETATM   16  C   UNL     1      -9.646   7.614  69.159  1.00  0.00    -0.155 C  
HETATM   17  N   UNL     1     -10.962   9.405  70.304  1.00  0.00    -0.249 NA 
BRANCH  17  18
HETATM   18  C   UNL     1     -10.459  10.576  69.501  1.00  0.00    -0.235 C  
BRANCH  18  19
HETATM   19  C   UNL     1      -9.801  10.342  68.066  1.00  0.00    -0.170 C  
HETATM   20  C   UNL     1      -9.561  11.542  67.000  1.00  0.00    -0.185 C  
BRANCH  20  21
HETATM   21  C   UNL     1     -10.471  12.026  65.828  1.00  0.00    -0.290 A  
HETATM   22  C   UNL     1     -12.320  12.777  63.752  1.00  0.00    -0.533 A  
HETATM   23  C   UNL     1     -11.872  12.210  66.062  1.00  0.00    -0.328 A  
HETATM   24  C   UNL     1     -10.955  12.591  63.492  1.00  0.00    -0.472 A  
HETATM   25  C   UNL     1     -10.048  12.217  64.509  1.00  0.00    -0.280 A  
HETATM   26  C   UNL     1     -12.781  12.582  65.048  1.00  0.00    -0.302 A  
ENDBRANCH  20  21
BRANCH  20  27
HETATM   27  N   UNL     1      -8.986  12.702  67.666  1.00  0.00    -0.176 N  
HETATM   28  H   UNL     1      -7.974  12.821  67.709  1.00  0.00     0.000 HD 
HETATM   29  C   UNL     1      -9.814  13.632  68.236  1.00  0.00    -0.232 C  
HETATM   30  O   UNL     1     -11.035  13.482  68.257  1.00  0.00    -0.241 OA 
BRANCH  29  31
HETATM   31  C   UNL     1      -9.142  14.797  68.949  1.00  0.00    -0.168 C  
HETATM   32  C   UNL     1      -8.638  16.214  66.933  1.00  0.00    -0.253 C  
HETATM   33  C   UNL     1      -8.049  15.522  68.157  1.00  0.00    -0.132 C  
HETATM   34  C   UNL     1      -9.780  17.151  67.292  1.00  0.00    -0.254 C  
HETATM   35  F   UNL     1     -10.347  17.631  66.161  1.00  0.00    -0.333 F  
HETATM   36  F   UNL     1      -9.280  18.223  67.961  1.00  0.00    -0.266 F  
HETATM   37  C   UNL     1     -10.846  16.508  68.146  1.00  0.00    -0.345 C  
HETATM   38  C   UNL     1     -10.223  15.807  69.351  1.00  0.00    -0.262 C  
ENDBRANCH  29  31
ENDBRANCH  20  27
ENDBRANCH  18  19
ENDBRANCH  17  18
ENDBRANCH   8  10
TORSDOF 6
ENDMDL
MODEL      175
REMARK 921   NORMALIZED FREE ENERGY PREDICTED BY IDOCK:   -3.91 KCAL/MOL
REMARK 922        TOTAL FREE ENERGY PREDICTED BY IDOCK:   -6.82 KCAL/MOL
REMARK 923 INTER-LIGAND FREE ENERGY PREDICTED BY IDOCK:   -5.52 KCAL/MOL
REMARK 924 INTRA-LIGAND FREE ENERGY PREDICTED BY IDOCK:   -1.30 KCAL/MOL
REMARK 927      BINDING AFFINITY PREDICTED BY RF-SCORE:    0.00 PKD
ROOT
HETATM    1  C   UNL     1     -11.872   8.333  72.818  1.00  0.00    -0.273 C  
HETATM    2  C   UNL     1     -10.407   7.896  72.644  1.00  0.00    -0.372 C  
HETATM    3  C   UNL     1     -10.296   6.766  71.665  1.00  0.00    -0.196 A  
HETATM    4  C   UNL     1      -9.828   7.421  73.985  1.00  0.00    -0.190 C  
HETATM    5  N   UNL     1     -10.663   5.536  71.952  1.00  0.00    -0.233 NA 
HETATM    6  N   UNL     1     -10.092   4.713  71.045  1.00  0.00    -0.198 NA 
HETATM    7  C   UNL     1      -9.465   5.442  70.146  1.00  0.00    -0.161 A  
HETATM    8  N   UNL     1      -9.665   6.782  70.426  1.00  0.00    -0.175 NA 
HETATM    9  C   UNL     1      -8.699   4.823  69.045  1.00  0.00    -0.108 C  
ENDROOT
BRANCH   8  10
HETATM   10  C   UNL     1      -9.226   7.999  69.711  1.00  0.00    -0.149 C  
HETATM   11  C   UNL     1      -7.936   7.897  68.862  1.00  0.00    -0.123 C  
HETATM   12  C   UNL     1      -7.978   8.414  67.412  1.00  0.00    -0.106 C  
HETATM   13  C   UNL     1      -7.696   9.915  67.467  1.00  0.00    -0.091 C  
HETATM   14  C   UNL     1      -9.065  10.497  67.781  1.00  0.00    -0.140 C  
HETATM   15  C   UNL     1     -10.053   9.308  67.594  1.00  0.00    -0.214 C  
HETATM   16  C   UNL     1     -10.399   8.701  68.963  1.00  0.00    -0.226 C  
HETATM   17  N   UNL     1      -9.299   8.377  66.741  1.00  0.00    -0.171 NA 
BRANCH  17  18
HETATM   18  C   UNL     1      -9.841   7.005  66.439  1.00  0.00    -0.035 C  
BRANCH  18  19
HETATM   19  C   UNL     1      -8.843   5.779  66.219  1.00  0.00    -0.140 C  
HETATM   20  C   UNL     1      -8.551   5.131  64.759  1.00  0.00    -0.148 C  
BRANCH  20  21
HETATM   21  C   UNL     1      -9.231   3.914  64.058  1.00  0.00    -0.141 A  
HETATM   22  C   UNL     1     -10.330   1.696  62.587  1.00  0.00    -0.102 A  
HETATM   23  C   UNL     1      -8.423   2.999  63.309  1.00  0.00    -0.086 A  
HETATM   24  C   UNL     1     -11.146   2.585  63.300  1.00  0.00    -0.141 A  
HETATM   25  C   UNL     1     -10.608   3.677  64.018  1.00  0.00    -0.272 A  
HETATM   26  C   UNL     1      -8.957   1.909  62.591  1.00  0.00    -0.076 A  
ENDBRANCH  20  21
BRANCH  20  27
HETATM   27  N   UNL     1      -8.328   6.183  63.777  1.00  0.00    -0.319 N  
HETATM   28  H   UNL     1      -9.117   6.692  63.381  1.00  0.00     0.000 HD 
HETATM   29  C   UNL     1      -7.049   6.482  63.388  1.00  0.00    -0.055 C  
HETATM   30  O   UNL     1      -6.084   5.841  63.800  1.00  0.00    -0.024 OA 
BRANCH  29  31
HETATM   31  C   UNL     1      -6.895   7.565  62.330  1.00  0.00    -0.075 C  
HETATM   32  C   UNL     1      -7.595   9.538  63.724  1.00  0.00    -0.121 C  
HETATM   33  C   UNL     1      -7.858   8.752  62.445  1.00  0.00    -0.135 C  
HETATM   34  C   UNL     1      -6.147   9.982  63.843  1.00  0.00    -0.132 C  
HETATM   35  F   UNL     1      -5.944  10.555  65.052  1.00  0.00    -0.111 F  
HETATM   36  F   UNL     1      -5.900  10.942  62.912  1.00  0.00    -0.154 F  
HETATM   37  C   UNL     1      -5.151   8.863  63.653  1.00  0.00    -0.061 C  
HETATM   38  C   UNL     1      -5.453   8.084  62.375  1.00  0.00    -0.065 C  
ENDBRANCH  29  31
ENDBRANCH  20  27
ENDBRANCH  18  19
ENDBRANCH  17  18
ENDBRANCH   8  10
TORSDOF 6
ENDMDL
MODEL      176
REMARK 921   NORMALIZED FREE ENERGY PREDICTED BY IDOCK:   -3.85 KCAL/MOL
REMARK 922        TOTAL FREE ENERGY PREDICTED BY IDOCK:   -6.74 KCAL/MOL
REMARK 923 INTER-LIGAND FREE ENERGY PREDICTED BY IDOCK:   -6.19 KCAL/MOL
REMARK 924 INTRA-LIGAND FREE ENERGY PREDICTED BY IDOCK:   -0.55 KCAL/MOL
REMARK 927      BINDING AFFINITY PREDICTED BY RF-SCORE:    0.00 PKD
ROOT
HETATM    1  C   UNL     1     -10.387   5.697  68.773  1.00  0.00    -0.288 C  
HETATM    2  C   UNL     1      -9.377   4.821  68.012  1.00  0.00    -0.168 C  
HETATM    3  C   UNL     1      -9.579   4.931  66.531  1.00  0.00    -0.169 A  
HETATM    4  C   UNL     1      -9.544   3.347  68.407  1.00  0.00    -0.144 C  
HETATM    5  N   UNL     1     -10.590   4.366  65.906  1.00  0.00    -0.167 NA 
HETATM    6  N   UNL     1     -10.285   4.315  64.591  1.00  0.00    -0.155 NA 
HETATM    7  C   UNL     1      -9.143   4.939  64.395  1.00  0.00    -0.033 A  
HETATM    8  N   UNL     1      -8.700   5.465  65.596  1.00  0.00    -0.148 NA 
HETATM    9  C   UNL     1      -8.518   5.011  63.059  1.00  0.00    -0.119 C  
ENDROOT
BRANCH   8  10
HETATM   10  C   UNL     1      -7.513   6.286  65.917  1.00  0.00    -0.082 C  
HETATM   11  C   UNL     1      -7.490   7.739  65.384  1.00  0.00    -0.081 C  
HETATM   12  C   UNL     1      -7.150   8.869  66.375  1.00  0.00    -0.083 C  
HETATM   13  C   UNL     1      -5.626   8.975  66.422  1.00  0.00    -0.049 C  
HETATM   14  C   UNL     1      -5.252   7.897  67.427  1.00  0.00    -0.032 C  
HETATM   15  C   UNL     1      -6.603   7.471  68.073  1.00  0.00    -0.054 C  
HETATM   16  C   UNL     1      -7.105   6.175  67.417  1.00  0.00    -0.070 C  
HETATM   17  N   UNL     1      -7.482   8.616  67.797  1.00  0.00    -0.096 NA 
BRANCH  17  18
HETATM   18  C   UNL     1      -8.951   8.551  68.124  1.00  0.00    -0.142 C  
BRANCH  18  19
HETATM   19  C   UNL     1      -9.586   9.578  69.167  1.00  0.00    -0.170 C  
HETATM   20  C   UNL     1     -10.139   9.126  70.625  1.00  0.00    -0.247 C  
BRANCH  20  21
HETATM   21  C   UNL     1     -11.584   8.732  71.061  1.00  0.00    -0.337 A  
HETATM   22  C   UNL     1     -14.224   7.805  71.741  1.00  0.00    -0.558 A  
HETATM   23  C   UNL     1     -11.880   7.358  71.339  1.00  0.00    -0.329 A  
HETATM   24  C   UNL     1     -13.966   9.153  71.460  1.00  0.00    -0.304 A  
HETATM   25  C   UNL     1     -12.672   9.609  71.121  1.00  0.00    -0.407 A  
HETATM   26  C   UNL     1     -13.171   6.900  71.677  1.00  0.00    -0.315 A  
ENDBRANCH  20  21
BRANCH  20  27
HETATM   27  N   UNL     1      -9.186   8.233  71.270  1.00  0.00    -0.152 N  
HETATM   28  H   UNL     1      -9.460   7.282  71.517  1.00  0.00     0.000 HD 
HETATM   29  C   UNL     1      -7.920   8.679  71.541  1.00  0.00    -0.136 C  
HETATM   30  O   UNL     1      -7.584   9.840  71.314  1.00  0.00    -0.231 OA 
BRANCH  29  31
HETATM   31  C   UNL     1      -6.992   7.705  72.251  1.00  0.00    -0.066 C  
HETATM   32  C   UNL     1      -8.600   6.876  73.998  1.00  0.00    -0.176 C  
HETATM   33  C   UNL     1      -7.240   7.520  73.752  1.00  0.00    -0.113 C  
HETATM   34  C   UNL     1      -8.768   5.570  73.240  1.00  0.00    -0.115 C  
HETATM   35  F   UNL     1     -10.035   5.117  73.389  1.00  0.00    -0.157 F  
HETATM   36  F   UNL     1      -7.953   4.631  73.788  1.00  0.00    -0.098 F  
HETATM   37  C   UNL     1      -8.452   5.678  71.767  1.00  0.00    -0.127 C  
HETATM   38  C   UNL     1      -7.094   6.344  71.554  1.00  0.00    -0.078 C  
ENDBRANCH  29  31
ENDBRANCH  20  27
ENDBRANCH  18  19
ENDBRANCH  17  18
ENDBRANCH   8  10
TORSDOF 6
ENDMDL
MODEL      177
REMARK 921   NORMALIZED FREE ENERGY PREDICTED BY IDOCK:   -3.85 KCAL/MOL
REMARK 922        TOTAL FREE ENERGY PREDICTED BY IDOCK:   -6.74 KCAL/MOL
REMARK 923 INTER-LIGAND FREE ENERGY PREDICTED BY IDOCK:   -5.25 KCAL/MOL
REMARK 924 INTRA-LIGAND FREE ENERGY PREDICTED BY IDOCK:   -1.49 KCAL/MOL
REMARK 927      BINDING AFFINITY PREDICTED BY RF-SCORE:    0.00 PKD
ROOT
HETATM    1  C   UNL     1      -9.627  16.916  65.569  1.00  0.00     0.265 C  
HETATM    2  C   UNL     1      -9.897  16.316  66.960  1.00  0.00    -0.247 C  
HETATM    3  C   UNL     1     -10.522  14.958  66.846  1.00  0.00    -0.280 A  
HETATM    4  C   UNL     1     -10.854  17.215  67.754  1.00  0.00    -0.270 C  
HETATM    5  N   UNL     1     -11.776  14.779  66.489  1.00  0.00    -0.319 NA 
HETATM    6  N   UNL     1     -12.133  13.527  66.852  1.00  0.00    -0.387 NA 
HETATM    7  C   UNL     1     -11.076  12.907  67.333  1.00  0.00    -0.273 A  
HETATM    8  N   UNL     1      -9.977  13.742  67.240  1.00  0.00    -0.237 NA 
HETATM    9  C   UNL     1     -11.160  11.530  67.861  1.00  0.00    -0.317 C  
ENDROOT
BRANCH   8  10
HETATM   10  C   UNL     1      -8.557  13.519  67.589  1.00  0.00    -0.185 C  
HETATM   11  C   UNL     1      -8.175  13.591  69.087  1.00  0.00     0.421 C  
HETATM   12  C   UNL     1      -7.339  12.441  69.679  1.00  0.00     0.626 C  
HETATM   13  C   UNL     1      -5.873  12.766  69.398  1.00  0.00    -0.097 C  
HETATM   14  C   UNL     1      -5.687  12.255  67.979  1.00  0.00    -0.064 C  
HETATM   15  C   UNL     1      -6.974  11.430  67.683  1.00  0.00    -0.081 C  
HETATM   16  C   UNL     1      -7.957  12.279  66.861  1.00  0.00    -0.068 C  
HETATM   17  N   UNL     1      -7.488  11.119  69.025  1.00  0.00    -0.124 NA 
BRANCH  17  18
HETATM   18  C   UNL     1      -8.827  10.451  69.197  1.00  0.00    -0.172 C  
BRANCH  18  19
HETATM   19  C   UNL     1      -9.047   9.382  70.362  1.00  0.00    -0.302 C  
HETATM   20  C   UNL     1     -10.068   8.128  70.226  1.00  0.00    -0.192 C  
BRANCH  20  21
HETATM   21  C   UNL     1     -11.560   8.009  70.668  1.00  0.00    -0.203 A  
HETATM   22  C   UNL     1     -14.258   7.925  71.669  1.00  0.00    -0.564 A  
HETATM   23  C   UNL     1     -12.201   9.137  71.273  1.00  0.00    -0.395 A  
HETATM   24  C   UNL     1     -13.651   6.801  71.093  1.00  0.00     0.084 A  
HETATM   25  C   UNL     1     -12.324   6.839  70.606  1.00  0.00    -0.231 A  
HETATM   26  C   UNL     1     -13.524   9.102  71.762  1.00  0.00    -0.478 A  
ENDBRANCH  20  21
BRANCH  20  27
HETATM   27  N   UNL     1      -9.901   7.479  68.933  1.00  0.00    -0.156 N  
HETATM   28  H   UNL     1     -10.516   7.716  68.156  1.00  0.00     0.000 HD 
HETATM   29  C   UNL     1      -8.910   6.548  68.769  1.00  0.00    -0.125 C  
HETATM   30  O   UNL     1      -8.195   6.195  69.706  1.00  0.00    -0.119 OA 
BRANCH  29  31
HETATM   31  C   UNL     1      -8.819   5.883  67.403  1.00  0.00    -0.106 C  
HETATM   32  C   UNL     1      -9.012   7.948  65.981  1.00  0.00    -0.195 C  
HETATM   33  C   UNL     1      -9.595   6.571  66.274  1.00  0.00    -0.096 C  
HETATM   34  C   UNL     1      -7.523   7.895  65.682  1.00  0.00    -0.081 C  
HETATM   35  F   UNL     1      -7.037   9.153  65.562  1.00  0.00    -0.078 F  
HETATM   36  F   UNL     1      -7.334   7.290  64.479  1.00  0.00    -0.061 F  
HETATM   37  C   UNL     1      -6.721   7.153  66.723  1.00  0.00    -0.060 C  
HETATM   38  C   UNL     1      -7.341   5.787  67.009  1.00  0.00    -0.080 C  
ENDBRANCH  29  31
ENDBRANCH  20  27
ENDBRANCH  18  19
ENDBRANCH  17  18
ENDBRANCH   8  10
TORSDOF 6
ENDMDL
MODEL      178
REMARK 921   NORMALIZED FREE ENERGY PREDICTED BY IDOCK:   -3.84 KCAL/MOL
REMARK 922        TOTAL FREE ENERGY PREDICTED BY IDOCK:   -6.73 KCAL/MOL
REMARK 923 INTER-LIGAND FREE ENERGY PREDICTED BY IDOCK:   -5.86 KCAL/MOL
REMARK 924 INTRA-LIGAND FREE ENERGY PREDICTED BY IDOCK:   -0.86 KCAL/MOL
REMARK 927      BINDING AFFINITY PREDICTED BY RF-SCORE:    0.00 PKD
ROOT
HETATM    1  C   UNL     1     -11.829   7.995  72.715  1.00  0.00    -0.303 C  
HETATM    2  C   UNL     1     -10.973   6.800  72.259  1.00  0.00    -0.276 C  
HETATM    3  C   UNL     1     -10.809   6.795  70.769  1.00  0.00    -0.249 A  
HETATM    4  C   UNL     1     -11.639   5.479  72.669  1.00  0.00    -0.293 C  
HETATM    5  N   UNL     1     -11.779   6.456  69.947  1.00  0.00    -0.370 NA 
HETATM    6  N   UNL     1     -11.224   6.179  68.746  1.00  0.00    -0.332 NA 
HETATM    7  C   UNL     1      -9.936   6.446  68.802  1.00  0.00    -0.147 A  
HETATM    8  N   UNL     1      -9.632   6.965  70.049  1.00  0.00    -0.158 NA 
HETATM    9  C   UNL     1      -9.043   6.199  67.652  1.00  0.00    -0.109 C  
ENDROOT
BRANCH   8  10
HETATM   10  C   UNL     1      -8.358   7.466  70.607  1.00  0.00    -0.127 C  
HETATM   11  C   UNL     1      -7.073   7.208  69.784  1.00  0.00    -0.073 C  
HETATM   12  C   UNL     1      -6.131   8.398  69.519  1.00  0.00    -0.036 C  
HETATM   13  C   UNL     1      -5.206   8.511  70.730  1.00  0.00    -0.024 C  
HETATM   14  C   UNL     1      -6.044   9.314  71.711  1.00  0.00    -0.021 C  
HETATM   15  C   UNL     1      -7.251   9.829  70.873  1.00  0.00     0.098 C  
HETATM   16  C   UNL     1      -8.475   8.933  71.121  1.00  0.00    -0.250 C  
HETATM   17  N   UNL     1      -6.760   9.739  69.490  1.00  0.00    -0.049 NA 
BRANCH  17  18
HETATM   18  C   UNL     1      -7.685  10.003  68.330  1.00  0.00    -0.084 C  
BRANCH  18  19
HETATM   19  C   UNL     1      -7.106  10.574  66.957  1.00  0.00    -0.094 C  
HETATM   20  C   UNL     1      -7.733  10.193  65.510  1.00  0.00    -0.145 C  
BRANCH  20  21
HETATM   21  C   UNL     1      -7.317   9.068  64.512  1.00  0.00    -0.099 A  
HETATM   22  C   UNL     1      -6.762   6.896  62.704  1.00  0.00    -0.047 A  
HETATM   23  C   UNL     1      -8.298   8.528  63.618  1.00  0.00    -0.084 A  
HETATM   24  C   UNL     1      -5.787   7.395  63.578  1.00  0.00    -0.045 A  
HETATM   25  C   UNL     1      -6.059   8.458  64.469  1.00  0.00    -0.065 A  
HETATM   26  C   UNL     1      -8.029   7.467  62.728  1.00  0.00    -0.119 A  
ENDBRANCH  20  21
BRANCH  20  27
HETATM   27  N   UNL     1      -9.186  10.278  65.551  1.00  0.00    -0.176 N  
HETATM   28  H   UNL     1      -9.715   9.713  66.214  1.00  0.00     0.000 HD 
HETATM   29  C   UNL     1      -9.837  11.125  64.693  1.00  0.00    -0.280 C  
HETATM   30  O   UNL     1      -9.229  11.769  63.839  1.00  0.00     0.021 OA 
BRANCH  29  31
HETATM   31  C   UNL     1     -11.357  11.133  64.767  1.00  0.00     0.070 C  
HETATM   32  C   UNL     1     -11.626  12.922  66.514  1.00  0.00    -0.425 C  
HETATM   33  C   UNL     1     -11.956  11.483  66.133  1.00  0.00     0.631 C  
HETATM   34  C   UNL     1     -12.053  13.916  65.446  1.00  0.00    -0.408 C  
HETATM   35  F   UNL     1     -11.617  15.154  65.776  1.00  0.00    -0.330 F  
HETATM   36  F   UNL     1     -13.411  13.978  65.416  1.00  0.00    -0.478 F  
HETATM   37  C   UNL     1     -11.558  13.570  64.062  1.00  0.00    -0.394 C  
HETATM   38  C   UNL     1     -11.887  12.119  63.719  1.00  0.00    -0.592 C  
ENDBRANCH  29  31
ENDBRANCH  20  27
ENDBRANCH  18  19
ENDBRANCH  17  18
ENDBRANCH   8  10
TORSDOF 6
ENDMDL
MODEL      179
REMARK 921   NORMALIZED FREE ENERGY PREDICTED BY IDOCK:   -3.81 KCAL/MOL
REMARK 922        TOTAL FREE ENERGY PREDICTED BY IDOCK:   -6.69 KCAL/MOL
REMARK 923 INTER-LIGAND FREE ENERGY PREDICTED BY IDOCK:   -5.52 KCAL/MOL
REMARK 924 INTRA-LIGAND FREE ENERGY PREDICTED BY IDOCK:   -1.17 KCAL/MOL
REMARK 927      BINDING AFFINITY PREDICTED BY RF-SCORE:    0.00 PKD
ROOT
HETATM    1  C   UNL     1     -10.154   5.308  65.806  1.00  0.00    -0.031 C  
HETATM    2  C   UNL     1      -9.395   5.134  67.133  1.00  0.00    -0.129 C  
HETATM    3  C   UNL     1      -8.351   6.197  67.297  1.00  0.00    -0.105 A  
HETATM    4  C   UNL     1      -8.695   3.769  67.174  1.00  0.00    -0.122 C  
HETATM    5  N   UNL     1      -7.225   6.201  66.616  1.00  0.00    -0.072 NA 
HETATM    6  N   UNL     1      -6.362   7.025  67.251  1.00  0.00    -0.049 NA 
HETATM    7  C   UNL     1      -6.987   7.604  68.254  1.00  0.00    -0.072 A  
HETATM    8  N   UNL     1      -8.311   7.200  68.259  1.00  0.00    -0.124 NA 
HETATM    9  C   UNL     1      -6.291   8.530  69.170  1.00  0.00    -0.043 C  
ENDROOT
BRANCH   8  10
HETATM   10  C   UNL     1      -9.440   7.586  69.133  1.00  0.00    -0.150 C  
HETATM   11  C   UNL     1      -9.098   8.075  70.560  1.00  0.00    -0.153 C  
HETATM   12  C   UNL     1      -9.731   9.392  71.048  1.00  0.00    -0.223 C  
HETATM   13  C   UNL     1     -11.107   9.042  71.612  1.00  0.00    -0.433 C  
HETATM   14  C   UNL     1     -11.976   9.012  70.366  1.00  0.00     0.054 C  
HETATM   15  C   UNL     1     -11.086   9.625  69.246  1.00  0.00    -0.118 C  
HETATM   16  C   UNL     1     -10.468   8.501  68.400  1.00  0.00    -0.215 C  
HETATM   17  N   UNL     1     -10.075  10.381  69.999  1.00  0.00    -0.126 NA 
BRANCH  17  18
HETATM   18  C   UNL     1      -8.907  11.016  69.290  1.00  0.00     0.109 C  
BRANCH  18  19
HETATM   19  C   UNL     1      -8.718  10.814  67.718  1.00  0.00    -0.130 C  
HETATM   20  C   UNL     1      -9.079  11.965  66.632  1.00  0.00    -0.203 C  
BRANCH  20  21
HETATM   21  C   UNL     1     -10.396  12.193  65.827  1.00  0.00    -0.289 A  
HETATM   22  C   UNL     1     -12.692  12.658  64.153  1.00  0.00    -0.373 A  
HETATM   23  C   UNL     1     -10.464  11.766  64.462  1.00  0.00    -0.352 A  
HETATM   24  C   UNL     1     -12.648  13.100  65.482  1.00  0.00    -0.468 A  
HETATM   25  C   UNL     1     -11.520  12.877  66.303  1.00  0.00    -0.395 A  
HETATM   26  C   UNL     1     -11.588  11.988  63.639  1.00  0.00    -0.578 A  
ENDBRANCH  20  21
BRANCH  20  27
HETATM   27  N   UNL     1      -8.559  13.253  67.070  1.00  0.00    -0.335 N  
HETATM   28  H   UNL     1      -9.196  13.985  67.382  1.00  0.00     0.000 HD 
HETATM   29  C   UNL     1      -7.207  13.473  67.060  1.00  0.00     0.424 C  
HETATM   30  O   UNL     1      -6.421  12.632  66.627  1.00  0.00     0.115 OA 
BRANCH  29  31
HETATM   31  C   UNL     1      -6.739  14.855  67.494  1.00  0.00    -0.167 C  
HETATM   32  C   UNL     1      -7.537  14.777  69.877  1.00  0.00     0.113 C  
HETATM   33  C   UNL     1      -7.596  15.544  68.561  1.00  0.00    -0.127 C  
HETATM   34  C   UNL     1      -6.112  14.562  70.359  1.00  0.00    -0.176 C  
HETATM   35  F   UNL     1      -6.117  13.765  71.453  1.00  0.00    -0.215 F  
HETATM   36  F   UNL     1      -5.592  15.755  70.750  1.00  0.00    -0.158 F  
HETATM   37  C   UNL     1      -5.203  13.961  69.314  1.00  0.00    -0.081 C  
HETATM   38  C   UNL     1      -5.299  14.739  68.004  1.00  0.00    -0.120 C  
ENDBRANCH  29  31
ENDBRANCH  20  27
ENDBRANCH  18  19
ENDBRANCH  17  18
ENDBRANCH   8  10
TORSDOF 6
ENDMDL
MODEL      180
REMARK 921   NORMALIZED FREE ENERGY PREDICTED BY IDOCK:   -3.80 KCAL/MOL
REMARK 922        TOTAL FREE ENERGY PREDICTED BY IDOCK:   -6.68 KCAL/MOL
REMARK 923 INTER-LIGAND FREE ENERGY PREDICTED BY IDOCK:   -5.58 KCAL/MOL
REMARK 924 INTRA-LIGAND FREE ENERGY PREDICTED BY IDOCK:   -1.10 KCAL/MOL
REMARK 927      BINDING AFFINITY PREDICTED BY RF-SCORE:    0.00 PKD
ROOT
HETATM    1  C   UNL     1     -12.290  10.440  70.545  1.00  0.00    -0.410 C  
HETATM    2  C   UNL     1     -11.770   9.389  71.542  1.00  0.00    -0.465 C  
HETATM    3  C   UNL     1     -11.394   8.121  70.837  1.00  0.00    -0.268 A  
HETATM    4  C   UNL     1     -12.852   9.054  72.578  1.00  0.00    -0.408 C  
HETATM    5  N   UNL     1     -12.286   7.278  70.362  1.00  0.00    -0.051 NA 
HETATM    6  N   UNL     1     -11.665   6.097  70.150  1.00  0.00    -0.220 NA 
HETATM    7  C   UNL     1     -10.379   6.243  70.393  1.00  0.00    -0.208 A  
HETATM    8  N   UNL     1     -10.126   7.563  70.722  1.00  0.00    -0.193 NA 
HETATM    9  C   UNL     1      -9.438   5.109  70.296  1.00  0.00    -0.233 C  
ENDROOT
BRANCH   8  10
HETATM   10  C   UNL     1      -8.859   8.260  71.033  1.00  0.00    -0.150 C  
HETATM   11  C   UNL     1      -7.608   7.382  71.275  1.00  0.00    -0.082 C  
HETATM   12  C   UNL     1      -6.315   7.737  70.516  1.00  0.00    -0.037 C  
HETATM   13  C   UNL     1      -5.595   8.804  71.338  1.00  0.00    -0.042 C  
HETATM   14  C   UNL     1      -6.282  10.084  70.892  1.00  0.00    -0.050 C  
HETATM   15  C   UNL     1      -7.129   9.668  69.654  1.00  0.00    -0.075 C  
HETATM   16  C   UNL     1      -8.593   9.458  70.073  1.00  0.00    -0.218 C  
HETATM   17  N   UNL     1      -6.487   8.421  69.213  1.00  0.00    -0.038 NA 
BRANCH  17  18
HETATM   18  C   UNL     1      -7.098   7.592  68.114  1.00  0.00    -0.081 C  
BRANCH  18  19
HETATM   19  C   UNL     1      -6.182   6.620  67.239  1.00  0.00    -0.036 C  
HETATM   20  C   UNL     1      -6.456   6.329  65.666  1.00  0.00    -0.039 C  
BRANCH  20  21
HETATM   21  C   UNL     1      -7.264   5.175  64.995  1.00  0.00    -0.066 A  
HETATM   22  C   UNL     1      -8.712   2.915  63.952  1.00  0.00    -0.089 A  
HETATM   23  C   UNL     1      -8.093   4.337  65.810  1.00  0.00    -0.101 A  
HETATM   24  C   UNL     1      -7.897   3.710  63.134  1.00  0.00    -0.071 A  
HETATM   25  C   UNL     1      -7.181   4.816  63.646  1.00  0.00    -0.049 A  
HETATM   26  C   UNL     1      -8.807   3.232  65.302  1.00  0.00    -0.132 A  
ENDBRANCH  20  21
BRANCH  20  27
HETATM   27  N   UNL     1      -6.733   7.574  64.964  1.00  0.00    -0.047 N  
HETATM   28  H   UNL     1      -5.985   8.064  64.473  1.00  0.00     0.000 HD 
HETATM   29  C   UNL     1      -8.004   8.083  64.968  1.00  0.00    -0.126 C  
HETATM   30  O   UNL     1      -8.910   7.549  65.606  1.00  0.00    -0.134 OA 
BRANCH  29  31
HETATM   31  C   UNL     1      -8.211   9.407  64.247  1.00  0.00    -0.153 C  
HETATM   32  C   UNL     1     -10.038  10.335  65.704  1.00  0.00    -0.341 C  
HETATM   33  C   UNL     1      -9.636   9.970  64.280  1.00  0.00    -0.301 C  
HETATM   34  C   UNL     1      -9.048  11.284  66.360  1.00  0.00    -0.192 C  
HETATM   35  F   UNL     1      -9.384  11.465  67.659  1.00  0.00    -0.152 F  
HETATM   36  F   UNL     1      -9.139  12.501  65.762  1.00  0.00    -0.125 F  
HETATM   37  C   UNL     1      -7.615  10.816  66.280  1.00  0.00    -0.142 C  
HETATM   38  C   UNL     1      -7.250  10.440  64.846  1.00  0.00    -0.051 C  
ENDBRANCH  29  31
ENDBRANCH  20  27
ENDBRANCH  18  19
ENDBRANCH  17  18
ENDBRANCH   8  10
TORSDOF 6
ENDMDL
MODEL      181
REMARK 921   NORMALIZED FREE ENERGY PREDICTED BY IDOCK:   -3.77 KCAL/MOL
REMARK 922        TOTAL FREE ENERGY PREDICTED BY IDOCK:   -6.64 KCAL/MOL
REMARK 923 INTER-LIGAND FREE ENERGY PREDICTED BY IDOCK:   -4.93 KCAL/MOL
REMARK 924 INTRA-LIGAND FREE ENERGY PREDICTED BY IDOCK:   -1.70 KCAL/MOL
REMARK 927      BINDING AFFINITY PREDICTED BY RF-SCORE:    0.00 PKD
ROOT
HETATM    1  C   UNL     1     -10.401  13.678  66.476  1.00  0.00    -0.282 C  
HETATM    2  C   UNL     1     -10.227  13.469  67.990  1.00  0.00    -0.243 C  
HETATM    3  C   UNL     1     -10.852  12.180  68.430  1.00  0.00    -0.224 A  
HETATM    4  C   UNL     1     -10.897  14.611  68.768  1.00  0.00    -0.261 C  
HETATM    5  N   UNL     1     -12.154  12.014  68.524  1.00  0.00    -0.364 NA 
HETATM    6  N   UNL     1     -12.378  10.926  69.293  1.00  0.00    -0.379 NA 
HETATM    7  C   UNL     1     -11.222  10.367  69.583  1.00  0.00    -0.277 A  
HETATM    8  N   UNL     1     -10.208  11.063  68.950  1.00  0.00    -0.201 NA 
HETATM    9  C   UNL     1     -11.134   9.178  70.455  1.00  0.00    -0.293 C  
ENDROOT
BRANCH   8  10
HETATM   10  C   UNL     1      -8.749  10.826  68.905  1.00  0.00    -0.152 C  
HETATM   11  C   UNL     1      -8.157   9.845  69.946  1.00  0.00    -0.200 C  
HETATM   12  C   UNL     1      -7.224   8.728  69.442  1.00  0.00    -0.061 C  
HETATM   13  C   UNL     1      -5.819   9.324  69.362  1.00  0.00    -0.034 C  
HETATM   14  C   UNL     1      -5.830  10.013  68.008  1.00  0.00    -0.038 C  
HETATM   15  C   UNL     1      -7.130   9.509  67.316  1.00  0.00    -0.086 C  
HETATM   16  C   UNL     1      -8.236  10.567  67.456  1.00  0.00    -0.114 C  
HETATM   17  N   UNL     1      -7.440   8.272  68.048  1.00  0.00    -0.096 NA 
BRANCH  17  18
HETATM   18  C   UNL     1      -8.728   7.534  67.794  1.00  0.00    -0.123 C  
BRANCH  18  19
HETATM   19  C   UNL     1      -9.205   7.245  66.298  1.00  0.00    -0.175 C  
HETATM   20  C   UNL     1      -8.183   7.210  65.038  1.00  0.00    -0.093 C  
BRANCH  20  21
HETATM   21  C   UNL     1      -7.790   8.348  64.045  1.00  0.00    -0.146 A  
HETATM   22  C   UNL     1      -6.878  10.492  62.353  1.00  0.00    -0.146 A  
HETATM   23  C   UNL     1      -6.404   8.591  63.774  1.00  0.00    -0.073 A  
HETATM   24  C   UNL     1      -8.239  10.286  62.612  1.00  0.00    -0.170 A  
HETATM   25  C   UNL     1      -8.688   9.237  63.447  1.00  0.00    -0.193 A  
HETATM   26  C   UNL     1      -5.953   9.637  62.942  1.00  0.00    -0.101 A  
ENDBRANCH  20  21
BRANCH  20  27
HETATM   27  N   UNL     1      -6.994   6.441  65.375  1.00  0.00    -0.051 N  
HETATM   28  H   UNL     1      -6.177   6.904  65.773  1.00  0.00     0.000 HD 
HETATM   29  C   UNL     1      -6.980   5.089  65.155  1.00  0.00    -0.061 C  
HETATM   30  O   UNL     1      -7.925   4.514  64.617  1.00  0.00    -0.087 OA 
BRANCH  29  31
HETATM   31  C   UNL     1      -5.690   4.356  65.496  1.00  0.00    -0.018 C  
HETATM   32  C   UNL     1      -6.182   3.856  67.911  1.00  0.00    -0.036 C  
HETATM   33  C   UNL     1      -5.201   4.504  66.940  1.00  0.00    -0.008 C  
HETATM   34  C   UNL     1      -6.467   2.404  67.564  1.00  0.00    -0.032 C  
HETATM   35  F   UNL     1      -7.440   1.925  68.374  1.00  0.00    -0.043 F  
HETATM   36  F   UNL     1      -5.355   1.663  67.813  1.00  0.00    -0.010 F  
HETATM   37  C   UNL     1      -6.872   2.192  66.125  1.00  0.00    -0.043 C  
HETATM   38  C   UNL     1      -5.881   2.868  65.180  1.00  0.00    -0.018 C  
ENDBRANCH  29  31
ENDBRANCH  20  27
ENDBRANCH  18  19
ENDBRANCH  17  18
ENDBRANCH   8  10
TORSDOF 6
ENDMDL
MODEL      182
REMARK 921   NORMALIZED FREE ENERGY PREDICTED BY IDOCK:   -3.75 KCAL/MOL
REMARK 922        TOTAL FREE ENERGY PREDICTED BY IDOCK:   -6.60 KCAL/MOL
REMARK 923 INTER-LIGAND FREE ENERGY PREDICTED BY IDOCK:   -4.47 KCAL/MOL
REMARK 924 INTRA-LIGAND FREE ENERGY PREDICTED BY IDOCK:   -2.12 KCAL/MOL
REMARK 927      BINDING AFFINITY PREDICTED BY RF-SCORE:    0.00 PKD
ROOT
HETATM    1  C   UNL     1      -7.694   8.371  72.187  1.00  0.00    -0.159 C  
HETATM    2  C   UNL     1      -6.737   8.936  71.123  1.00  0.00    -0.081 C  
HETATM    3  C   UNL     1      -6.375   7.887  70.116  1.00  0.00    -0.033 A  
HETATM    4  C   UNL     1      -5.442   9.435  71.778  1.00  0.00    -0.073 C  
HETATM    5  N   UNL     1      -5.546   6.900  70.382  1.00  0.00    -0.023 NA 
HETATM    6  N   UNL     1      -5.133   6.380  69.206  1.00  0.00    -0.011 NA 
HETATM    7  C   UNL     1      -5.783   6.973  68.227  1.00  0.00    -0.021 A  
HETATM    8  N   UNL     1      -6.689   7.872  68.762  1.00  0.00    -0.056 NA 
HETATM    9  C   UNL     1      -5.513   6.652  66.811  1.00  0.00    -0.013 C  
ENDROOT
BRANCH   8  10
HETATM   10  C   UNL     1      -7.686   8.748  68.110  1.00  0.00    -0.101 C  
HETATM   11  C   UNL     1      -8.132   8.372  66.677  1.00  0.00    -0.101 C  
HETATM   12  C   UNL     1      -9.643   8.315  66.379  1.00  0.00    -0.230 C  
HETATM   13  C   UNL     1     -10.082   9.735  66.029  1.00  0.00    -0.322 C  
HETATM   14  C   UNL     1     -10.311  10.357  67.397  1.00  0.00    -0.275 C  
HETATM   15  C   UNL     1     -10.261   9.158  68.390  1.00  0.00    -0.200 C  
HETATM   16  C   UNL     1      -8.877   9.092  69.054  1.00  0.00    -0.139 C  
HETATM   17  N   UNL     1     -10.525   7.998  67.527  1.00  0.00    -0.260 NA 
BRANCH  17  18
HETATM   18  C   UNL     1     -10.414   6.597  68.071  1.00  0.00    -0.216 C  
BRANCH  18  19
HETATM   19  C   UNL     1     -10.528   5.344  67.089  1.00  0.00    -0.298 C  
HETATM   20  C   UNL     1      -9.259   4.408  66.704  1.00  0.00    -0.137 C  
BRANCH  20  21
HETATM   21  C   UNL     1      -8.289   4.501  65.486  1.00  0.00    -0.116 A  
HETATM   22  C   UNL     1      -6.689   4.717  63.101  1.00  0.00    -0.031 A  
HETATM   23  C   UNL     1      -8.554   5.459  64.454  1.00  0.00    -0.060 A  
HETATM   24  C   UNL     1      -6.416   3.760  64.088  1.00  0.00    -0.037 A  
HETATM   25  C   UNL     1      -7.203   3.650  65.257  1.00  0.00    -0.067 A  
HETATM   26  C   UNL     1      -7.770   5.571  63.286  1.00  0.00    -0.084 A  
ENDBRANCH  20  21
BRANCH  20  27
HETATM   27  N   UNL     1      -8.493   4.081  67.899  1.00  0.00    -0.093 N  
HETATM   28  H   UNL     1      -7.748   4.699  68.217  1.00  0.00     0.000 HD 
HETATM   29  C   UNL     1      -8.782   2.935  68.592  1.00  0.00    -0.093 C  
HETATM   30  O   UNL     1      -9.631   2.139  68.196  1.00  0.00    -0.212 OA 
BRANCH  29  31
HETATM   31  C   UNL     1      -7.915   2.638  69.808  1.00  0.00    -0.053 C  
HETATM   32  C   UNL     1      -8.548   4.633  71.202  1.00  0.00    -0.128 C  
HETATM   33  C   UNL     1      -7.395   3.862  70.571  1.00  0.00    -0.041 C  
HETATM   34  C   UNL     1      -9.419   3.754  72.084  1.00  0.00    -0.133 C  
HETATM   35  F   UNL     1     -10.496   4.458  72.507  1.00  0.00    -0.230 F  
HETATM   36  F   UNL     1      -8.718   3.411  73.197  1.00  0.00    -0.079 F  
HETATM   37  C   UNL     1      -9.890   2.490  71.406  1.00  0.00    -0.165 C  
HETATM   38  C   UNL     1      -8.715   1.751  70.767  1.00  0.00    -0.103 C  
ENDBRANCH  29  31
ENDBRANCH  20  27
ENDBRANCH  18  19
ENDBRANCH  17  18
ENDBRANCH   8  10
TORSDOF 6
ENDMDL
MODEL      183
REMARK 921   NORMALIZED FREE ENERGY PREDICTED BY IDOCK:   -3.74 KCAL/MOL
REMARK 922        TOTAL FREE ENERGY PREDICTED BY IDOCK:   -6.59 KCAL/MOL
REMARK 923 INTER-LIGAND FREE ENERGY PREDICTED BY IDOCK:   -5.51 KCAL/MOL
REMARK 924 INTRA-LIGAND FREE ENERGY PREDICTED BY IDOCK:   -1.09 KCAL/MOL
REMARK 927      BINDING AFFINITY PREDICTED BY RF-SCORE:    0.00 PKD
ROOT
HETATM    1  C   UNL     1      -9.196   8.955  64.608  1.00  0.00     0.182 C  
HETATM    2  C   UNL     1      -8.868   9.986  65.702  1.00  0.00    -0.184 C  
HETATM    3  C   UNL     1      -9.970  10.062  66.715  1.00  0.00    -0.210 A  
HETATM    4  C   UNL     1      -8.692  11.381  65.086  1.00  0.00     0.185 C  
HETATM    5  N   UNL     1     -11.126  10.641  66.470  1.00  0.00    -0.058 NA 
HETATM    6  N   UNL     1     -11.725  10.886  67.656  1.00  0.00    -0.542 NA 
HETATM    7  C   UNL     1     -10.991  10.366  68.618  1.00  0.00    -0.243 A  
HETATM    8  N   UNL     1      -9.906   9.713  68.060  1.00  0.00    -0.146 NA 
HETATM    9  C   UNL     1     -11.362  10.510  70.040  1.00  0.00    -0.392 C  
ENDROOT
BRANCH   8  10
HETATM   10  C   UNL     1      -8.817   8.931  68.685  1.00  0.00    -0.137 C  
HETATM   11  C   UNL     1      -7.585   8.604  67.808  1.00  0.00    -0.098 C  
HETATM   12  C   UNL     1      -6.187   8.902  68.382  1.00  0.00    -0.054 C  
HETATM   13  C   UNL     1      -5.782   7.688  69.217  1.00  0.00    -0.029 C  
HETATM   14  C   UNL     1      -6.457   7.965  70.550  1.00  0.00    -0.037 C  
HETATM   15  C   UNL     1      -6.945   9.440  70.449  1.00  0.00    -0.100 C  
HETATM   16  C   UNL     1      -8.441   9.469  70.098  1.00  0.00    -0.227 C  
HETATM   17  N   UNL     1      -6.106   9.997  69.377  1.00  0.00    -0.040 NA 
BRANCH  17  18
HETATM   18  C   UNL     1      -6.361  11.383  68.847  1.00  0.00    -0.057 C  
BRANCH  18  19
HETATM   19  C   UNL     1      -6.512  12.612  69.854  1.00  0.00     0.044 C  
HETATM   20  C   UNL     1      -7.138  14.043  69.411  1.00  0.00    -0.008 C  
BRANCH  20  21
HETATM   21  C   UNL     1      -6.413  15.332  68.910  1.00  0.00    -0.103 A  
HETATM   22  C   UNL     1      -5.216  17.832  68.134  1.00  0.00    -0.142 A  
HETATM   23  C   UNL     1      -6.151  16.391  69.838  1.00  0.00    -0.187 A  
HETATM   24  C   UNL     1      -5.475  16.818  67.202  1.00  0.00    -0.185 A  
HETATM   25  C   UNL     1      -6.067  15.592  67.581  1.00  0.00    -0.174 A  
HETATM   26  C   UNL     1      -5.560  17.616  69.463  1.00  0.00    -0.213 A  
ENDBRANCH  20  21
BRANCH  20  27
HETATM   27  N   UNL     1      -8.350  13.844  68.630  1.00  0.00    -0.279 N  
HETATM   28  H   UNL     1      -8.359  13.179  67.857  1.00  0.00     0.000 HD 
HETATM   29  C   UNL     1      -9.478  14.555  68.941  1.00  0.00    -0.144 C  
HETATM   30  O   UNL     1      -9.477  15.410  69.826  1.00  0.00    -0.260 OA 
BRANCH  29  31
HETATM   31  C   UNL     1     -10.695  14.323  68.057  1.00  0.00    -0.242 C  
HETATM   32  C   UNL     1     -11.146  16.715  67.425  1.00  0.00     0.001 C  
HETATM   33  C   UNL     1     -11.733  15.451  68.042  1.00  0.00    -0.235 C  
HETATM   34  C   UNL     1     -10.570  16.469  66.040  1.00  0.00    -0.253 C  
HETATM   35  F   UNL     1      -9.947  17.588  65.601  1.00  0.00    -0.217 F  
HETATM   36  F   UNL     1     -11.588  16.225  65.173  1.00  0.00    -0.073 F  
HETATM   37  C   UNL     1      -9.603  15.311  65.982  1.00  0.00    -0.372 C  
HETATM   38  C   UNL     1     -10.212  14.067  66.626  1.00  0.00    -0.275 C  
ENDBRANCH  29  31
ENDBRANCH  20  27
ENDBRANCH  18  19
ENDBRANCH  17  18
ENDBRANCH   8  10
TORSDOF 6
ENDMDL
MODEL      184
REMARK 921   NORMALIZED FREE ENERGY PREDICTED BY IDOCK:   -3.71 KCAL/MOL
REMARK 922        TOTAL FREE ENERGY PREDICTED BY IDOCK:   -6.55 KCAL/MOL
REMARK 923 INTER-LIGAND FREE ENERGY PREDICTED BY IDOCK:   -5.47 KCAL/MOL
REMARK 924 INTRA-LIGAND FREE ENERGY PREDICTED BY IDOCK:   -1.08 KCAL/MOL
REMARK 927      BINDING AFFINITY PREDICTED BY RF-SCORE:    0.00 PKD
ROOT
HETATM    1  C   UNL     1      -9.812  15.780  65.420  1.00  0.00    -0.212 C  
HETATM    2  C   UNL     1      -9.821  15.331  66.892  1.00  0.00    -0.242 C  
HETATM    3  C   UNL     1     -10.774  14.194  67.101  1.00  0.00    -0.280 A  
HETATM    4  C   UNL     1     -10.255  16.489  67.801  1.00  0.00    -0.278 C  
HETATM    5  N   UNL     1     -12.081  14.351  67.107  1.00  0.00    -0.394 NA 
HETATM    6  N   UNL     1     -12.625  13.261  67.691  1.00  0.00     0.256 NA 
HETATM    7  C   UNL     1     -11.668  12.394  67.946  1.00  0.00    -0.360 A  
HETATM    8  N   UNL     1     -10.466  12.891  67.475  1.00  0.00    -0.222 NA 
HETATM    9  C   UNL     1     -11.944  11.115  68.631  1.00  0.00    -0.289 C  
ENDROOT
BRANCH   8  10
HETATM   10  C   UNL     1      -9.109  12.301  67.463  1.00  0.00    -0.182 C  
HETATM   11  C   UNL     1      -8.750  11.326  68.610  1.00  0.00    -0.136 C  
HETATM   12  C   UNL     1      -8.128   9.967  68.238  1.00  0.00    -0.104 C  
HETATM   13  C   UNL     1      -6.623  10.189  68.098  1.00  0.00    -0.058 C  
HETATM   14  C   UNL     1      -6.497  10.708  66.675  1.00  0.00    -0.100 C  
HETATM   15  C   UNL     1      -7.897  10.464  66.038  1.00  0.00    -0.142 C  
HETATM   16  C   UNL     1      -8.709  11.768  66.055  1.00  0.00     0.002 C  
HETATM   17  N   UNL     1      -8.481   9.428  66.903  1.00  0.00    -0.126 NA 
BRANCH  17  18
HETATM   18  C   UNL     1      -9.915   9.003  66.727  1.00  0.00    -0.263 C  
BRANCH  18  19
HETATM   19  C   UNL     1     -10.508   7.802  67.595  1.00  0.00    -0.308 C  
HETATM   20  C   UNL     1      -9.620   6.524  68.055  1.00  0.00    -0.119 C  
BRANCH  20  21
HETATM   21  C   UNL     1      -9.447   5.134  67.367  1.00  0.00    -0.144 A  
HETATM   22  C   UNL     1      -9.013   2.499  66.291  1.00  0.00    -0.126 A  
HETATM   23  C   UNL     1      -9.510   3.947  68.165  1.00  0.00    -0.219 A  
HETATM   24  C   UNL     1      -8.931   3.645  65.488  1.00  0.00    -0.138 A  
HETATM   25  C   UNL     1      -9.139   4.940  66.017  1.00  0.00    -0.139 A  
HETATM   26  C   UNL     1      -9.302   2.654  67.641  1.00  0.00    -0.209 A  
ENDBRANCH  20  21
BRANCH  20  27
HETATM   27  N   UNL     1      -8.330   6.965  68.567  1.00  0.00    -0.120 N  
HETATM   28  H   UNL     1      -7.616   7.315  67.929  1.00  0.00     0.000 HD 
HETATM   29  C   UNL     1      -8.083   6.907  69.913  1.00  0.00    -0.125 C  
HETATM   30  O   UNL     1      -8.901   6.430  70.698  1.00  0.00    -0.142 OA 
BRANCH  29  31
HETATM   31  C   UNL     1      -6.701   7.348  70.372  1.00  0.00    -0.047 C  
HETATM   32  C   UNL     1      -7.307   8.081  72.700  1.00  0.00    -0.130 C  
HETATM   33  C   UNL     1      -6.669   8.501  71.381  1.00  0.00    -0.069 C  
HETATM   34  C   UNL     1      -6.676   6.822  73.272  1.00  0.00    -0.071 C  
HETATM   35  F   UNL     1      -7.367   6.424  74.367  1.00  0.00    -0.094 F  
HETATM   36  F   UNL     1      -5.416   7.109  73.692  1.00  0.00    -0.044 F  
HETATM   37  C   UNL     1      -6.606   5.678  72.290  1.00  0.00    -0.062 C  
HETATM   38  C   UNL     1      -5.981   6.136  70.973  1.00  0.00    -0.030 C  
ENDBRANCH  29  31
ENDBRANCH  20  27
ENDBRANCH  18  19
ENDBRANCH  17  18
ENDBRANCH   8  10
TORSDOF 6
ENDMDL
MODEL      185
REMARK 921   NORMALIZED FREE ENERGY PREDICTED BY IDOCK:   -3.69 KCAL/MOL
REMARK 922        TOTAL FREE ENERGY PREDICTED BY IDOCK:   -6.53 KCAL/MOL
REMARK 923 INTER-LIGAND FREE ENERGY PREDICTED BY IDOCK:   -7.65 KCAL/MOL
REMARK 924 INTRA-LIGAND FREE ENERGY PREDICTED BY IDOCK:    1.12 KCAL/MOL
REMARK 927      BINDING AFFINITY PREDICTED BY RF-SCORE:    0.00 PKD
ROOT
HETATM    1  C   UNL     1      -5.962  15.773  67.492  1.00  0.00    -0.146 C  
HETATM    2  C   UNL     1      -6.761  14.538  67.944  1.00  0.00    -0.176 C  
HETATM    3  C   UNL     1      -8.127  14.929  68.422  1.00  0.00    -0.137 A  
HETATM    4  C   UNL     1      -6.039  13.826  69.096  1.00  0.00    -0.095 C  
HETATM    5  N   UNL     1      -8.334  15.526  69.576  1.00  0.00    -0.243 NA 
HETATM    6  N   UNL     1      -9.643  15.389  69.883  1.00  0.00    -0.204 NA 
HETATM    7  C   UNL     1     -10.256  14.804  68.875  1.00  0.00    -0.237 A  
HETATM    8  N   UNL     1      -9.350  14.594  67.851  1.00  0.00    -0.195 NA 
HETATM    9  C   UNL     1     -11.694  14.472  68.930  1.00  0.00    -0.354 C  
ENDROOT
BRANCH   8  10
HETATM   10  C   UNL     1      -9.529  14.024  66.498  1.00  0.00    -0.279 C  
HETATM   11  C   UNL     1      -8.771  12.714  66.174  1.00  0.00     0.293 C  
HETATM   12  C   UNL     1      -9.565  11.552  65.550  1.00  0.00    -0.227 C  
HETATM   13  C   UNL     1      -9.588  11.787  64.041  1.00  0.00    -0.118 C  
HETATM   14  C   UNL     1     -10.749  12.754  63.874  1.00  0.00    -0.443 C  
HETATM   15  C   UNL     1     -11.462  12.758  65.259  1.00  0.00    -0.325 C  
HETATM   16  C   UNL     1     -11.025  13.992  66.064  1.00  0.00    -0.298 C  
HETATM   17  N   UNL     1     -11.011  11.500  65.871  1.00  0.00    -0.272 NA 
BRANCH  17  18
HETATM   18  C   UNL     1     -11.353  11.179  67.302  1.00  0.00    -0.226 C  
BRANCH  18  19
HETATM   19  C   UNL     1     -10.232  11.270  68.434  1.00  0.00    -0.205 C  
HETATM   20  C   UNL     1      -9.577   9.959  69.134  1.00  0.00    -0.199 C  
BRANCH  20  21
HETATM   21  C   UNL     1      -9.984   9.229  70.451  1.00  0.00    -0.287 A  
HETATM   22  C   UNL     1     -10.860   8.074  72.939  1.00  0.00    -0.399 A  
HETATM   23  C   UNL     1     -11.305   9.411  70.972  1.00  0.00    -0.407 A  
HETATM   24  C   UNL     1      -9.556   7.890  72.460  1.00  0.00    -0.278 A  
HETATM   25  C   UNL     1      -9.123   8.461  71.242  1.00  0.00    -0.226 A  
HETATM   26  C   UNL     1     -11.740   8.844  72.188  1.00  0.00    -0.411 A  
ENDBRANCH  20  21
BRANCH  20  27
HETATM   27  N   UNL     1      -9.236   8.967  68.125  1.00  0.00    -0.139 N  
HETATM   28  H   UNL     1      -8.495   9.153  67.450  1.00  0.00     0.000 HD 
HETATM   29  C   UNL     1      -9.918   7.779  68.089  1.00  0.00    -0.178 C  
HETATM   30  O   UNL     1     -10.859   7.554  68.848  1.00  0.00    -0.155 OA 
BRANCH  29  31
HETATM   31  C   UNL     1      -9.534   6.806  66.983  1.00  0.00    -0.175 C  
HETATM   32  C   UNL     1      -7.582   5.709  68.127  1.00  0.00    -0.081 C  
HETATM   33  C   UNL     1      -8.044   6.463  66.886  1.00  0.00    -0.109 C  
HETATM   34  C   UNL     1      -8.423   4.472  68.400  1.00  0.00    -0.093 C  
HETATM   35  F   UNL     1      -8.054   3.922  69.581  1.00  0.00    -0.055 F  
HETATM   36  F   UNL     1      -8.167   3.543  67.442  1.00  0.00    -0.087 F  
HETATM   37  C   UNL     1      -9.908   4.741  68.422  1.00  0.00    -0.187 C  
HETATM   38  C   UNL     1     -10.335   5.514  67.176  1.00  0.00    -0.301 C  
ENDBRANCH  29  31
ENDBRANCH  20  27
ENDBRANCH  18  19
ENDBRANCH  17  18
ENDBRANCH   8  10
TORSDOF 6
ENDMDL
MODEL      186
REMARK 921   NORMALIZED FREE ENERGY PREDICTED BY IDOCK:   -3.61 KCAL/MOL
REMARK 922        TOTAL FREE ENERGY PREDICTED BY IDOCK:   -6.41 KCAL/MOL
REMARK 923 INTER-LIGAND FREE ENERGY PREDICTED BY IDOCK:   -6.16 KCAL/MOL
REMARK 924 INTRA-LIGAND FREE ENERGY PREDICTED BY IDOCK:   -0.25 KCAL/MOL
REMARK 927      BINDING AFFINITY PREDICTED BY RF-SCORE:    0.00 PKD
ROOT
HETATM    1  C   UNL     1      -9.508  14.754  69.931  1.00  0.00     0.366 C  
HETATM    2  C   UNL     1     -10.761  14.793  69.038  1.00  0.00    -0.251 C  
HETATM    3  C   UNL     1     -10.571  15.736  67.889  1.00  0.00    -0.282 A  
HETATM    4  C   UNL     1     -11.978  15.266  69.845  1.00  0.00    -0.373 C  
HETATM    5  N   UNL     1     -10.590  17.044  68.029  1.00  0.00    -0.361 NA 
HETATM    6  N   UNL     1     -10.783  17.587  66.807  1.00  0.00    -0.184 NA 
HETATM    7  C   UNL     1     -10.777  16.625  65.908  1.00  0.00    -0.175 A  
HETATM    8  N   UNL     1     -10.521  15.419  66.536  1.00  0.00    -0.288 NA 
HETATM    9  C   UNL     1     -11.012  16.900  64.477  1.00  0.00     0.455 C  
ENDROOT
BRANCH   8  10
HETATM   10  C   UNL     1     -10.361  14.054  65.988  1.00  0.00    -0.306 C  
HETATM   11  C   UNL     1      -9.337  13.126  66.682  1.00  0.00    -0.242 C  
HETATM   12  C   UNL     1      -9.792  11.707  67.072  1.00  0.00    -0.193 C  
HETATM   13  C   UNL     1      -9.598  10.823  65.841  1.00  0.00    -0.252 C  
HETATM   14  C   UNL     1     -10.868  11.080  65.047  1.00  0.00    -0.194 C  
HETATM   15  C   UNL     1     -11.796  11.860  66.025  1.00  0.00    -0.022 C  
HETATM   16  C   UNL     1     -11.731  13.363  65.715  1.00  0.00    -0.380 C  
HETATM   17  N   UNL     1     -11.238  11.534  67.346  1.00  0.00    -0.290 NA 
BRANCH  17  18
HETATM   18  C   UNL     1     -11.756  12.216  68.585  1.00  0.00    -0.330 C  
BRANCH  18  19
HETATM   19  C   UNL     1     -11.498  11.573  70.022  1.00  0.00    -0.304 C  
HETATM   20  C   UNL     1     -10.619  10.225  70.239  1.00  0.00    -0.204 C  
BRANCH  20  21
HETATM   21  C   UNL     1     -11.086   8.739  70.332  1.00  0.00    -0.261 A  
HETATM   22  C   UNL     1     -11.960   6.026  70.739  1.00  0.00     0.283 A  
HETATM   23  C   UNL     1     -12.070   8.376  71.308  1.00  0.00    -0.315 A  
HETATM   24  C   UNL     1     -10.985   6.351  69.786  1.00  0.00    -0.417 A  
HETATM   25  C   UNL     1     -10.551   7.682  69.589  1.00  0.00    -0.243 A  
HETATM   26  C   UNL     1     -12.504   7.048  71.508  1.00  0.00    -0.426 A  
ENDBRANCH  20  21
BRANCH  20  27
HETATM   27  N   UNL     1      -9.393  10.292  69.457  1.00  0.00    -0.325 N  
HETATM   28  H   UNL     1      -9.431  10.485  68.457  1.00  0.00     0.000 HD 
HETATM   29  C   UNL     1      -8.187  10.092  70.075  1.00  0.00    -0.116 C  
HETATM   30  O   UNL     1      -8.115   9.792  71.266  1.00  0.00    -0.078 OA 
BRANCH  29  31
HETATM   31  C   UNL     1      -6.951  10.137  69.188  1.00  0.00    -0.062 C  
HETATM   32  C   UNL     1      -6.057   7.841  69.692  1.00  0.00    -0.030 C  
HETATM   33  C   UNL     1      -5.744   9.333  69.684  1.00  0.00    -0.033 C  
HETATM   34  C   UNL     1      -6.540   7.344  68.340  1.00  0.00    -0.046 C  
HETATM   35  F   UNL     1      -6.927   6.051  68.443  1.00  0.00    -0.064 F  
HETATM   36  F   UNL     1      -5.503   7.370  67.462  1.00  0.00    -0.024 F  
HETATM   37  C   UNL     1      -7.676   8.156  67.766  1.00  0.00    -0.110 C  
HETATM   38  C   UNL     1      -7.341   9.646  67.790  1.00  0.00    -0.086 C  
ENDBRANCH  29  31
ENDBRANCH  20  27
ENDBRANCH  18  19
ENDBRANCH  17  18
ENDBRANCH   8  10
TORSDOF 6
ENDMDL
MODEL      187
REMARK 921   NORMALIZED FREE ENERGY PREDICTED BY IDOCK:   -3.60 KCAL/MOL
REMARK 922        TOTAL FREE ENERGY PREDICTED BY IDOCK:   -6.40 KCAL/MOL
REMARK 923 INTER-LIGAND FREE ENERGY PREDICTED BY IDOCK:   -7.71 KCAL/MOL
REMARK 924 INTRA-LIGAND FREE ENERGY PREDICTED BY IDOCK:    1.31 KCAL/MOL
REMARK 927      BINDING AFFINITY PREDICTED BY RF-SCORE:    0.00 PKD
ROOT
HETATM    1  C   UNL     1     -11.068  14.521  69.403  1.00  0.00    -0.297 C  
HETATM    2  C   UNL     1     -10.914  13.092  68.854  1.00  0.00    -0.271 C  
HETATM    3  C   UNL     1     -11.030  13.075  67.360  1.00  0.00    -0.260 A  
HETATM    4  C   UNL     1     -12.008  12.179  69.426  1.00  0.00    -0.329 C  
HETATM    5  N   UNL     1     -12.176  13.228  66.732  1.00  0.00    -0.332 NA 
HETATM    6  N   UNL     1     -12.015  12.784  65.466  1.00  0.00    -0.425 NA 
HETATM    7  C   UNL     1     -10.752  12.460  65.287  1.00  0.00    -0.287 A  
HETATM    8  N   UNL     1     -10.042  12.742  66.440  1.00  0.00    -0.254 NA 
HETATM    9  C   UNL     1     -10.271  11.893  64.010  1.00  0.00    -0.394 C  
ENDROOT
BRANCH   8  10
HETATM   10  C   UNL     1      -8.601  12.614  66.749  1.00  0.00    -0.098 C  
HETATM   11  C   UNL     1      -8.142  13.009  68.173  1.00  0.00    -0.155 C  
HETATM   12  C   UNL     1      -7.252  12.020  68.949  1.00  0.00    -0.089 C  
HETATM   13  C   UNL     1      -5.810  12.292  68.523  1.00  0.00    -0.054 C  
HETATM   14  C   UNL     1      -5.688  11.491  67.238  1.00  0.00    -0.090 C  
HETATM   15  C   UNL     1      -6.971  10.609  67.197  1.00  0.00    -0.088 C  
HETATM   16  C   UNL     1      -8.013  11.253  66.269  1.00  0.00    -0.086 C  
HETATM   17  N   UNL     1      -7.406  10.588  68.601  1.00  0.00    -0.086 NA 
BRANCH  17  18
HETATM   18  C   UNL     1      -8.720   9.959  68.986  1.00  0.00    -0.151 C  
BRANCH  18  19
HETATM   19  C   UNL     1      -8.989   9.527  70.499  1.00  0.00    -0.265 C  
HETATM   20  C   UNL     1      -9.863   8.219  70.900  1.00  0.00    -0.182 C  
BRANCH  20  21
HETATM   21  C   UNL     1     -11.382   8.105  71.237  1.00  0.00    -0.300 A  
HETATM   22  C   UNL     1     -14.134   7.975  72.076  1.00  0.00    -0.426 A  
HETATM   23  C   UNL     1     -11.989   9.096  72.074  1.00  0.00    -0.421 A  
HETATM   24  C   UNL     1     -13.563   6.983  71.267  1.00  0.00    -0.251 A  
HETATM   25  C   UNL     1     -12.210   7.043  70.859  1.00  0.00    -0.388 A  
HETATM   26  C   UNL     1     -13.338   9.039  72.484  1.00  0.00    -0.480 A  
ENDBRANCH  20  21
BRANCH  20  27
HETATM   27  N   UNL     1      -9.469   7.080  70.083  1.00  0.00    -0.162 N  
HETATM   28  H   UNL     1      -8.899   6.335  70.482  1.00  0.00     0.000 HD 
HETATM   29  C   UNL     1      -9.870   7.017  68.775  1.00  0.00    -0.152 C  
HETATM   30  O   UNL     1     -10.502   7.932  68.250  1.00  0.00    -0.202 OA 
BRANCH  29  31
HETATM   31  C   UNL     1      -9.388   5.817  67.972  1.00  0.00    -0.112 C  
HETATM   32  C   UNL     1      -7.440   5.166  69.423  1.00  0.00    -0.058 C  
HETATM   33  C   UNL     1      -7.880   5.548  68.015  1.00  0.00    -0.096 C  
HETATM   34  C   UNL     1      -8.232   3.994  69.979  1.00  0.00    -0.057 C  
HETATM   35  F   UNL     1      -7.892   3.788  71.273  1.00  0.00    -0.055 F  
HETATM   36  F   UNL     1      -7.887   2.867  69.303  1.00  0.00    -0.047 F  
HETATM   37  C   UNL     1      -9.728   4.172  69.884  1.00  0.00    -0.280 C  
HETATM   38  C   UNL     1     -10.134   4.573  68.467  1.00  0.00    -0.026 C  
ENDBRANCH  29  31
ENDBRANCH  20  27
ENDBRANCH  18  19
ENDBRANCH  17  18
ENDBRANCH   8  10
TORSDOF 6
ENDMDL
MODEL      188
REMARK 921   NORMALIZED FREE ENERGY PREDICTED BY IDOCK:   -3.58 KCAL/MOL
REMARK 922        TOTAL FREE ENERGY PREDICTED BY IDOCK:   -6.38 KCAL/MOL
REMARK 923 INTER-LIGAND FREE ENERGY PREDICTED BY IDOCK:   -6.65 KCAL/MOL
REMARK 924 INTRA-LIGAND FREE ENERGY PREDICTED BY IDOCK:    0.27 KCAL/MOL
REMARK 927      BINDING AFFINITY PREDICTED BY RF-SCORE:    0.00 PKD
ROOT
HETATM    1  C   UNL     1     -12.281  11.730  64.060  1.00  0.00    -0.351 C  
HETATM    2  C   UNL     1     -10.806  11.297  64.130  1.00  0.00    -0.407 C  
HETATM    3  C   UNL     1     -10.267  11.448  65.520  1.00  0.00    -0.264 A  
HETATM    4  C   UNL     1      -9.951  12.160  63.192  1.00  0.00    -0.089 C  
HETATM    5  N   UNL     1      -9.983  12.619  66.051  1.00  0.00    -0.257 NA 
HETATM    6  N   UNL     1      -9.178  12.404  67.115  1.00  0.00    -0.193 NA 
HETATM    7  C   UNL     1      -9.055  11.107  67.300  1.00  0.00    -0.150 A  
HETATM    8  N   UNL     1      -9.837  10.439  66.373  1.00  0.00    -0.204 NA 
HETATM    9  C   UNL     1      -8.194  10.554  68.365  1.00  0.00    -0.121 C  
ENDROOT
BRANCH   8  10
HETATM   10  C   UNL     1     -10.092   8.995  66.180  1.00  0.00    -0.172 C  
HETATM   11  C   UNL     1      -8.998   8.172  65.457  1.00  0.00    -0.082 C  
HETATM   12  C   UNL     1      -8.528   6.859  66.111  1.00  0.00    -0.136 C  
HETATM   13  C   UNL     1      -9.497   5.767  65.662  1.00  0.00     0.067 C  
HETATM   14  C   UNL     1     -10.645   5.919  66.647  1.00  0.00    -0.330 C  
HETATM   15  C   UNL     1     -10.104   6.887  67.740  1.00  0.00    -0.161 C  
HETATM   16  C   UNL     1     -10.621   8.310  67.475  1.00  0.00    -0.291 C  
HETATM   17  N   UNL     1      -8.645   6.783  67.586  1.00  0.00    -0.121 NA 
BRANCH  17  18
HETATM   18  C   UNL     1      -7.726   7.689  68.364  1.00  0.00    -0.119 C  
BRANCH  18  19
HETATM   19  C   UNL     1      -6.430   7.093  69.080  1.00  0.00    -0.036 C  
HETATM   20  C   UNL     1      -6.384   6.735  70.662  1.00  0.00    -0.043 C  
BRANCH  20  21
HETATM   21  C   UNL     1      -5.901   7.604  71.864  1.00  0.00    -0.036 A  
HETATM   22  C   UNL     1      -5.182   9.110  74.211  1.00  0.00    -0.117 A  
HETATM   23  C   UNL     1      -5.937   7.052  73.185  1.00  0.00    -0.056 A  
HETATM   24  C   UNL     1      -5.151   9.680  72.932  1.00  0.00    -0.052 A  
HETATM   25  C   UNL     1      -5.509   8.944  71.780  1.00  0.00    -0.052 A  
HETATM   26  C   UNL     1      -5.582   7.785  74.338  1.00  0.00    -0.073 A  
ENDBRANCH  20  21
BRANCH  20  27
HETATM   27  N   UNL     1      -7.587   6.011  71.051  1.00  0.00    -0.094 N  
HETATM   28  H   UNL     1      -7.574   4.995  71.125  1.00  0.00     0.000 HD 
HETATM   29  C   UNL     1      -8.737   6.707  71.315  1.00  0.00    -0.129 C  
HETATM   30  O   UNL     1      -8.799   7.927  71.170  1.00  0.00    -0.132 OA 
BRANCH  29  31
HETATM   31  C   UNL     1      -9.964   5.883  71.677  1.00  0.00    -0.213 C  
HETATM   32  C   UNL     1     -11.088   7.549  73.188  1.00  0.00    -0.378 C  
HETATM   33  C   UNL     1     -10.544   6.130  73.074  1.00  0.00    -0.263 C  
HETATM   34  C   UNL     1     -12.098   7.872  72.100  1.00  0.00    -0.326 C  
HETATM   35  F   UNL     1     -12.442   9.179  72.172  1.00  0.00    -0.390 F  
HETATM   36  F   UNL     1     -13.233   7.158  72.323  1.00  0.00    -0.201 F  
HETATM   37  C   UNL     1     -11.606   7.567  70.706  1.00  0.00    -0.300 C  
HETATM   38  C   UNL     1     -11.050   6.146  70.629  1.00  0.00    -0.384 C  
ENDBRANCH  29  31
ENDBRANCH  20  27
ENDBRANCH  18  19
ENDBRANCH  17  18
ENDBRANCH   8  10
TORSDOF 6
ENDMDL
MODEL      189
REMARK 921   NORMALIZED FREE ENERGY PREDICTED BY IDOCK:   -3.57 KCAL/MOL
REMARK 922        TOTAL FREE ENERGY PREDICTED BY IDOCK:   -6.36 KCAL/MOL
REMARK 923 INTER-LIGAND FREE ENERGY PREDICTED BY IDOCK:   -4.80 KCAL/MOL
REMARK 924 INTRA-LIGAND FREE ENERGY PREDICTED BY IDOCK:   -1.56 KCAL/MOL
REMARK 927      BINDING AFFINITY PREDICTED BY RF-SCORE:    0.00 PKD
ROOT
HETATM    1  C   UNL     1     -12.390  13.354  68.483  1.00  0.00     0.071 C  
HETATM    2  C   UNL     1     -11.835  12.905  69.846  1.00  0.00    -0.373 C  
HETATM    3  C   UNL     1     -12.059  11.439  70.060  1.00  0.00    -0.340 A  
HETATM    4  C   UNL     1     -12.533  13.663  70.983  1.00  0.00    -0.456 C  
HETATM    5  N   UNL     1     -13.242  10.931  70.337  1.00  0.00     0.028 NA 
HETATM    6  N   UNL     1     -13.050   9.693  70.844  1.00  0.00    -0.228 NA 
HETATM    7  C   UNL     1     -11.768   9.402  70.781  1.00  0.00    -0.282 A  
HETATM    8  N   UNL     1     -11.094  10.444  70.169  1.00  0.00    -0.300 NA 
HETATM    9  C   UNL     1     -11.237   8.128  71.307  1.00  0.00    -0.297 C  
ENDROOT
BRANCH   8  10
HETATM   10  C   UNL     1      -9.667  10.600  69.813  1.00  0.00     0.149 C  
HETATM   11  C   UNL     1      -8.647   9.710  70.562  1.00  0.00    -0.142 C  
HETATM   12  C   UNL     1      -7.614   8.930  69.727  1.00  0.00    -0.069 C  
HETATM   13  C   UNL     1      -6.442   9.876  69.473  1.00  0.00    -0.048 C  
HETATM   14  C   UNL     1      -6.913  10.669  68.265  1.00  0.00    -0.072 C  
HETATM   15  C   UNL     1      -8.180   9.913  67.765  1.00  0.00    -0.114 C  
HETATM   16  C   UNL     1      -9.443  10.628  68.271  1.00  0.00    -0.161 C  
HETATM   17  N   UNL     1      -8.022   8.573  68.348  1.00  0.00    -0.116 NA 
BRANCH  17  18
HETATM   18  C   UNL     1      -9.125   7.553  68.234  1.00  0.00    -0.132 C  
BRANCH  18  19
HETATM   19  C   UNL     1      -9.661   7.109  66.799  1.00  0.00    -0.252 C  
HETATM   20  C   UNL     1      -8.795   6.189  65.780  1.00  0.00    -0.124 C  
BRANCH  20  21
HETATM   21  C   UNL     1      -7.845   6.616  64.618  1.00  0.00    -0.116 A  
HETATM   22  C   UNL     1      -6.044   7.176  62.443  1.00  0.00    -0.049 A  
HETATM   23  C   UNL     1      -7.748   5.787  63.454  1.00  0.00    -0.089 A  
HETATM   24  C   UNL     1      -6.108   7.998  63.576  1.00  0.00    -0.067 A  
HETATM   25  C   UNL     1      -6.989   7.721  64.647  1.00  0.00    -0.063 A  
HETATM   26  C   UNL     1      -6.869   6.059  62.385  1.00  0.00    -0.040 A  
ENDBRANCH  20  21
BRANCH  20  27
HETATM   27  N   UNL     1      -8.198   5.070  66.495  1.00  0.00    -0.108 N  
HETATM   28  H   UNL     1      -7.222   5.108  66.787  1.00  0.00     0.000 HD 
HETATM   29  C   UNL     1      -8.958   3.964  66.773  1.00  0.00    -0.136 C  
HETATM   30  O   UNL     1     -10.118   3.864  66.376  1.00  0.00    -0.114 OA 
BRANCH  29  31
HETATM   31  C   UNL     1      -8.258   2.818  67.489  1.00  0.00    -0.087 C  
HETATM   32  C   UNL     1      -6.925   4.177  69.133  1.00  0.00    -0.047 C  
HETATM   33  C   UNL     1      -6.857   3.127  68.030  1.00  0.00    -0.049 C  
HETATM   34  C   UNL     1      -7.879   3.785  70.248  1.00  0.00    -0.047 C  
HETATM   35  F   UNL     1      -7.999   4.808  71.126  1.00  0.00    -0.078 F  
HETATM   36  F   UNL     1      -7.349   2.741  70.938  1.00  0.00    -0.033 F  
HETATM   37  C   UNL     1      -9.252   3.389  69.760  1.00  0.00    -0.220 C  
HETATM   38  C   UNL     1      -9.150   2.352  68.644  1.00  0.00    -0.200 C  
ENDBRANCH  29  31
ENDBRANCH  20  27
ENDBRANCH  18  19
ENDBRANCH  17  18
ENDBRANCH   8  10
TORSDOF 6
ENDMDL
MODEL      190
REMARK 921   NORMALIZED FREE ENERGY PREDICTED BY IDOCK:   -3.56 KCAL/MOL
REMARK 922        TOTAL FREE ENERGY PREDICTED BY IDOCK:   -6.35 KCAL/MOL
REMARK 923 INTER-LIGAND FREE ENERGY PREDICTED BY IDOCK:   -7.13 KCAL/MOL
REMARK 924 INTRA-LIGAND FREE ENERGY PREDICTED BY IDOCK:    0.78 KCAL/MOL
REMARK 927      BINDING AFFINITY PREDICTED BY RF-SCORE:    0.00 PKD
ROOT
HETATM    1  C   UNL     1      -5.335   9.107  65.748  1.00  0.00    -0.040 C  
HETATM    2  C   UNL     1      -6.208   9.274  67.004  1.00  0.00    -0.061 C  
HETATM    3  C   UNL     1      -7.199  10.385  66.825  1.00  0.00    -0.109 A  
HETATM    4  C   UNL     1      -5.335   9.608  68.221  1.00  0.00    -0.036 C  
HETATM    5  N   UNL     1      -6.858  11.656  66.852  1.00  0.00    -0.144 NA 
HETATM    6  N   UNL     1      -7.981  12.380  67.053  1.00  0.00    -0.145 NA 
HETATM    7  C   UNL     1      -9.017  11.568  67.043  1.00  0.00    -0.174 A  
HETATM    8  N   UNL     1      -8.584  10.281  66.777  1.00  0.00    -0.126 NA 
HETATM    9  C   UNL     1     -10.388  12.060  67.286  1.00  0.00    -0.232 C  
ENDROOT
BRANCH   8  10
HETATM   10  C   UNL     1      -9.337   9.019  66.610  1.00  0.00    -0.177 C  
HETATM   11  C   UNL     1      -8.531   7.759  66.213  1.00  0.00    -0.143 C  
HETATM   12  C   UNL     1      -8.747   6.472  67.032  1.00  0.00    -0.112 C  
HETATM   13  C   UNL     1      -9.956   5.759  66.430  1.00  0.00    -0.173 C  
HETATM   14  C   UNL     1     -11.124   6.460  67.105  1.00  0.00    -0.422 C  
HETATM   15  C   UNL     1     -10.475   7.307  68.239  1.00  0.00    -0.199 C  
HETATM   16  C   UNL     1     -10.335   8.767  67.780  1.00  0.00    -0.297 C  
HETATM   17  N   UNL     1      -9.173   6.655  68.440  1.00  0.00    -0.124 NA 
BRANCH  17  18
HETATM   18  C   UNL     1      -8.146   7.262  69.361  1.00  0.00    -0.130 C  
BRANCH  18  19
HETATM   19  C   UNL     1      -8.446   8.647  70.094  1.00  0.00    -0.135 C  
HETATM   20  C   UNL     1      -9.371   8.758  71.424  1.00  0.00    -0.258 C  
BRANCH  20  21
HETATM   21  C   UNL     1     -10.897   9.060  71.550  1.00  0.00    -0.416 A  
HETATM   22  C   UNL     1     -13.658   9.847  71.763  1.00  0.00    -0.363 A  
HETATM   23  C   UNL     1     -11.464  10.127  70.781  1.00  0.00    -0.442 A  
HETATM   24  C   UNL     1     -13.126   8.809  72.538  1.00  0.00    -0.392 A  
HETATM   25  C   UNL     1     -11.770   8.425  72.439  1.00  0.00    -0.452 A  
HETATM   26  C   UNL     1     -12.817  10.513  70.879  1.00  0.00    -0.485 A  
ENDBRANCH  20  21
BRANCH  20  27
HETATM   27  N   UNL     1      -9.010   7.718  72.377  1.00  0.00    -0.138 N  
HETATM   28  H   UNL     1      -8.288   7.890  73.076  1.00  0.00     0.000 HD 
HETATM   29  C   UNL     1      -9.649   6.508  72.327  1.00  0.00    -0.146 C  
HETATM   30  O   UNL     1     -10.477   6.251  71.454  1.00  0.00    -0.208 OA 
BRANCH  29  31
HETATM   31  C   UNL     1      -9.194   5.456  73.329  1.00  0.00    -0.132 C  
HETATM   32  C   UNL     1      -9.617   3.411  71.927  1.00  0.00    -0.220 C  
HETATM   33  C   UNL     1      -9.914   4.106  73.251  1.00  0.00    -0.185 C  
HETATM   34  C   UNL     1      -8.126   3.264  71.672  1.00  0.00    -0.058 C  
HETATM   35  F   UNL     1      -7.924   2.765  70.430  1.00  0.00    -0.043 F  
HETATM   36  F   UNL     1      -7.616   2.353  72.543  1.00  0.00    -0.045 F  
HETATM   37  C   UNL     1      -7.355   4.553  71.819  1.00  0.00    -0.072 C  
HETATM   38  C   UNL     1      -7.688   5.233  73.146  1.00  0.00    -0.097 C  
ENDBRANCH  29  31
ENDBRANCH  20  27
ENDBRANCH  18  19
ENDBRANCH  17  18
ENDBRANCH   8  10
TORSDOF 6
ENDMDL
MODEL      191
REMARK 921   NORMALIZED FREE ENERGY PREDICTED BY IDOCK:   -3.54 KCAL/MOL
REMARK 922        TOTAL FREE ENERGY PREDICTED BY IDOCK:   -6.32 KCAL/MOL
REMARK 923 INTER-LIGAND FREE ENERGY PREDICTED BY IDOCK:   -4.91 KCAL/MOL
REMARK 924 INTRA-LIGAND FREE ENERGY PREDICTED BY IDOCK:   -1.41 KCAL/MOL
REMARK 927      BINDING AFFINITY PREDICTED BY RF-SCORE:    0.00 PKD
ROOT
HETATM    1  C   UNL     1     -11.089   6.102  71.391  1.00  0.00    -0.346 C  
HETATM    2  C   UNL     1     -10.544   5.379  72.635  1.00  0.00    -0.274 C  
HETATM    3  C   UNL     1      -9.401   4.480  72.275  1.00  0.00    -0.128 A  
HETATM    4  C   UNL     1     -11.642   4.519  73.277  1.00  0.00    -0.254 C  
HETATM    5  N   UNL     1      -9.564   3.338  71.643  1.00  0.00    -0.150 NA 
HETATM    6  N   UNL     1      -8.440   2.607  71.814  1.00  0.00    -0.063 NA 
HETATM    7  C   UNL     1      -7.553   3.336  72.458  1.00  0.00    -0.058 A  
HETATM    8  N   UNL     1      -8.074   4.600  72.674  1.00  0.00    -0.098 NA 
HETATM    9  C   UNL     1      -6.233   2.794  72.837  1.00  0.00    -0.009 C  
ENDROOT
BRANCH   8  10
HETATM   10  C   UNL     1      -7.480   5.800  73.301  1.00  0.00    -0.095 C  
HETATM   11  C   UNL     1      -6.338   6.510  72.534  1.00  0.00    -0.058 C  
HETATM   12  C   UNL     1      -6.434   8.034  72.337  1.00  0.00    -0.068 C  
HETATM   13  C   UNL     1      -5.852   8.683  73.591  1.00  0.00    -0.118 C  
HETATM   14  C   UNL     1      -7.032   8.669  74.549  1.00  0.00    -0.174 C  
HETATM   15  C   UNL     1      -8.254   8.279  73.666  1.00  0.00    -0.192 C  
HETATM   16  C   UNL     1      -8.563   6.784  73.839  1.00  0.00    -0.154 C  
HETATM   17  N   UNL     1      -7.802   8.606  72.306  1.00  0.00    -0.338 NA 
BRANCH  17  18
HETATM   18  C   UNL     1      -8.639   8.235  71.110  1.00  0.00    -0.142 C  
BRANCH  18  19
HETATM   19  C   UNL     1      -9.150   9.366  70.107  1.00  0.00    -0.262 C  
HETATM   20  C   UNL     1      -8.367   9.748  68.737  1.00  0.00    -0.113 C  
BRANCH  20  21
HETATM   21  C   UNL     1      -7.299  10.857  68.479  1.00  0.00    -0.098 A  
HETATM   22  C   UNL     1      -5.379  12.987  68.219  1.00  0.00    -0.082 A  
HETATM   23  C   UNL     1      -6.473  11.297  69.563  1.00  0.00    -0.119 A  
HETATM   24  C   UNL     1      -6.185  12.586  67.145  1.00  0.00    -0.042 A  
HETATM   25  C   UNL     1      -7.132  11.544  67.272  1.00  0.00    -0.128 A  
HETATM   26  C   UNL     1      -5.528  12.337  69.439  1.00  0.00    -0.074 A  
ENDBRANCH  20  21
BRANCH  20  27
HETATM   27  N   UNL     1      -7.979   8.539  68.024  1.00  0.00    -0.110 N  
HETATM   28  H   UNL     1      -7.157   8.011  68.316  1.00  0.00     0.000 HD 
HETATM   29  C   UNL     1      -8.728   8.115  66.958  1.00  0.00    -0.131 C  
HETATM   30  O   UNL     1      -9.686   8.766  66.544  1.00  0.00    -0.214 OA 
BRANCH  29  31
HETATM   31  C   UNL     1      -8.241   6.866  66.238  1.00  0.00    -0.117 C  
HETATM   32  C   UNL     1      -8.305   5.275  68.184  1.00  0.00    -0.097 C  
HETATM   33  C   UNL     1      -7.435   5.878  67.087  1.00  0.00    -0.084 C  
HETATM   34  C   UNL     1      -9.570   4.636  67.635  1.00  0.00    -0.161 C  
HETATM   35  F   UNL     1     -10.362   4.240  68.659  1.00  0.00    -0.090 F  
HETATM   36  F   UNL     1      -9.235   3.513  66.946  1.00  0.00    -0.143 F  
HETATM   37  C   UNL     1     -10.360   5.542  66.721  1.00  0.00    -0.321 C  
HETATM   38  C   UNL     1      -9.457   6.144  65.646  1.00  0.00     0.195 C  
ENDBRANCH  29  31
ENDBRANCH  20  27
ENDBRANCH  18  19
ENDBRANCH  17  18
ENDBRANCH   8  10
TORSDOF 6
ENDMDL
MODEL      192
REMARK 921   NORMALIZED FREE ENERGY PREDICTED BY IDOCK:   -3.45 KCAL/MOL
REMARK 922        TOTAL FREE ENERGY PREDICTED BY IDOCK:   -6.20 KCAL/MOL
REMARK 923 INTER-LIGAND FREE ENERGY PREDICTED BY IDOCK:   -5.57 KCAL/MOL
REMARK 924 INTRA-LIGAND FREE ENERGY PREDICTED BY IDOCK:   -0.63 KCAL/MOL
REMARK 927      BINDING AFFINITY PREDICTED BY RF-SCORE:    0.00 PKD
ROOT
HETATM    1  C   UNL     1      -9.826  11.189  64.714  1.00  0.00    -0.326 C  
HETATM    2  C   UNL     1      -9.272  10.050  63.839  1.00  0.00    -0.317 C  
HETATM    3  C   UNL     1      -7.920   9.615  64.317  1.00  0.00    -0.139 A  
HETATM    4  C   UNL     1      -9.135  10.514  62.382  1.00  0.00    -0.313 C  
HETATM    5  N   UNL     1      -6.833  10.333  64.129  1.00  0.00    -0.097 NA 
HETATM    6  N   UNL     1      -5.767   9.522  64.311  1.00  0.00    -0.074 NA 
HETATM    7  C   UNL     1      -6.194   8.343  64.710  1.00  0.00    -0.064 A  
HETATM    8  N   UNL     1      -7.570   8.380  64.851  1.00  0.00    -0.094 NA 
HETATM    9  C   UNL     1      -5.262   7.222  64.948  1.00  0.00    -0.029 C  
ENDROOT
BRANCH   8  10
HETATM   10  C   UNL     1      -8.527   7.352  65.314  1.00  0.00    -0.056 C  
HETATM   11  C   UNL     1      -8.066   5.876  65.253  1.00  0.00    -0.133 C  
HETATM   12  C   UNL     1      -8.247   5.007  66.512  1.00  0.00    -0.108 C  
HETATM   13  C   UNL     1      -9.671   4.454  66.470  1.00  0.00    -0.230 C  
HETATM   14  C   UNL     1     -10.485   5.593  67.062  1.00  0.00    -0.344 C  
HETATM   15  C   UNL     1      -9.427   6.572  67.650  1.00  0.00    -0.123 C  
HETATM   16  C   UNL     1      -9.193   7.733  66.670  1.00  0.00    -0.220 C  
HETATM   17  N   UNL     1      -8.237   5.723  67.809  1.00  0.00    -0.102 NA 
BRANCH  17  18
HETATM   18  C   UNL     1      -6.917   6.324  68.216  1.00  0.00    -0.080 C  
BRANCH  18  19
HETATM   19  C   UNL     1      -6.125   5.743  69.474  1.00  0.00    -0.028 C  
HETATM   20  C   UNL     1      -6.593   6.004  71.007  1.00  0.00    -0.049 C  
BRANCH  20  21
HETATM   21  C   UNL     1      -6.144   7.115  72.007  1.00  0.00    -0.037 A  
HETATM   22  C   UNL     1      -5.521   9.131  73.966  1.00  0.00    -0.117 A  
HETATM   23  C   UNL     1      -6.483   6.986  73.392  1.00  0.00    -0.066 A  
HETATM   24  C   UNL     1      -5.189   9.290  72.614  1.00  0.00    -0.077 A  
HETATM   25  C   UNL     1      -5.499   8.304  71.650  1.00  0.00    -0.035 A  
HETATM   26  C   UNL     1      -6.177   7.969  74.356  1.00  0.00    -0.114 A  
ENDBRANCH  20  21
BRANCH  20  27
HETATM   27  N   UNL     1      -8.028   5.796  71.138  1.00  0.00    -0.110 N  
HETATM   28  H   UNL     1      -8.401   4.857  71.269  1.00  0.00     0.000 HD 
HETATM   29  C   UNL     1      -8.873   6.873  71.086  1.00  0.00    -0.142 C  
HETATM   30  O   UNL     1      -8.456   8.009  70.865  1.00  0.00    -0.117 OA 
BRANCH  29  31
HETATM   31  C   UNL     1     -10.362   6.576  71.192  1.00  0.00    -0.237 C  
HETATM   32  C   UNL     1     -10.202   4.241  72.111  1.00  0.00    -0.234 C  
HETATM   33  C   UNL     1     -10.765   5.111  70.994  1.00  0.00    -0.133 C  
HETATM   34  C   UNL     1     -10.593   4.745  73.490  1.00  0.00    -0.244 C  
HETATM   35  F   UNL     1      -9.958   4.016  74.438  1.00  0.00    -0.133 F  
HETATM   36  F   UNL     1     -11.925   4.544  73.674  1.00  0.00    -0.273 F  
HETATM   37  C   UNL     1     -10.294   6.208  73.709  1.00  0.00    -0.288 C  
HETATM   38  C   UNL     1     -10.853   7.050  72.564  1.00  0.00    -0.285 C  
ENDBRANCH  29  31
ENDBRANCH  20  27
ENDBRANCH  18  19
ENDBRANCH  17  18
ENDBRANCH   8  10
TORSDOF 6
ENDMDL
MODEL      193
REMARK 921   NORMALIZED FREE ENERGY PREDICTED BY IDOCK:   -3.41 KCAL/MOL
REMARK 922        TOTAL FREE ENERGY PREDICTED BY IDOCK:   -6.15 KCAL/MOL
REMARK 923 INTER-LIGAND FREE ENERGY PREDICTED BY IDOCK:   -6.19 KCAL/MOL
REMARK 924 INTRA-LIGAND FREE ENERGY PREDICTED BY IDOCK:    0.04 KCAL/MOL
REMARK 927      BINDING AFFINITY PREDICTED BY RF-SCORE:    0.00 PKD
ROOT
HETATM    1  C   UNL     1     -11.900   8.023  72.478  1.00  0.00    -0.419 C  
HETATM    2  C   UNL     1     -11.112   6.723  72.239  1.00  0.00    -0.286 C  
HETATM    3  C   UNL     1     -10.831   6.526  70.780  1.00  0.00    -0.261 A  
HETATM    4  C   UNL     1     -11.915   5.513  72.737  1.00  0.00    -0.094 C  
HETATM    5  N   UNL     1     -11.757   6.162  69.919  1.00  0.00    -0.204 NA 
HETATM    6  N   UNL     1     -11.133   5.702  68.812  1.00  0.00    -0.041 NA 
HETATM    7  C   UNL     1      -9.836   5.880  68.951  1.00  0.00    -0.145 A  
HETATM    8  N   UNL     1      -9.591   6.522  70.152  1.00  0.00    -0.160 NA 
HETATM    9  C   UNL     1      -8.877   5.432  67.921  1.00  0.00    -0.105 C  
ENDROOT
BRANCH   8  10
HETATM   10  C   UNL     1      -8.328   6.994  70.760  1.00  0.00    -0.129 C  
HETATM   11  C   UNL     1      -7.040   6.863  69.913  1.00  0.00    -0.071 C  
HETATM   12  C   UNL     1      -6.131   8.100  69.778  1.00  0.00    -0.029 C  
HETATM   13  C   UNL     1      -5.205   8.106  70.993  1.00  0.00    -0.025 C  
HETATM   14  C   UNL     1      -6.060   8.772  72.058  1.00  0.00    -0.073 C  
HETATM   15  C   UNL     1      -7.285   9.343  71.282  1.00  0.00     0.092 C  
HETATM   16  C   UNL     1      -8.483   8.392  71.432  1.00  0.00    -0.195 C  
HETATM   17  N   UNL     1      -6.797   9.419  69.897  1.00  0.00    -0.054 NA 
BRANCH  17  18
HETATM   18  C   UNL     1      -7.734   9.783  68.775  1.00  0.00    -0.081 C  
BRANCH  18  19
HETATM   19  C   UNL     1      -7.241  10.744  67.600  1.00  0.00    -0.092 C  
HETATM   20  C   UNL     1      -8.211  11.228  66.392  1.00  0.00    -0.150 C  
BRANCH  20  21
HETATM   21  C   UNL     1      -8.416  10.608  64.974  1.00  0.00    -0.135 A  
HETATM   22  C   UNL     1      -9.015   9.411  62.425  1.00  0.00    -0.258 A  
HETATM   23  C   UNL     1      -9.689  10.741  64.331  1.00  0.00    -0.356 A  
HETATM   24  C   UNL     1      -7.765   9.253  63.037  1.00  0.00    -0.121 A  
HETATM   25  C   UNL     1      -7.471   9.836  64.291  1.00  0.00    -0.132 A  
HETATM   26  C   UNL     1      -9.986  10.159  63.081  1.00  0.00     0.242 A  
ENDBRANCH  20  21
BRANCH  20  27
HETATM   27  N   UNL     1      -9.502  11.649  66.919  1.00  0.00    -0.182 N  
HETATM   28  H   UNL     1     -10.002  11.060  67.584  1.00  0.00     0.000 HD 
HETATM   29  C   UNL     1     -10.039  12.841  66.513  1.00  0.00    -0.258 C  
HETATM   30  O   UNL     1      -9.490  13.540  65.663  1.00  0.00    -0.057 OA 
BRANCH  29  31
HETATM   31  C   UNL     1     -11.408  13.198  67.075  1.00  0.00    -0.349 C  
HETATM   32  C   UNL     1     -10.647  14.403  69.147  1.00  0.00    -0.229 C  
HETATM   33  C   UNL     1     -11.504  13.266  68.603  1.00  0.00    -0.339 C  
HETATM   34  C   UNL     1     -10.984  15.739  68.508  1.00  0.00    -0.312 C  
HETATM   35  F   UNL     1     -10.107  16.680  68.929  1.00  0.00    -0.219 F  
HETATM   36  F   UNL     1     -12.213  16.136  68.933  1.00  0.00    -0.333 F  
HETATM   37  C   UNL     1     -10.987  15.706  66.998  1.00  0.00    -0.261 C  
HETATM   38  C   UNL     1     -11.837  14.546  66.485  1.00  0.00    -0.367 C  
ENDBRANCH  29  31
ENDBRANCH  20  27
ENDBRANCH  18  19
ENDBRANCH  17  18
ENDBRANCH   8  10
TORSDOF 6
ENDMDL
MODEL      194
REMARK 921   NORMALIZED FREE ENERGY PREDICTED BY IDOCK:   -3.41 KCAL/MOL
REMARK 922        TOTAL FREE ENERGY PREDICTED BY IDOCK:   -6.14 KCAL/MOL
REMARK 923 INTER-LIGAND FREE ENERGY PREDICTED BY IDOCK:   -4.99 KCAL/MOL
REMARK 924 INTRA-LIGAND FREE ENERGY PREDICTED BY IDOCK:   -1.15 KCAL/MOL
REMARK 927      BINDING AFFINITY PREDICTED BY RF-SCORE:    0.00 PKD
ROOT
HETATM    1  C   UNL     1      -6.096   2.836  70.139  1.00  0.00    -0.023 C  
HETATM    2  C   UNL     1      -6.899   4.094  70.514  1.00  0.00    -0.033 C  
HETATM    3  C   UNL     1      -6.194   4.883  71.576  1.00  0.00    -0.025 A  
HETATM    4  C   UNL     1      -8.283   3.704  71.051  1.00  0.00    -0.078 C  
HETATM    5  N   UNL     1      -6.144   4.500  72.834  1.00  0.00    -0.016 NA 
HETATM    6  N   UNL     1      -5.801   5.573  73.579  1.00  0.00    -0.031 NA 
HETATM    7  C   UNL     1      -5.539   6.582  72.776  1.00  0.00    -0.038 A  
HETATM    8  N   UNL     1      -5.657   6.161  71.463  1.00  0.00    -0.025 NA 
HETATM    9  C   UNL     1      -5.178   7.915  73.298  1.00  0.00    -0.041 C  
ENDROOT
BRANCH   8  10
HETATM   10  C   UNL     1      -5.426   6.876  70.189  1.00  0.00    -0.023 C  
HETATM   11  C   UNL     1      -5.677   6.092  68.879  1.00  0.00    -0.012 C  
HETATM   12  C   UNL     1      -6.551   6.750  67.795  1.00  0.00    -0.058 C  
HETATM   13  C   UNL     1      -5.631   7.640  66.962  1.00  0.00    -0.031 C  
HETATM   14  C   UNL     1      -5.575   8.918  67.782  1.00  0.00    -0.035 C  
HETATM   15  C   UNL     1      -6.690   8.748  68.857  1.00  0.00    -0.053 C  
HETATM   16  C   UNL     1      -6.064   8.298  70.186  1.00  0.00    -0.031 C  
HETATM   17  N   UNL     1      -7.564   7.722  68.272  1.00  0.00    -0.107 NA 
BRANCH  17  18
HETATM   18  C   UNL     1      -8.704   7.142  69.068  1.00  0.00    -0.132 C  
BRANCH  18  19
HETATM   19  C   UNL     1     -10.213   7.418  68.628  1.00  0.00    -0.203 C  
HETATM   20  C   UNL     1     -10.868   8.903  68.610  1.00  0.00     0.009 C  
BRANCH  20  21
HETATM   21  C   UNL     1     -11.697   9.636  69.710  1.00  0.00     0.057 A  
HETATM   22  C   UNL     1     -13.076  11.170  71.718  1.00  0.00    -0.536 A  
HETATM   23  C   UNL     1     -11.885  11.052  69.615  1.00  0.00    -0.414 A  
HETATM   24  C   UNL     1     -12.895   9.787  71.844  1.00  0.00    -0.520 A  
HETATM   25  C   UNL     1     -12.213   9.033  70.862  1.00  0.00    -0.205 A  
HETATM   26  C   UNL     1     -12.563  11.808  70.595  1.00  0.00    -0.289 A  
ENDBRANCH  20  21
BRANCH  20  27
HETATM   27  N   UNL     1      -9.951   9.851  67.993  1.00  0.00    -0.147 N  
HETATM   28  H   UNL     1      -9.415  10.497  68.571  1.00  0.00     0.000 HD 
HETATM   29  C   UNL     1      -9.815   9.868  66.631  1.00  0.00    -0.207 C  
HETATM   30  O   UNL     1     -10.496   9.146  65.906  1.00  0.00     0.039 OA 
BRANCH  29  31
HETATM   31  C   UNL     1      -8.868  10.911  66.054  1.00  0.00    -0.198 C  
HETATM   32  C   UNL     1     -10.580  12.632  65.398  1.00  0.00    -0.307 C  
HETATM   33  C   UNL     1      -9.430  11.760  64.908  1.00  0.00    -0.054 C  
HETATM   34  C   UNL     1     -10.190  13.491  66.589  1.00  0.00    -0.275 C  
HETATM   35  F   UNL     1     -11.281  14.140  67.060  1.00  0.00    -0.288 F  
HETATM   36  F   UNL     1      -9.317  14.449  66.177  1.00  0.00    -0.294 F  
HETATM   37  C   UNL     1      -9.552  12.714  67.715  1.00  0.00    -0.197 C  
HETATM   38  C   UNL     1      -8.418  11.837  67.190  1.00  0.00    -0.170 C  
ENDBRANCH  29  31
ENDBRANCH  20  27
ENDBRANCH  18  19
ENDBRANCH  17  18
ENDBRANCH   8  10
TORSDOF 6
ENDMDL
MODEL      195
REMARK 921   NORMALIZED FREE ENERGY PREDICTED BY IDOCK:   -3.38 KCAL/MOL
REMARK 922        TOTAL FREE ENERGY PREDICTED BY IDOCK:   -6.10 KCAL/MOL
REMARK 923 INTER-LIGAND FREE ENERGY PREDICTED BY IDOCK:   -5.46 KCAL/MOL
REMARK 924 INTRA-LIGAND FREE ENERGY PREDICTED BY IDOCK:   -0.64 KCAL/MOL
REMARK 927      BINDING AFFINITY PREDICTED BY RF-SCORE:    0.00 PKD
ROOT
HETATM    1  C   UNL     1     -10.997   9.934  71.053  1.00  0.00    -0.360 C  
HETATM    2  C   UNL     1     -11.274   8.607  71.780  1.00  0.00    -0.396 C  
HETATM    3  C   UNL     1     -10.844   7.438  70.945  1.00  0.00    -0.240 A  
HETATM    4  C   UNL     1     -12.774   8.458  72.069  1.00  0.00    -0.399 C  
HETATM    5  N   UNL     1     -11.512   7.035  69.885  1.00  0.00    -0.217 NA 
HETATM    6  N   UNL     1     -11.112   5.776  69.600  1.00  0.00    -0.338 NA 
HETATM    7  C   UNL     1     -10.131   5.447  70.413  1.00  0.00    -0.244 A  
HETATM    8  N   UNL     1      -9.831   6.528  71.225  1.00  0.00    -0.181 NA 
HETATM    9  C   UNL     1      -9.513   4.107  70.379  1.00  0.00    -0.247 C  
ENDROOT
BRANCH   8  10
HETATM   10  C   UNL     1      -8.794   6.702  72.264  1.00  0.00    -0.133 C  
HETATM   11  C   UNL     1      -7.436   5.995  72.037  1.00  0.00    -0.095 C  
HETATM   12  C   UNL     1      -6.149   6.826  72.199  1.00  0.00    -0.038 C  
HETATM   13  C   UNL     1      -5.791   6.806  73.684  1.00  0.00    -0.058 C  
HETATM   14  C   UNL     1      -6.657   7.920  74.248  1.00  0.00    -0.120 C  
HETATM   15  C   UNL     1      -7.213   8.662  72.997  1.00  0.00     0.093 C  
HETATM   16  C   UNL     1      -8.646   8.189  72.707  1.00  0.00    -0.269 C  
HETATM   17  N   UNL     1      -6.270   8.280  71.936  1.00  0.00    -0.047 NA 
BRANCH  17  18
HETATM   18  C   UNL     1      -6.532   8.666  70.503  1.00  0.00    -0.038 C  
BRANCH  18  19
HETATM   19  C   UNL     1      -5.664   8.024  69.328  1.00  0.00    -0.033 C  
HETATM   20  C   UNL     1      -6.198   7.905  67.800  1.00  0.00    -0.051 C  
BRANCH  20  21
HETATM   21  C   UNL     1      -6.921   6.719  67.089  1.00  0.00    -0.074 A  
HETATM   22  C   UNL     1      -8.109   4.383  65.896  1.00  0.00    -0.102 A  
HETATM   23  C   UNL     1      -7.140   5.502  67.811  1.00  0.00    -0.071 A  
HETATM   24  C   UNL     1      -7.894   5.557  65.162  1.00  0.00    -0.097 A  
HETATM   25  C   UNL     1      -7.306   6.703  65.745  1.00  0.00    -0.075 A  
HETATM   26  C   UNL     1      -7.726   4.356  67.232  1.00  0.00    -0.089 A  
ENDBRANCH  20  21
BRANCH  20  27
HETATM   27  N   UNL     1      -6.815   9.157  67.384  1.00  0.00    -0.076 N  
HETATM   28  H   UNL     1      -6.292   9.824  66.817  1.00  0.00     0.000 HD 
HETATM   29  C   UNL     1      -8.103   9.432  67.759  1.00  0.00    -0.107 C  
HETATM   30  O   UNL     1      -8.735   8.676  68.496  1.00  0.00    -0.137 OA 
BRANCH  29  31
HETATM   31  C   UNL     1      -8.669  10.775  67.320  1.00  0.00    -0.130 C  
HETATM   32  C   UNL     1      -8.113  10.621  64.872  1.00  0.00    -0.022 C  
HETATM   33  C   UNL     1      -7.953  11.447  66.144  1.00  0.00     0.021 C  
HETATM   34  C   UNL     1      -9.569  10.333  64.548  1.00  0.00    -0.316 C  
HETATM   35  F   UNL     1      -9.642   9.489  63.492  1.00  0.00    -0.211 F  
HETATM   36  F   UNL     1     -10.175  11.488  64.165  1.00  0.00    -0.265 F  
HETATM   37  C   UNL     1     -10.343   9.746  65.704  1.00  0.00    -0.036 C  
HETATM   38  C   UNL     1     -10.148  10.584  66.965  1.00  0.00    -0.259 C  
ENDBRANCH  29  31
ENDBRANCH  20  27
ENDBRANCH  18  19
ENDBRANCH  17  18
ENDBRANCH   8  10
TORSDOF 6
ENDMDL
MODEL      196
REMARK 921   NORMALIZED FREE ENERGY PREDICTED BY IDOCK:   -3.37 KCAL/MOL
REMARK 922        TOTAL FREE ENERGY PREDICTED BY IDOCK:   -6.10 KCAL/MOL
REMARK 923 INTER-LIGAND FREE ENERGY PREDICTED BY IDOCK:   -5.21 KCAL/MOL
REMARK 924 INTRA-LIGAND FREE ENERGY PREDICTED BY IDOCK:   -0.89 KCAL/MOL
REMARK 927      BINDING AFFINITY PREDICTED BY RF-SCORE:    0.00 PKD
ROOT
HETATM    1  C   UNL     1     -11.332   6.164  71.195  1.00  0.00    -0.340 C  
HETATM    2  C   UNL     1     -10.513   5.512  72.323  1.00  0.00    -0.266 C  
HETATM    3  C   UNL     1      -9.525   4.530  71.770  1.00  0.00    -0.149 A  
HETATM    4  C   UNL     1     -11.439   4.761  73.290  1.00  0.00    -0.361 C  
HETATM    5  N   UNL     1      -9.876   3.352  71.300  1.00  0.00    -0.167 NA 
HETATM    6  N   UNL     1      -8.768   2.580  71.250  1.00  0.00    -0.063 NA 
HETATM    7  C   UNL     1      -7.726   3.310  71.587  1.00  0.00    -0.053 A  
HETATM    8  N   UNL     1      -8.137   4.612  71.815  1.00  0.00    -0.101 NA 
HETATM    9  C   UNL     1      -6.370   2.732  71.673  1.00  0.00    -0.015 C  
ENDROOT
BRANCH   8  10
HETATM   10  C   UNL     1      -7.368   5.825  72.167  1.00  0.00    -0.094 C  
HETATM   11  C   UNL     1      -6.001   6.026  71.470  1.00  0.00    -0.035 C  
HETATM   12  C   UNL     1      -5.713   7.391  70.819  1.00  0.00    -0.027 C  
HETATM   13  C   UNL     1      -5.166   8.302  71.917  1.00  0.00    -0.035 C  
HETATM   14  C   UNL     1      -6.434   8.815  72.581  1.00  0.00    -0.009 C  
HETATM   15  C   UNL     1      -7.585   8.382  71.626  1.00  0.00    -0.104 C  
HETATM   16  C   UNL     1      -8.254   7.107  72.164  1.00  0.00    -0.103 C  
HETATM   17  N   UNL     1      -6.892   8.156  70.349  1.00  0.00    -0.037 NA 
BRANCH  17  18
HETATM   18  C   UNL     1      -7.627   7.568  69.173  1.00  0.00    -0.100 C  
BRANCH  18  19
HETATM   19  C   UNL     1      -9.041   8.162  68.732  1.00  0.00    -0.144 C  
HETATM   20  C   UNL     1      -9.594   8.085  67.208  1.00  0.00    -0.162 C  
BRANCH  20  21
HETATM   21  C   UNL     1      -9.480   9.132  66.056  1.00  0.00    -0.321 A  
HETATM   22  C   UNL     1      -9.039  11.075  63.977  1.00  0.00    -0.115 A  
HETATM   23  C   UNL     1      -8.320   9.125  65.217  1.00  0.00    -0.152 A  
HETATM   24  C   UNL     1     -10.178  11.114  64.793  1.00  0.00    -0.365 A  
HETATM   25  C   UNL     1     -10.393  10.165  65.817  1.00  0.00    -0.216 A  
HETATM   26  C   UNL     1      -8.101  10.073  64.195  1.00  0.00    -0.153 A  
ENDBRANCH  20  21
BRANCH  20  27
HETATM   27  N   UNL     1      -9.383   6.752  66.662  1.00  0.00    -0.161 N  
HETATM   28  H   UNL     1      -8.579   6.563  66.064  1.00  0.00     0.000 HD 
HETATM   29  C   UNL     1     -10.273   5.754  66.958  1.00  0.00    -0.213 C  
HETATM   30  O   UNL     1     -11.285   5.969  67.622  1.00  0.00    -0.234 OA 
BRANCH  29  31
HETATM   31  C   UNL     1     -10.011   4.397  66.321  1.00  0.00    -0.255 C  
HETATM   32  C   UNL     1      -7.622   4.774  65.631  1.00  0.00    -0.086 C  
HETATM   33  C   UNL     1      -9.018   4.388  65.154  1.00  0.00    -0.143 C  
HETATM   34  C   UNL     1      -7.141   3.902  66.778  1.00  0.00    -0.063 C  
HETATM   35  F   UNL     1      -5.961   4.374  67.245  1.00  0.00    -0.020 F  
HETATM   36  F   UNL     1      -6.900   2.649  66.311  1.00  0.00    -0.040 F  
HETATM   37  C   UNL     1      -8.122   3.808  67.922  1.00  0.00    -0.084 C  
HETATM   38  C   UNL     1      -9.513   3.439  67.410  1.00  0.00    -0.220 C  
ENDBRANCH  29  31
ENDBRANCH  20  27
ENDBRANCH  18  19
ENDBRANCH  17  18
ENDBRANCH   8  10
TORSDOF 6
ENDMDL
MODEL      197
REMARK 921   NORMALIZED FREE ENERGY PREDICTED BY IDOCK:   -3.34 KCAL/MOL
REMARK 922        TOTAL FREE ENERGY PREDICTED BY IDOCK:   -6.05 KCAL/MOL
REMARK 923 INTER-LIGAND FREE ENERGY PREDICTED BY IDOCK:   -5.62 KCAL/MOL
REMARK 924 INTRA-LIGAND FREE ENERGY PREDICTED BY IDOCK:   -0.43 KCAL/MOL
REMARK 927      BINDING AFFINITY PREDICTED BY RF-SCORE:    0.00 PKD
ROOT
HETATM    1  C   UNL     1     -11.441   6.673  70.354  1.00  0.00    -0.444 C  
HETATM    2  C   UNL     1     -10.173   6.088  69.707  1.00  0.00    -0.265 C  
HETATM    3  C   UNL     1     -10.116   6.415  68.246  1.00  0.00    -0.153 A  
HETATM    4  C   UNL     1     -10.153   4.561  69.854  1.00  0.00    -0.195 C  
HETATM    5  N   UNL     1     -10.882   5.825  67.353  1.00  0.00    -0.249 NA 
HETATM    6  N   UNL     1     -10.337   6.039  66.135  1.00  0.00     0.055 NA 
HETATM    7  C   UNL     1      -9.303   6.843  66.268  1.00  0.00    -0.099 A  
HETATM    8  N   UNL     1      -9.185   7.218  67.595  1.00  0.00    -0.126 NA 
HETATM    9  C   UNL     1      -8.466   7.226  65.113  1.00  0.00    -0.029 C  
ENDROOT
BRANCH   8  10
HETATM   10  C   UNL     1      -8.236   8.133  68.264  1.00  0.00    -0.129 C  
HETATM   11  C   UNL     1      -7.878   9.446  67.528  1.00  0.00    -0.099 C  
HETATM   12  C   UNL     1      -7.970  10.768  68.314  1.00  0.00    -0.118 C  
HETATM   13  C   UNL     1      -6.641  10.941  69.048  1.00  0.00    -0.061 C  
HETATM   14  C   UNL     1      -6.846  10.108  70.302  1.00  0.00    -0.150 C  
HETATM   15  C   UNL     1      -8.366   9.769  70.310  1.00  0.00    -0.138 C  
HETATM   16  C   UNL     1      -8.583   8.347  69.768  1.00  0.00    -0.132 C  
HETATM   17  N   UNL     1      -8.942  10.798  69.433  1.00  0.00    -0.040 NA 
BRANCH  17  18
HETATM   18  C   UNL     1     -10.395  10.743  69.039  1.00  0.00    -0.215 C  
BRANCH  18  19
HETATM   19  C   UNL     1     -11.308  12.047  69.158  1.00  0.00    -0.338 C  
HETATM   20  C   UNL     1     -11.301  13.232  68.049  1.00  0.00    -0.291 C  
BRANCH  20  21
HETATM   21  C   UNL     1     -10.476  14.556  68.015  1.00  0.00    -0.236 A  
HETATM   22  C   UNL     1      -8.776  16.880  68.053  1.00  0.00    -0.215 A  
HETATM   23  C   UNL     1      -9.069  14.497  67.752  1.00  0.00    -0.190 A  
HETATM   24  C   UNL     1     -10.147  16.966  68.328  1.00  0.00    -0.302 A  
HETATM   25  C   UNL     1     -10.982  15.825  68.315  1.00  0.00    -0.325 A  
HETATM   26  C   UNL     1      -8.233  15.633  67.765  1.00  0.00    -0.155 A  
ENDBRANCH  20  21
BRANCH  20  27
HETATM   27  N   UNL     1     -11.351  12.668  66.708  1.00  0.00    -0.301 N  
HETATM   28  H   UNL     1     -10.694  11.938  66.432  1.00  0.00     0.000 HD 
HETATM   29  C   UNL     1     -12.287  13.124  65.818  1.00  0.00    -0.435 C  
HETATM   30  O   UNL     1     -13.049  14.048  66.102  1.00  0.00    -0.200 OA 
BRANCH  29  31
HETATM   31  C   UNL     1     -12.256  12.516  64.424  1.00  0.00    -0.528 C  
HETATM   32  C   UNL     1      -9.796  12.773  63.970  1.00  0.00     0.056 C  
HETATM   33  C   UNL     1     -11.201  13.088  63.471  1.00  0.00    -0.248 C  
HETATM   34  C   UNL     1      -9.585  11.287  64.208  1.00  0.00    -0.225 C  
HETATM   35  F   UNL     1      -8.373  11.084  64.775  1.00  0.00    -0.111 F  
HETATM   36  F   UNL     1      -9.567  10.645  63.010  1.00  0.00    -0.252 F  
HETATM   37  C   UNL     1     -10.648  10.654  65.074  1.00  0.00    -0.187 C  
HETATM   38  C   UNL     1     -12.042  11.004  64.559  1.00  0.00     1.450 C  
ENDBRANCH  29  31
ENDBRANCH  20  27
ENDBRANCH  18  19
ENDBRANCH  17  18
ENDBRANCH   8  10
TORSDOF 6
ENDMDL
MODEL      198
REMARK 921   NORMALIZED FREE ENERGY PREDICTED BY IDOCK:   -3.34 KCAL/MOL
REMARK 922        TOTAL FREE ENERGY PREDICTED BY IDOCK:   -6.05 KCAL/MOL
REMARK 923 INTER-LIGAND FREE ENERGY PREDICTED BY IDOCK:   -4.60 KCAL/MOL
REMARK 924 INTRA-LIGAND FREE ENERGY PREDICTED BY IDOCK:   -1.45 KCAL/MOL
REMARK 927      BINDING AFFINITY PREDICTED BY RF-SCORE:    0.00 PKD
ROOT
HETATM    1  C   UNL     1     -11.927   5.791  72.188  1.00  0.00    -0.095 C  
HETATM    2  C   UNL     1     -10.566   6.506  72.135  1.00  0.00    -0.240 C  
HETATM    3  C   UNL     1      -9.470   5.611  72.630  1.00  0.00    -0.146 A  
HETATM    4  C   UNL     1     -10.587   7.763  73.016  1.00  0.00    -0.441 C  
HETATM    5  N   UNL     1      -9.305   5.322  73.903  1.00  0.00    -0.128 NA 
HETATM    6  N   UNL     1      -8.052   4.840  74.058  1.00  0.00    -0.101 NA 
HETATM    7  C   UNL     1      -7.488   4.735  72.874  1.00  0.00    -0.090 A  
HETATM    8  N   UNL     1      -8.400   5.103  71.900  1.00  0.00    -0.119 NA 
HETATM    9  C   UNL     1      -6.092   4.280  72.718  1.00  0.00    -0.016 C  
ENDROOT
BRANCH   8  10
HETATM   10  C   UNL     1      -8.293   5.118  70.425  1.00  0.00    -0.105 C  
HETATM   11  C   UNL     1      -9.574   4.803  69.617  1.00  0.00    -0.253 C  
HETATM   12  C   UNL     1      -9.970   5.764  68.480  1.00  0.00    -0.154 C  
HETATM   13  C   UNL     1      -9.203   5.320  67.236  1.00  0.00    -0.114 C  
HETATM   14  C   UNL     1      -7.854   5.994  67.421  1.00  0.00    -0.102 C  
HETATM   15  C   UNL     1      -8.066   6.988  68.601  1.00  0.00    -0.121 C  
HETATM   16  C   UNL     1      -7.529   6.371  69.902  1.00  0.00    -0.088 C  
HETATM   17  N   UNL     1      -9.524   7.170  68.626  1.00  0.00    -0.140 NA 
BRANCH  17  18
HETATM   18  C   UNL     1     -10.179   7.953  69.734  1.00  0.00    -0.212 C  
BRANCH  18  19
HETATM   19  C   UNL     1     -10.159   9.548  69.710  1.00  0.00    -0.238 C  
HETATM   20  C   UNL     1      -9.274  10.402  68.650  1.00  0.00    -0.164 C  
BRANCH  20  21
HETATM   21  C   UNL     1      -7.838  10.994  68.804  1.00  0.00    -0.138 A  
HETATM   22  C   UNL     1      -5.162  12.054  68.854  1.00  0.00    -0.050 A  
HETATM   23  C   UNL     1      -7.310  11.826  67.765  1.00  0.00    -0.106 A  
HETATM   24  C   UNL     1      -5.648  11.231  69.879  1.00  0.00    -0.080 A  
HETATM   25  C   UNL     1      -6.959  10.705  69.853  1.00  0.00    -0.148 A  
HETATM   26  C   UNL     1      -6.001  12.351  67.787  1.00  0.00    -0.111 A  
ENDBRANCH  20  21
BRANCH  20  27
HETATM   27  N   UNL     1      -9.421   9.851  67.311  1.00  0.00    -0.151 N  
HETATM   28  H   UNL     1      -9.074   8.916  67.099  1.00  0.00     0.000 HD 
HETATM   29  C   UNL     1     -10.030  10.598  66.337  1.00  0.00    -0.222 C  
HETATM   30  O   UNL     1     -10.399  11.752  66.547  1.00  0.00    -0.214 OA 
BRANCH  29  31
HETATM   31  C   UNL     1     -10.113   9.973  64.952  1.00  0.00    -0.184 C  
HETATM   32  C   UNL     1      -8.357  11.370  63.816  1.00  0.00     0.701 C  
HETATM   33  C   UNL     1      -9.810  10.911  63.778  1.00  0.00    -0.391 C  
HETATM   34  C   UNL     1      -7.383  10.204  63.865  1.00  0.00    -0.111 C  
HETATM   35  F   UNL     1      -6.123  10.671  64.031  1.00  0.00    -0.132 F  
HETATM   36  F   UNL     1      -7.404   9.560  62.668  1.00  0.00    -0.105 F  
HETATM   37  C   UNL     1      -7.688   9.204  64.953  1.00  0.00    -0.110 C  
HETATM   38  C   UNL     1      -9.154   8.779  64.901  1.00  0.00     0.017 C  
ENDBRANCH  29  31
ENDBRANCH  20  27
ENDBRANCH  18  19
ENDBRANCH  17  18
ENDBRANCH   8  10
TORSDOF 6
ENDMDL
MODEL      199
REMARK 921   NORMALIZED FREE ENERGY PREDICTED BY IDOCK:   -3.34 KCAL/MOL
REMARK 922        TOTAL FREE ENERGY PREDICTED BY IDOCK:   -6.05 KCAL/MOL
REMARK 923 INTER-LIGAND FREE ENERGY PREDICTED BY IDOCK:   -4.83 KCAL/MOL
REMARK 924 INTRA-LIGAND FREE ENERGY PREDICTED BY IDOCK:   -1.21 KCAL/MOL
REMARK 927      BINDING AFFINITY PREDICTED BY RF-SCORE:    0.00 PKD
ROOT
HETATM    1  C   UNL     1     -12.477  14.670  72.921  1.00  0.00    -0.390 C  
HETATM    2  C   UNL     1     -13.281  14.164  71.711  1.00  0.00    -0.450 C  
HETATM    3  C   UNL     1     -12.381  13.526  70.696  1.00  0.00    -0.358 A  
HETATM    4  C   UNL     1     -14.013  15.330  71.030  1.00  0.00    -0.368 C  
HETATM    5  N   UNL     1     -11.581  14.220  69.916  1.00  0.00    -0.274 NA 
HETATM    6  N   UNL     1     -11.215  13.425  68.887  1.00  0.00    -0.264 NA 
HETATM    7  C   UNL     1     -11.702  12.218  69.089  1.00  0.00    -0.323 A  
HETATM    8  N   UNL     1     -12.362  12.192  70.305  1.00  0.00    -0.238 NA 
HETATM    9  C   UNL     1     -11.511  11.131  68.108  1.00  0.00    -0.373 C  
ENDROOT
BRANCH   8  10
HETATM   10  C   UNL     1     -13.035  11.086  71.020  1.00  0.00    -0.276 C  
HETATM   11  C   UNL     1     -13.688   9.978  70.159  1.00  0.00     1.000 C  
HETATM   12  C   UNL     1     -13.366   8.511  70.500  1.00  0.00     0.991 C  
HETATM   13  C   UNL     1     -14.340   8.085  71.597  1.00  0.00    -0.581 C  
HETATM   14  C   UNL     1     -13.660   8.592  72.858  1.00  0.00    -0.029 C  
HETATM   15  C   UNL     1     -12.230   9.005  72.398  1.00  0.00    -0.252 C  
HETATM   16  C   UNL     1     -12.171  10.526  72.191  1.00  0.00     0.519 C  
HETATM   17  N   UNL     1     -12.054   8.260  71.143  1.00  0.00    -0.281 NA 
BRANCH  17  18
HETATM   18  C   UNL     1     -10.845   8.494  70.277  1.00  0.00    -0.238 C  
BRANCH  18  19
HETATM   19  C   UNL     1      -9.471   8.977  70.931  1.00  0.00    -0.331 C  
HETATM   20  C   UNL     1      -8.063   8.204  70.697  1.00  0.00    -0.105 C  
BRANCH  20  21
HETATM   21  C   UNL     1      -7.381   7.099  71.562  1.00  0.00    -0.078 A  
HETATM   22  C   UNL     1      -5.963   5.035  72.982  1.00  0.00    -0.026 A  
HETATM   23  C   UNL     1      -5.954   6.979  71.542  1.00  0.00    -0.037 A  
HETATM   24  C   UNL     1      -7.362   5.120  73.008  1.00  0.00    -0.091 A  
HETATM   25  C   UNL     1      -8.059   6.130  72.307  1.00  0.00    -0.109 A  
HETATM   26  C   UNL     1      -5.255   5.971  72.239  1.00  0.00    -0.022 A  
ENDBRANCH  20  21
BRANCH  20  27
HETATM   27  N   UNL     1      -7.896   7.877  69.288  1.00  0.00    -0.113 N  
HETATM   28  H   UNL     1      -8.032   6.921  68.962  1.00  0.00     0.000 HD 
HETATM   29  C   UNL     1      -7.554   8.864  68.402  1.00  0.00    -0.091 C  
HETATM   30  O   UNL     1      -7.319  10.013  68.776  1.00  0.00    -0.074 OA 
BRANCH  29  31
HETATM   31  C   UNL     1      -7.359   8.442  66.953  1.00  0.00    -0.083 C  
HETATM   32  C   UNL     1      -9.776   8.385  66.262  1.00  0.00    -0.278 C  
HETATM   33  C   UNL     1      -8.479   7.588  66.350  1.00  0.00    -0.131 C  
HETATM   34  C   UNL     1      -9.602   9.692  65.505  1.00  0.00    -0.283 C  
HETATM   35  F   UNL     1     -10.745  10.414  65.574  1.00  0.00    -0.271 F  
HETATM   36  F   UNL     1      -9.394   9.417  64.190  1.00  0.00    -0.269 F  
HETATM   37  C   UNL     1      -8.454  10.535  66.006  1.00  0.00    -0.157 C  
HETATM   38  C   UNL     1      -7.176   9.703  66.102  1.00  0.00    -0.098 C  
ENDBRANCH  29  31
ENDBRANCH  20  27
ENDBRANCH  18  19
ENDBRANCH  17  18
ENDBRANCH   8  10
TORSDOF 6
ENDMDL
MODEL      200
REMARK 921   NORMALIZED FREE ENERGY PREDICTED BY IDOCK:   -3.31 KCAL/MOL
REMARK 922        TOTAL FREE ENERGY PREDICTED BY IDOCK:   -6.01 KCAL/MOL
REMARK 923 INTER-LIGAND FREE ENERGY PREDICTED BY IDOCK:   -5.39 KCAL/MOL
REMARK 924 INTRA-LIGAND FREE ENERGY PREDICTED BY IDOCK:   -0.62 KCAL/MOL
REMARK 927      BINDING AFFINITY PREDICTED BY RF-SCORE:    0.00 PKD
ROOT
HETATM    1  C   UNL     1      -7.246  17.488  66.397  1.00  0.00    -0.326 C  
HETATM    2  C   UNL     1      -7.868  17.617  67.798  1.00  0.00    -0.211 C  
HETATM    3  C   UNL     1      -9.026  16.678  67.960  1.00  0.00    -0.211 A  
HETATM    4  C   UNL     1      -8.379  19.046  68.027  1.00  0.00    -0.335 C  
HETATM    5  N   UNL     1     -10.193  16.881  67.387  1.00  0.00    -0.291 NA 
HETATM    6  N   UNL     1     -11.103  16.108  68.020  1.00  0.00    -0.339 NA 
HETATM    7  C   UNL     1     -10.481  15.358  68.904  1.00  0.00    -0.238 A  
HETATM    8  N   UNL     1      -9.120  15.594  68.825  1.00  0.00    -0.194 NA 
HETATM    9  C   UNL     1     -11.217  14.436  69.792  1.00  0.00    -0.251 C  
ENDROOT
BRANCH   8  10
HETATM   10  C   UNL     1      -7.985  14.986  69.553  1.00  0.00    -0.135 C  
HETATM   11  C   UNL     1      -8.088  13.481  69.897  1.00  0.00     1.760 C  
HETATM   12  C   UNL     1      -6.894  12.573  69.544  1.00  0.00     0.089 C  
HETATM   13  C   UNL     1      -5.908  12.663  70.707  1.00  0.00    -0.030 C  
HETATM   14  C   UNL     1      -5.126  13.924  70.380  1.00  0.00    -0.098 C  
HETATM   15  C   UNL     1      -5.540  14.280  68.921  1.00  0.00    -0.083 C  
HETATM   16  C   UNL     1      -6.609  15.384  68.940  1.00  0.00    -0.110 C  
HETATM   17  N   UNL     1      -6.057  13.006  68.401  1.00  0.00    -0.074 NA 
BRANCH  17  18
HETATM   18  C   UNL     1      -6.714  12.943  67.047  1.00  0.00     0.307 C  
BRANCH  18  19
HETATM   19  C   UNL     1      -6.801  11.556  66.261  1.00  0.00     0.147 C  
HETATM   20  C   UNL     1      -8.209  10.841  65.887  1.00  0.00    -0.155 C  
BRANCH  20  21
HETATM   21  C   UNL     1      -9.007   9.751  66.667  1.00  0.00    -0.161 A  
HETATM   22  C   UNL     1     -10.463   7.876  68.297  1.00  0.00    -0.212 A  
HETATM   23  C   UNL     1      -9.949  10.155  67.666  1.00  0.00    -0.216 A  
HETATM   24  C   UNL     1      -9.536   7.452  67.335  1.00  0.00    -0.184 A  
HETATM   25  C   UNL     1      -8.817   8.371  66.538  1.00  0.00    -0.172 A  
HETATM   26  C   UNL     1     -10.668   9.240  68.465  1.00  0.00    -0.185 A  
ENDBRANCH  20  21
BRANCH  20  27
HETATM   27  N   UNL     1      -9.142  11.819  65.345  1.00  0.00    -0.418 N  
HETATM   28  H   UNL     1      -9.436  12.616  65.909  1.00  0.00     0.000 HD 
HETATM   29  C   UNL     1      -9.623  11.659  64.073  1.00  0.00    -0.136 C  
HETATM   30  O   UNL     1      -9.338  10.673  63.395  1.00  0.00    -0.238 OA 
BRANCH  29  31
HETATM   31  C   UNL     1     -10.624  12.698  63.588  1.00  0.00    -0.378 C  
HETATM   32  C   UNL     1     -12.532  12.106  65.115  1.00  0.00    -0.009 C  
HETATM   33  C   UNL     1     -12.099  12.290  63.665  1.00  0.00    -0.648 C  
HETATM   34  C   UNL     1     -12.248  13.334  65.964  1.00  0.00    -0.424 C  
HETATM   35  F   UNL     1     -12.527  13.066  67.261  1.00  0.00    -0.299 F  
HETATM   36  F   UNL     1     -13.083  14.337  65.586  1.00  0.00    -0.538 F  
HETATM   37  C   UNL     1     -10.825  13.830  65.858  1.00  0.00    -0.283 C  
HETATM   38  C   UNL     1     -10.416  13.984  64.394  1.00  0.00    -0.112 C  
ENDBRANCH  29  31
ENDBRANCH  20  27
ENDBRANCH  18  19
ENDBRANCH  17  18
ENDBRANCH   8  10
TORSDOF 6
ENDMDL
MODEL      201
REMARK 921   NORMALIZED FREE ENERGY PREDICTED BY IDOCK:   -3.24 KCAL/MOL
REMARK 922        TOTAL FREE ENERGY PREDICTED BY IDOCK:   -5.91 KCAL/MOL
REMARK 923 INTER-LIGAND FREE ENERGY PREDICTED BY IDOCK:   -4.83 KCAL/MOL
REMARK 924 INTRA-LIGAND FREE ENERGY PREDICTED BY IDOCK:   -1.08 KCAL/MOL
REMARK 927      BINDING AFFINITY PREDICTED BY RF-SCORE:    0.00 PKD
ROOT
HETATM    1  C   UNL     1     -13.324  13.379  64.889  1.00  0.00     0.543 C  
HETATM    2  C   UNL     1     -11.890  13.832  65.217  1.00  0.00    -0.365 C  
HETATM    3  C   UNL     1     -11.751  15.318  65.074  1.00  0.00    -0.174 A  
HETATM    4  C   UNL     1     -10.888  13.166  64.264  1.00  0.00    -0.430 C  
HETATM    5  N   UNL     1     -11.709  15.920  63.905  1.00  0.00    -0.607 NA 
HETATM    6  N   UNL     1     -11.200  17.157  64.097  1.00  0.00    -0.503 NA 
HETATM    7  C   UNL     1     -11.028  17.351  65.387  1.00  0.00     0.137 A  
HETATM    8  N   UNL     1     -11.483  16.241  66.078  1.00  0.00     0.458 NA 
HETATM    9  C   UNL     1     -10.438  18.599  65.912  1.00  0.00    -0.395 C  
ENDROOT
BRANCH   8  10
HETATM   10  C   UNL     1     -11.564  15.968  67.529  1.00  0.00     0.162 C  
HETATM   11  C   UNL     1     -12.449  14.781  67.979  1.00  0.00     0.352 C  
HETATM   12  C   UNL     1     -11.845  13.754  68.956  1.00  0.00    -0.357 C  
HETATM   13  C   UNL     1     -12.052  14.306  70.365  1.00  0.00    -0.409 C  
HETATM   14  C   UNL     1     -10.872  15.250  70.528  1.00  0.00    -0.287 C  
HETATM   15  C   UNL     1      -9.945  14.937  69.316  1.00  0.00    -0.175 C  
HETATM   16  C   UNL     1     -10.163  15.984  68.212  1.00  0.00    -0.237 C  
HETATM   17  N   UNL     1     -10.372  13.591  68.907  1.00  0.00    -0.155 NA 
BRANCH  17  18
HETATM   18  C   UNL     1      -9.825  12.962  67.652  1.00  0.00    -0.211 C  
BRANCH  18  19
HETATM   19  C   UNL     1      -9.514  11.398  67.609  1.00  0.00    -0.165 C  
HETATM   20  C   UNL     1      -8.210  10.778  66.869  1.00  0.00    -0.130 C  
BRANCH  20  21
HETATM   21  C   UNL     1      -8.059  10.228  65.416  1.00  0.00    -0.147 A  
HETATM   22  C   UNL     1      -7.971   9.078  62.778  1.00  0.00    -0.142 A  
HETATM   23  C   UNL     1      -9.236   9.931  64.657  1.00  0.00    -0.313 A  
HETATM   24  C   UNL     1      -6.803   9.346  63.504  1.00  0.00    -0.098 A  
HETATM   25  C   UNL     1      -6.845   9.906  64.802  1.00  0.00    -0.129 A  
HETATM   26  C   UNL     1      -9.198   9.371  63.362  1.00  0.00     0.091 A  
ENDBRANCH  20  21
BRANCH  20  27
HETATM   27  N   UNL     1      -7.022  11.547  67.212  1.00  0.00    -0.114 N  
HETATM   28  H   UNL     1      -6.454  11.970  66.479  1.00  0.00     0.000 HD 
HETATM   29  C   UNL     1      -6.674  11.698  68.528  1.00  0.00    -0.069 C  
HETATM   30  O   UNL     1      -7.303  11.145  69.429  1.00  0.00    -0.118 OA 
BRANCH  29  31
HETATM   31  C   UNL     1      -5.400  12.481  68.810  1.00  0.00    -0.054 C  
HETATM   32  C   UNL     1      -6.219  14.762  68.140  1.00  0.00    -0.145 C  
HETATM   33  C   UNL     1      -5.152  13.698  67.912  1.00  0.00    -0.076 C  
HETATM   34  C   UNL     1      -6.334  15.162  69.602  1.00  0.00    -0.146 C  
HETATM   35  F   UNL     1      -7.381  16.006  69.762  1.00  0.00    -0.210 F  
HETATM   36  F   UNL     1      -5.221  15.854  69.961  1.00  0.00    -0.110 F  
HETATM   37  C   UNL     1      -6.495  13.991  70.541  1.00  0.00     0.036 C  
HETATM   38  C   UNL     1      -5.424  12.935  70.274  1.00  0.00    -0.135 C  
ENDBRANCH  29  31
ENDBRANCH  20  27
ENDBRANCH  18  19
ENDBRANCH  17  18
ENDBRANCH   8  10
TORSDOF 6
ENDMDL
MODEL      202
REMARK 921   NORMALIZED FREE ENERGY PREDICTED BY IDOCK:   -3.17 KCAL/MOL
REMARK 922        TOTAL FREE ENERGY PREDICTED BY IDOCK:   -5.82 KCAL/MOL
REMARK 923 INTER-LIGAND FREE ENERGY PREDICTED BY IDOCK:   -5.64 KCAL/MOL
REMARK 924 INTRA-LIGAND FREE ENERGY PREDICTED BY IDOCK:   -0.18 KCAL/MOL
REMARK 927      BINDING AFFINITY PREDICTED BY RF-SCORE:    0.00 PKD
ROOT
HETATM    1  C   UNL     1      -5.563  12.281  67.214  1.00  0.00    -0.122 C  
HETATM    2  C   UNL     1      -6.748  12.134  68.184  1.00  0.00    -0.070 C  
HETATM    3  C   UNL     1      -7.848  13.091  67.835  1.00  0.00    -0.149 A  
HETATM    4  C   UNL     1      -6.301  12.428  69.622  1.00  0.00    -0.107 C  
HETATM    5  N   UNL     1      -7.771  14.383  68.072  1.00  0.00    -0.124 NA 
HETATM    6  N   UNL     1      -9.023  14.889  68.014  1.00  0.00    -0.168 NA 
HETATM    7  C   UNL     1      -9.849  13.935  67.640  1.00  0.00    -0.236 A  
HETATM    8  N   UNL     1      -9.128  12.780  67.391  1.00  0.00    -0.184 NA 
HETATM    9  C   UNL     1     -11.303  14.168  67.531  1.00  0.00    -0.343 C  
ENDROOT
BRANCH   8  10
HETATM   10  C   UNL     1      -9.561  11.452  66.905  1.00  0.00    -0.185 C  
HETATM   11  C   UNL     1      -8.503  10.579  66.189  1.00  0.00    -0.154 C  
HETATM   12  C   UNL     1      -8.339   9.117  66.645  1.00  0.00    -0.122 C  
HETATM   13  C   UNL     1      -9.378   8.295  65.884  1.00  0.00    -0.165 C  
HETATM   14  C   UNL     1     -10.629   8.483  66.726  1.00  0.00    -0.227 C  
HETATM   15  C   UNL     1     -10.127   9.156  68.038  1.00  0.00    -0.196 C  
HETATM   16  C   UNL     1     -10.381  10.670  67.975  1.00  0.00    -0.208 C  
HETATM   17  N   UNL     1      -8.694   8.827  68.054  1.00  0.00    -0.140 NA 
BRANCH  17  18
HETATM   18  C   UNL     1      -7.783   9.424  69.095  1.00  0.00    -0.079 C  
BRANCH  18  19
HETATM   19  C   UNL     1      -8.163   9.329  70.643  1.00  0.00    -0.224 C  
HETATM   20  C   UNL     1      -8.599   7.939  71.359  1.00  0.00    -0.123 C  
BRANCH  20  21
HETATM   21  C   UNL     1     -10.024   7.351  71.600  1.00  0.00    -0.193 A  
HETATM   22  C   UNL     1     -12.732   6.487  72.059  1.00  0.00    -0.154 A  
HETATM   23  C   UNL     1     -11.160   8.022  71.043  1.00  0.00    -0.275 A  
HETATM   24  C   UNL     1     -11.639   5.819  72.628  1.00  0.00    -0.304 A  
HETATM   25  C   UNL     1     -10.310   6.245  72.408  1.00  0.00    -0.215 A  
HETATM   26  C   UNL     1     -12.489   7.600  71.262  1.00  0.00    -0.324 A  
ENDBRANCH  20  21
BRANCH  20  27
HETATM   27  N   UNL     1      -7.700   6.864  70.964  1.00  0.00    -0.094 N  
HETATM   28  H   UNL     1      -6.798   6.753  71.427  1.00  0.00     0.000 HD 
HETATM   29  C   UNL     1      -8.074   6.004  69.966  1.00  0.00    -0.114 C  
HETATM   30  O   UNL     1      -9.126   6.155  69.347  1.00  0.00    -0.133 OA 
BRANCH  29  31
HETATM   31  C   UNL     1      -7.068   4.929  69.581  1.00  0.00    -0.055 C  
HETATM   32  C   UNL     1      -8.322   3.937  67.640  1.00  0.00    -0.097 C  
HETATM   33  C   UNL     1      -7.658   3.648  68.981  1.00  0.00    -0.053 C  
HETATM   34  C   UNL     1      -7.383   4.628  66.665  1.00  0.00    -0.081 C  
HETATM   35  F   UNL     1      -8.063   4.978  65.548  1.00  0.00    -0.104 F  
HETATM   36  F   UNL     1      -6.423   3.748  66.276  1.00  0.00    -0.033 F  
HETATM   37  C   UNL     1      -6.708   5.852  67.237  1.00  0.00    -0.061 C  
HETATM   38  C   UNL     1      -6.070   5.535  68.587  1.00  0.00    -0.025 C  
ENDBRANCH  29  31
ENDBRANCH  20  27
ENDBRANCH  18  19
ENDBRANCH  17  18
ENDBRANCH   8  10
TORSDOF 6
ENDMDL
MODEL      203
REMARK 921   NORMALIZED FREE ENERGY PREDICTED BY IDOCK:   -3.13 KCAL/MOL
REMARK 922        TOTAL FREE ENERGY PREDICTED BY IDOCK:   -5.76 KCAL/MOL
REMARK 923 INTER-LIGAND FREE ENERGY PREDICTED BY IDOCK:   -4.71 KCAL/MOL
REMARK 924 INTRA-LIGAND FREE ENERGY PREDICTED BY IDOCK:   -1.06 KCAL/MOL
REMARK 927      BINDING AFFINITY PREDICTED BY RF-SCORE:    0.00 PKD
ROOT
HETATM    1  C   UNL     1     -12.376  13.333  68.414  1.00  0.00     0.107 C  
HETATM    2  C   UNL     1     -11.512  13.048  69.655  1.00  0.00    -0.253 C  
HETATM    3  C   UNL     1     -11.790  11.679  70.199  1.00  0.00    -0.344 A  
HETATM    4  C   UNL     1     -11.813  14.068  70.762  1.00  0.00    -0.289 C  
HETATM    5  N   UNL     1     -12.891  11.382  70.856  1.00  0.00    -0.279 NA 
HETATM    6  N   UNL     1     -12.672  10.232  71.529  1.00  0.00    -0.414 NA 
HETATM    7  C   UNL     1     -11.483   9.769  71.206  1.00  0.00    -0.385 A  
HETATM    8  N   UNL     1     -10.916  10.599  70.254  1.00  0.00    -0.237 NA 
HETATM    9  C   UNL     1     -10.936   8.542  71.818  1.00  0.00    -0.376 C  
ENDROOT
BRANCH   8  10
HETATM   10  C   UNL     1      -9.630  10.507  69.529  1.00  0.00    -0.098 C  
HETATM   11  C   UNL     1      -8.386  10.079  70.343  1.00  0.00     0.175 C  
HETATM   12  C   UNL     1      -7.502   8.950  69.777  1.00  0.00    -0.057 C  
HETATM   13  C   UNL     1      -6.515   9.601  68.810  1.00  0.00    -0.047 C  
HETATM   14  C   UNL     1      -7.324   9.696  67.527  1.00  0.00    -0.090 C  
HETATM   15  C   UNL     1      -8.594   8.836  67.794  1.00  0.00    -0.129 C  
HETATM   16  C   UNL     1      -9.769   9.750  68.174  1.00  0.00    -0.163 C  
HETATM   17  N   UNL     1      -8.180   7.964  68.903  1.00  0.00    -0.125 NA 
BRANCH  17  18
HETATM   18  C   UNL     1      -9.177   7.063  69.583  1.00  0.00    -0.146 C  
BRANCH  18  19
HETATM   19  C   UNL     1      -9.953   5.948  68.744  1.00  0.00    -0.195 C  
HETATM   20  C   UNL     1      -9.211   4.661  68.091  1.00  0.00    -0.128 C  
BRANCH  20  21
HETATM   21  C   UNL     1      -8.633   4.471  66.654  1.00  0.00    -0.111 A  
HETATM   22  C   UNL     1      -7.351   4.129  64.099  1.00  0.00    -0.066 A  
HETATM   23  C   UNL     1      -7.453   3.680  66.475  1.00  0.00    -0.077 A  
HETATM   24  C   UNL     1      -8.498   4.920  64.247  1.00  0.00    -0.137 A  
HETATM   25  C   UNL     1      -9.125   5.093  65.502  1.00  0.00    -0.157 A  
HETATM   26  C   UNL     1      -6.823   3.507  65.224  1.00  0.00    -0.049 A  
ENDBRANCH  20  21
BRANCH  20  27
HETATM   27  N   UNL     1      -8.298   4.063  69.054  1.00  0.00    -0.072 N  
HETATM   28  H   UNL     1      -7.323   3.900  68.806  1.00  0.00     0.000 HD 
HETATM   29  C   UNL     1      -8.760   3.719  70.297  1.00  0.00    -0.076 C  
HETATM   30  O   UNL     1      -9.945   3.844  70.601  1.00  0.00    -0.173 OA 
BRANCH  29  31
HETATM   31  C   UNL     1      -7.759   3.064  71.238  1.00  0.00    -0.047 C  
HETATM   32  C   UNL     1      -5.801   4.581  70.802  1.00  0.00    -0.017 C  
HETATM   33  C   UNL     1      -6.291   3.137  70.806  1.00  0.00    -0.023 C  
HETATM   34  C   UNL     1      -6.025   5.271  72.137  1.00  0.00    -0.026 C  
HETATM   35  F   UNL     1      -5.697   6.581  72.033  1.00  0.00    -0.033 F  
HETATM   36  F   UNL     1      -5.186   4.733  73.061  1.00  0.00    -0.006 F  
HETATM   37  C   UNL     1      -7.440   5.156  72.650  1.00  0.00    -0.096 C  
HETATM   38  C   UNL     1      -7.907   3.702  72.623  1.00  0.00    -0.072 C  
ENDBRANCH  29  31
ENDBRANCH  20  27
ENDBRANCH  18  19
ENDBRANCH  17  18
ENDBRANCH   8  10
TORSDOF 6
ENDMDL
MODEL      204
REMARK 921   NORMALIZED FREE ENERGY PREDICTED BY IDOCK:   -3.08 KCAL/MOL
REMARK 922        TOTAL FREE ENERGY PREDICTED BY IDOCK:   -5.70 KCAL/MOL
REMARK 923 INTER-LIGAND FREE ENERGY PREDICTED BY IDOCK:   -5.26 KCAL/MOL
REMARK 924 INTRA-LIGAND FREE ENERGY PREDICTED BY IDOCK:   -0.43 KCAL/MOL
REMARK 927      BINDING AFFINITY PREDICTED BY RF-SCORE:    0.00 PKD
ROOT
HETATM    1  C   UNL     1      -6.114  10.578  66.716  1.00  0.00    -0.068 C  
HETATM    2  C   UNL     1      -7.299  10.658  67.694  1.00  0.00    -0.090 C  
HETATM    3  C   UNL     1      -8.398  11.511  67.138  1.00  0.00    -0.160 A  
HETATM    4  C   UNL     1      -6.850  11.270  69.028  1.00  0.00    -0.099 C  
HETATM    5  N   UNL     1      -8.319  12.824  67.075  1.00  0.00    -0.158 NA 
HETATM    6  N   UNL     1      -9.571  13.304  66.904  1.00  0.00    -0.242 NA 
HETATM    7  C   UNL     1     -10.398  12.291  66.757  1.00  0.00    -0.217 A  
HETATM    8  N   UNL     1      -9.679  11.109  66.776  1.00  0.00    -0.190 NA 
HETATM    9  C   UNL     1     -11.852  12.495  66.599  1.00  0.00    -0.422 C  
ENDROOT
BRANCH   8  10
HETATM   10  C   UNL     1     -10.113   9.706  66.606  1.00  0.00    -0.239 C  
HETATM   11  C   UNL     1      -9.120   8.733  65.927  1.00  0.00    -0.271 C  
HETATM   12  C   UNL     1      -8.836   7.386  66.618  1.00  0.00    -0.143 C  
HETATM   13  C   UNL     1      -9.928   6.417  66.168  1.00  0.00     0.091 C  
HETATM   14  C   UNL     1     -11.068   6.738  67.121  1.00  0.00    -0.404 C  
HETATM   15  C   UNL     1     -10.430   7.654  68.207  1.00  0.00    -0.174 C  
HETATM   16  C   UNL     1     -10.755   9.124  67.901  1.00  0.00    -0.224 C  
HETATM   17  N   UNL     1      -8.995   7.359  68.091  1.00  0.00    -0.130 NA 
BRANCH  17  18
HETATM   18  C   UNL     1      -7.984   8.158  68.873  1.00  0.00    -0.114 C  
BRANCH  18  19
HETATM   19  C   UNL     1      -8.104   8.268  70.461  1.00  0.00    -0.105 C  
HETATM   20  C   UNL     1      -8.151   6.970  71.433  1.00  0.00    -0.108 C  
BRANCH  20  21
HETATM   21  C   UNL     1      -9.383   6.201  72.005  1.00  0.00    -0.154 A  
HETATM   22  C   UNL     1     -11.768   4.990  73.071  1.00  0.00    -0.229 A  
HETATM   23  C   UNL     1     -10.701   6.621  71.636  1.00  0.00    -0.259 A  
HETATM   24  C   UNL     1     -10.490   4.568  73.460  1.00  0.00    -0.272 A  
HETATM   25  C   UNL     1      -9.318   5.165  72.942  1.00  0.00    -0.145 A  
HETATM   26  C   UNL     1     -11.873   6.028  72.152  1.00  0.00    -0.304 A  
ENDBRANCH  20  21
BRANCH  20  27
HETATM   27  N   UNL     1      -7.129   6.009  71.042  1.00  0.00    -0.068 N  
HETATM   28  H   UNL     1      -6.175   6.106  71.387  1.00  0.00     0.000 HD 
HETATM   29  C   UNL     1      -7.460   4.975  70.208  1.00  0.00    -0.059 C  
HETATM   30  O   UNL     1      -8.587   4.871  69.726  1.00  0.00    -0.085 OA 
BRANCH  29  31
HETATM   31  C   UNL     1      -6.333   4.032  69.811  1.00  0.00    -0.028 C  
HETATM   32  C   UNL     1      -7.225   3.323  67.569  1.00  0.00    -0.058 C  
HETATM   33  C   UNL     1      -6.736   2.844  68.931  1.00  0.00    -0.037 C  
HETATM   34  C   UNL     1      -6.212   4.214  66.871  1.00  0.00    -0.036 C  
HETATM   35  F   UNL     1      -6.752   4.714  65.735  1.00  0.00    -0.046 F  
HETATM   36  F   UNL     1      -5.144   3.462  66.495  1.00  0.00    -0.006 F  
HETATM   37  C   UNL     1      -5.717   5.356  67.727  1.00  0.00    -0.013 C  
HETATM   38  C   UNL     1      -5.253   4.846  69.090  1.00  0.00     0.000 C  
ENDBRANCH  29  31
ENDBRANCH  20  27
ENDBRANCH  18  19
ENDBRANCH  17  18
ENDBRANCH   8  10
TORSDOF 6
ENDMDL
MODEL      205
REMARK 921   NORMALIZED FREE ENERGY PREDICTED BY IDOCK:   -3.07 KCAL/MOL
REMARK 922        TOTAL FREE ENERGY PREDICTED BY IDOCK:   -5.69 KCAL/MOL
REMARK 923 INTER-LIGAND FREE ENERGY PREDICTED BY IDOCK:   -5.80 KCAL/MOL
REMARK 924 INTRA-LIGAND FREE ENERGY PREDICTED BY IDOCK:    0.11 KCAL/MOL
REMARK 927      BINDING AFFINITY PREDICTED BY RF-SCORE:    0.00 PKD
ROOT
HETATM    1  C   UNL     1      -8.748   9.914  70.042  1.00  0.00    -0.188 C  
HETATM    2  C   UNL     1      -9.599   9.415  68.862  1.00  0.00    -0.155 C  
HETATM    3  C   UNL     1     -10.363  10.543  68.237  1.00  0.00    -0.168 A  
HETATM    4  C   UNL     1     -10.610   8.363  69.339  1.00  0.00    -0.204 C  
HETATM    5  N   UNL     1     -11.415  11.093  68.806  1.00  0.00    -0.271 NA 
HETATM    6  N   UNL     1     -12.088  11.778  67.855  1.00  0.00    -0.559 NA 
HETATM    7  C   UNL     1     -11.398  11.737  66.734  1.00  0.00    -0.320 A  
HETATM    8  N   UNL     1     -10.214  11.056  66.953  1.00  0.00    -0.213 NA 
HETATM    9  C   UNL     1     -11.901  12.358  65.492  1.00  0.00    -0.469 C  
ENDROOT
BRANCH   8  10
HETATM   10  C   UNL     1      -9.076  10.773  66.052  1.00  0.00    -0.185 C  
HETATM   11  C   UNL     1      -7.664  10.728  66.684  1.00  0.00    -0.141 C  
HETATM   12  C   UNL     1      -6.766   9.517  66.368  1.00  0.00    -0.075 C  
HETATM   13  C   UNL     1      -6.052   9.824  65.053  1.00  0.00    -0.092 C  
HETATM   14  C   UNL     1      -7.081   9.411  64.014  1.00  0.00    -0.102 C  
HETATM   15  C   UNL     1      -8.171   8.643  64.818  1.00  0.00    -0.160 C  
HETATM   16  C   UNL     1      -9.361   9.573  65.099  1.00  0.00    -0.316 C  
HETATM   17  N   UNL     1      -7.464   8.250  66.046  1.00  0.00    -0.076 NA 
BRANCH  17  18
HETATM   18  C   UNL     1      -8.209   7.605  67.186  1.00  0.00    -0.118 C  
BRANCH  18  19
HETATM   19  C   UNL     1      -7.411   7.029  68.442  1.00  0.00    -0.102 C  
HETATM   20  C   UNL     1      -7.216   5.439  68.709  1.00  0.00    -0.066 C  
BRANCH  20  21
HETATM   21  C   UNL     1      -8.072   4.465  69.577  1.00  0.00    -0.061 A  
HETATM   22  C   UNL     1      -9.699   2.852  71.320  1.00  0.00    -0.205 A  
HETATM   23  C   UNL     1      -9.281   4.943  70.177  1.00  0.00    -0.185 A  
HETATM   24  C   UNL     1      -8.512   2.362  70.758  1.00  0.00    -0.087 A  
HETATM   25  C   UNL     1      -7.710   3.155  69.906  1.00  0.00    -0.044 A  
HETATM   26  C   UNL     1     -10.084   4.155  71.028  1.00  0.00    -0.130 A  
ENDBRANCH  20  21
BRANCH  20  27
HETATM   27  N   UNL     1      -6.829   4.765  67.477  1.00  0.00    -0.058 N  
HETATM   28  H   UNL     1      -5.844   4.668  67.232  1.00  0.00     0.000 HD 
HETATM   29  C   UNL     1      -7.799   4.263  66.650  1.00  0.00    -0.098 C  
HETATM   30  O   UNL     1      -8.995   4.423  66.888  1.00  0.00    -0.112 OA 
BRANCH  29  31
HETATM   31  C   UNL     1      -7.322   3.606  65.363  1.00  0.00    -0.076 C  
HETATM   32  C   UNL     1      -9.534   2.709  64.572  1.00  0.00    -0.140 C  
HETATM   33  C   UNL     1      -8.094   2.356  64.927  1.00  0.00    -0.082 C  
HETATM   34  C   UNL     1      -9.621   3.810  63.529  1.00  0.00    -0.143 C  
HETATM   35  F   UNL     1     -10.914   4.171  63.354  1.00  0.00    -0.217 F  
HETATM   36  F   UNL     1      -9.189   3.324  62.335  1.00  0.00    -0.087 F  
HETATM   37  C   UNL     1      -8.807   5.035  63.870  1.00  0.00    -0.034 C  
HETATM   38  C   UNL     1      -7.377   4.647  64.239  1.00  0.00    -0.062 C  
ENDBRANCH  29  31
ENDBRANCH  20  27
ENDBRANCH  18  19
ENDBRANCH  17  18
ENDBRANCH   8  10
TORSDOF 6
ENDMDL
MODEL      206
REMARK 921   NORMALIZED FREE ENERGY PREDICTED BY IDOCK:   -3.07 KCAL/MOL
REMARK 922        TOTAL FREE ENERGY PREDICTED BY IDOCK:   -5.68 KCAL/MOL
REMARK 923 INTER-LIGAND FREE ENERGY PREDICTED BY IDOCK:   -5.43 KCAL/MOL
REMARK 924 INTRA-LIGAND FREE ENERGY PREDICTED BY IDOCK:   -0.26 KCAL/MOL
REMARK 927      BINDING AFFINITY PREDICTED BY RF-SCORE:    0.00 PKD
ROOT
HETATM    1  C   UNL     1     -12.281  11.730  64.060  1.00  0.00    -0.351 C  
HETATM    2  C   UNL     1     -10.806  11.297  64.130  1.00  0.00    -0.407 C  
HETATM    3  C   UNL     1     -10.267  11.448  65.520  1.00  0.00    -0.264 A  
HETATM    4  C   UNL     1      -9.951  12.160  63.192  1.00  0.00    -0.089 C  
HETATM    5  N   UNL     1      -9.983  12.619  66.051  1.00  0.00    -0.257 NA 
HETATM    6  N   UNL     1      -9.178  12.404  67.115  1.00  0.00    -0.193 NA 
HETATM    7  C   UNL     1      -9.055  11.107  67.300  1.00  0.00    -0.150 A  
HETATM    8  N   UNL     1      -9.837  10.439  66.373  1.00  0.00    -0.204 NA 
HETATM    9  C   UNL     1      -8.194  10.554  68.365  1.00  0.00    -0.121 C  
ENDROOT
BRANCH   8  10
HETATM   10  C   UNL     1     -10.092   8.995  66.180  1.00  0.00    -0.172 C  
HETATM   11  C   UNL     1      -8.998   8.172  65.457  1.00  0.00    -0.082 C  
HETATM   12  C   UNL     1      -8.528   6.859  66.111  1.00  0.00    -0.136 C  
HETATM   13  C   UNL     1      -9.497   5.767  65.662  1.00  0.00     0.067 C  
HETATM   14  C   UNL     1     -10.645   5.919  66.647  1.00  0.00    -0.330 C  
HETATM   15  C   UNL     1     -10.104   6.887  67.740  1.00  0.00    -0.161 C  
HETATM   16  C   UNL     1     -10.621   8.310  67.475  1.00  0.00    -0.291 C  
HETATM   17  N   UNL     1      -8.645   6.783  67.586  1.00  0.00    -0.121 NA 
BRANCH  17  18
HETATM   18  C   UNL     1      -7.726   7.689  68.364  1.00  0.00    -0.119 C  
BRANCH  18  19
HETATM   19  C   UNL     1      -6.430   7.093  69.080  1.00  0.00    -0.036 C  
HETATM   20  C   UNL     1      -6.384   6.735  70.662  1.00  0.00    -0.043 C  
BRANCH  20  21
HETATM   21  C   UNL     1      -5.901   7.604  71.864  1.00  0.00    -0.036 A  
HETATM   22  C   UNL     1      -5.182   9.110  74.211  1.00  0.00    -0.117 A  
HETATM   23  C   UNL     1      -5.937   7.052  73.185  1.00  0.00    -0.056 A  
HETATM   24  C   UNL     1      -5.151   9.680  72.932  1.00  0.00    -0.052 A  
HETATM   25  C   UNL     1      -5.509   8.944  71.780  1.00  0.00    -0.052 A  
HETATM   26  C   UNL     1      -5.582   7.785  74.338  1.00  0.00    -0.073 A  
ENDBRANCH  20  21
BRANCH  20  27
HETATM   27  N   UNL     1      -7.587   6.011  71.051  1.00  0.00    -0.094 N  
HETATM   28  H   UNL     1      -7.574   4.995  71.125  1.00  0.00     0.000 HD 
HETATM   29  C   UNL     1      -8.737   6.707  71.315  1.00  0.00    -0.129 C  
HETATM   30  O   UNL     1      -8.799   7.927  71.170  1.00  0.00    -0.132 OA 
BRANCH  29  31
HETATM   31  C   UNL     1      -9.964   5.883  71.677  1.00  0.00    -0.213 C  
HETATM   32  C   UNL     1      -8.797   3.738  72.276  1.00  0.00    -0.124 C  
HETATM   33  C   UNL     1      -9.864   4.380  71.397  1.00  0.00    -0.262 C  
HETATM   34  C   UNL     1      -9.020   4.016  73.753  1.00  0.00    -0.091 C  
HETATM   35  F   UNL     1      -7.975   3.538  74.470  1.00  0.00    -0.065 F  
HETATM   36  F   UNL     1     -10.121   3.336  74.171  1.00  0.00    -0.135 F  
HETATM   37  C   UNL     1      -9.210   5.479  74.073  1.00  0.00    -0.126 C  
HETATM   38  C   UNL     1     -10.269   6.097  73.164  1.00  0.00    -0.213 C  
ENDBRANCH  29  31
ENDBRANCH  20  27
ENDBRANCH  18  19
ENDBRANCH  17  18
ENDBRANCH   8  10
TORSDOF 6
ENDMDL
MODEL      207
REMARK 921   NORMALIZED FREE ENERGY PREDICTED BY IDOCK:   -3.06 KCAL/MOL
REMARK 922        TOTAL FREE ENERGY PREDICTED BY IDOCK:   -5.67 KCAL/MOL
REMARK 923 INTER-LIGAND FREE ENERGY PREDICTED BY IDOCK:   -5.65 KCAL/MOL
REMARK 924 INTRA-LIGAND FREE ENERGY PREDICTED BY IDOCK:   -0.03 KCAL/MOL
REMARK 927      BINDING AFFINITY PREDICTED BY RF-SCORE:    0.00 PKD
ROOT
HETATM    1  C   UNL     1     -10.301  11.283  69.613  1.00  0.00     0.173 C  
HETATM    2  C   UNL     1     -10.234  10.495  68.293  1.00  0.00    -0.185 C  
HETATM    3  C   UNL     1     -10.738  11.321  67.148  1.00  0.00    -0.253 A  
HETATM    4  C   UNL     1     -11.098   9.229  68.382  1.00  0.00     0.068 C  
HETATM    5  N   UNL     1     -12.014  11.583  66.965  1.00  0.00    -0.448 NA 
HETATM    6  N   UNL     1     -12.172  11.993  65.687  1.00  0.00    -0.427 NA 
HETATM    7  C   UNL     1     -10.988  12.082  65.120  1.00  0.00    -0.310 A  
HETATM    8  N   UNL     1     -10.012  11.779  66.054  1.00  0.00    -0.222 NA 
HETATM    9  C   UNL     1     -10.835  12.462  63.701  1.00  0.00    -0.509 C  
ENDROOT
BRANCH   8  10
HETATM   10  C   UNL     1      -8.537  11.778  65.950  1.00  0.00     0.137 C  
HETATM   11  C   UNL     1      -7.738  12.235  67.194  1.00  0.00    -0.134 C  
HETATM   12  C   UNL     1      -6.586  11.339  67.687  1.00  0.00    -0.072 C  
HETATM   13  C   UNL     1      -5.347  11.724  66.880  1.00  0.00    -0.115 C  
HETATM   14  C   UNL     1      -5.517  10.913  65.606  1.00  0.00    -0.131 C  
HETATM   15  C   UNL     1      -6.681   9.926  65.917  1.00  0.00    -0.097 C  
HETATM   16  C   UNL     1      -7.990  10.462  65.318  1.00  0.00    -0.143 C  
HETATM   17  N   UNL     1      -6.707   9.892  67.386  1.00  0.00    -0.073 NA 
BRANCH  17  18
HETATM   18  C   UNL     1      -7.804   9.162  68.116  1.00  0.00    -0.099 C  
BRANCH  18  19
HETATM   19  C   UNL     1      -7.640   8.807  69.663  1.00  0.00    -0.076 C  
HETATM   20  C   UNL     1      -7.917   7.324  70.262  1.00  0.00    -0.115 C  
BRANCH  20  21
HETATM   21  C   UNL     1      -9.217   6.733  70.891  1.00  0.00    -0.157 A  
HETATM   22  C   UNL     1     -11.635   5.843  72.175  1.00  0.00    -0.314 A  
HETATM   23  C   UNL     1     -10.319   7.605  71.165  1.00  0.00    -0.212 A  
HETATM   24  C   UNL     1     -10.567   4.970  71.931  1.00  0.00    -0.224 A  
HETATM   25  C   UNL     1      -9.377   5.407  71.306  1.00  0.00    -0.182 A  
HETATM   26  C   UNL     1     -11.507   7.173  71.791  1.00  0.00    -0.301 A  
ENDBRANCH  20  21
BRANCH  20  27
HETATM   27  N   UNL     1      -7.296   6.315  69.416  1.00  0.00    -0.089 N  
HETATM   28  H   UNL     1      -6.391   5.919  69.668  1.00  0.00     0.000 HD 
HETATM   29  C   UNL     1      -7.936   5.902  68.278  1.00  0.00    -0.109 C  
HETATM   30  O   UNL     1      -8.996   6.409  67.915  1.00  0.00    -0.117 OA 
BRANCH  29  31
HETATM   31  C   UNL     1      -7.210   4.873  67.422  1.00  0.00    -0.074 C  
HETATM   32  C   UNL     1      -7.951   2.800  68.638  1.00  0.00    -0.062 C  
HETATM   33  C   UNL     1      -6.752   3.605  68.150  1.00  0.00    -0.046 C  
HETATM   34  C   UNL     1      -8.927   2.480  67.518  1.00  0.00    -0.161 C  
HETATM   35  F   UNL     1     -10.030   1.885  68.032  1.00  0.00    -0.185 F  
HETATM   36  F   UNL     1      -8.356   1.577  66.677  1.00  0.00    -0.070 F  
HETATM   37  C   UNL     1      -9.346   3.686  66.714  1.00  0.00    -0.210 C  
HETATM   38  C   UNL     1      -8.124   4.481  66.257  1.00  0.00    -0.103 C  
ENDBRANCH  29  31
ENDBRANCH  20  27
ENDBRANCH  18  19
ENDBRANCH  17  18
ENDBRANCH   8  10
TORSDOF 6
ENDMDL
MODEL      208
REMARK 921   NORMALIZED FREE ENERGY PREDICTED BY IDOCK:   -3.02 KCAL/MOL
REMARK 922        TOTAL FREE ENERGY PREDICTED BY IDOCK:   -5.61 KCAL/MOL
REMARK 923 INTER-LIGAND FREE ENERGY PREDICTED BY IDOCK:   -5.35 KCAL/MOL
REMARK 924 INTRA-LIGAND FREE ENERGY PREDICTED BY IDOCK:   -0.26 KCAL/MOL
REMARK 927      BINDING AFFINITY PREDICTED BY RF-SCORE:    0.00 PKD
ROOT
HETATM    1  C   UNL     1      -6.973  13.780  67.456  1.00  0.00    -0.161 C  
HETATM    2  C   UNL     1      -8.310  14.365  67.944  1.00  0.00    -0.162 C  
HETATM    3  C   UNL     1      -9.383  14.184  66.914  1.00  0.00    -0.264 A  
HETATM    4  C   UNL     1      -8.166  15.867  68.223  1.00  0.00    -0.152 C  
HETATM    5  N   UNL     1      -9.437  14.897  65.808  1.00  0.00    -0.273 NA 
HETATM    6  N   UNL     1     -10.685  14.781  65.303  1.00  0.00    -0.361 NA 
HETATM    7  C   UNL     1     -11.361  13.920  66.035  1.00  0.00    -0.324 A  
HETATM    8  N   UNL     1     -10.532  13.408  67.017  1.00  0.00    -0.256 NA 
HETATM    9  C   UNL     1     -12.779  13.615  65.759  1.00  0.00    -0.470 C  
ENDROOT
BRANCH   8  10
HETATM   10  C   UNL     1     -10.776  12.386  68.058  1.00  0.00    -0.223 C  
HETATM   11  C   UNL     1     -11.494  11.086  67.620  1.00  0.00    -0.303 C  
HETATM   12  C   UNL     1     -10.868   9.739  68.029  1.00  0.00    -0.223 C  
HETATM   13  C   UNL     1     -11.375   9.421  69.434  1.00  0.00     0.078 C  
HETATM   14  C   UNL     1     -10.418  10.205  70.317  1.00  0.00    -0.284 C  
HETATM   15  C   UNL     1      -9.282  10.666  69.357  1.00  0.00    -0.051 C  
HETATM   16  C   UNL     1      -9.517  12.126  68.938  1.00  0.00     0.163 C  
HETATM   17  N   UNL     1      -9.399   9.733  68.227  1.00  0.00    -0.129 NA 
BRANCH  17  18
HETATM   18  C   UNL     1      -8.570   9.926  66.985  1.00  0.00    -0.128 C  
BRANCH  18  19
HETATM   19  C   UNL     1      -8.931   9.133  65.648  1.00  0.00    -0.249 C  
HETATM   20  C   UNL     1      -8.732   7.529  65.493  1.00  0.00    -0.035 C  
BRANCH  20  21
HETATM   21  C   UNL     1      -7.523   6.729  64.916  1.00  0.00    -0.094 A  
HETATM   22  C   UNL     1      -5.441   5.164  63.689  1.00  0.00    -0.013 A  
HETATM   23  C   UNL     1      -7.425   6.536  63.500  1.00  0.00    -0.075 A  
HETATM   24  C   UNL     1      -5.520   5.325  65.079  1.00  0.00    -0.013 A  
HETATM   25  C   UNL     1      -6.544   6.089  65.683  1.00  0.00    -0.047 A  
HETATM   26  C   UNL     1      -6.405   5.773  62.895  1.00  0.00    -0.024 A  
ENDBRANCH  20  21
BRANCH  20  27
HETATM   27  N   UNL     1      -9.238   6.842  66.673  1.00  0.00    -0.153 N  
HETATM   28  H   UNL     1      -9.251   7.314  67.576  1.00  0.00     0.000 HD 
HETATM   29  C   UNL     1      -9.697   5.557  66.560  1.00  0.00    -0.162 C  
HETATM   30  O   UNL     1      -9.633   4.941  65.497  1.00  0.00    -0.164 OA 
BRANCH  29  31
HETATM   31  C   UNL     1     -10.174   4.889  67.842  1.00  0.00    -0.106 C  
HETATM   32  C   UNL     1      -8.082   3.604  68.384  1.00  0.00    -0.076 C  
HETATM   33  C   UNL     1      -9.582   3.506  68.133  1.00  0.00    -0.164 C  
HETATM   34  C   UNL     1      -7.742   4.599  69.481  1.00  0.00    -0.055 C  
HETATM   35  F   UNL     1      -6.398   4.742  69.565  1.00  0.00    -0.024 F  
HETATM   36  F   UNL     1      -8.155   4.100  70.675  1.00  0.00    -0.056 F  
HETATM   37  C   UNL     1      -8.372   5.957  69.285  1.00  0.00    -0.113 C  
HETATM   38  C   UNL     1      -9.869   5.823  69.017  1.00  0.00    -0.204 C  
ENDBRANCH  29  31
ENDBRANCH  20  27
ENDBRANCH  18  19
ENDBRANCH  17  18
ENDBRANCH   8  10
TORSDOF 6
ENDMDL
MODEL      209
REMARK 921   NORMALIZED FREE ENERGY PREDICTED BY IDOCK:   -2.95 KCAL/MOL
REMARK 922        TOTAL FREE ENERGY PREDICTED BY IDOCK:   -5.52 KCAL/MOL
REMARK 923 INTER-LIGAND FREE ENERGY PREDICTED BY IDOCK:   -4.28 KCAL/MOL
REMARK 924 INTRA-LIGAND FREE ENERGY PREDICTED BY IDOCK:   -1.24 KCAL/MOL
REMARK 927      BINDING AFFINITY PREDICTED BY RF-SCORE:    0.00 PKD
ROOT
HETATM    1  C   UNL     1     -10.763   5.674  70.927  1.00  0.00    -0.313 C  
HETATM    2  C   UNL     1      -9.471   4.934  71.313  1.00  0.00    -0.214 C  
HETATM    3  C   UNL     1      -8.523   4.868  70.153  1.00  0.00    -0.087 A  
HETATM    4  C   UNL     1      -9.787   3.497  71.750  1.00  0.00    -0.230 C  
HETATM    5  N   UNL     1      -8.711   4.071  69.123  1.00  0.00    -0.083 NA 
HETATM    6  N   UNL     1      -7.534   3.957  68.469  1.00  0.00    -0.055 NA 
HETATM    7  C   UNL     1      -6.656   4.761  69.032  1.00  0.00    -0.045 A  
HETATM    8  N   UNL     1      -7.273   5.468  70.049  1.00  0.00    -0.066 NA 
HETATM    9  C   UNL     1      -5.256   4.826  68.567  1.00  0.00    -0.004 C  
ENDROOT
BRANCH   8  10
HETATM   10  C   UNL     1      -6.757   6.521  70.950  1.00  0.00    -0.054 C  
HETATM   11  C   UNL     1      -6.317   7.856  70.303  1.00  0.00    -0.037 C  
HETATM   12  C   UNL     1      -6.853   9.167  70.908  1.00  0.00    -0.096 C  
HETATM   13  C   UNL     1      -5.920   9.540  72.059  1.00  0.00     0.114 C  
HETATM   14  C   UNL     1      -6.468   8.712  73.209  1.00  0.00    -0.053 C  
HETATM   15  C   UNL     1      -7.830   8.164  72.690  1.00  0.00    -0.141 C  
HETATM   16  C   UNL     1      -7.657   6.715  72.208  1.00  0.00    -0.095 C  
HETATM   17  N   UNL     1      -8.164   9.085  71.594  1.00  0.00    -0.345 NA 
BRANCH  17  18
HETATM   18  C   UNL     1      -9.352   8.819  70.705  1.00  0.00    -0.208 C  
BRANCH  18  19
HETATM   19  C   UNL     1      -9.949   9.986  69.795  1.00  0.00    -0.276 C  
HETATM   20  C   UNL     1      -9.132  10.644  68.557  1.00  0.00    -0.159 C  
BRANCH  20  21
HETATM   21  C   UNL     1      -8.227  11.915  68.527  1.00  0.00    -0.126 A  
HETATM   22  C   UNL     1      -6.422  14.155  68.637  1.00  0.00    -0.090 A  
HETATM   23  C   UNL     1      -6.811  11.767  68.680  1.00  0.00    -0.081 A  
HETATM   24  C   UNL     1      -7.806  14.330  68.500  1.00  0.00    -0.143 A  
HETATM   25  C   UNL     1      -8.694  13.231  68.451  1.00  0.00    -0.126 A  
HETATM   26  C   UNL     1      -5.922  12.862  68.730  1.00  0.00    -0.072 A  
ENDBRANCH  20  21
BRANCH  20  27
HETATM   27  N   UNL     1      -8.516   9.601  67.748  1.00  0.00    -0.125 N  
HETATM   28  H   UNL     1      -7.531   9.370  67.871  1.00  0.00     0.000 HD 
HETATM   29  C   UNL     1      -9.271   8.932  66.821  1.00  0.00    -0.159 C  
HETATM   30  O   UNL     1     -10.444   9.234  66.606  1.00  0.00    -0.237 OA 
BRANCH  29  31
HETATM   31  C   UNL     1      -8.551   7.882  65.987  1.00  0.00    -0.166 C  
HETATM   32  C   UNL     1      -7.512   9.418  64.288  1.00  0.00    -0.110 C  
HETATM   33  C   UNL     1      -8.407   8.201  64.495  1.00  0.00    -0.067 C  
HETATM   34  C   UNL     1      -6.158   9.262  64.959  1.00  0.00    -0.065 C  
HETATM   35  F   UNL     1      -5.463  10.419  64.856  1.00  0.00    -0.079 F  
HETATM   36  F   UNL     1      -5.441   8.318  64.294  1.00  0.00    -0.042 F  
HETATM   37  C   UNL     1      -6.243   8.864  66.413  1.00  0.00    -0.064 C  
HETATM   38  C   UNL     1      -7.160   7.656  66.589  1.00  0.00    -0.079 C  
ENDBRANCH  29  31
ENDBRANCH  20  27
ENDBRANCH  18  19
ENDBRANCH  17  18
ENDBRANCH   8  10
TORSDOF 6
ENDMDL
MODEL      210
REMARK 921   NORMALIZED FREE ENERGY PREDICTED BY IDOCK:   -2.92 KCAL/MOL
REMARK 922        TOTAL FREE ENERGY PREDICTED BY IDOCK:   -5.49 KCAL/MOL
REMARK 923 INTER-LIGAND FREE ENERGY PREDICTED BY IDOCK:   -5.65 KCAL/MOL
REMARK 924 INTRA-LIGAND FREE ENERGY PREDICTED BY IDOCK:    0.16 KCAL/MOL
REMARK 927      BINDING AFFINITY PREDICTED BY RF-SCORE:    0.00 PKD
ROOT
HETATM    1  C   UNL     1      -6.053  11.604  68.032  1.00  0.00    -0.047 C  
HETATM    2  C   UNL     1      -7.325  10.754  67.863  1.00  0.00    -0.088 C  
HETATM    3  C   UNL     1      -8.114  11.202  66.670  1.00  0.00    -0.159 A  
HETATM    4  C   UNL     1      -8.222  10.881  69.102  1.00  0.00    -0.090 C  
HETATM    5  N   UNL     1      -8.817  12.315  66.657  1.00  0.00    -0.195 NA 
HETATM    6  N   UNL     1      -9.693  12.237  65.631  1.00  0.00    -0.228 NA 
HETATM    7  C   UNL     1      -9.459  11.132  64.955  1.00  0.00    -0.227 A  
HETATM    8  N   UNL     1      -8.369  10.483  65.508  1.00  0.00    -0.168 NA 
HETATM    9  C   UNL     1     -10.289  10.741  63.798  1.00  0.00    -0.294 C  
ENDROOT
BRANCH   8  10
HETATM   10  C   UNL     1      -7.672   9.242  65.105  1.00  0.00    -0.108 C  
HETATM   11  C   UNL     1      -6.787   8.549  66.168  1.00  0.00    -0.072 C  
HETATM   12  C   UNL     1      -6.978   7.037  66.397  1.00  0.00    -0.069 C  
HETATM   13  C   UNL     1      -6.114   6.318  65.362  1.00  0.00    -0.030 C  
HETATM   14  C   UNL     1      -7.009   6.309  64.134  1.00  0.00    -0.044 C  
HETATM   15  C   UNL     1      -8.404   6.764  64.656  1.00  0.00     0.044 C  
HETATM   16  C   UNL     1      -8.611   8.256  64.348  1.00  0.00     0.065 C  
HETATM   17  N   UNL     1      -8.325   6.495  66.099  1.00  0.00    -0.123 NA 
BRANCH  17  18
HETATM   18  C   UNL     1      -9.429   6.939  67.023  1.00  0.00    -0.151 C  
BRANCH  18  19
HETATM   19  C   UNL     1      -9.088   7.798  68.324  1.00  0.00    -0.130 C  
HETATM   20  C   UNL     1      -9.694   7.455  69.790  1.00  0.00    -0.170 C  
BRANCH  20  21
HETATM   21  C   UNL     1     -10.967   8.018  70.496  1.00  0.00    -0.247 A  
HETATM   22  C   UNL     1     -13.427   8.859  71.734  1.00  0.00    -0.447 A  
HETATM   23  C   UNL     1     -11.834   7.118  71.195  1.00  0.00    -0.363 A  
HETATM   24  C   UNL     1     -12.604   9.759  71.044  1.00  0.00    -0.406 A  
HETATM   25  C   UNL     1     -11.399   9.347  70.431  1.00  0.00    -0.295 A  
HETATM   26  C   UNL     1     -13.038   7.526  71.807  1.00  0.00    -0.362 A  
ENDBRANCH  20  21
BRANCH  20  27
HETATM   27  N   UNL     1      -9.596   6.026  70.055  1.00  0.00    -0.161 N  
HETATM   28  H   UNL     1     -10.425   5.494  70.319  1.00  0.00     0.000 HD 
HETATM   29  C   UNL     1      -8.382   5.402  69.946  1.00  0.00    -0.100 C  
HETATM   30  O   UNL     1      -7.355   6.030  69.694  1.00  0.00    -0.075 OA 
BRANCH  29  31
HETATM   31  C   UNL     1      -8.348   3.916  70.275  1.00  0.00    -0.083 C  
HETATM   32  C   UNL     1      -7.538   4.088  72.650  1.00  0.00    -0.073 C  
HETATM   33  C   UNL     1      -7.274   3.480  71.277  1.00  0.00    -0.033 C  
HETATM   34  C   UNL     1      -8.936   3.779  73.160  1.00  0.00    -0.099 C  
HETATM   35  F   UNL     1      -9.159   4.452  74.313  1.00  0.00    -0.103 F  
HETATM   36  F   UNL     1      -9.015   2.456  73.461  1.00  0.00    -0.076 F  
HETATM   37  C   UNL     1     -10.030   4.112  72.174  1.00  0.00    -0.243 C  
HETATM   38  C   UNL     1      -9.726   3.506  70.806  1.00  0.00    -0.207 C  
ENDBRANCH  29  31
ENDBRANCH  20  27
ENDBRANCH  18  19
ENDBRANCH  17  18
ENDBRANCH   8  10
TORSDOF 6
ENDMDL
MODEL      211
REMARK 921   NORMALIZED FREE ENERGY PREDICTED BY IDOCK:   -2.88 KCAL/MOL
REMARK 922        TOTAL FREE ENERGY PREDICTED BY IDOCK:   -5.43 KCAL/MOL
REMARK 923 INTER-LIGAND FREE ENERGY PREDICTED BY IDOCK:   -4.85 KCAL/MOL
REMARK 924 INTRA-LIGAND FREE ENERGY PREDICTED BY IDOCK:   -0.58 KCAL/MOL
REMARK 927      BINDING AFFINITY PREDICTED BY RF-SCORE:    0.00 PKD
ROOT
HETATM    1  C   UNL     1      -8.295   9.044  71.251  1.00  0.00    -0.180 C  
HETATM    2  C   UNL     1      -7.188   9.669  70.383  1.00  0.00    -0.147 C  
HETATM    3  C   UNL     1      -6.613   8.658  69.438  1.00  0.00    -0.045 A  
HETATM    4  C   UNL     1      -6.049  10.196  71.266  1.00  0.00     0.120 C  
HETATM    5  N   UNL     1      -5.807   7.694  69.829  1.00  0.00    -0.023 NA 
HETATM    6  N   UNL     1      -5.172   7.217  68.736  1.00  0.00    -0.016 NA 
HETATM    7  C   UNL     1      -5.662   7.811  67.668  1.00  0.00    -0.037 A  
HETATM    8  N   UNL     1      -6.682   8.664  68.049  1.00  0.00    -0.068 NA 
HETATM    9  C   UNL     1      -5.134   7.534  66.317  1.00  0.00    -0.024 C  
ENDROOT
BRANCH   8  10
HETATM   10  C   UNL     1      -7.582   9.521  67.246  1.00  0.00    -0.091 C  
HETATM   11  C   UNL     1      -8.262   8.877  66.015  1.00  0.00    -0.117 C  
HETATM   12  C   UNL     1      -9.784   9.052  65.852  1.00  0.00    -0.236 C  
HETATM   13  C   UNL     1     -10.005  10.388  65.144  1.00  0.00    -0.390 C  
HETATM   14  C   UNL     1      -9.949  11.383  66.291  1.00  0.00    -0.259 C  
HETATM   15  C   UNL     1      -9.989  10.508  67.578  1.00  0.00    -0.172 C  
HETATM   16  C   UNL     1      -8.566  10.339  68.135  1.00  0.00    -0.119 C  
HETATM   17  N   UNL     1     -10.559   9.239  67.102  1.00  0.00    -0.246 NA 
BRANCH  17  18
HETATM   18  C   UNL     1     -10.631   8.042  68.013  1.00  0.00    -0.128 C  
BRANCH  18  19
HETATM   19  C   UNL     1     -11.132   6.635  67.450  1.00  0.00    -0.398 C  
HETATM   20  C   UNL     1     -10.596   5.214  68.024  1.00  0.00     0.060 C  
BRANCH  20  21
HETATM   21  C   UNL     1      -9.429   4.313  67.514  1.00  0.00    -0.216 A  
HETATM   22  C   UNL     1      -7.314   2.739  66.356  1.00  0.00    -0.067 A  
HETATM   23  C   UNL     1      -8.560   4.809  66.489  1.00  0.00    -0.109 A  
HETATM   24  C   UNL     1      -8.159   2.223  67.348  1.00  0.00    -0.067 A  
HETATM   25  C   UNL     1      -9.200   2.993  67.914  1.00  0.00    -0.247 A  
HETATM   26  C   UNL     1      -7.520   4.043  65.922  1.00  0.00    -0.084 A  
ENDBRANCH  20  21
BRANCH  20  27
HETATM   27  N   UNL     1     -10.583   5.231  69.480  1.00  0.00    -0.247 N  
HETATM   28  H   UNL     1     -11.391   4.899  70.005  1.00  0.00     0.000 HD 
HETATM   29  C   UNL     1      -9.477   5.698  70.140  1.00  0.00    -0.159 C  
HETATM   30  O   UNL     1      -8.515   6.166  69.532  1.00  0.00    -0.118 OA 
BRANCH  29  31
HETATM   31  C   UNL     1      -9.549   5.722  71.659  1.00  0.00    -0.178 C  
HETATM   32  C   UNL     1      -9.825   3.253  72.050  1.00  0.00    -0.240 C  
HETATM   33  C   UNL     1     -10.417   4.635  72.303  1.00  0.00    -0.238 C  
HETATM   34  C   UNL     1      -8.378   3.152  72.502  1.00  0.00    -0.075 C  
HETATM   35  F   UNL     1      -7.868   1.953  72.132  1.00  0.00    -0.041 F  
HETATM   36  F   UNL     1      -8.334   3.190  73.860  1.00  0.00    -0.070 F  
HETATM   37  C   UNL     1      -7.495   4.252  71.962  1.00  0.00    -0.070 C  
HETATM   38  C   UNL     1      -8.124   5.620  72.214  1.00  0.00    -0.108 C  
ENDBRANCH  29  31
ENDBRANCH  20  27
ENDBRANCH  18  19
ENDBRANCH  17  18
ENDBRANCH   8  10
TORSDOF 6
ENDMDL
MODEL      212
REMARK 921   NORMALIZED FREE ENERGY PREDICTED BY IDOCK:   -2.87 KCAL/MOL
REMARK 922        TOTAL FREE ENERGY PREDICTED BY IDOCK:   -5.42 KCAL/MOL
REMARK 923 INTER-LIGAND FREE ENERGY PREDICTED BY IDOCK:   -5.49 KCAL/MOL
REMARK 924 INTRA-LIGAND FREE ENERGY PREDICTED BY IDOCK:    0.07 KCAL/MOL
REMARK 927      BINDING AFFINITY PREDICTED BY RF-SCORE:    0.00 PKD
ROOT
HETATM    1  C   UNL     1      -6.928   8.202  68.975  1.00  0.00    -0.061 C  
HETATM    2  C   UNL     1      -7.666   8.809  67.769  1.00  0.00    -0.102 C  
HETATM    3  C   UNL     1      -6.863   8.654  66.514  1.00  0.00    -0.072 A  
HETATM    4  C   UNL     1      -7.914  10.307  67.994  1.00  0.00    -0.101 C  
HETATM    5  N   UNL     1      -5.790   9.373  66.260  1.00  0.00    -0.057 NA 
HETATM    6  N   UNL     1      -5.536   9.283  64.936  1.00  0.00    -0.060 NA 
HETATM    7  C   UNL     1      -6.383   8.431  64.398  1.00  0.00    -0.066 A  
HETATM    8  N   UNL     1      -7.186   7.899  65.392  1.00  0.00    -0.063 NA 
HETATM    9  C   UNL     1      -6.388   8.154  62.948  1.00  0.00    -0.085 C  
ENDROOT
BRANCH   8  10
HETATM   10  C   UNL     1      -8.253   6.876  65.334  1.00  0.00    -0.134 C  
HETATM   11  C   UNL     1      -7.820   5.414  65.070  1.00  0.00    -0.096 C  
HETATM   12  C   UNL     1      -8.364   4.316  66.003  1.00  0.00    -0.109 C  
HETATM   13  C   UNL     1      -9.727   3.900  65.453  1.00  0.00    -0.181 C  
HETATM   14  C   UNL     1     -10.655   4.949  66.043  1.00  0.00    -0.312 C  
HETATM   15  C   UNL     1      -9.789   5.695  67.101  1.00  0.00    -0.149 C  
HETATM   16  C   UNL     1      -9.268   7.013  66.509  1.00  0.00    -0.198 C  
HETATM   17  N   UNL     1      -8.708   4.739  67.381  1.00  0.00    -0.104 NA 
BRANCH  17  18
HETATM   18  C   UNL     1      -7.545   5.132  68.255  1.00  0.00    -0.079 C  
BRANCH  18  19
HETATM   19  C   UNL     1      -7.025   4.141  69.392  1.00  0.00    -0.046 C  
HETATM   20  C   UNL     1      -7.495   4.254  70.942  1.00  0.00    -0.051 C  
BRANCH  20  21
HETATM   21  C   UNL     1      -6.818   4.999  72.134  1.00  0.00    -0.061 A  
HETATM   22  C   UNL     1      -5.370   6.382  74.203  1.00  0.00    -0.045 A  
HETATM   23  C   UNL     1      -5.868   6.035  71.860  1.00  0.00    -0.031 A  
HETATM   24  C   UNL     1      -6.284   5.362  74.499  1.00  0.00    -0.068 A  
HETATM   25  C   UNL     1      -6.992   4.679  73.484  1.00  0.00    -0.070 A  
HETATM   26  C   UNL     1      -5.159   6.718  72.871  1.00  0.00    -0.036 A  
ENDBRANCH  20  21
BRANCH  20  27
HETATM   27  N   UNL     1      -8.937   4.443  71.019  1.00  0.00    -0.113 N  
HETATM   28  H   UNL     1      -9.565   3.643  70.955  1.00  0.00     0.000 HD 
HETATM   29  C   UNL     1      -9.444   5.706  71.178  1.00  0.00    -0.158 C  
HETATM   30  O   UNL     1      -8.714   6.696  71.193  1.00  0.00    -0.136 OA 
BRANCH  29  31
HETATM   31  C   UNL     1     -10.960   5.832  71.212  1.00  0.00    -0.299 C  
HETATM   32  C   UNL     1     -11.120   7.935  72.582  1.00  0.00    -0.447 C  
HETATM   33  C   UNL     1     -11.548   6.476  72.472  1.00  0.00    -0.243 C  
HETATM   34  C   UNL     1     -11.462   8.734  71.336  1.00  0.00    -0.297 C  
HETATM   35  F   UNL     1     -10.942   9.980  71.437  1.00  0.00    -0.396 F  
HETATM   36  F   UNL     1     -12.811   8.882  71.262  1.00  0.00    -0.322 F  
HETATM   37  C   UNL     1     -10.978   8.099  70.055  1.00  0.00    -0.199 C  
HETATM   38  C   UNL     1     -11.406   6.634  69.984  1.00  0.00    -0.440 C  
ENDBRANCH  29  31
ENDBRANCH  20  27
ENDBRANCH  18  19
ENDBRANCH  17  18
ENDBRANCH   8  10
TORSDOF 6
ENDMDL
MODEL      213
REMARK 921   NORMALIZED FREE ENERGY PREDICTED BY IDOCK:   -2.79 KCAL/MOL
REMARK 922        TOTAL FREE ENERGY PREDICTED BY IDOCK:   -5.30 KCAL/MOL
REMARK 923 INTER-LIGAND FREE ENERGY PREDICTED BY IDOCK:   -4.99 KCAL/MOL
REMARK 924 INTRA-LIGAND FREE ENERGY PREDICTED BY IDOCK:   -0.31 KCAL/MOL
REMARK 927      BINDING AFFINITY PREDICTED BY RF-SCORE:    0.00 PKD
ROOT
HETATM    1  C   UNL     1     -11.200   5.685  71.383  1.00  0.00    -0.167 C  
HETATM    2  C   UNL     1     -10.605   5.085  72.669  1.00  0.00    -0.274 C  
HETATM    3  C   UNL     1      -9.292   4.417  72.393  1.00  0.00    -0.126 A  
HETATM    4  C   UNL     1     -11.557   4.036  73.260  1.00  0.00    -0.102 C  
HETATM    5  N   UNL     1      -9.197   3.261  71.770  1.00  0.00    -0.111 NA 
HETATM    6  N   UNL     1      -7.968   2.758  72.020  1.00  0.00    -0.053 NA 
HETATM    7  C   UNL     1      -7.276   3.646  72.702  1.00  0.00    -0.049 A  
HETATM    8  N   UNL     1      -8.039   4.789  72.867  1.00  0.00    -0.100 NA 
HETATM    9  C   UNL     1      -5.903   3.366  73.168  1.00  0.00    -0.004 C  
ENDROOT
BRANCH   8  10
HETATM   10  C   UNL     1      -7.722   6.083  73.508  1.00  0.00    -0.100 C  
HETATM   11  C   UNL     1      -6.420   6.793  73.066  1.00  0.00    -0.063 C  
HETATM   12  C   UNL     1      -6.502   8.281  72.675  1.00  0.00    -0.086 C  
HETATM   13  C   UNL     1      -6.378   9.088  73.966  1.00  0.00     0.051 C  
HETATM   14  C   UNL     1      -7.803   9.084  74.496  1.00  0.00     0.474 C  
HETATM   15  C   UNL     1      -8.660   8.525  73.322  1.00  0.00    -0.003 C  
HETATM   16  C   UNL     1      -8.955   7.035  73.558  1.00  0.00    -0.178 C  
HETATM   17  N   UNL     1      -7.805   8.749  72.147  1.00  0.00    -0.355 NA 
BRANCH  17  18
HETATM   18  C   UNL     1      -8.199   8.206  70.799  1.00  0.00    -0.111 C  
BRANCH  18  19
HETATM   19  C   UNL     1      -9.736   8.157  70.371  1.00  0.00    -0.179 C  
HETATM   20  C   UNL     1     -10.447   9.331  69.505  1.00  0.00    -0.220 C  
BRANCH  20  21
HETATM   21  C   UNL     1     -11.252  10.576  69.993  1.00  0.00    -0.386 A  
HETATM   22  C   UNL     1     -12.918  12.725  70.940  1.00  0.00    -0.080 A  
HETATM   23  C   UNL     1     -12.128  10.444  71.118  1.00  0.00    -0.487 A  
HETATM   24  C   UNL     1     -12.080  12.878  69.828  1.00  0.00    -0.312 A  
HETATM   25  C   UNL     1     -11.266  11.822  69.358  1.00  0.00    -0.300 A  
HETATM   26  C   UNL     1     -12.943  11.495  71.588  1.00  0.00    -0.499 A  
ENDBRANCH  20  21
BRANCH  20  27
HETATM   27  N   UNL     1      -9.596   9.722  68.390  1.00  0.00    -0.146 N  
HETATM   28  H   UNL     1      -8.916  10.473  68.501  1.00  0.00     0.000 HD 
HETATM   29  C   UNL     1      -9.716   9.071  67.190  1.00  0.00    -0.181 C  
HETATM   30  O   UNL     1     -10.571   8.206  67.009  1.00  0.00    -0.329 OA 
BRANCH  29  31
HETATM   31  C   UNL     1      -8.822   9.558  66.059  1.00  0.00    -0.183 C  
HETATM   32  C   UNL     1      -6.691   8.423  66.765  1.00  0.00    -0.061 C  
HETATM   33  C   UNL     1      -7.344   9.756  66.415  1.00  0.00    -0.095 C  
HETATM   34  C   UNL     1      -6.867   7.386  65.669  1.00  0.00    -0.056 C  
HETATM   35  F   UNL     1      -6.387   6.193  66.090  1.00  0.00    -0.033 F  
HETATM   36  F   UNL     1      -6.119   7.748  64.593  1.00  0.00    -0.040 F  
HETATM   37  C   UNL     1      -8.298   7.213  65.221  1.00  0.00    -0.101 C  
HETATM   38  C   UNL     1      -8.929   8.566  64.896  1.00  0.00     0.061 C  
ENDBRANCH  29  31
ENDBRANCH  20  27
ENDBRANCH  18  19
ENDBRANCH  17  18
ENDBRANCH   8  10
TORSDOF 6
ENDMDL
MODEL      214
REMARK 921   NORMALIZED FREE ENERGY PREDICTED BY IDOCK:   -2.77 KCAL/MOL
REMARK 922        TOTAL FREE ENERGY PREDICTED BY IDOCK:   -5.28 KCAL/MOL
REMARK 923 INTER-LIGAND FREE ENERGY PREDICTED BY IDOCK:   -3.57 KCAL/MOL
REMARK 924 INTRA-LIGAND FREE ENERGY PREDICTED BY IDOCK:   -1.72 KCAL/MOL
REMARK 927      BINDING AFFINITY PREDICTED BY RF-SCORE:    0.00 PKD
ROOT
HETATM    1  C   UNL     1      -7.026   8.776  72.120  1.00  0.00    -0.019 C  
HETATM    2  C   UNL     1      -6.969   7.453  71.338  1.00  0.00    -0.055 C  
HETATM    3  C   UNL     1      -7.707   6.368  72.063  1.00  0.00    -0.096 A  
HETATM    4  C   UNL     1      -5.513   7.000  71.160  1.00  0.00    -0.027 C  
HETATM    5  N   UNL     1      -7.237   5.787  73.146  1.00  0.00    -0.089 NA 
HETATM    6  N   UNL     1      -7.916   4.631  73.321  1.00  0.00    -0.098 NA 
HETATM    7  C   UNL     1      -8.866   4.555  72.413  1.00  0.00    -0.117 A  
HETATM    8  N   UNL     1      -8.858   5.708  71.648  1.00  0.00    -0.136 NA 
HETATM    9  C   UNL     1      -9.752   3.377  72.316  1.00  0.00    -0.221 C  
ENDROOT
BRANCH   8  10
HETATM   10  C   UNL     1      -9.738   6.145  70.542  1.00  0.00    -0.173 C  
HETATM   11  C   UNL     1      -9.849   7.666  70.283  1.00  0.00    -0.180 C  
HETATM   12  C   UNL     1      -9.660   8.172  68.840  1.00  0.00    -0.153 C  
HETATM   13  C   UNL     1     -11.017   8.062  68.148  1.00  0.00     0.139 C  
HETATM   14  C   UNL     1     -11.044   6.609  67.703  1.00  0.00    -0.357 C  
HETATM   15  C   UNL     1      -9.590   6.099  67.924  1.00  0.00    -0.118 C  
HETATM   16  C   UNL     1      -9.510   5.314  69.243  1.00  0.00    -0.185 C  
HETATM   17  N   UNL     1      -8.803   7.341  67.962  1.00  0.00    -0.130 NA 
BRANCH  17  18
HETATM   18  C   UNL     1      -7.339   7.309  68.316  1.00  0.00    -0.100 C  
BRANCH  18  19
HETATM   19  C   UNL     1      -6.337   6.371  67.501  1.00  0.00    -0.037 C  
HETATM   20  C   UNL     1      -6.682   5.782  66.028  1.00  0.00    -0.056 C  
BRANCH  20  21
HETATM   21  C   UNL     1      -7.319   4.414  65.630  1.00  0.00    -0.080 A  
HETATM   22  C   UNL     1      -8.373   1.793  65.074  1.00  0.00    -0.083 A  
HETATM   23  C   UNL     1      -7.679   3.485  66.658  1.00  0.00    -0.081 A  
HETATM   24  C   UNL     1      -8.016   2.677  64.046  1.00  0.00    -0.081 A  
HETATM   25  C   UNL     1      -7.493   3.962  64.318  1.00  0.00    -0.067 A  
HETATM   26  C   UNL     1      -8.200   2.201  66.391  1.00  0.00    -0.088 A  
ENDBRANCH  20  21
BRANCH  20  27
HETATM   27  N   UNL     1      -7.236   6.830  65.183  1.00  0.00    -0.070 N  
HETATM   28  H   UNL     1      -8.234   6.845  64.971  1.00  0.00     0.000 HD 
HETATM   29  C   UNL     1      -6.408   7.795  64.674  1.00  0.00    -0.045 C  
HETATM   30  O   UNL     1      -5.192   7.763  64.859  1.00  0.00    -0.029 OA 
BRANCH  29  31
HETATM   31  C   UNL     1      -7.051   8.835  63.768  1.00  0.00    -0.092 C  
HETATM   32  C   UNL     1      -8.984   9.462  65.248  1.00  0.00    -0.250 C  
HETATM   33  C   UNL     1      -8.575   8.958  63.870  1.00  0.00    -0.110 C  
HETATM   34  C   UNL     1      -8.295  10.765  65.617  1.00  0.00    -0.144 C  
HETATM   35  F   UNL     1      -8.592  11.092  66.896  1.00  0.00    -0.131 F  
HETATM   36  F   UNL     1      -8.787  11.763  64.836  1.00  0.00     0.047 F  
HETATM   37  C   UNL     1      -6.794  10.725  65.453  1.00  0.00     0.066 C  
HETATM   38  C   UNL     1      -6.417  10.197  64.070  1.00  0.00    -0.119 C  
ENDBRANCH  29  31
ENDBRANCH  20  27
ENDBRANCH  18  19
ENDBRANCH  17  18
ENDBRANCH   8  10
TORSDOF 6
ENDMDL
MODEL      215
REMARK 921   NORMALIZED FREE ENERGY PREDICTED BY IDOCK:   -2.72 KCAL/MOL
REMARK 922        TOTAL FREE ENERGY PREDICTED BY IDOCK:   -5.22 KCAL/MOL
REMARK 923 INTER-LIGAND FREE ENERGY PREDICTED BY IDOCK:   -6.11 KCAL/MOL
REMARK 924 INTRA-LIGAND FREE ENERGY PREDICTED BY IDOCK:    0.90 KCAL/MOL
REMARK 927      BINDING AFFINITY PREDICTED BY RF-SCORE:    0.00 PKD
ROOT
HETATM    1  C   UNL     1     -10.488  15.080  71.440  1.00  0.00     0.799 C  
HETATM    2  C   UNL     1     -11.301  15.123  70.134  1.00  0.00    -0.300 C  
HETATM    3  C   UNL     1     -10.800  16.205  69.226  1.00  0.00    -0.310 A  
HETATM    4  C   UNL     1     -12.780  15.400  70.435  1.00  0.00    -0.407 C  
HETATM    5  N   UNL     1     -11.026  17.482  69.448  1.00  0.00     0.373 NA 
HETATM    6  N   UNL     1     -10.801  18.147  68.293  1.00  0.00    -0.148 NA 
HETATM    7  C   UNL     1     -10.339  17.300  67.398  1.00  0.00    -0.338 A  
HETATM    8  N   UNL     1     -10.201  16.052  67.981  1.00  0.00    -0.240 NA 
HETATM    9  C   UNL     1     -10.042  17.720  66.014  1.00  0.00    -0.254 C  
ENDROOT
BRANCH   8  10
HETATM   10  C   UNL     1      -9.684  14.778  67.436  1.00  0.00    -0.214 C  
HETATM   11  C   UNL     1      -8.939  13.839  68.415  1.00  0.00    -0.166 C  
HETATM   12  C   UNL     1      -9.357  12.356  68.456  1.00  0.00    -0.088 C  
HETATM   13  C   UNL     1      -8.582  11.644  67.349  1.00  0.00    -0.149 C  
HETATM   14  C   UNL     1      -9.436  11.915  66.122  1.00  0.00    -0.243 C  
HETATM   15  C   UNL     1     -10.761  12.509  66.684  1.00  0.00    -0.236 C  
HETATM   16  C   UNL     1     -10.739  14.040  66.558  1.00  0.00    -0.281 C  
HETATM   17  N   UNL     1     -10.761  12.061  68.084  1.00  0.00    -0.207 NA 
BRANCH  17  18
HETATM   18  C   UNL     1     -11.811  12.552  69.046  1.00  0.00    -0.296 C  
BRANCH  18  19
HETATM   19  C   UNL     1     -11.748  12.134  70.584  1.00  0.00     0.139 C  
HETATM   20  C   UNL     1     -11.447  10.616  71.074  1.00  0.00     0.004 C  
BRANCH  20  21
HETATM   21  C   UNL     1     -12.446   9.472  71.434  1.00  0.00    -0.450 A  
HETATM   22  C   UNL     1     -14.293   7.306  71.868  1.00  0.00    -0.507 A  
HETATM   23  C   UNL     1     -12.366   8.227  70.729  1.00  0.00     0.062 A  
HETATM   24  C   UNL     1     -14.403   8.518  72.562  1.00  0.00    -0.325 A  
HETATM   25  C   UNL     1     -13.501   9.584  72.346  1.00  0.00    -0.475 A  
HETATM   26  C   UNL     1     -13.266   7.162  70.942  1.00  0.00    -0.037 A  
ENDBRANCH  20  21
BRANCH  20  27
HETATM   27  N   UNL     1     -10.332  10.056  70.324  1.00  0.00    -0.357 N  
HETATM   28  H   UNL     1     -10.180  10.325  69.352  1.00  0.00     0.000 HD 
HETATM   29  C   UNL     1      -9.489   9.165  70.933  1.00  0.00    -0.276 C  
HETATM   30  O   UNL     1      -9.687   8.773  72.082  1.00  0.00    -0.307 OA 
BRANCH  29  31
HETATM   31  C   UNL     1      -8.369   8.591  70.077  1.00  0.00    -0.123 C  
HETATM   32  C   UNL     1      -7.743   6.651  71.548  1.00  0.00    -0.098 C  
HETATM   33  C   UNL     1      -7.234   7.900  70.839  1.00  0.00    -0.053 C  
HETATM   34  C   UNL     1      -8.442   5.691  70.600  1.00  0.00    -0.126 C  
HETATM   35  F   UNL     1      -8.987   4.671  71.303  1.00  0.00    -0.125 F  
HETATM   36  F   UNL     1      -7.520   5.140  69.768  1.00  0.00    -0.056 F  
HETATM   37  C   UNL     1      -9.516   6.342  69.761  1.00  0.00    -0.160 C  
HETATM   38  C   UNL     1      -8.980   7.600  69.080  1.00  0.00    -0.135 C  
ENDBRANCH  29  31
ENDBRANCH  20  27
ENDBRANCH  18  19
ENDBRANCH  17  18
ENDBRANCH   8  10
TORSDOF 6
ENDMDL
MODEL      216
REMARK 921   NORMALIZED FREE ENERGY PREDICTED BY IDOCK:   -2.71 KCAL/MOL
REMARK 922        TOTAL FREE ENERGY PREDICTED BY IDOCK:   -5.20 KCAL/MOL
REMARK 923 INTER-LIGAND FREE ENERGY PREDICTED BY IDOCK:   -3.74 KCAL/MOL
REMARK 924 INTRA-LIGAND FREE ENERGY PREDICTED BY IDOCK:   -1.45 KCAL/MOL
REMARK 927      BINDING AFFINITY PREDICTED BY RF-SCORE:    0.00 PKD
ROOT
HETATM    1  C   UNL     1      -5.161   9.291  65.520  1.00  0.00    -0.036 C  
HETATM    2  C   UNL     1      -6.255   9.925  66.397  1.00  0.00    -0.070 C  
HETATM    3  C   UNL     1      -7.515   9.115  66.352  1.00  0.00    -0.092 A  
HETATM    4  C   UNL     1      -6.581  11.341  65.904  1.00  0.00     0.198 C  
HETATM    5  N   UNL     1      -8.315   9.100  65.308  1.00  0.00    -0.137 NA 
HETATM    6  N   UNL     1      -9.510   8.615  65.711  1.00  0.00    -0.174 NA 
HETATM    7  C   UNL     1      -9.413   8.237  66.968  1.00  0.00    -0.176 A  
HETATM    8  N   UNL     1      -8.111   8.422  67.400  1.00  0.00    -0.105 NA 
HETATM    9  C   UNL     1     -10.575   7.705  67.709  1.00  0.00    -0.265 C  
ENDROOT
BRANCH   8  10
HETATM   10  C   UNL     1      -7.466   8.117  68.695  1.00  0.00    -0.098 C  
HETATM   11  C   UNL     1      -5.919   8.083  68.726  1.00  0.00    -0.039 C  
HETATM   12  C   UNL     1      -5.198   8.882  69.828  1.00  0.00    -0.030 C  
HETATM   13  C   UNL     1      -5.137   7.982  71.061  1.00  0.00    -0.026 C  
HETATM   14  C   UNL     1      -6.497   8.207  71.701  1.00  0.00    -0.046 C  
HETATM   15  C   UNL     1      -7.098   9.424  70.938  1.00  0.00    -0.088 C  
HETATM   16  C   UNL     1      -8.086   8.930  69.870  1.00  0.00    -0.112 C  
HETATM   17  N   UNL     1      -5.914  10.069  70.352  1.00  0.00    -0.074 NA 
BRANCH  17  18
HETATM   18  C   UNL     1      -6.065  11.219  69.392  1.00  0.00    -0.074 C  
BRANCH  18  19
HETATM   19  C   UNL     1      -6.413  12.679  69.936  1.00  0.00     0.044 C  
HETATM   20  C   UNL     1      -7.378  13.711  69.138  1.00  0.00     0.047 C  
BRANCH  20  21
HETATM   21  C   UNL     1      -7.006  14.840  68.128  1.00  0.00    -0.130 A  
HETATM   22  C   UNL     1      -6.175  17.013  66.432  1.00  0.00    -0.125 A  
HETATM   23  C   UNL     1      -5.662  15.334  68.097  1.00  0.00    -0.140 A  
HETATM   24  C   UNL     1      -7.501  16.560  66.452  1.00  0.00    -0.205 A  
HETATM   25  C   UNL     1      -7.911  15.497  67.289  1.00  0.00    -0.233 A  
HETATM   26  C   UNL     1      -5.249  16.396  67.264  1.00  0.00    -0.118 A  
ENDBRANCH  20  21
BRANCH  20  27
HETATM   27  N   UNL     1      -8.570  13.022  68.664  1.00  0.00    -0.367 N  
HETATM   28  H   UNL     1      -8.488  12.242  68.013  1.00  0.00     0.000 HD 
HETATM   29  C   UNL     1      -9.803  13.430  69.100  1.00  0.00     0.372 C  
HETATM   30  O   UNL     1      -9.936  14.408  69.833  1.00  0.00     0.301 OA 
BRANCH  29  31
HETATM   31  C   UNL     1     -11.005  12.689  68.533  1.00  0.00    -0.292 C  
HETATM   32  C   UNL     1     -11.172  10.881  70.272  1.00  0.00    -0.271 C  
HETATM   33  C   UNL     1     -11.036  11.177  68.783  1.00  0.00    -0.268 C  
HETATM   34  C   UNL     1     -12.373  11.573  70.893  1.00  0.00    -0.359 C  
HETATM   35  F   UNL     1     -12.365  11.383  72.234  1.00  0.00     0.025 F  
HETATM   36  F   UNL     1     -13.510  10.993  70.425  1.00  0.00    -0.066 F  
HETATM   37  C   UNL     1     -12.436  13.054  70.605  1.00  0.00    -0.347 C  
HETATM   38  C   UNL     1     -12.278  13.319  69.109  1.00  0.00    -0.168 C  
ENDBRANCH  29  31
ENDBRANCH  20  27
ENDBRANCH  18  19
ENDBRANCH  17  18
ENDBRANCH   8  10
TORSDOF 6
ENDMDL
MODEL      217
REMARK 921   NORMALIZED FREE ENERGY PREDICTED BY IDOCK:   -2.70 KCAL/MOL
REMARK 922        TOTAL FREE ENERGY PREDICTED BY IDOCK:   -5.18 KCAL/MOL
REMARK 923 INTER-LIGAND FREE ENERGY PREDICTED BY IDOCK:   -5.52 KCAL/MOL
REMARK 924 INTRA-LIGAND FREE ENERGY PREDICTED BY IDOCK:    0.34 KCAL/MOL
REMARK 927      BINDING AFFINITY PREDICTED BY RF-SCORE:    0.00 PKD
ROOT
HETATM    1  C   UNL     1     -11.283   7.363  72.936  1.00  0.00    -0.368 C  
HETATM    2  C   UNL     1      -9.813   7.813  72.884  1.00  0.00    -0.326 C  
HETATM    3  C   UNL     1      -9.051   7.038  71.851  1.00  0.00    -0.139 A  
HETATM    4  C   UNL     1      -9.136   7.588  74.243  1.00  0.00    -0.176 C  
HETATM    5  N   UNL     1      -8.694   5.783  72.021  1.00  0.00    -0.137 NA 
HETATM    6  N   UNL     1      -7.721   5.506  71.126  1.00  0.00    -0.101 NA 
HETATM    7  C   UNL     1      -7.554   6.550  70.342  1.00  0.00    -0.096 A  
HETATM    8  N   UNL     1      -8.472   7.527  70.685  1.00  0.00    -0.130 NA 
HETATM    9  C   UNL     1      -6.521   6.570  69.287  1.00  0.00    -0.040 C  
ENDROOT
BRANCH   8  10
HETATM   10  C   UNL     1      -8.740   8.857  70.096  1.00  0.00    -0.161 C  
HETATM   11  C   UNL     1      -7.950   9.240  68.822  1.00  0.00    -0.099 C  
HETATM   12  C   UNL     1      -8.738   9.788  67.616  1.00  0.00    -0.125 C  
HETATM   13  C   UNL     1      -8.903  11.290  67.838  1.00  0.00    -0.142 C  
HETATM   14  C   UNL     1     -10.121  11.358  68.745  1.00  0.00    -0.199 C  
HETATM   15  C   UNL     1     -10.710   9.917  68.726  1.00  0.00    -0.220 C  
HETATM   16  C   UNL     1     -10.265   9.158  69.987  1.00  0.00    -0.229 C  
HETATM   17  N   UNL     1     -10.146   9.341  67.497  1.00  0.00    -0.203 NA 
BRANCH  17  18
HETATM   18  C   UNL     1     -10.345   7.884  67.172  1.00  0.00    -0.328 C  
BRANCH  18  19
HETATM   19  C   UNL     1      -9.105   6.879  67.200  1.00  0.00    -0.137 C  
HETATM   20  C   UNL     1      -8.419   6.287  65.854  1.00  0.00    -0.146 C  
BRANCH  20  21
HETATM   21  C   UNL     1      -8.702   4.951  65.099  1.00  0.00    -0.148 A  
HETATM   22  C   UNL     1      -9.439   2.484  63.809  1.00  0.00    -0.115 A  
HETATM   23  C   UNL     1     -10.022   4.694  64.606  1.00  0.00     0.096 A  
HETATM   24  C   UNL     1      -8.143   2.703  64.295  1.00  0.00    -0.082 A  
HETATM   25  C   UNL     1      -7.781   3.912  64.933  1.00  0.00    -0.081 A  
HETATM   26  C   UNL     1     -10.386   3.488  63.970  1.00  0.00    -0.242 A  
ENDBRANCH  20  21
BRANCH  20  27
HETATM   27  N   UNL     1      -8.219   7.351  64.880  1.00  0.00    -0.251 N  
HETATM   28  H   UNL     1      -9.016   7.876  64.522  1.00  0.00     0.000 HD 
HETATM   29  C   UNL     1      -6.952   7.642  64.450  1.00  0.00    -0.060 C  
HETATM   30  O   UNL     1      -5.980   6.983  64.816  1.00  0.00    -0.035 OA 
BRANCH  29  31
HETATM   31  C   UNL     1      -6.823   8.740  63.403  1.00  0.00    -0.089 C  
HETATM   32  C   UNL     1      -9.272   9.134  62.986  1.00  0.00     0.345 C  
HETATM   33  C   UNL     1      -7.932   8.787  62.347  1.00  0.00    -0.145 C  
HETATM   34  C   UNL     1      -9.213  10.421  63.791  1.00  0.00    -0.269 C  
HETATM   35  F   UNL     1     -10.386  10.606  64.441  1.00  0.00    -0.388 F  
HETATM   36  F   UNL     1      -9.072  11.470  62.938  1.00  0.00    -0.305 F  
HETATM   37  C   UNL     1      -8.083  10.461  64.791  1.00  0.00    -0.124 C  
HETATM   38  C   UNL     1      -6.760  10.091  64.124  1.00  0.00    -0.128 C  
ENDBRANCH  29  31
ENDBRANCH  20  27
ENDBRANCH  18  19
ENDBRANCH  17  18
ENDBRANCH   8  10
TORSDOF 6
ENDMDL
MODEL      218
REMARK 921   NORMALIZED FREE ENERGY PREDICTED BY IDOCK:   -2.60 KCAL/MOL
REMARK 922        TOTAL FREE ENERGY PREDICTED BY IDOCK:   -5.04 KCAL/MOL
REMARK 923 INTER-LIGAND FREE ENERGY PREDICTED BY IDOCK:   -5.05 KCAL/MOL
REMARK 924 INTRA-LIGAND FREE ENERGY PREDICTED BY IDOCK:    0.00 KCAL/MOL
REMARK 927      BINDING AFFINITY PREDICTED BY RF-SCORE:    0.00 PKD
ROOT
HETATM    1  C   UNL     1      -5.723  11.605  66.624  1.00  0.00    -0.115 C  
HETATM    2  C   UNL     1      -6.363  12.313  67.831  1.00  0.00    -0.088 C  
HETATM    3  C   UNL     1      -6.497  13.785  67.580  1.00  0.00    -0.150 A  
HETATM    4  C   UNL     1      -5.499  12.121  69.084  1.00  0.00    -0.064 C  
HETATM    5  N   UNL     1      -5.471  14.608  67.601  1.00  0.00    -0.337 NA 
HETATM    6  N   UNL     1      -5.952  15.864  67.731  1.00  0.00    -0.136 NA 
HETATM    7  C   UNL     1      -7.266  15.823  67.684  1.00  0.00    -0.166 A  
HETATM    8  N   UNL     1      -7.673  14.518  67.464  1.00  0.00    -0.176 NA 
HETATM    9  C   UNL     1      -8.086  17.040  67.847  1.00  0.00    -0.196 C  
ENDROOT
BRANCH   8  10
HETATM   10  C   UNL     1      -9.022  13.940  67.283  1.00  0.00    -0.221 C  
HETATM   11  C   UNL     1      -9.171  12.799  66.249  1.00  0.00    -0.096 C  
HETATM   12  C   UNL     1      -9.902  11.515  66.686  1.00  0.00    -0.202 C  
HETATM   13  C   UNL     1     -11.395  11.759  66.474  1.00  0.00    -0.370 C  
HETATM   14  C   UNL     1     -11.793  12.493  67.744  1.00  0.00    -0.375 C  
HETATM   15  C   UNL     1     -10.562  12.348  68.688  1.00  0.00    -0.218 C  
HETATM   16  C   UNL     1      -9.720  13.633  68.642  1.00  0.00    -0.118 C  
HETATM   17  N   UNL     1      -9.849  11.190  68.131  1.00  0.00    -0.174 NA 
BRANCH  17  18
HETATM   18  C   UNL     1      -8.496  10.795  68.663  1.00  0.00    -0.143 C  
BRANCH  18  19
HETATM   19  C   UNL     1      -8.372  10.070  70.080  1.00  0.00    -0.137 C  
HETATM   20  C   UNL     1      -8.336   8.455  70.243  1.00  0.00    -0.124 C  
BRANCH  20  21
HETATM   21  C   UNL     1      -9.504   7.458  70.519  1.00  0.00    -0.161 A  
HETATM   22  C   UNL     1     -11.563   5.475  70.865  1.00  0.00     0.553 A  
HETATM   23  C   UNL     1      -9.243   6.050  70.485  1.00  0.00    -0.168 A  
HETATM   24  C   UNL     1     -11.850   6.847  70.889  1.00  0.00    -0.424 A  
HETATM   25  C   UNL     1     -10.840   7.821  70.714  1.00  0.00    -0.245 A  
HETATM   26  C   UNL     1     -10.248   5.075  70.658  1.00  0.00    -0.306 A  
ENDBRANCH  20  21
BRANCH  20  27
HETATM   27  N   UNL     1      -7.431   7.870  69.265  1.00  0.00    -0.090 N  
HETATM   28  H   UNL     1      -6.449   7.723  69.496  1.00  0.00     0.000 HD 
HETATM   29  C   UNL     1      -7.908   7.518  68.030  1.00  0.00    -0.121 C  
HETATM   30  O   UNL     1      -9.072   7.743  67.701  1.00  0.00    -0.133 OA 
BRANCH  29  31
HETATM   31  C   UNL     1      -6.897   6.948  67.046  1.00  0.00    -0.065 C  
HETATM   32  C   UNL     1      -5.697   5.393  68.617  1.00  0.00    -0.015 C  
HETATM   33  C   UNL     1      -5.540   6.551  67.638  1.00  0.00    -0.005 C  
HETATM   34  C   UNL     1      -6.403   4.201  67.994  1.00  0.00    -0.037 C  
HETATM   35  F   UNL     1      -6.632   3.261  68.941  1.00  0.00    -0.034 F  
HETATM   36  F   UNL     1      -5.582   3.631  67.073  1.00  0.00    -0.018 F  
HETATM   37  C   UNL     1      -7.708   4.552  67.321  1.00  0.00    -0.089 C  
HETATM   38  C   UNL     1      -7.522   5.726  66.363  1.00  0.00    -0.086 C  
ENDBRANCH  29  31
ENDBRANCH  20  27
ENDBRANCH  18  19
ENDBRANCH  17  18
ENDBRANCH   8  10
TORSDOF 6
ENDMDL
MODEL      219
REMARK 921   NORMALIZED FREE ENERGY PREDICTED BY IDOCK:   -2.58 KCAL/MOL
REMARK 922        TOTAL FREE ENERGY PREDICTED BY IDOCK:   -5.03 KCAL/MOL
REMARK 923 INTER-LIGAND FREE ENERGY PREDICTED BY IDOCK:   -4.33 KCAL/MOL
REMARK 924 INTRA-LIGAND FREE ENERGY PREDICTED BY IDOCK:   -0.69 KCAL/MOL
REMARK 927      BINDING AFFINITY PREDICTED BY RF-SCORE:    0.00 PKD
ROOT
HETATM    1  C   UNL     1      -7.918   9.415  65.103  1.00  0.00    -0.116 C  
HETATM    2  C   UNL     1      -8.176   8.064  64.415  1.00  0.00    -0.085 C  
HETATM    3  C   UNL     1      -6.979   7.169  64.524  1.00  0.00    -0.051 A  
HETATM    4  C   UNL     1      -8.480   8.272  62.925  1.00  0.00    -0.021 C  
HETATM    5  N   UNL     1      -5.883   7.355  63.820  1.00  0.00    -0.044 NA 
HETATM    6  N   UNL     1      -5.175   6.205  63.847  1.00  0.00    -0.017 NA 
HETATM    7  C   UNL     1      -5.779   5.352  64.648  1.00  0.00    -0.017 A  
HETATM    8  N   UNL     1      -6.886   5.963  65.211  1.00  0.00    -0.050 NA 
HETATM    9  C   UNL     1      -5.268   3.981  64.848  1.00  0.00    -0.009 C  
ENDROOT
BRANCH   8  10
HETATM   10  C   UNL     1      -7.866   5.471  66.202  1.00  0.00    -0.100 C  
HETATM   11  C   UNL     1      -7.500   4.188  66.986  1.00  0.00    -0.077 C  
HETATM   12  C   UNL     1      -7.642   4.209  68.519  1.00  0.00    -0.063 C  
HETATM   13  C   UNL     1      -9.095   3.861  68.836  1.00  0.00    -0.196 C  
HETATM   14  C   UNL     1      -9.796   5.202  68.690  1.00  0.00    -0.225 C  
HETATM   15  C   UNL     1      -8.643   6.242  68.585  1.00  0.00    -0.121 C  
HETATM   16  C   UNL     1      -8.410   6.613  67.112  1.00  0.00    -0.113 C  
HETATM   17  N   UNL     1      -7.497   5.532  69.173  1.00  0.00    -0.077 NA 
BRANCH  17  18
HETATM   18  C   UNL     1      -6.118   6.135  69.130  1.00  0.00    -0.029 C  
BRANCH  18  19
HETATM   19  C   UNL     1      -5.919   7.700  69.376  1.00  0.00    -0.030 C  
HETATM   20  C   UNL     1      -7.009   8.615  70.155  1.00  0.00    -0.043 C  
BRANCH  20  21
HETATM   21  C   UNL     1      -8.178   9.474  69.580  1.00  0.00    -0.134 A  
HETATM   22  C   UNL     1     -10.202  11.250  68.560  1.00  0.00    -0.214 A  
HETATM   23  C   UNL     1      -7.873  10.639  68.805  1.00  0.00    -0.125 A  
HETATM   24  C   UNL     1     -10.529  10.124  69.328  1.00  0.00    -0.246 A  
HETATM   25  C   UNL     1      -9.536   9.255  69.834  1.00  0.00    -0.214 A  
HETATM   26  C   UNL     1      -8.862  11.510  68.300  1.00  0.00    -0.166 A  
ENDBRANCH  20  21
BRANCH  20  27
HETATM   27  N   UNL     1      -7.464   7.940  71.362  1.00  0.00    -0.071 N  
HETATM   28  H   UNL     1      -8.365   7.464  71.377  1.00  0.00     0.000 HD 
HETATM   29  C   UNL     1      -6.670   7.948  72.479  1.00  0.00    -0.073 C  
HETATM   30  O   UNL     1      -5.609   8.569  72.511  1.00  0.00    -0.044 OA 
BRANCH  29  31
HETATM   31  C   UNL     1      -7.226   7.256  73.715  1.00  0.00    -0.101 C  
HETATM   32  C   UNL     1      -9.658   7.796  73.371  1.00  0.00    -0.352 C  
HETATM   33  C   UNL     1      -8.477   7.893  74.330  1.00  0.00    -0.278 C  
HETATM   34  C   UNL     1      -9.923   6.369  72.921  1.00  0.00    -0.174 C  
HETATM   35  F   UNL     1     -10.890   6.362  71.974  1.00  0.00    -0.238 F  
HETATM   36  F   UNL     1     -10.405   5.655  73.973  1.00  0.00    -0.197 F  
HETATM   37  C   UNL     1      -8.700   5.665  72.384  1.00  0.00    -0.128 C  
HETATM   38  C   UNL     1      -7.531   5.797  73.357  1.00  0.00    -0.095 C  
ENDBRANCH  29  31
ENDBRANCH  20  27
ENDBRANCH  18  19
ENDBRANCH  17  18
ENDBRANCH   8  10
TORSDOF 6
ENDMDL
MODEL      220
REMARK 921   NORMALIZED FREE ENERGY PREDICTED BY IDOCK:   -2.52 KCAL/MOL
REMARK 922        TOTAL FREE ENERGY PREDICTED BY IDOCK:   -4.95 KCAL/MOL
REMARK 923 INTER-LIGAND FREE ENERGY PREDICTED BY IDOCK:   -4.00 KCAL/MOL
REMARK 924 INTRA-LIGAND FREE ENERGY PREDICTED BY IDOCK:   -0.95 KCAL/MOL
REMARK 927      BINDING AFFINITY PREDICTED BY RF-SCORE:    0.00 PKD
ROOT
HETATM    1  C   UNL     1     -10.547   8.465  67.789  1.00  0.00    -0.238 C  
HETATM    2  C   UNL     1      -9.693   7.190  67.903  1.00  0.00    -0.156 C  
HETATM    3  C   UNL     1      -8.573   7.203  66.906  1.00  0.00    -0.124 A  
HETATM    4  C   UNL     1     -10.552   5.946  67.637  1.00  0.00    -0.335 C  
HETATM    5  N   UNL     1      -8.762   7.001  65.620  1.00  0.00    -0.111 NA 
HETATM    6  N   UNL     1      -7.566   6.691  65.072  1.00  0.00    -0.092 NA 
HETATM    7  C   UNL     1      -6.634   6.805  65.994  1.00  0.00    -0.051 A  
HETATM    8  N   UNL     1      -7.209   7.253  67.170  1.00  0.00    -0.090 NA 
HETATM    9  C   UNL     1      -5.221   6.484  65.710  1.00  0.00    -0.017 C  
ENDROOT
BRANCH   8  10
HETATM   10  C   UNL     1      -6.607   7.588  68.478  1.00  0.00    -0.049 C  
HETATM   11  C   UNL     1      -5.804   8.907  68.573  1.00  0.00    -0.042 C  
HETATM   12  C   UNL     1      -6.122   9.869  69.733  1.00  0.00    -0.045 C  
HETATM   13  C   UNL     1      -5.299   9.406  70.934  1.00  0.00    -0.035 C  
HETATM   14  C   UNL     1      -6.166   8.306  71.524  1.00  0.00    -0.041 C  
HETATM   15  C   UNL     1      -7.529   8.434  70.783  1.00  0.00    -0.065 C  
HETATM   16  C   UNL     1      -7.608   7.392  69.657  1.00  0.00    -0.095 C  
HETATM   17  N   UNL     1      -7.502   9.813  70.271  1.00  0.00    -0.156 NA 
BRANCH  17  18
HETATM   18  C   UNL     1      -8.585  10.308  69.349  1.00  0.00    -0.156 C  
BRANCH  18  19
HETATM   19  C   UNL     1      -9.354  11.669  69.673  1.00  0.00     1.235 C  
HETATM   20  C   UNL     1      -9.493  12.879  68.600  1.00  0.00     0.004 C  
BRANCH  20  21
HETATM   21  C   UNL     1      -8.599  14.143  68.407  1.00  0.00    -0.176 A  
HETATM   22  C   UNL     1      -7.013  16.543  68.268  1.00  0.00    -0.143 A  
HETATM   23  C   UNL     1      -7.871  14.662  69.526  1.00  0.00     0.028 A  
HETATM   24  C   UNL     1      -7.726  16.066  67.160  1.00  0.00    -0.242 A  
HETATM   25  C   UNL     1      -8.510  14.891  67.229  1.00  0.00    -0.229 A  
HETATM   26  C   UNL     1      -7.090  15.835  69.462  1.00  0.00    -0.190 A  
ENDBRANCH  20  21
BRANCH  20  27
HETATM   27  N   UNL     1      -9.866  12.355  67.294  1.00  0.00    -0.205 N  
HETATM   28  H   UNL     1      -9.148  12.126  66.608  1.00  0.00     0.000 HD 
HETATM   29  C   UNL     1     -11.190  12.173  66.993  1.00  0.00    -0.314 C  
HETATM   30  O   UNL     1     -12.080  12.502  67.776  1.00  0.00    -0.409 OA 
BRANCH  29  31
HETATM   31  C   UNL     1     -11.507  11.658  65.596  1.00  0.00    -0.171 C  
HETATM   32  C   UNL     1     -13.029  13.520  64.860  1.00  0.00    -0.151 C  
HETATM   33  C   UNL     1     -12.895  12.014  65.054  1.00  0.00     0.680 C  
HETATM   34  C   UNL     1     -11.926  14.091  63.985  1.00  0.00    -0.354 C  
HETATM   35  F   UNL     1     -12.019  15.441  63.959  1.00  0.00    -0.401 F  
HETATM   36  F   UNL     1     -12.108  13.664  62.708  1.00  0.00    -0.363 F  
HETATM   37  C   UNL     1     -10.536  13.700  64.428  1.00  0.00    -0.360 C  
HETATM   38  C   UNL     1     -10.440  12.189  64.632  1.00  0.00    -0.336 C  
ENDBRANCH  29  31
ENDBRANCH  20  27
ENDBRANCH  18  19
ENDBRANCH  17  18
ENDBRANCH   8  10
TORSDOF 6
ENDMDL
MODEL      221
REMARK 921   NORMALIZED FREE ENERGY PREDICTED BY IDOCK:   -2.51 KCAL/MOL
REMARK 922        TOTAL FREE ENERGY PREDICTED BY IDOCK:   -4.94 KCAL/MOL
REMARK 923 INTER-LIGAND FREE ENERGY PREDICTED BY IDOCK:   -3.97 KCAL/MOL
REMARK 924 INTRA-LIGAND FREE ENERGY PREDICTED BY IDOCK:   -0.97 KCAL/MOL
REMARK 927      BINDING AFFINITY PREDICTED BY RF-SCORE:    0.00 PKD
ROOT
HETATM    1  C   UNL     1      -9.681  10.194  64.463  1.00  0.00    -0.361 C  
HETATM    2  C   UNL     1      -8.650   9.063  64.309  1.00  0.00    -0.171 C  
HETATM    3  C   UNL     1      -7.595   9.151  65.370  1.00  0.00    -0.097 A  
HETATM    4  C   UNL     1      -7.958   9.152  62.942  1.00  0.00    -0.142 C  
HETATM    5  N   UNL     1      -6.645  10.062  65.357  1.00  0.00    -0.103 NA 
HETATM    6  N   UNL     1      -5.664   9.647  66.189  1.00  0.00    -0.052 NA 
HETATM    7  C   UNL     1      -6.054   8.541  66.787  1.00  0.00    -0.054 A  
HETATM    8  N   UNL     1      -7.344   8.239  66.390  1.00  0.00    -0.079 NA 
HETATM    9  C   UNL     1      -5.173   7.817  67.726  1.00  0.00    -0.031 C  
ENDROOT
BRANCH   8  10
HETATM   10  C   UNL     1      -8.254   7.146  66.795  1.00  0.00    -0.114 C  
HETATM   11  C   UNL     1      -8.750   7.143  68.261  1.00  0.00    -0.128 C  
HETATM   12  C   UNL     1     -10.262   6.987  68.515  1.00  0.00    -0.172 C  
HETATM   13  C   UNL     1     -10.558   5.488  68.523  1.00  0.00    -0.208 C  
HETATM   14  C   UNL     1     -10.710   5.173  67.044  1.00  0.00    -0.103 C  
HETATM   15  C   UNL     1     -10.772   6.565  66.347  1.00  0.00     0.166 C  
HETATM   16  C   UNL     1      -9.395   6.912  65.760  1.00  0.00     0.158 C  
HETATM   17  N   UNL     1     -11.160   7.469  67.440  1.00  0.00    -0.069 NA 
BRANCH  17  18
HETATM   18  C   UNL     1     -11.186   8.960  67.227  1.00  0.00     0.752 C  
BRANCH  18  19
HETATM   19  C   UNL     1     -10.206   9.905  68.059  1.00  0.00    -0.219 C  
HETATM   20  C   UNL     1     -10.740  11.067  69.059  1.00  0.00    -0.219 C  
BRANCH  20  21
HETATM   21  C   UNL     1     -10.979  12.584  68.782  1.00  0.00    -0.294 A  
HETATM   22  C   UNL     1     -11.646  15.349  68.338  1.00  0.00    -0.368 A  
HETATM   23  C   UNL     1     -11.864  13.318  69.636  1.00  0.00    -0.391 A  
HETATM   24  C   UNL     1     -10.788  14.651  67.478  1.00  0.00    -0.286 A  
HETATM   25  C   UNL     1     -10.464  13.292  67.692  1.00  0.00    -0.231 A  
HETATM   26  C   UNL     1     -12.191  14.674  69.424  1.00  0.00    -0.270 A  
ENDBRANCH  20  21
BRANCH  20  27
HETATM   27  N   UNL     1     -11.821  10.558  69.891  1.00  0.00    -0.340 N  
HETATM   28  H   UNL     1     -12.791  10.675  69.601  1.00  0.00     0.000 HD 
HETATM   29  C   UNL     1     -11.525   9.920  71.067  1.00  0.00    -0.388 C  
HETATM   30  O   UNL     1     -10.368   9.823  71.473  1.00  0.00    -0.049 OA 
BRANCH  29  31
HETATM   31  C   UNL     1     -12.707   9.450  71.902  1.00  0.00    -0.484 C  
HETATM   32  C   UNL     1     -13.026   7.192  70.841  1.00  0.00    -0.132 C  
HETATM   33  C   UNL     1     -13.694   8.516  71.194  1.00  0.00    -0.069 C  
HETATM   34  C   UNL     1     -12.394   6.522  72.050  1.00  0.00    -0.260 C  
HETATM   35  F   UNL     1     -11.705   5.426  71.655  1.00  0.00    -0.124 F  
HETATM   36  F   UNL     1     -13.378   6.084  72.879  1.00  0.00     0.275 F  
HETATM   37  C   UNL     1     -11.475   7.428  72.834  1.00  0.00    -0.269 C  
HETATM   38  C   UNL     1     -12.166   8.751  73.155  1.00  0.00     0.960 C  
ENDBRANCH  29  31
ENDBRANCH  20  27
ENDBRANCH  18  19
ENDBRANCH  17  18
ENDBRANCH   8  10
TORSDOF 6
ENDMDL
MODEL      222
REMARK 921   NORMALIZED FREE ENERGY PREDICTED BY IDOCK:   -2.48 KCAL/MOL
REMARK 922        TOTAL FREE ENERGY PREDICTED BY IDOCK:   -4.89 KCAL/MOL
REMARK 923 INTER-LIGAND FREE ENERGY PREDICTED BY IDOCK:   -5.61 KCAL/MOL
REMARK 924 INTRA-LIGAND FREE ENERGY PREDICTED BY IDOCK:    0.72 KCAL/MOL
REMARK 927      BINDING AFFINITY PREDICTED BY RF-SCORE:    0.00 PKD
ROOT
HETATM    1  C   UNL     1     -11.609  10.221  70.092  1.00  0.00    -0.376 C  
HETATM    2  C   UNL     1     -11.306   9.177  71.181  1.00  0.00    -0.392 C  
HETATM    3  C   UNL     1     -11.205   7.802  70.593  1.00  0.00    -0.268 A  
HETATM    4  C   UNL     1     -12.423   9.163  72.234  1.00  0.00    -0.403 C  
HETATM    5  N   UNL     1     -12.255   7.122  70.187  1.00  0.00     0.048 NA 
HETATM    6  N   UNL     1     -11.891   5.824  70.085  1.00  0.00     0.662 NA 
HETATM    7  C   UNL     1     -10.601   5.724  70.325  1.00  0.00    -0.299 A  
HETATM    8  N   UNL     1     -10.079   6.988  70.539  1.00  0.00    -0.191 NA 
HETATM    9  C   UNL     1      -9.914   4.417  70.335  1.00  0.00    -0.253 C  
ENDROOT
BRANCH   8  10
HETATM   10  C   UNL     1      -8.693   7.434  70.797  1.00  0.00    -0.145 C  
HETATM   11  C   UNL     1      -7.678   7.307  69.636  1.00  0.00    -0.105 C  
HETATM   12  C   UNL     1      -6.818   8.536  69.285  1.00  0.00    -0.050 C  
HETATM   13  C   UNL     1      -5.603   8.507  70.210  1.00  0.00    -0.021 C  
HETATM   14  C   UNL     1      -6.135   9.161  71.475  1.00  0.00    -0.076 C  
HETATM   15  C   UNL     1      -7.512   9.760  71.062  1.00  0.00     0.340 C  
HETATM   16  C   UNL     1      -8.642   8.820  71.509  1.00  0.00    -0.253 C  
HETATM   17  N   UNL     1      -7.408   9.859  69.599  1.00  0.00    -0.098 NA 
BRANCH  17  18
HETATM   18  C   UNL     1      -8.603  10.256  68.772  1.00  0.00    -0.139 C  
BRANCH  18  19
HETATM   19  C   UNL     1      -8.642   9.929  67.210  1.00  0.00    -0.125 C  
HETATM   20  C   UNL     1      -8.902  11.062  66.078  1.00  0.00    -0.191 C  
BRANCH  20  21
HETATM   21  C   UNL     1     -10.237  11.500  65.399  1.00  0.00    -0.311 A  
HETATM   22  C   UNL     1     -12.575  12.351  63.949  1.00  0.00    -0.528 A  
HETATM   23  C   UNL     1     -10.452  11.191  64.017  1.00  0.00    -0.447 A  
HETATM   24  C   UNL     1     -12.384  12.680  65.298  1.00  0.00    -0.528 A  
HETATM   25  C   UNL     1     -11.234  12.268  66.010  1.00  0.00    -0.375 A  
HETATM   26  C   UNL     1     -11.598  11.602  63.304  1.00  0.00    -0.246 A  
ENDBRANCH  20  21
BRANCH  20  27
HETATM   27  N   UNL     1      -8.098  12.245  66.355  1.00  0.00    -0.379 N  
HETATM   28  H   UNL     1      -7.262  12.437  65.805  1.00  0.00     0.000 HD 
HETATM   29  C   UNL     1      -8.475  13.096  67.359  1.00  0.00    -0.201 C  
HETATM   30  O   UNL     1      -9.442  12.855  68.080  1.00  0.00    -0.210 OA 
BRANCH  29  31
HETATM   31  C   UNL     1      -7.566  14.290  67.617  1.00  0.00    -0.191 C  
HETATM   32  C   UNL     1      -7.656  14.280  70.130  1.00  0.00     0.721 C  
HETATM   33  C   UNL     1      -7.883  15.111  68.871  1.00  0.00    -0.164 C  
HETATM   34  C   UNL     1      -6.258  13.688  70.188  1.00  0.00    -0.095 C  
HETATM   35  F   UNL     1      -6.160  12.858  71.253  1.00  0.00    -0.051 F  
HETATM   36  F   UNL     1      -5.361  14.689  70.393  1.00  0.00    -0.100 F  
HETATM   37  C   UNL     1      -5.863  12.939  68.939  1.00  0.00    -0.075 C  
HETATM   38  C   UNL     1      -6.120  13.789  67.696  1.00  0.00    -0.096 C  
ENDBRANCH  29  31
ENDBRANCH  20  27
ENDBRANCH  18  19
ENDBRANCH  17  18
ENDBRANCH   8  10
TORSDOF 6
ENDMDL
MODEL      223
REMARK 921   NORMALIZED FREE ENERGY PREDICTED BY IDOCK:   -2.36 KCAL/MOL
REMARK 922        TOTAL FREE ENERGY PREDICTED BY IDOCK:   -4.73 KCAL/MOL
REMARK 923 INTER-LIGAND FREE ENERGY PREDICTED BY IDOCK:   -4.09 KCAL/MOL
REMARK 924 INTRA-LIGAND FREE ENERGY PREDICTED BY IDOCK:   -0.64 KCAL/MOL
REMARK 927      BINDING AFFINITY PREDICTED BY RF-SCORE:    0.00 PKD
ROOT
HETATM    1  C   UNL     1      -7.717  13.178  66.771  1.00  0.00     0.431 C  
HETATM    2  C   UNL     1      -8.874  14.152  67.056  1.00  0.00    -0.237 C  
HETATM    3  C   UNL     1     -10.009  13.929  66.102  1.00  0.00    -0.310 A  
HETATM    4  C   UNL     1      -8.401  15.604  66.901  1.00  0.00    -0.287 C  
HETATM    5  N   UNL     1      -9.963  14.300  64.841  1.00  0.00    -0.229 NA 
HETATM    6  N   UNL     1     -11.230  14.322  64.371  1.00  0.00    -0.304 NA 
HETATM    7  C   UNL     1     -12.038  13.866  65.305  1.00  0.00    -0.410 A  
HETATM    8  N   UNL     1     -11.290  13.481  66.404  1.00  0.00    -0.308 NA 
HETATM    9  C   UNL     1     -13.500  13.813  65.107  1.00  0.00     0.682 C  
ENDROOT
BRANCH   8  10
HETATM   10  C   UNL     1     -11.696  12.866  67.687  1.00  0.00    -0.370 C  
HETATM   11  C   UNL     1     -12.245  11.421  67.639  1.00  0.00     0.602 C  
HETATM   12  C   UNL     1     -11.654  10.387  68.616  1.00  0.00    -0.101 C  
HETATM   13  C   UNL     1     -12.426  10.523  69.928  1.00  0.00    -0.190 C  
HETATM   14  C   UNL     1     -11.710  11.675  70.614  1.00  0.00    -0.065 C  
HETATM   15  C   UNL     1     -10.423  11.903  69.768  1.00  0.00     0.745 C  
HETATM   16  C   UNL     1     -10.635  13.084  68.808  1.00  0.00    -0.218 C  
HETATM   17  N   UNL     1     -10.259  10.626  69.058  1.00  0.00    -0.206 NA 
BRANCH  17  18
HETATM   18  C   UNL     1      -9.201  10.469  67.998  1.00  0.00    -0.142 C  
BRANCH  18  19
HETATM   19  C   UNL     1      -9.460   9.522  66.740  1.00  0.00    -0.217 C  
HETATM   20  C   UNL     1      -8.583   8.189  66.444  1.00  0.00    -0.139 C  
BRANCH  20  21
HETATM   21  C   UNL     1      -7.318   8.010  65.547  1.00  0.00    -0.075 A  
HETATM   22  C   UNL     1      -5.129   7.691  63.705  1.00  0.00    -0.033 A  
HETATM   23  C   UNL     1      -7.243   8.707  64.298  1.00  0.00    -0.094 A  
HETATM   24  C   UNL     1      -5.183   6.985  64.914  1.00  0.00    -0.028 A  
HETATM   25  C   UNL     1      -6.260   7.137  65.817  1.00  0.00    -0.037 A  
HETATM   26  C   UNL     1      -6.171   8.557  63.395  1.00  0.00    -0.081 A  
ENDBRANCH  20  21
BRANCH  20  27
HETATM   27  N   UNL     1      -8.414   7.415  67.666  1.00  0.00    -0.120 N  
HETATM   28  H   UNL     1      -7.481   7.246  68.042  1.00  0.00     0.000 HD 
HETATM   29  C   UNL     1      -9.517   6.917  68.307  1.00  0.00    -0.126 C  
HETATM   30  O   UNL     1     -10.648   7.050  67.842  1.00  0.00    -0.197 OA 
BRANCH  29  31
HETATM   31  C   UNL     1      -9.261   6.086  69.556  1.00  0.00    -0.145 C  
HETATM   32  C   UNL     1      -9.756   7.853  71.276  1.00  0.00    -0.187 C  
HETATM   33  C   UNL     1      -8.723   6.854  70.769  1.00  0.00    -0.145 C  
HETATM   34  C   UNL     1     -11.095   7.200  71.578  1.00  0.00    -0.239 C  
HETATM   35  F   UNL     1     -12.005   8.151  71.894  1.00  0.00    -0.286 F  
HETATM   36  F   UNL     1     -10.963   6.409  72.676  1.00  0.00    -0.231 F  
HETATM   37  C   UNL     1     -11.630   6.360  70.443  1.00  0.00    -0.440 C  
HETATM   38  C   UNL     1     -10.567   5.384  69.946  1.00  0.00    -0.351 C  
ENDBRANCH  29  31
ENDBRANCH  20  27
ENDBRANCH  18  19
ENDBRANCH  17  18
ENDBRANCH   8  10
TORSDOF 6
ENDMDL
MODEL      224
REMARK 921   NORMALIZED FREE ENERGY PREDICTED BY IDOCK:   -2.35 KCAL/MOL
REMARK 922        TOTAL FREE ENERGY PREDICTED BY IDOCK:   -4.72 KCAL/MOL
REMARK 923 INTER-LIGAND FREE ENERGY PREDICTED BY IDOCK:   -4.84 KCAL/MOL
REMARK 924 INTRA-LIGAND FREE ENERGY PREDICTED BY IDOCK:    0.12 KCAL/MOL
REMARK 927      BINDING AFFINITY PREDICTED BY RF-SCORE:    0.00 PKD
ROOT
HETATM    1  C   UNL     1      -9.304   5.283  72.936  1.00  0.00    -0.147 C  
HETATM    2  C   UNL     1     -10.127   4.540  71.869  1.00  0.00    -0.258 C  
HETATM    3  C   UNL     1     -10.645   5.490  70.832  1.00  0.00    -0.239 A  
HETATM    4  C   UNL     1     -11.330   3.838  72.514  1.00  0.00     0.527 C  
HETATM    5  N   UNL     1     -11.636   6.325  71.061  1.00  0.00    -0.313 NA 
HETATM    6  N   UNL     1     -12.109   6.742  69.866  1.00  0.00    -0.069 NA 
HETATM    7  C   UNL     1     -11.347   6.250  68.912  1.00  0.00    -0.186 A  
HETATM    8  N   UNL     1     -10.310   5.532  69.483  1.00  0.00    -0.262 NA 
HETATM    9  C   UNL     1     -11.639   6.491  67.485  1.00  0.00     0.514 C  
ENDROOT
BRANCH   8  10
HETATM   10  C   UNL     1      -9.164   4.828  68.868  1.00  0.00    -0.124 C  
HETATM   11  C   UNL     1      -9.307   4.393  67.390  1.00  0.00    -0.178 C  
HETATM   12  C   UNL     1      -8.171   4.752  66.414  1.00  0.00    -0.107 C  
HETATM   13  C   UNL     1      -7.122   3.647  66.527  1.00  0.00    -0.063 C  
HETATM   14  C   UNL     1      -6.309   4.086  67.734  1.00  0.00    -0.037 C  
HETATM   15  C   UNL     1      -6.784   5.540  68.025  1.00  0.00    -0.055 C  
HETATM   16  C   UNL     1      -7.807   5.531  69.173  1.00  0.00    -0.091 C  
HETATM   17  N   UNL     1      -7.378   5.959  66.748  1.00  0.00    -0.078 NA 
BRANCH  17  18
HETATM   18  C   UNL     1      -8.108   7.273  66.637  1.00  0.00    -0.113 C  
BRANCH  18  19
HETATM   19  C   UNL     1      -8.675   7.988  67.946  1.00  0.00    -0.128 C  
HETATM   20  C   UNL     1      -8.374   9.543  68.302  1.00  0.00    -0.118 C  
BRANCH  20  21
HETATM   21  C   UNL     1      -7.250  10.158  69.193  1.00  0.00    -0.081 A  
HETATM   22  C   UNL     1      -5.225  11.126  70.996  1.00  0.00    -0.114 A  
HETATM   23  C   UNL     1      -6.421   9.289  69.973  1.00  0.00    -0.049 A  
HETATM   24  C   UNL     1      -6.031  12.001  70.256  1.00  0.00    -0.143 A  
HETATM   25  C   UNL     1      -7.029  11.527  69.374  1.00  0.00    -0.071 A  
HETATM   26  C   UNL     1      -5.425   9.758  70.854  1.00  0.00    -0.065 A  
ENDBRANCH  20  21
BRANCH  20  27
HETATM   27  N   UNL     1      -8.554  10.374  67.121  1.00  0.00    -0.129 N  
HETATM   28  H   UNL     1      -7.893  10.318  66.347  1.00  0.00     0.000 HD 
HETATM   29  C   UNL     1      -9.620  11.233  67.057  1.00  0.00    -0.178 C  
HETATM   30  O   UNL     1     -10.396  11.368  68.001  1.00  0.00    -0.176 OA 
BRANCH  29  31
HETATM   31  C   UNL     1      -9.723  12.098  65.809  1.00  0.00    -0.245 C  
HETATM   32  C   UNL     1     -12.156  12.709  65.991  1.00  0.00    -0.429 C  
HETATM   33  C   UNL     1     -11.083  12.089  65.103  1.00  0.00    -0.369 C  
HETATM   34  C   UNL     1     -11.782  14.104  66.463  1.00  0.00    -0.397 C  
HETATM   35  F   UNL     1     -12.704  14.546  67.350  1.00  0.00    -0.170 F  
HETATM   36  F   UNL     1     -11.822  14.955  65.405  1.00  0.00    -0.350 F  
HETATM   37  C   UNL     1     -10.412  14.184  67.093  1.00  0.00    -0.270 C  
HETATM   38  C   UNL     1      -9.364  13.539  66.188  1.00  0.00    -0.082 C  
ENDBRANCH  29  31
ENDBRANCH  20  27
ENDBRANCH  18  19
ENDBRANCH  17  18
ENDBRANCH   8  10
TORSDOF 6
ENDMDL
MODEL      225
REMARK 921   NORMALIZED FREE ENERGY PREDICTED BY IDOCK:   -2.35 KCAL/MOL
REMARK 922        TOTAL FREE ENERGY PREDICTED BY IDOCK:   -4.71 KCAL/MOL
REMARK 923 INTER-LIGAND FREE ENERGY PREDICTED BY IDOCK:   -4.43 KCAL/MOL
REMARK 924 INTRA-LIGAND FREE ENERGY PREDICTED BY IDOCK:   -0.28 KCAL/MOL
REMARK 927      BINDING AFFINITY PREDICTED BY RF-SCORE:    0.00 PKD
ROOT
HETATM    1  C   UNL     1      -9.121   4.676  67.708  1.00  0.00    -0.136 C  
HETATM    2  C   UNL     1      -7.753   4.850  68.390  1.00  0.00    -0.082 C  
HETATM    3  C   UNL     1      -7.473   6.295  68.672  1.00  0.00    -0.088 A  
HETATM    4  C   UNL     1      -6.632   4.317  67.487  1.00  0.00    -0.046 C  
HETATM    5  N   UNL     1      -7.150   7.156  67.731  1.00  0.00    -0.083 NA 
HETATM    6  N   UNL     1      -6.596   8.233  68.329  1.00  0.00    -0.059 NA 
HETATM    7  C   UNL     1      -6.675   8.082  69.634  1.00  0.00    -0.038 A  
HETATM    8  N   UNL     1      -7.344   6.903  69.916  1.00  0.00    -0.086 NA 
HETATM    9  C   UNL     1      -6.108   9.078  70.566  1.00  0.00    -0.040 C  
ENDROOT
BRANCH   8  10
HETATM   10  C   UNL     1      -7.737   6.295  71.205  1.00  0.00    -0.103 C  
HETATM   11  C   UNL     1      -7.163   6.931  72.494  1.00  0.00    -0.081 C  
HETATM   12  C   UNL     1      -8.143   7.269  73.634  1.00  0.00    -0.118 C  
HETATM   13  C   UNL     1      -8.315   5.999  74.464  1.00  0.00    -0.116 C  
HETATM   14  C   UNL     1      -9.381   5.241  73.690  1.00  0.00    -0.133 C  
HETATM   15  C   UNL     1      -9.924   6.268  72.653  1.00  0.00    -0.172 C  
HETATM   16  C   UNL     1      -9.269   6.020  71.285  1.00  0.00    -0.156 C  
HETATM   17  N   UNL     1      -9.539   7.563  73.233  1.00  0.00    -0.229 NA 
BRANCH  17  18
HETATM   18  C   UNL     1      -9.743   8.839  72.460  1.00  0.00    -0.056 C  
BRANCH  18  19
HETATM   19  C   UNL     1     -11.069   9.051  71.597  1.00  0.00    -0.433 C  
HETATM   20  C   UNL     1     -11.172  10.129  70.388  1.00  0.00    -0.330 C  
BRANCH  20  21
HETATM   21  C   UNL     1     -11.683  11.603  70.412  1.00  0.00    -0.292 A  
HETATM   22  C   UNL     1     -12.846  14.236  70.459  1.00  0.00    -0.336 A  
HETATM   23  C   UNL     1     -12.844  11.927  71.184  1.00  0.00    -0.346 A  
HETATM   24  C   UNL     1     -11.717  13.944  69.683  1.00  0.00    -0.370 A  
HETATM   25  C   UNL     1     -11.148  12.650  69.654  1.00  0.00     0.030 A  
HETATM   26  C   UNL     1     -13.415  13.217  71.213  1.00  0.00    -0.048 A  
ENDBRANCH  20  21
BRANCH  20  27
HETATM   27  N   UNL     1      -9.992  10.047  69.539  1.00  0.00    -0.216 N  
HETATM   28  H   UNL     1      -9.082  10.336  69.895  1.00  0.00     0.000 HD 
HETATM   29  C   UNL     1     -10.114   9.579  68.257  1.00  0.00    -0.183 C  
HETATM   30  O   UNL     1     -11.209   9.285  67.781  1.00  0.00     0.007 OA 
BRANCH  29  31
HETATM   31  C   UNL     1      -8.846   9.558  67.416  1.00  0.00    -0.134 C  
HETATM   32  C   UNL     1      -9.742  10.731  65.380  1.00  0.00    -0.297 C  
HETATM   33  C   UNL     1      -9.054   9.474  65.900  1.00  0.00    -0.230 C  
HETATM   34  C   UNL     1      -9.003  12.000  65.773  1.00  0.00     0.101 C  
HETATM   35  F   UNL     1      -9.728  13.081  65.401  1.00  0.00    -0.247 F  
HETATM   36  F   UNL     1      -7.832  12.061  65.085  1.00  0.00     1.010 F  
HETATM   37  C   UNL     1      -8.698  12.092  67.248  1.00  0.00    -0.182 C  
HETATM   38  C   UNL     1      -8.028  10.812  67.742  1.00  0.00    -0.110 C  
ENDBRANCH  29  31
ENDBRANCH  20  27
ENDBRANCH  18  19
ENDBRANCH  17  18
ENDBRANCH   8  10
TORSDOF 6
ENDMDL
MODEL      226
REMARK 921   NORMALIZED FREE ENERGY PREDICTED BY IDOCK:   -2.31 KCAL/MOL
REMARK 922        TOTAL FREE ENERGY PREDICTED BY IDOCK:   -4.66 KCAL/MOL
REMARK 923 INTER-LIGAND FREE ENERGY PREDICTED BY IDOCK:   -3.33 KCAL/MOL
REMARK 924 INTRA-LIGAND FREE ENERGY PREDICTED BY IDOCK:   -1.33 KCAL/MOL
REMARK 927      BINDING AFFINITY PREDICTED BY RF-SCORE:    0.00 PKD
ROOT
HETATM    1  C   UNL     1      -7.958   9.357  65.125  1.00  0.00    -0.116 C  
HETATM    2  C   UNL     1      -8.235   8.161  64.196  1.00  0.00    -0.083 C  
HETATM    3  C   UNL     1      -7.083   7.203  64.196  1.00  0.00    -0.063 A  
HETATM    4  C   UNL     1      -8.454   8.643  62.755  1.00  0.00    -0.143 C  
HETATM    5  N   UNL     1      -5.945   7.457  63.584  1.00  0.00    -0.048 NA 
HETATM    6  N   UNL     1      -5.287   6.286  63.436  1.00  0.00    -0.018 NA 
HETATM    7  C   UNL     1      -5.965   5.337  64.046  1.00  0.00    -0.021 A  
HETATM    8  N   UNL     1      -7.073   5.893  64.661  1.00  0.00    -0.058 NA 
HETATM    9  C   UNL     1      -5.521   3.929  64.021  1.00  0.00    -0.013 C  
ENDROOT
BRANCH   8  10
HETATM   10  C   UNL     1      -8.123   5.283  65.506  1.00  0.00    -0.119 C  
HETATM   11  C   UNL     1      -7.916   3.813  65.942  1.00  0.00    -0.093 C  
HETATM   12  C   UNL     1      -8.087   3.468  67.434  1.00  0.00    -0.082 C  
HETATM   13  C   UNL     1      -9.576   3.216  67.665  1.00  0.00    -0.105 C  
HETATM   14  C   UNL     1     -10.121   4.621  67.863  1.00  0.00    -0.085 C  
HETATM   15  C   UNL     1      -8.858   5.519  68.012  1.00  0.00    -0.105 C  
HETATM   16  C   UNL     1      -8.556   6.216  66.676  1.00  0.00    -0.118 C  
HETATM   17  N   UNL     1      -7.810   4.561  68.395  1.00  0.00    -0.079 NA 
BRANCH  17  18
HETATM   18  C   UNL     1      -6.372   4.998  68.493  1.00  0.00    -0.036 C  
BRANCH  18  19
HETATM   19  C   UNL     1      -5.999   6.376  69.208  1.00  0.00    -0.021 C  
HETATM   20  C   UNL     1      -7.063   7.228  70.088  1.00  0.00    -0.065 C  
BRANCH  20  21
HETATM   21  C   UNL     1      -7.991   8.407  69.657  1.00  0.00    -0.106 A  
HETATM   22  C   UNL     1      -9.562  10.725  68.989  1.00  0.00    -0.193 A  
HETATM   23  C   UNL     1      -7.412   9.690  69.392  1.00  0.00    -0.093 A  
HETATM   24  C   UNL     1     -10.156   9.484  69.258  1.00  0.00    -0.203 A  
HETATM   25  C   UNL     1      -9.386   8.347  69.592  1.00  0.00    -0.161 A  
HETATM   26  C   UNL     1      -8.178  10.827  69.060  1.00  0.00    -0.139 A  
ENDBRANCH  20  21
BRANCH  20  27
HETATM   27  N   UNL     1      -7.799   6.346  70.983  1.00  0.00    -0.108 N  
HETATM   28  H   UNL     1      -8.731   6.019  70.731  1.00  0.00     0.000 HD 
HETATM   29  C   UNL     1      -7.228   5.957  72.166  1.00  0.00    -0.089 C  
HETATM   30  O   UNL     1      -6.133   6.387  72.525  1.00  0.00    -0.041 OA 
BRANCH  29  31
HETATM   31  C   UNL     1      -8.071   5.066  73.068  1.00  0.00    -0.105 C  
HETATM   32  C   UNL     1      -9.233   3.734  71.280  1.00  0.00    -0.197 C  
HETATM   33  C   UNL     1      -9.425   4.630  72.498  1.00  0.00    -0.169 C  
HETATM   34  C   UNL     1      -8.341   2.539  71.574  1.00  0.00    -0.062 C  
HETATM   35  F   UNL     1      -8.100   1.858  70.429  1.00  0.00    -0.042 F  
HETATM   36  F   UNL     1      -9.002   1.687  72.402  1.00  0.00    -0.064 F  
HETATM   37  C   UNL     1      -7.026   2.908  72.216  1.00  0.00    -0.027 C  
HETATM   38  C   UNL     1      -7.250   3.820  73.420  1.00  0.00    -0.063 C  
ENDBRANCH  29  31
ENDBRANCH  20  27
ENDBRANCH  18  19
ENDBRANCH  17  18
ENDBRANCH   8  10
TORSDOF 6
ENDMDL
MODEL      227
REMARK 921   NORMALIZED FREE ENERGY PREDICTED BY IDOCK:   -2.29 KCAL/MOL
REMARK 922        TOTAL FREE ENERGY PREDICTED BY IDOCK:   -4.63 KCAL/MOL
REMARK 923 INTER-LIGAND FREE ENERGY PREDICTED BY IDOCK:   -4.48 KCAL/MOL
REMARK 924 INTRA-LIGAND FREE ENERGY PREDICTED BY IDOCK:   -0.15 KCAL/MOL
REMARK 927      BINDING AFFINITY PREDICTED BY RF-SCORE:    0.00 PKD
ROOT
HETATM    1  C   UNL     1      -9.617  14.008  65.781  1.00  0.00    -0.138 C  
HETATM    2  C   UNL     1      -9.261  13.975  67.278  1.00  0.00    -0.231 C  
HETATM    3  C   UNL     1      -9.987  12.866  67.978  1.00  0.00    -0.236 A  
HETATM    4  C   UNL     1      -9.652  15.298  67.950  1.00  0.00    -0.199 C  
HETATM    5  N   UNL     1     -11.274  12.918  68.251  1.00  0.00    -0.251 NA 
HETATM    6  N   UNL     1     -11.532  11.988  69.197  1.00  0.00    -0.277 NA 
HETATM    7  C   UNL     1     -10.434  11.298  69.425  1.00  0.00    -0.050 A  
HETATM    8  N   UNL     1      -9.434  11.740  68.577  1.00  0.00    -0.190 NA 
HETATM    9  C   UNL     1     -10.387  10.234  70.449  1.00  0.00    -0.069 C  
ENDROOT
BRANCH   8  10
HETATM   10  C   UNL     1      -8.042  11.276  68.393  1.00  0.00    -0.143 C  
HETATM   11  C   UNL     1      -7.382  10.527  69.575  1.00  0.00    -0.148 C  
HETATM   12  C   UNL     1      -6.683   9.185  69.284  1.00  0.00    -0.049 C  
HETATM   13  C   UNL     1      -5.260   9.513  68.836  1.00  0.00    -0.037 C  
HETATM   14  C   UNL     1      -5.441   9.812  67.356  1.00  0.00    -0.035 C  
HETATM   15  C   UNL     1      -6.893   9.351  67.033  1.00  0.00    -0.084 C  
HETATM   16  C   UNL     1      -7.832  10.567  67.022  1.00  0.00    -0.114 C  
HETATM   17  N   UNL     1      -7.197   8.416  68.126  1.00  0.00    -0.089 NA 
BRANCH  17  18
HETATM   18  C   UNL     1      -8.583   7.846  68.282  1.00  0.00    -0.124 C  
BRANCH  18  19
HETATM   19  C   UNL     1      -9.504   7.615  67.000  1.00  0.00    -0.209 C  
HETATM   20  C   UNL     1      -8.948   7.741  65.480  1.00  0.00     0.062 C  
BRANCH  20  21
HETATM   21  C   UNL     1      -8.963   8.967  64.515  1.00  0.00     0.001 A  
HETATM   22  C   UNL     1      -9.228  11.222  62.744  1.00  0.00    -0.354 A  
HETATM   23  C   UNL     1      -9.961   9.979  64.687  1.00  0.00    -0.206 A  
HETATM   24  C   UNL     1      -8.250  10.238  62.543  1.00  0.00    -0.176 A  
HETATM   25  C   UNL     1      -8.122   9.128  63.408  1.00  0.00    -0.162 A  
HETATM   26  C   UNL     1     -10.092  11.088  63.824  1.00  0.00    -0.420 A  
ENDBRANCH  20  21
BRANCH  20  27
HETATM   27  N   UNL     1      -7.673   7.049  65.351  1.00  0.00    -0.103 N  
HETATM   28  H   UNL     1      -6.818   7.575  65.173  1.00  0.00     0.000 HD 
HETATM   29  C   UNL     1      -7.631   5.685  65.472  1.00  0.00    -0.083 C  
HETATM   30  O   UNL     1      -8.654   5.020  65.622  1.00  0.00    -0.125 OA 
BRANCH  29  31
HETATM   31  C   UNL     1      -6.271   5.027  65.288  1.00  0.00    -0.034 C  
HETATM   32  C   UNL     1      -7.064   2.727  64.649  1.00  0.00    -0.050 C  
HETATM   33  C   UNL     1      -6.204   3.532  65.617  1.00  0.00    -0.031 C  
HETATM   34  C   UNL     1      -6.705   2.995  63.197  1.00  0.00    -0.027 C  
HETATM   35  F   UNL     1      -7.585   2.360  62.387  1.00  0.00    -0.037 F  
HETATM   36  F   UNL     1      -5.483   2.461  62.937  1.00  0.00    -0.006 F  
HETATM   37  C   UNL     1      -6.674   4.461  62.840  1.00  0.00    -0.031 C  
HETATM   38  C   UNL     1      -5.822   5.242  63.838  1.00  0.00    -0.017 C  
ENDBRANCH  29  31
ENDBRANCH  20  27
ENDBRANCH  18  19
ENDBRANCH  17  18
ENDBRANCH   8  10
TORSDOF 6
ENDMDL
MODEL      228
REMARK 921   NORMALIZED FREE ENERGY PREDICTED BY IDOCK:   -2.24 KCAL/MOL
REMARK 922        TOTAL FREE ENERGY PREDICTED BY IDOCK:   -4.56 KCAL/MOL
REMARK 923 INTER-LIGAND FREE ENERGY PREDICTED BY IDOCK:   -4.02 KCAL/MOL
REMARK 924 INTRA-LIGAND FREE ENERGY PREDICTED BY IDOCK:   -0.54 KCAL/MOL
REMARK 927      BINDING AFFINITY PREDICTED BY RF-SCORE:    0.00 PKD
ROOT
HETATM    1  C   UNL     1     -11.076   8.111  67.572  1.00  0.00     0.304 C  
HETATM    2  C   UNL     1     -10.099   6.933  67.728  1.00  0.00    -0.199 C  
HETATM    3  C   UNL     1      -8.988   7.020  66.726  1.00  0.00    -0.132 A  
HETATM    4  C   UNL     1     -10.829   5.600  67.513  1.00  0.00    -0.189 C  
HETATM    5  N   UNL     1      -9.157   6.753  65.448  1.00  0.00     0.191 NA 
HETATM    6  N   UNL     1      -7.938   6.543  64.905  1.00  0.00    -0.121 NA 
HETATM    7  C   UNL     1      -7.020   6.783  65.817  1.00  0.00    -0.064 A  
HETATM    8  N   UNL     1      -7.635   7.215  66.979  1.00  0.00    -0.097 NA 
HETATM    9  C   UNL     1      -5.582   6.595  65.537  1.00  0.00    -0.029 C  
ENDROOT
BRANCH   8  10
HETATM   10  C   UNL     1      -7.067   7.657  68.271  1.00  0.00    -0.080 C  
HETATM   11  C   UNL     1      -6.091   8.858  68.244  1.00  0.00    -0.053 C  
HETATM   12  C   UNL     1      -6.336  10.014  69.232  1.00  0.00    -0.045 C  
HETATM   13  C   UNL     1      -5.656   9.628  70.545  1.00  0.00    -0.048 C  
HETATM   14  C   UNL     1      -6.702   8.751  71.213  1.00  0.00    -0.078 C  
HETATM   15  C   UNL     1      -7.989   8.948  70.359  1.00  0.00    -0.117 C  
HETATM   16  C   UNL     1      -8.151   7.771  69.385  1.00  0.00    -0.126 C  
HETATM   17  N   UNL     1      -7.738  10.220  69.666  1.00  0.00    -0.157 NA 
BRANCH  17  18
HETATM   18  C   UNL     1      -8.685  10.713  68.603  1.00  0.00    -0.148 C  
BRANCH  18  19
HETATM   19  C   UNL     1     -10.221  10.970  68.955  1.00  0.00    -0.218 C  
HETATM   20  C   UNL     1     -10.993  12.347  68.578  1.00  0.00    -0.245 C  
BRANCH  20  21
HETATM   21  C   UNL     1     -11.213  13.630  69.438  1.00  0.00    -0.252 A  
HETATM   22  C   UNL     1     -11.852  15.967  70.994  1.00  0.00    -0.468 A  
HETATM   23  C   UNL     1     -12.335  13.691  70.327  1.00  0.00    -0.392 A  
HETATM   24  C   UNL     1     -10.755  15.940  70.122  1.00  0.00    -0.338 A  
HETATM   25  C   UNL     1     -10.444  14.795  69.353  1.00  0.00    -0.210 A  
HETATM   26  C   UNL     1     -12.649  14.833  71.094  1.00  0.00    -0.407 A  
ENDBRANCH  20  21
BRANCH  20  27
HETATM   27  N   UNL     1     -10.688  12.738  67.209  1.00  0.00    -0.235 N  
HETATM   28  H   UNL     1      -9.726  12.718  66.871  1.00  0.00     0.000 HD 
HETATM   29  C   UNL     1     -11.703  13.132  66.378  1.00  0.00    -0.379 C  
HETATM   30  O   UNL     1     -12.862  13.228  66.777  1.00  0.00     0.039 OA 
BRANCH  29  31
HETATM   31  C   UNL     1     -11.305  13.563  64.974  1.00  0.00    -0.334 C  
HETATM   32  C   UNL     1     -12.290  15.877  65.010  1.00  0.00     0.923 C  
HETATM   33  C   UNL     1     -12.261  14.539  64.280  1.00  0.00    -0.441 C  
HETATM   34  C   UNL     1     -10.904  16.477  65.175  1.00  0.00    -0.233 C  
HETATM   35  F   UNL     1     -10.978  17.589  65.943  1.00  0.00    -0.237 F  
HETATM   36  F   UNL     1     -10.446  16.874  63.959  1.00  0.00     1.057 F  
HETATM   37  C   UNL     1      -9.899  15.525  65.779  1.00  0.00    -0.392 C  
HETATM   38  C   UNL     1      -9.907  14.190  65.038  1.00  0.00    -0.064 C  
ENDBRANCH  29  31
ENDBRANCH  20  27
ENDBRANCH  18  19
ENDBRANCH  17  18
ENDBRANCH   8  10
TORSDOF 6
ENDMDL
MODEL      229
REMARK 921   NORMALIZED FREE ENERGY PREDICTED BY IDOCK:   -2.23 KCAL/MOL
REMARK 922        TOTAL FREE ENERGY PREDICTED BY IDOCK:   -4.55 KCAL/MOL
REMARK 923 INTER-LIGAND FREE ENERGY PREDICTED BY IDOCK:   -5.81 KCAL/MOL
REMARK 924 INTRA-LIGAND FREE ENERGY PREDICTED BY IDOCK:    1.25 KCAL/MOL
REMARK 927      BINDING AFFINITY PREDICTED BY RF-SCORE:    0.00 PKD
ROOT
HETATM    1  C   UNL     1     -10.506  10.107  70.542  1.00  0.00    -0.173 C  
HETATM    2  C   UNL     1     -10.224   9.742  69.074  1.00  0.00    -0.214 C  
HETATM    3  C   UNL     1     -10.650  10.846  68.155  1.00  0.00    -0.198 A  
HETATM    4  C   UNL     1     -10.994   8.473  68.682  1.00  0.00     0.131 C  
HETATM    5  N   UNL     1     -11.913  11.101  67.883  1.00  0.00    -0.620 NA 
HETATM    6  N   UNL     1     -11.949  11.859  66.765  1.00  0.00    -0.583 NA 
HETATM    7  C   UNL     1     -10.716  12.156  66.413  1.00  0.00    -0.257 A  
HETATM    8  N   UNL     1      -9.838  11.631  67.344  1.00  0.00    -0.183 NA 
HETATM    9  C   UNL     1     -10.426  12.938  65.194  1.00  0.00    -0.326 C  
ENDROOT
BRANCH   8  10
HETATM   10  C   UNL     1      -8.365  11.716  67.445  1.00  0.00    -0.152 C  
HETATM   11  C   UNL     1      -7.774  12.263  68.766  1.00  0.00    -0.016 C  
HETATM   12  C   UNL     1      -6.654  11.456  69.450  1.00  0.00    -0.119 C  
HETATM   13  C   UNL     1      -5.338  11.888  68.806  1.00  0.00    -0.049 C  
HETATM   14  C   UNL     1      -5.283  11.026  67.556  1.00  0.00    -0.038 C  
HETATM   15  C   UNL     1      -6.421   9.981  67.744  1.00  0.00    -0.066 C  
HETATM   16  C   UNL     1      -7.662  10.416  66.949  1.00  0.00    -0.111 C  
HETATM   17  N   UNL     1      -6.651   9.995  69.196  1.00  0.00    -0.051 NA 
BRANCH  17  18
HETATM   18  C   UNL     1      -7.797   9.224  69.798  1.00  0.00    -0.100 C  
BRANCH  18  19
HETATM   19  C   UNL     1      -7.649   8.567  71.245  1.00  0.00    -0.115 C  
HETATM   20  C   UNL     1      -7.987   7.008  71.544  1.00  0.00    -0.103 C  
BRANCH  20  21
HETATM   21  C   UNL     1      -9.311   6.359  72.054  1.00  0.00    -0.151 A  
HETATM   22  C   UNL     1     -11.645   4.951  72.983  1.00  0.00    -0.284 A  
HETATM   23  C   UNL     1      -9.242   5.238  72.943  1.00  0.00    -0.137 A  
HETATM   24  C   UNL     1     -11.741   6.037  72.102  1.00  0.00    -0.335 A  
HETATM   25  C   UNL     1     -10.596   6.726  71.641  1.00  0.00    -0.239 A  
HETATM   26  C   UNL     1     -10.383   4.548  73.404  1.00  0.00    -0.241 A  
ENDBRANCH  20  21
BRANCH  20  27
HETATM   27  N   UNL     1      -7.408   6.160  70.513  1.00  0.00    -0.083 N  
HETATM   28  H   UNL     1      -6.431   5.873  70.571  1.00  0.00     0.000 HD 
HETATM   29  C   UNL     1      -8.184   5.749  69.462  1.00  0.00    -0.108 C  
HETATM   30  O   UNL     1      -9.346   6.132  69.331  1.00  0.00    -0.138 OA 
BRANCH  29  31
HETATM   31  C   UNL     1      -7.501   4.896  68.402  1.00  0.00    -0.074 C  
HETATM   32  C   UNL     1      -9.074   5.358  66.495  1.00  0.00    -0.135 C  
HETATM   33  C   UNL     1      -8.425   4.275  67.349  1.00  0.00    -0.099 C  
HETATM   34  C   UNL     1      -8.051   6.286  65.862  1.00  0.00    -0.123 C  
HETATM   35  F   UNL     1      -8.686   7.301  65.229  1.00  0.00    -0.132 F  
HETATM   36  F   UNL     1      -7.364   5.604  64.908  1.00  0.00    -0.063 F  
HETATM   37  C   UNL     1      -7.061   6.861  66.846  1.00  0.00    -0.075 C  
HETATM   38  C   UNL     1      -6.444   5.754  67.699  1.00  0.00    -0.047 C  
ENDBRANCH  29  31
ENDBRANCH  20  27
ENDBRANCH  18  19
ENDBRANCH  17  18
ENDBRANCH   8  10
TORSDOF 6
ENDMDL
MODEL      230
REMARK 921   NORMALIZED FREE ENERGY PREDICTED BY IDOCK:   -2.21 KCAL/MOL
REMARK 922        TOTAL FREE ENERGY PREDICTED BY IDOCK:   -4.52 KCAL/MOL
REMARK 923 INTER-LIGAND FREE ENERGY PREDICTED BY IDOCK:   -4.92 KCAL/MOL
REMARK 924 INTRA-LIGAND FREE ENERGY PREDICTED BY IDOCK:    0.40 KCAL/MOL
REMARK 927      BINDING AFFINITY PREDICTED BY RF-SCORE:    0.00 PKD
ROOT
HETATM    1  C   UNL     1     -10.230   9.780  68.317  1.00  0.00    -0.212 C  
HETATM    2  C   UNL     1     -10.335  10.023  69.833  1.00  0.00    -0.315 C  
HETATM    3  C   UNL     1     -10.694   8.759  70.555  1.00  0.00    -0.223 A  
HETATM    4  C   UNL     1     -11.420  11.066  70.133  1.00  0.00    -0.383 C  
HETATM    5  N   UNL     1     -11.901   8.237  70.521  1.00  0.00    -0.089 NA 
HETATM    6  N   UNL     1     -12.001   7.363  71.547  1.00  0.00    -0.292 NA 
HETATM    7  C   UNL     1     -10.831   7.271  72.142  1.00  0.00    -0.229 A  
HETATM    8  N   UNL     1      -9.914   8.058  71.468  1.00  0.00    -0.172 NA 
HETATM    9  C   UNL     1     -10.633   6.424  73.336  1.00  0.00    -0.298 C  
ENDROOT
BRANCH   8  10
HETATM   10  C   UNL     1      -8.467   8.270  71.690  1.00  0.00    -0.149 C  
HETATM   11  C   UNL     1      -7.575   7.010  71.804  1.00  0.00    -0.088 C  
HETATM   12  C   UNL     1      -6.295   6.948  70.950  1.00  0.00    -0.040 C  
HETATM   13  C   UNL     1      -5.200   7.666  71.737  1.00  0.00    -0.035 C  
HETATM   14  C   UNL     1      -5.440   9.124  71.383  1.00  0.00    -0.051 C  
HETATM   15  C   UNL     1      -6.462   9.084  70.209  1.00  0.00    -0.043 C  
HETATM   16  C   UNL     1      -7.877   9.357  70.743  1.00  0.00    -0.151 C  
HETATM   17  N   UNL     1      -6.314   7.719  69.684  1.00  0.00    -0.031 NA 
BRANCH  17  18
HETATM   18  C   UNL     1      -7.245   7.203  68.618  1.00  0.00    -0.094 C  
BRANCH  18  19
HETATM   19  C   UNL     1      -7.193   5.669  68.181  1.00  0.00    -0.072 C  
HETATM   20  C   UNL     1      -7.218   5.192  66.630  1.00  0.00    -0.081 C  
BRANCH  20  21
HETATM   21  C   UNL     1      -8.428   4.773  65.738  1.00  0.00    -0.119 A  
HETATM   22  C   UNL     1     -10.773   3.933  64.293  1.00  0.00    -0.218 A  
HETATM   23  C   UNL     1      -9.759   4.974  66.228  1.00  0.00    -0.195 A  
HETATM   24  C   UNL     1      -9.481   3.711  63.796  1.00  0.00    -0.137 A  
HETATM   25  C   UNL     1      -8.330   4.118  64.507  1.00  0.00    -0.104 A  
HETATM   26  C   UNL     1     -10.911   4.568  65.522  1.00  0.00    -0.085 A  
ENDBRANCH  20  21
BRANCH  20  27
HETATM   27  N   UNL     1      -6.302   6.002  65.839  1.00  0.00    -0.041 N  
HETATM   28  H   UNL     1      -5.333   5.710  65.715  1.00  0.00     0.000 HD 
HETATM   29  C   UNL     1      -6.752   7.160  65.262  1.00  0.00    -0.047 C  
HETATM   30  O   UNL     1      -7.896   7.571  65.448  1.00  0.00    -0.102 OA 
BRANCH  29  31
HETATM   31  C   UNL     1      -5.729   7.975  64.482  1.00  0.00    -0.045 C  
HETATM   32  C   UNL     1      -7.199   8.659  62.560  1.00  0.00    -0.097 C  
HETATM   33  C   UNL     1      -5.897   7.973  62.959  1.00  0.00    -0.064 C  
HETATM   34  C   UNL     1      -7.314  10.061  63.132  1.00  0.00    -0.134 C  
HETATM   35  F   UNL     1      -8.540  10.566  62.858  1.00  0.00    -0.152 F  
HETATM   36  F   UNL     1      -6.414  10.868  62.511  1.00  0.00    -0.148 F  
HETATM   37  C   UNL     1      -7.073  10.131  64.621  1.00  0.00    -0.124 C  
HETATM   38  C   UNL     1      -5.773   9.420  64.991  1.00  0.00    -0.062 C  
ENDBRANCH  29  31
ENDBRANCH  20  27
ENDBRANCH  18  19
ENDBRANCH  17  18
ENDBRANCH   8  10
TORSDOF 6
ENDMDL
MODEL      231
REMARK 921   NORMALIZED FREE ENERGY PREDICTED BY IDOCK:   -2.18 KCAL/MOL
REMARK 922        TOTAL FREE ENERGY PREDICTED BY IDOCK:   -4.49 KCAL/MOL
REMARK 923 INTER-LIGAND FREE ENERGY PREDICTED BY IDOCK:   -2.48 KCAL/MOL
REMARK 924 INTRA-LIGAND FREE ENERGY PREDICTED BY IDOCK:   -2.01 KCAL/MOL
REMARK 927      BINDING AFFINITY PREDICTED BY RF-SCORE:    0.00 PKD
ROOT
HETATM    1  C   UNL     1     -11.865   7.260  73.081  1.00  0.00     0.380 C  
HETATM    2  C   UNL     1     -11.232   6.055  72.362  1.00  0.00    -0.338 C  
HETATM    3  C   UNL     1     -11.038   6.341  70.904  1.00  0.00    -0.306 A  
HETATM    4  C   UNL     1     -12.137   4.822  72.489  1.00  0.00     0.619 C  
HETATM    5  N   UNL     1     -12.035   6.372  70.045  1.00  0.00    -0.183 NA 
HETATM    6  N   UNL     1     -11.513   6.263  68.803  1.00  0.00    -0.154 NA 
HETATM    7  C   UNL     1     -10.200   6.271  68.893  1.00  0.00    -0.181 A  
HETATM    8  N   UNL     1      -9.834   6.444  70.216  1.00  0.00    -0.167 NA 
HETATM    9  C   UNL     1      -9.341   6.118  67.701  1.00  0.00    -0.112 C  
ENDROOT
BRANCH   8  10
HETATM   10  C   UNL     1      -8.503   6.571  70.847  1.00  0.00    -0.134 C  
HETATM   11  C   UNL     1      -7.303   5.935  70.105  1.00  0.00    -0.077 C  
HETATM   12  C   UNL     1      -6.044   6.797  69.889  1.00  0.00    -0.027 C  
HETATM   13  C   UNL     1      -5.195   6.668  71.153  1.00  0.00    -0.023 C  
HETATM   14  C   UNL     1      -5.820   7.700  72.077  1.00  0.00    -0.036 C  
HETATM   15  C   UNL     1      -6.778   8.521  71.164  1.00  0.00    -0.061 C  
HETATM   16  C   UNL     1      -8.220   8.021  71.344  1.00  0.00    -0.127 C  
HETATM   17  N   UNL     1      -6.258   8.261  69.814  1.00  0.00    -0.032 NA 
BRANCH  17  18
HETATM   18  C   UNL     1      -7.001   8.753  68.599  1.00  0.00    -0.064 C  
BRANCH  18  19
HETATM   19  C   UNL     1      -6.197   9.206  67.297  1.00  0.00    -0.058 C  
HETATM   20  C   UNL     1      -6.798   9.062  65.796  1.00  0.00    -0.076 C  
BRANCH  20  21
HETATM   21  C   UNL     1      -6.621   7.908  64.761  1.00  0.00    -0.048 A  
HETATM   22  C   UNL     1      -6.197   5.939  62.703  1.00  0.00    -0.025 A  
HETATM   23  C   UNL     1      -5.457   7.892  63.925  1.00  0.00    -0.045 A  
HETATM   24  C   UNL     1      -7.352   5.939  63.497  1.00  0.00    -0.064 A  
HETATM   25  C   UNL     1      -7.564   6.908  64.504  1.00  0.00    -0.107 A  
HETATM   26  C   UNL     1      -5.244   6.927  62.919  1.00  0.00    -0.032 A  
ENDBRANCH  20  21
BRANCH  20  27
HETATM   27  N   UNL     1      -8.178   9.527  65.759  1.00  0.00    -0.114 N  
HETATM   28  H   UNL     1      -8.940   8.894  65.998  1.00  0.00     0.000 HD 
HETATM   29  C   UNL     1      -8.444  10.822  65.400  1.00  0.00    -0.132 C  
HETATM   30  O   UNL     1      -7.550  11.588  65.043  1.00  0.00     0.871 OA 
BRANCH  29  31
HETATM   31  C   UNL     1      -9.910  11.226  65.346  1.00  0.00    -0.281 C  
HETATM   32  C   UNL     1     -10.596  10.413  67.624  1.00  0.00    -0.304 C  
HETATM   33  C   UNL     1     -10.877  10.332  66.128  1.00  0.00     0.052 C  
HETATM   34  C   UNL     1     -10.615  11.842  68.141  1.00  0.00    -0.203 C  
HETATM   35  F   UNL     1     -10.229  11.862  69.438  1.00  0.00    -0.070 F  
HETATM   36  F   UNL     1     -11.892  12.307  68.108  1.00  0.00    -0.349 F  
HETATM   37  C   UNL     1      -9.741  12.785  67.350  1.00  0.00    -0.197 C  
HETATM   38  C   UNL     1     -10.034  12.666  65.855  1.00  0.00    -0.274 C  
ENDBRANCH  29  31
ENDBRANCH  20  27
ENDBRANCH  18  19
ENDBRANCH  17  18
ENDBRANCH   8  10
TORSDOF 6
ENDMDL
MODEL      232
REMARK 921   NORMALIZED FREE ENERGY PREDICTED BY IDOCK:   -2.05 KCAL/MOL
REMARK 922        TOTAL FREE ENERGY PREDICTED BY IDOCK:   -4.31 KCAL/MOL
REMARK 923 INTER-LIGAND FREE ENERGY PREDICTED BY IDOCK:   -3.65 KCAL/MOL
REMARK 924 INTRA-LIGAND FREE ENERGY PREDICTED BY IDOCK:   -0.66 KCAL/MOL
REMARK 927      BINDING AFFINITY PREDICTED BY RF-SCORE:    0.00 PKD
ROOT
HETATM    1  C   UNL     1      -7.804  15.986  66.373  1.00  0.00    -0.127 C  
HETATM    2  C   UNL     1      -8.250  16.077  67.844  1.00  0.00    -0.154 C  
HETATM    3  C   UNL     1      -9.572  15.402  68.046  1.00  0.00    -0.206 A  
HETATM    4  C   UNL     1      -8.395  17.545  68.268  1.00  0.00    -0.265 C  
HETATM    5  N   UNL     1     -10.709  15.922  67.636  1.00  0.00    -0.308 NA 
HETATM    6  N   UNL     1     -11.710  15.296  68.292  1.00  0.00    -0.338 NA 
HETATM    7  C   UNL     1     -11.199  14.327  69.021  1.00  0.00    -0.266 A  
HETATM    8  N   UNL     1      -9.833  14.268  68.808  1.00  0.00    -0.217 NA 
HETATM    9  C   UNL     1     -12.043  13.487  69.895  1.00  0.00    -0.408 C  
ENDROOT
BRANCH   8  10
HETATM   10  C   UNL     1      -8.807  13.343  69.336  1.00  0.00     1.077 C  
HETATM   11  C   UNL     1      -9.101  11.827  69.240  1.00  0.00     0.587 C  
HETATM   12  C   UNL     1      -8.012  10.913  68.647  1.00  0.00    -0.140 C  
HETATM   13  C   UNL     1      -7.066  10.549  69.790  1.00  0.00    -0.150 C  
HETATM   14  C   UNL     1      -6.128  11.744  69.834  1.00  0.00    -0.151 C  
HETATM   15  C   UNL     1      -6.441  12.543  68.535  1.00  0.00    -0.073 C  
HETATM   16  C   UNL     1      -7.371  13.722  68.863  1.00  0.00    -0.076 C  
HETATM   17  N   UNL     1      -7.087  11.541  67.674  1.00  0.00    -0.092 NA 
BRANCH  17  18
HETATM   18  C   UNL     1      -7.697  11.943  66.356  1.00  0.00     0.203 C  
BRANCH  18  19
HETATM   19  C   UNL     1      -7.747  10.904  65.146  1.00  0.00     0.207 C  
HETATM   20  C   UNL     1      -8.953   9.835  64.951  1.00  0.00    -0.216 C  
BRANCH  20  21
HETATM   21  C   UNL     1      -9.054   8.353  65.428  1.00  0.00    -0.050 A  
HETATM   22  C   UNL     1      -9.274   5.557  66.080  1.00  0.00    -0.168 A  
HETATM   23  C   UNL     1      -8.508   7.316  64.605  1.00  0.00     0.144 A  
HETATM   24  C   UNL     1      -9.830   6.550  66.897  1.00  0.00    -0.211 A  
HETATM   25  C   UNL     1      -9.728   7.923  66.575  1.00  0.00    -0.279 A  
HETATM   26  C   UNL     1      -8.609   5.945  64.922  1.00  0.00    -0.037 A  
ENDBRANCH  20  21
BRANCH  20  27
HETATM   27  N   UNL     1     -10.240  10.487  65.146  1.00  0.00    -0.306 N  
HETATM   28  H   UNL     1     -10.686  10.480  66.063  1.00  0.00     0.000 HD 
HETATM   29  C   UNL     1     -10.848  11.110  64.089  1.00  0.00    -0.285 C  
HETATM   30  O   UNL     1     -10.366  11.078  62.958  1.00  0.00    -0.278 OA 
BRANCH  29  31
HETATM   31  C   UNL     1     -12.209  11.736  64.358  1.00  0.00    -0.168 C  
HETATM   32  C   UNL     1     -11.433  13.761  65.631  1.00  0.00    -0.318 C  
HETATM   33  C   UNL     1     -12.331  12.530  65.662  1.00  0.00    -0.296 C  
HETATM   34  C   UNL     1     -11.694  14.638  64.418  1.00  0.00    -0.346 C  
HETATM   35  F   UNL     1     -10.781  15.637  64.373  1.00  0.00    -0.364 F  
HETATM   36  F   UNL     1     -12.911  15.229  64.552  1.00  0.00    -0.263 F  
HETATM   37  C   UNL     1     -11.669  13.886  63.109  1.00  0.00     0.802 C  
HETATM   38  C   UNL     1     -12.563  12.650  63.179  1.00  0.00    -0.118 C  
ENDBRANCH  29  31
ENDBRANCH  20  27
ENDBRANCH  18  19
ENDBRANCH  17  18
ENDBRANCH   8  10
TORSDOF 6
ENDMDL
MODEL      233
REMARK 921   NORMALIZED FREE ENERGY PREDICTED BY IDOCK:   -2.05 KCAL/MOL
REMARK 922        TOTAL FREE ENERGY PREDICTED BY IDOCK:   -4.31 KCAL/MOL
REMARK 923 INTER-LIGAND FREE ENERGY PREDICTED BY IDOCK:   -3.98 KCAL/MOL
REMARK 924 INTRA-LIGAND FREE ENERGY PREDICTED BY IDOCK:   -0.34 KCAL/MOL
REMARK 927      BINDING AFFINITY PREDICTED BY RF-SCORE:    0.00 PKD
ROOT
HETATM    1  C   UNL     1     -13.464   9.597  72.189  1.00  0.00    -0.516 C  
HETATM    2  C   UNL     1     -12.030   9.096  71.946  1.00  0.00    -0.443 C  
HETATM    3  C   UNL     1     -11.979   8.163  70.774  1.00  0.00    -0.113 A  
HETATM    4  C   UNL     1     -11.512   8.340  73.178  1.00  0.00     0.319 C  
HETATM    5  N   UNL     1     -12.436   6.930  70.824  1.00  0.00    -0.294 NA 
HETATM    6  N   UNL     1     -11.906   6.251  69.783  1.00  0.00    -0.138 NA 
HETATM    7  C   UNL     1     -11.212   7.087  69.040  1.00  0.00     0.000 A  
HETATM    8  N   UNL     1     -11.324   8.363  69.564  1.00  0.00     0.175 NA 
HETATM    9  C   UNL     1     -10.469   6.631  67.848  1.00  0.00    -0.267 C  
ENDROOT
BRANCH   8  10
HETATM   10  C   UNL     1     -10.787   9.657  69.091  1.00  0.00    -0.190 C  
HETATM   11  C   UNL     1      -9.477  10.162  69.741  1.00  0.00    -0.201 C  
HETATM   12  C   UNL     1      -8.338  10.624  68.812  1.00  0.00    -0.144 C  
HETATM   13  C   UNL     1      -8.608  12.089  68.472  1.00  0.00    -0.093 C  
HETATM   14  C   UNL     1      -9.592  11.984  67.318  1.00  0.00    -0.185 C  
HETATM   15  C   UNL     1      -9.573  10.479  66.917  1.00  0.00    -0.175 C  
HETATM   16  C   UNL     1     -10.783   9.762  67.536  1.00  0.00    -0.327 C  
HETATM   17  N   UNL     1      -8.295  10.002  67.467  1.00  0.00    -0.118 NA 
BRANCH  17  18
HETATM   18  C   UNL     1      -7.946   8.537  67.434  1.00  0.00    -0.102 C  
BRANCH  18  19
HETATM   19  C   UNL     1      -6.905   7.937  68.484  1.00  0.00    -0.067 C  
HETATM   20  C   UNL     1      -6.997   6.417  69.046  1.00  0.00    -0.072 C  
BRANCH  20  21
HETATM   21  C   UNL     1      -7.683   5.876  70.339  1.00  0.00    -0.096 A  
HETATM   22  C   UNL     1      -8.931   4.659  72.631  1.00  0.00    -0.133 A  
HETATM   23  C   UNL     1      -7.268   4.613  70.874  1.00  0.00    -0.048 A  
HETATM   24  C   UNL     1      -9.367   5.889  72.121  1.00  0.00    -0.155 A  
HETATM   25  C   UNL     1      -8.759   6.485  70.992  1.00  0.00    -0.138 A  
HETATM   26  C   UNL     1      -7.874   4.015  71.999  1.00  0.00    -0.079 A  
ENDBRANCH  20  21
BRANCH  20  27
HETATM   27  N   UNL     1      -7.244   5.489  67.952  1.00  0.00    -0.071 N  
HETATM   28  H   UNL     1      -8.138   5.004  67.881  1.00  0.00     0.000 HD 
HETATM   29  C   UNL     1      -6.266   5.272  67.018  1.00  0.00    -0.031 C  
HETATM   30  O   UNL     1      -5.156   5.793  67.115  1.00  0.00    -0.004 OA 
BRANCH  29  31
HETATM   31  C   UNL     1      -6.580   4.261  65.925  1.00  0.00    -0.041 C  
HETATM   32  C   UNL     1      -8.076   2.740  67.256  1.00  0.00    -0.078 C  
HETATM   33  C   UNL     1      -6.820   2.823  66.396  1.00  0.00    -0.044 C  
HETATM   34  C   UNL     1      -9.297   3.307  66.552  1.00  0.00    -0.126 C  
HETATM   35  F   UNL     1     -10.346   3.329  67.407  1.00  0.00     0.347 F  
HETATM   36  F   UNL     1      -9.645   2.478  65.532  1.00  0.00    -0.107 F  
HETATM   37  C   UNL     1      -9.086   4.693  65.993  1.00  0.00    -0.131 C  
HETATM   38  C   UNL     1      -7.811   4.748  65.154  1.00  0.00    -0.091 C  
ENDBRANCH  29  31
ENDBRANCH  20  27
ENDBRANCH  18  19
ENDBRANCH  17  18
ENDBRANCH   8  10
TORSDOF 6
ENDMDL
MODEL      234
REMARK 921   NORMALIZED FREE ENERGY PREDICTED BY IDOCK:   -1.98 KCAL/MOL
REMARK 922        TOTAL FREE ENERGY PREDICTED BY IDOCK:   -4.21 KCAL/MOL
REMARK 923 INTER-LIGAND FREE ENERGY PREDICTED BY IDOCK:   -4.65 KCAL/MOL
REMARK 924 INTRA-LIGAND FREE ENERGY PREDICTED BY IDOCK:    0.43 KCAL/MOL
REMARK 927      BINDING AFFINITY PREDICTED BY RF-SCORE:    0.00 PKD
ROOT
HETATM    1  C   UNL     1     -11.626  13.934  66.292  1.00  0.00    -0.378 C  
HETATM    2  C   UNL     1     -11.382  13.832  67.807  1.00  0.00    -0.331 C  
HETATM    3  C   UNL     1     -11.376  12.402  68.255  1.00  0.00    -0.284 A  
HETATM    4  C   UNL     1     -12.488  14.567  68.578  1.00  0.00     0.166 C  
HETATM    5  N   UNL     1     -12.472  11.680  68.351  1.00  0.00    -0.072 NA 
HETATM    6  N   UNL     1     -12.195  10.610  69.127  1.00  0.00    -0.317 NA 
HETATM    7  C   UNL     1     -10.912  10.618  69.420  1.00  0.00    -0.255 A  
HETATM    8  N   UNL     1     -10.307  11.686  68.782  1.00  0.00    -0.214 NA 
HETATM    9  C   UNL     1     -10.311   9.595  70.300  1.00  0.00    -0.336 C  
ENDROOT
BRANCH   8  10
HETATM   10  C   UNL     1      -8.892  12.115  68.738  1.00  0.00     0.115 C  
HETATM   11  C   UNL     1      -7.820  11.068  69.122  1.00  0.00    -0.092 C  
HETATM   12  C   UNL     1      -6.624  10.871  68.172  1.00  0.00    -0.062 C  
HETATM   13  C   UNL     1      -5.580  11.921  68.548  1.00  0.00    -0.052 C  
HETATM   14  C   UNL     1      -6.060  13.149  67.793  1.00  0.00    -0.154 C  
HETATM   15  C   UNL     1      -7.163  12.618  66.831  1.00  0.00     0.219 C  
HETATM   16  C   UNL     1      -8.551  12.893  67.432  1.00  0.00    -0.195 C  
HETATM   17  N   UNL     1      -6.865  11.181  66.743  1.00  0.00    -0.125 NA 
BRANCH  17  18
HETATM   18  C   UNL     1      -7.801  10.247  66.020  1.00  0.00    -0.133 C  
BRANCH  18  19
HETATM   19  C   UNL     1      -8.964   9.501  66.818  1.00  0.00    -0.157 C  
HETATM   20  C   UNL     1      -8.834   7.969  67.337  1.00  0.00    -0.131 C  
BRANCH  20  21
HETATM   21  C   UNL     1      -9.289   6.644  66.650  1.00  0.00    -0.192 A  
HETATM   22  C   UNL     1     -10.020   4.276  65.184  1.00  0.00    -0.215 A  
HETATM   23  C   UNL     1      -8.414   6.009  65.710  1.00  0.00    -0.146 A  
HETATM   24  C   UNL     1     -10.902   4.885  66.087  1.00  0.00    -0.113 A  
HETATM   25  C   UNL     1     -10.546   6.051  66.803  1.00  0.00    -0.359 A  
HETATM   26  C   UNL     1      -8.767   4.846  64.993  1.00  0.00    -0.149 A  
ENDBRANCH  20  21
BRANCH  20  27
HETATM   27  N   UNL     1      -7.538   7.758  67.966  1.00  0.00    -0.117 N  
HETATM   28  H   UNL     1      -6.682   8.034  67.484  1.00  0.00     0.000 HD 
HETATM   29  C   UNL     1      -7.475   7.187  69.209  1.00  0.00    -0.093 C  
HETATM   30  O   UNL     1      -8.485   6.785  69.785  1.00  0.00    -0.130 OA 
BRANCH  29  31
HETATM   31  C   UNL     1      -6.085   6.962  69.787  1.00  0.00    -0.030 C  
HETATM   32  C   UNL     1      -6.642   7.301  72.216  1.00  0.00    -0.051 C  
HETATM   33  C   UNL     1      -5.757   7.751  71.059  1.00  0.00    -0.034 C  
HETATM   34  C   UNL     1      -6.567   5.802  72.454  1.00  0.00    -0.066 C  
HETATM   35  F   UNL     1      -7.469   5.445  73.398  1.00  0.00    -0.089 F  
HETATM   36  F   UNL     1      -5.340   5.494  72.952  1.00  0.00    -0.016 F  
HETATM   37  C   UNL     1      -6.800   4.978  71.210  1.00  0.00    -0.040 C  
HETATM   38  C   UNL     1      -5.913   5.465  70.066  1.00  0.00    -0.018 C  
ENDBRANCH  29  31
ENDBRANCH  20  27
ENDBRANCH  18  19
ENDBRANCH  17  18
ENDBRANCH   8  10
TORSDOF 6
ENDMDL
MODEL      235
REMARK 921   NORMALIZED FREE ENERGY PREDICTED BY IDOCK:   -1.85 KCAL/MOL
REMARK 922        TOTAL FREE ENERGY PREDICTED BY IDOCK:   -4.04 KCAL/MOL
REMARK 923 INTER-LIGAND FREE ENERGY PREDICTED BY IDOCK:   -3.95 KCAL/MOL
REMARK 924 INTRA-LIGAND FREE ENERGY PREDICTED BY IDOCK:   -0.09 KCAL/MOL
REMARK 927      BINDING AFFINITY PREDICTED BY RF-SCORE:    0.00 PKD
ROOT
HETATM    1  C   UNL     1      -5.670  11.088  68.324  1.00  0.00    -0.042 C  
HETATM    2  C   UNL     1      -7.050  10.436  68.129  1.00  0.00    -0.082 C  
HETATM    3  C   UNL     1      -7.855  11.181  67.108  1.00  0.00    -0.139 A  
HETATM    4  C   UNL     1      -7.834  10.441  69.449  1.00  0.00    -0.163 C  
HETATM    5  N   UNL     1      -8.406  12.352  67.349  1.00  0.00    -0.171 NA 
HETATM    6  N   UNL     1      -9.354  12.563  66.410  1.00  0.00    -0.231 NA 
HETATM    7  C   UNL     1      -9.314  11.579  65.537  1.00  0.00    -0.185 A  
HETATM    8  N   UNL     1      -8.282  10.718  65.868  1.00  0.00    -0.160 NA 
HETATM    9  C   UNL     1     -10.266  11.503  64.411  1.00  0.00    -0.350 C  
ENDROOT
BRANCH   8  10
HETATM   10  C   UNL     1      -7.783   9.499  65.197  1.00  0.00    -0.112 C  
HETATM   11  C   UNL     1      -6.812   8.597  65.996  1.00  0.00    -0.065 C  
HETATM   12  C   UNL     1      -7.111   7.087  66.060  1.00  0.00    -0.073 C  
HETATM   13  C   UNL     1      -6.497   6.459  64.810  1.00  0.00    -0.034 C  
HETATM   14  C   UNL     1      -7.573   6.691  63.762  1.00  0.00    -0.104 C  
HETATM   15  C   UNL     1      -8.816   7.172  64.569  1.00  0.00     0.673 C  
HETATM   16  C   UNL     1      -8.923   8.703  64.494  1.00  0.00     0.169 C  
HETATM   17  N   UNL     1      -8.534   6.695  65.931  1.00  0.00    -0.140 NA 
BRANCH  17  18
HETATM   18  C   UNL     1      -9.428   7.085  67.079  1.00  0.00    -0.149 C  
BRANCH  18  19
HETATM   19  C   UNL     1      -8.807   7.761  68.384  1.00  0.00    -0.130 C  
HETATM   20  C   UNL     1      -9.136   7.243  69.887  1.00  0.00    -0.141 C  
BRANCH  20  21
HETATM   21  C   UNL     1     -10.223   7.735  70.892  1.00  0.00    -0.207 A  
HETATM   22  C   UNL     1     -12.357   8.451  72.689  1.00  0.00    -0.278 A  
HETATM   23  C   UNL     1     -10.941   6.772  71.671  1.00  0.00    -0.267 A  
HETATM   24  C   UNL     1     -11.680   9.414  71.927  1.00  0.00    -0.376 A  
HETATM   25  C   UNL     1     -10.636   9.063  71.041  1.00  0.00    -0.341 A  
HETATM   26  C   UNL     1     -11.985   7.118  72.556  1.00  0.00    -0.112 A  
ENDBRANCH  20  21
BRANCH  20  27
HETATM   27  N   UNL     1      -9.053   5.791  69.949  1.00  0.00    -0.142 N  
HETATM   28  H   UNL     1      -9.766   5.216  69.502  1.00  0.00     0.000 HD 
HETATM   29  C   UNL     1      -8.008   5.202  70.612  1.00  0.00    -0.088 C  
HETATM   30  O   UNL     1      -7.170   5.870  71.215  1.00  0.00    -0.074 OA 
BRANCH  29  31
HETATM   31  C   UNL     1      -8.007   3.682  70.668  1.00  0.00    -0.055 C  
HETATM   32  C   UNL     1      -8.241   3.226  68.206  1.00  0.00    -0.088 C  
HETATM   33  C   UNL     1      -8.833   2.974  69.589  1.00  0.00    -0.147 C  
HETATM   34  C   UNL     1      -6.773   2.843  68.126  1.00  0.00    -0.040 C  
HETATM   35  F   UNL     1      -6.271   3.212  66.924  1.00  0.00    -0.023 F  
HETATM   36  F   UNL     1      -6.663   1.490  68.194  1.00  0.00    -0.030 F  
HETATM   37  C   UNL     1      -5.928   3.448  69.221  1.00  0.00    -0.024 C  
HETATM   38  C   UNL     1      -6.556   3.195  70.590  1.00  0.00    -0.032 C  
ENDBRANCH  29  31
ENDBRANCH  20  27
ENDBRANCH  18  19
ENDBRANCH  17  18
ENDBRANCH   8  10
TORSDOF 6
ENDMDL
MODEL      236
REMARK 921   NORMALIZED FREE ENERGY PREDICTED BY IDOCK:   -1.74 KCAL/MOL
REMARK 922        TOTAL FREE ENERGY PREDICTED BY IDOCK:   -3.89 KCAL/MOL
REMARK 923 INTER-LIGAND FREE ENERGY PREDICTED BY IDOCK:   -2.34 KCAL/MOL
REMARK 924 INTRA-LIGAND FREE ENERGY PREDICTED BY IDOCK:   -1.55 KCAL/MOL
REMARK 927      BINDING AFFINITY PREDICTED BY RF-SCORE:    0.00 PKD
ROOT
HETATM    1  C   UNL     1     -11.338  11.765  70.024  1.00  0.00    -0.130 C  
HETATM    2  C   UNL     1     -11.096  11.600  68.513  1.00  0.00    -0.286 C  
HETATM    3  C   UNL     1     -10.694  12.902  67.889  1.00  0.00    -0.220 A  
HETATM    4  C   UNL     1     -12.375  11.114  67.817  1.00  0.00     1.219 C  
HETATM    5  N   UNL     1     -11.545  13.885  67.679  1.00  0.00    -0.328 NA 
HETATM    6  N   UNL     1     -10.989  14.726  66.780  1.00  0.00    -0.321 NA 
HETATM    7  C   UNL     1      -9.764  14.321  66.519  1.00  0.00    -0.291 A  
HETATM    8  N   UNL     1      -9.474  13.216  67.300  1.00  0.00    -0.218 NA 
HETATM    9  C   UNL     1      -8.912  15.014  65.532  1.00  0.00     0.830 C  
ENDROOT
BRANCH   8  10
HETATM   10  C   UNL     1      -8.237  12.416  67.429  1.00  0.00    -0.180 C  
HETATM   11  C   UNL     1      -8.071  11.569  68.714  1.00  0.00    -0.093 C  
HETATM   12  C   UNL     1      -7.680  10.086  68.560  1.00  0.00    -0.089 C  
HETATM   13  C   UNL     1      -6.157  10.037  68.456  1.00  0.00    -0.045 C  
HETATM   14  C   UNL     1      -5.916  10.318  66.982  1.00  0.00    -0.051 C  
HETATM   15  C   UNL     1      -7.324  10.219  66.325  1.00  0.00    -0.118 C  
HETATM   16  C   UNL     1      -7.905  11.628  66.126  1.00  0.00     0.208 C  
HETATM   17  N   UNL     1      -8.092   9.428  67.298  1.00  0.00    -0.109 NA 
BRANCH  17  18
HETATM   18  C   UNL     1      -9.574   9.224  67.119  1.00  0.00    -0.159 C  
BRANCH  18  19
HETATM   19  C   UNL     1     -10.220   7.785  67.363  1.00  0.00    -0.320 C  
HETATM   20  C   UNL     1      -9.483   6.621  68.221  1.00  0.00    -0.123 C  
BRANCH  20  21
HETATM   21  C   UNL     1      -8.569   5.454  67.731  1.00  0.00    -0.104 A  
HETATM   22  C   UNL     1      -6.792   3.452  66.670  1.00  0.00    -0.053 A  
HETATM   23  C   UNL     1      -7.228   5.742  67.321  1.00  0.00    -0.076 A  
HETATM   24  C   UNL     1      -8.106   3.145  67.051  1.00  0.00    -0.079 A  
HETATM   25  C   UNL     1      -8.981   4.128  67.567  1.00  0.00    -0.142 A  
HETATM   26  C   UNL     1      -6.352   4.764  66.805  1.00  0.00    -0.037 A  
ENDBRANCH  20  21
BRANCH  20  27
HETATM   27  N   UNL     1      -8.932   7.173  69.451  1.00  0.00    -0.136 N  
HETATM   28  H   UNL     1      -8.208   7.889  69.413  1.00  0.00     0.000 HD 
HETATM   29  C   UNL     1      -9.396   6.723  70.658  1.00  0.00    -0.162 C  
HETATM   30  O   UNL     1     -10.222   5.814  70.733  1.00  0.00    -0.197 OA 
BRANCH  29  31
HETATM   31  C   UNL     1      -8.748   7.316  71.901  1.00  0.00    -0.124 C  
HETATM   32  C   UNL     1      -7.339   5.339  72.556  1.00  0.00    -0.094 C  
HETATM   33  C   UNL     1      -8.410   6.321  73.016  1.00  0.00    -0.117 C  
HETATM   34  C   UNL     1      -6.094   6.040  72.038  1.00  0.00    -0.041 C  
HETATM   35  F   UNL     1      -5.239   5.126  71.523  1.00  0.00    -0.004 F  
HETATM   36  F   UNL     1      -5.452   6.629  73.081  1.00  0.00    -0.036 F  
HETATM   37  C   UNL     1      -6.381   7.093  70.995  1.00  0.00    -0.036 C  
HETATM   38  C   UNL     1      -7.470   8.049  71.477  1.00  0.00    -0.076 C  
ENDBRANCH  29  31
ENDBRANCH  20  27
ENDBRANCH  18  19
ENDBRANCH  17  18
ENDBRANCH   8  10
TORSDOF 6
ENDMDL
MODEL      237
REMARK 921   NORMALIZED FREE ENERGY PREDICTED BY IDOCK:   -1.63 KCAL/MOL
REMARK 922        TOTAL FREE ENERGY PREDICTED BY IDOCK:   -3.74 KCAL/MOL
REMARK 923 INTER-LIGAND FREE ENERGY PREDICTED BY IDOCK:   -3.95 KCAL/MOL
REMARK 924 INTRA-LIGAND FREE ENERGY PREDICTED BY IDOCK:    0.21 KCAL/MOL
REMARK 927      BINDING AFFINITY PREDICTED BY RF-SCORE:    0.00 PKD
ROOT
HETATM    1  C   UNL     1      -5.252   7.754  69.007  1.00  0.00    -0.019 C  
HETATM    2  C   UNL     1      -6.475   8.634  69.321  1.00  0.00    -0.042 C  
HETATM    3  C   UNL     1      -6.830   9.498  68.149  1.00  0.00    -0.070 A  
HETATM    4  C   UNL     1      -6.180   9.551  70.516  1.00  0.00    -0.071 C  
HETATM    5  N   UNL     1      -6.122  10.550  67.799  1.00  0.00    -0.048 NA 
HETATM    6  N   UNL     1      -6.889  11.312  66.989  1.00  0.00    -0.116 NA 
HETATM    7  C   UNL     1      -8.021  10.682  66.759  1.00  0.00    -0.132 A  
HETATM    8  N   UNL     1      -7.990   9.447  67.384  1.00  0.00    -0.106 NA 
HETATM    9  C   UNL     1      -9.092  11.286  65.941  1.00  0.00    -0.217 C  
ENDROOT
BRANCH   8  10
HETATM   10  C   UNL     1      -8.973   8.343  67.401  1.00  0.00    -0.134 C  
HETATM   11  C   UNL     1      -8.420   6.899  67.343  1.00  0.00    -0.121 C  
HETATM   12  C   UNL     1      -8.936   5.882  68.378  1.00  0.00    -0.112 C  
HETATM   13  C   UNL     1     -10.231   5.295  67.818  1.00  0.00    -0.211 C  
HETATM   14  C   UNL     1     -11.266   6.331  68.226  1.00  0.00    -0.251 C  
HETATM   15  C   UNL     1     -10.520   7.265  69.224  1.00  0.00    -0.216 C  
HETATM   16  C   UNL     1     -10.063   8.540  68.498  1.00  0.00    -0.214 C  
HETATM   17  N   UNL     1      -9.390   6.439  69.674  1.00  0.00    -0.145 NA 
BRANCH  17  18
HETATM   18  C   UNL     1      -8.313   7.026  70.548  1.00  0.00    -0.132 C  
BRANCH  18  19
HETATM   19  C   UNL     1      -8.410   6.899  72.136  1.00  0.00    -0.105 C  
HETATM   20  C   UNL     1      -8.146   5.507  72.927  1.00  0.00    -0.108 C  
BRANCH  20  21
HETATM   21  C   UNL     1      -9.165   4.418  73.388  1.00  0.00    -0.119 A  
HETATM   22  C   UNL     1     -10.880   2.246  74.182  1.00  0.00    -0.226 A  
HETATM   23  C   UNL     1      -8.681   3.248  74.057  1.00  0.00    -0.080 A  
HETATM   24  C   UNL     1     -11.379   3.373  73.515  1.00  0.00    -0.228 A  
HETATM   25  C   UNL     1     -10.537   4.438  73.120  1.00  0.00    -0.272 A  
HETATM   26  C   UNL     1      -9.518   2.183  74.451  1.00  0.00    -0.102 A  
ENDBRANCH  20  21
BRANCH  20  27
HETATM   27  N   UNL     1      -6.951   4.854  72.413  1.00  0.00    -0.071 N  
HETATM   28  H   UNL     1      -6.037   5.069  72.810  1.00  0.00     0.000 HD 
HETATM   29  C   UNL     1      -7.063   3.947  71.392  1.00  0.00    -0.032 C  
HETATM   30  O   UNL     1      -8.143   3.717  70.851  1.00  0.00    -0.063 OA 
BRANCH  29  31
HETATM   31  C   UNL     1      -5.767   3.334  70.881  1.00  0.00    -0.013 C  
HETATM   32  C   UNL     1      -6.761   1.668  69.281  1.00  0.00    -0.029 C  
HETATM   33  C   UNL     1      -5.841   1.856  70.482  1.00  0.00    -0.018 C  
HETATM   34  C   UNL     1      -6.364   2.544  68.104  1.00  0.00    -0.029 C  
HETATM   35  F   UNL     1      -7.289   2.433  67.122  1.00  0.00    -0.053 F  
HETATM   36  F   UNL     1      -5.192   2.087  67.588  1.00  0.00    -0.010 F  
HETATM   37  C   UNL     1      -6.194   4.000  68.463  1.00  0.00    -0.032 C  
HETATM   38  C   UNL     1      -5.284   4.154  69.680  1.00  0.00    -0.007 C  
ENDBRANCH  29  31
ENDBRANCH  20  27
ENDBRANCH  18  19
ENDBRANCH  17  18
ENDBRANCH   8  10
TORSDOF 6
ENDMDL
MODEL      238
REMARK 921   NORMALIZED FREE ENERGY PREDICTED BY IDOCK:   -1.36 KCAL/MOL
REMARK 922        TOTAL FREE ENERGY PREDICTED BY IDOCK:   -3.37 KCAL/MOL
REMARK 923 INTER-LIGAND FREE ENERGY PREDICTED BY IDOCK:   -3.12 KCAL/MOL
REMARK 924 INTRA-LIGAND FREE ENERGY PREDICTED BY IDOCK:   -0.25 KCAL/MOL
REMARK 927      BINDING AFFINITY PREDICTED BY RF-SCORE:    0.00 PKD
ROOT
HETATM    1  C   UNL     1     -11.471  11.600  66.556  1.00  0.00    -0.260 C  
HETATM    2  C   UNL     1     -10.343  10.819  67.252  1.00  0.00    -0.262 C  
HETATM    3  C   UNL     1     -10.374   9.371  66.864  1.00  0.00    -0.238 A  
HETATM    4  C   UNL     1     -10.495  10.906  68.777  1.00  0.00    -0.224 C  
HETATM    5  N   UNL     1     -11.279   8.531  67.317  1.00  0.00     0.491 NA 
HETATM    6  N   UNL     1     -10.819   7.277  67.109  1.00  0.00    -0.339 NA 
HETATM    7  C   UNL     1      -9.688   7.345  66.439  1.00  0.00    -0.093 A  
HETATM    8  N   UNL     1      -9.412   8.669  66.145  1.00  0.00    -0.239 NA 
HETATM    9  C   UNL     1      -8.914   6.134  66.101  1.00  0.00    -0.164 C  
ENDROOT
BRANCH   8  10
HETATM   10  C   UNL     1      -8.306   9.283  65.380  1.00  0.00    -0.137 C  
HETATM   11  C   UNL     1      -7.457  10.359  66.098  1.00  0.00    -0.131 C  
HETATM   12  C   UNL     1      -5.923  10.223  66.052  1.00  0.00    -0.089 C  
HETATM   13  C   UNL     1      -5.458  10.877  64.752  1.00  0.00     0.046 C  
HETATM   14  C   UNL     1      -5.651   9.764  63.735  1.00  0.00    -0.087 C  
HETATM   15  C   UNL     1      -5.934   8.492  64.588  1.00  0.00    -0.064 C  
HETATM   16  C   UNL     1      -7.447   8.222  64.629  1.00  0.00    -0.099 C  
HETATM   17  N   UNL     1      -5.391   8.847  65.907  1.00  0.00    -0.036 NA 
BRANCH  17  18
HETATM   18  C   UNL     1      -5.598   7.938  67.090  1.00  0.00    -0.036 C  
BRANCH  18  19
HETATM   19  C   UNL     1      -6.765   8.237  68.138  1.00  0.00    -0.065 C  
HETATM   20  C   UNL     1      -6.507   8.987  69.554  1.00  0.00    -0.043 C  
BRANCH  20  21
HETATM   21  C   UNL     1      -6.227   8.380  70.964  1.00  0.00    -0.036 A  
HETATM   22  C   UNL     1      -5.527   7.407  73.582  1.00  0.00    -0.045 A  
HETATM   23  C   UNL     1      -5.750   9.233  72.010  1.00  0.00    -0.055 A  
HETATM   24  C   UNL     1      -5.979   6.546  72.572  1.00  0.00    -0.039 A  
HETATM   25  C   UNL     1      -6.318   7.022  71.285  1.00  0.00    -0.041 A  
HETATM   26  C   UNL     1      -5.410   8.762  73.295  1.00  0.00    -0.083 A  
ENDBRANCH  20  21
BRANCH  20  27
HETATM   27  N   UNL     1      -5.654  10.152  69.359  1.00  0.00    -0.038 N  
HETATM   28  H   UNL     1      -4.693  10.037  69.038  1.00  0.00     0.000 HD 
HETATM   29  C   UNL     1      -6.152  11.402  69.612  1.00  0.00    -0.110 C  
HETATM   30  O   UNL     1      -7.285  11.566  70.063  1.00  0.00     0.162 OA 
BRANCH  29  31
HETATM   31  C   UNL     1      -5.193  12.568  69.424  1.00  0.00    -0.071 C  
HETATM   32  C   UNL     1      -6.512  13.853  67.711  1.00  0.00    -0.178 C  
HETATM   33  C   UNL     1      -5.173  13.197  68.026  1.00  0.00    -0.104 C  
HETATM   34  C   UNL     1      -6.927  14.861  68.770  1.00  0.00    -0.109 C  
HETATM   35  F   UNL     1      -8.177  15.308  68.507  1.00  0.00    -0.128 F  
HETATM   36  F   UNL     1      -6.105  15.941  68.699  1.00  0.00    -0.097 F  
HETATM   37  C   UNL     1      -6.882  14.316  70.177  1.00  0.00     0.065 C  
HETATM   38  C   UNL     1      -5.537  13.649  70.455  1.00  0.00    -0.144 C  
ENDBRANCH  29  31
ENDBRANCH  20  27
ENDBRANCH  18  19
ENDBRANCH  17  18
ENDBRANCH   8  10
TORSDOF 6
ENDMDL
MODEL      239
REMARK 921   NORMALIZED FREE ENERGY PREDICTED BY IDOCK:   -1.02 KCAL/MOL
REMARK 922        TOTAL FREE ENERGY PREDICTED BY IDOCK:   -2.92 KCAL/MOL
REMARK 923 INTER-LIGAND FREE ENERGY PREDICTED BY IDOCK:   -3.33 KCAL/MOL
REMARK 924 INTRA-LIGAND FREE ENERGY PREDICTED BY IDOCK:    0.41 KCAL/MOL
REMARK 927      BINDING AFFINITY PREDICTED BY RF-SCORE:    0.00 PKD
ROOT
HETATM    1  C   UNL     1      -9.220  11.191  63.045  1.00  0.00    -0.329 C  
HETATM    2  C   UNL     1      -9.673  12.110  64.193  1.00  0.00    -0.089 C  
HETATM    3  C   UNL     1     -10.166  11.308  65.359  1.00  0.00    -0.270 A  
HETATM    4  C   UNL     1     -10.814  13.025  63.728  1.00  0.00    -0.266 C  
HETATM    5  N   UNL     1     -11.326  10.685  65.357  1.00  0.00     0.544 NA 
HETATM    6  N   UNL     1     -11.643  10.400  66.639  1.00  0.00     0.408 NA 
HETATM    7  C   UNL     1     -10.638  10.750  67.414  1.00  0.00    -0.242 A  
HETATM    8  N   UNL     1      -9.604  11.230  66.629  1.00  0.00    -0.192 NA 
HETATM    9  C   UNL     1     -10.705  10.605  68.882  1.00  0.00    -0.254 C  
ENDROOT
BRANCH   8  10
HETATM   10  C   UNL     1      -8.250  11.702  66.990  1.00  0.00    -0.170 C  
HETATM   11  C   UNL     1      -7.761  11.420  68.431  1.00  0.00    -0.127 C  
HETATM   12  C   UNL     1      -6.370  10.784  68.613  1.00  0.00    -0.050 C  
HETATM   13  C   UNL     1      -5.355  11.925  68.606  1.00  0.00    -0.049 C  
HETATM   14  C   UNL     1      -5.125  12.153  67.121  1.00  0.00    -0.076 C  
HETATM   15  C   UNL     1      -5.806  10.939  66.423  1.00  0.00    -0.123 C  
HETATM   16  C   UNL     1      -7.192  11.350  65.902  1.00  0.00     0.330 C  
HETATM   17  N   UNL     1      -5.885   9.938  67.497  1.00  0.00    -0.053 NA 
BRANCH  17  18
HETATM   18  C   UNL     1      -6.628   8.644  67.285  1.00  0.00    -0.058 C  
BRANCH  18  19
HETATM   19  C   UNL     1      -7.990   8.629  66.455  1.00  0.00    -0.099 C  
HETATM   20  C   UNL     1      -8.972   7.337  66.396  1.00  0.00    -0.158 C  
BRANCH  20  21
HETATM   21  C   UNL     1      -9.032   6.181  65.349  1.00  0.00     0.044 A  
HETATM   22  C   UNL     1      -9.161   3.898  63.600  1.00  0.00    -0.129 A  
HETATM   23  C   UNL     1      -9.880   5.055  65.600  1.00  0.00    -0.107 A  
HETATM   24  C   UNL     1      -8.311   4.980  63.337  1.00  0.00    -0.119 A  
HETATM   25  C   UNL     1      -8.243   6.100  64.198  1.00  0.00    -0.031 A  
HETATM   26  C   UNL     1      -9.950   3.936  64.744  1.00  0.00    -0.203 A  
ENDBRANCH  20  21
BRANCH  20  27
HETATM   27  N   UNL     1      -9.156   6.782  67.729  1.00  0.00    -0.118 N  
HETATM   28  H   UNL     1      -8.370   6.359  68.222  1.00  0.00     0.000 HD 
HETATM   29  C   UNL     1     -10.392   6.834  68.317  1.00  0.00    -0.187 C  
HETATM   30  O   UNL     1     -11.371   7.280  67.721  1.00  0.00     0.100 OA 
BRANCH  29  31
HETATM   31  C   UNL     1     -10.518   6.201  69.695  1.00  0.00    -0.312 C  
HETATM   32  C   UNL     1      -8.098   5.615  70.049  1.00  0.00    -0.106 C  
HETATM   33  C   UNL     1      -9.523   5.077  70.006  1.00  0.00    -0.231 C  
HETATM   34  C   UNL     1      -7.947   6.776  71.017  1.00  0.00    -0.103 C  
HETATM   35  F   UNL     1      -6.701   7.296  70.914  1.00  0.00    -0.045 F  
HETATM   36  F   UNL     1      -8.070   6.312  72.289  1.00  0.00    -0.106 F  
HETATM   37  C   UNL     1      -8.960   7.876  70.808  1.00  0.00    -0.141 C  
HETATM   38  C   UNL     1     -10.374   7.303  70.750  1.00  0.00    -0.212 C  
ENDBRANCH  29  31
ENDBRANCH  20  27
ENDBRANCH  18  19
ENDBRANCH  17  18
ENDBRANCH   8  10
TORSDOF 6
ENDMDL
MODEL      240
REMARK 921   NORMALIZED FREE ENERGY PREDICTED BY IDOCK:   -0.77 KCAL/MOL
REMARK 922        TOTAL FREE ENERGY PREDICTED BY IDOCK:   -2.58 KCAL/MOL
REMARK 923 INTER-LIGAND FREE ENERGY PREDICTED BY IDOCK:   -2.83 KCAL/MOL
REMARK 924 INTRA-LIGAND FREE ENERGY PREDICTED BY IDOCK:    0.24 KCAL/MOL
REMARK 927      BINDING AFFINITY PREDICTED BY RF-SCORE:    0.00 PKD
ROOT
HETATM    1  C   UNL     1      -5.951   7.790  64.492  1.00  0.00    -0.041 C  
HETATM    2  C   UNL     1      -6.778   6.632  63.906  1.00  0.00    -0.044 C  
HETATM    3  C   UNL     1      -6.249   5.308  64.368  1.00  0.00    -0.022 A  
HETATM    4  C   UNL     1      -6.723   6.657  62.373  1.00  0.00    -0.042 C  
HETATM    5  N   UNL     1      -5.132   4.786  63.907  1.00  0.00    -0.009 NA 
HETATM    6  N   UNL     1      -5.137   3.469  64.208  1.00  0.00    -0.008 NA 
HETATM    7  C   UNL     1      -6.198   3.204  64.939  1.00  0.00    -0.023 A  
HETATM    8  N   UNL     1      -6.890   4.378  65.179  1.00  0.00    -0.052 NA 
HETATM    9  C   UNL     1      -6.508   1.831  65.387  1.00  0.00    -0.023 C  
ENDROOT
BRANCH   8  10
HETATM   10  C   UNL     1      -8.108   4.641  65.975  1.00  0.00    -0.103 C  
HETATM   11  C   UNL     1      -8.307   3.809  67.265  1.00  0.00    -0.098 C  
HETATM   12  C   UNL     1      -8.647   4.558  68.567  1.00  0.00    -0.093 C  
HETATM   13  C   UNL     1     -10.163   4.751  68.585  1.00  0.00    -0.060 C  
HETATM   14  C   UNL     1     -10.346   6.003  67.743  1.00  0.00    -0.254 C  
HETATM   15  C   UNL     1      -8.908   6.572  67.560  1.00  0.00    -0.112 C  
HETATM   16  C   UNL     1      -8.361   6.165  66.183  1.00  0.00    -0.128 C  
HETATM   17  N   UNL     1      -8.161   5.955  68.665  1.00  0.00    -0.108 NA 
BRANCH  17  18
HETATM   18  C   UNL     1      -6.668   6.123  68.769  1.00  0.00    -0.061 C  
BRANCH  18  19
HETATM   19  C   UNL     1      -6.053   7.428  69.451  1.00  0.00    -0.031 C  
HETATM   20  C   UNL     1      -6.957   8.702  69.891  1.00  0.00    -0.043 C  
BRANCH  20  21
HETATM   21  C   UNL     1      -7.282  10.009  69.103  1.00  0.00    -0.076 A  
HETATM   22  C   UNL     1      -7.904  12.530  67.859  1.00  0.00    -0.144 A  
HETATM   23  C   UNL     1      -6.809  11.264  69.606  1.00  0.00    -0.095 A  
HETATM   24  C   UNL     1      -8.392  11.318  67.352  1.00  0.00    -0.137 A  
HETATM   25  C   UNL     1      -8.092  10.080  67.965  1.00  0.00    -0.112 A  
HETATM   26  C   UNL     1      -7.108  12.501  68.998  1.00  0.00    -0.037 A  
ENDBRANCH  20  21
BRANCH  20  27
HETATM   27  N   UNL     1      -8.156   8.253  70.585  1.00  0.00    -0.105 N  
HETATM   28  H   UNL     1      -9.012   8.068  70.064  1.00  0.00     0.000 HD 
HETATM   29  C   UNL     1      -8.124   8.083  71.943  1.00  0.00    -0.121 C  
HETATM   30  O   UNL     1      -7.126   8.361  72.605  1.00  0.00    -0.097 OA 
BRANCH  29  31
HETATM   31  C   UNL     1      -9.424   7.649  72.606  1.00  0.00    -0.230 C  
HETATM   32  C   UNL     1     -10.897   9.508  71.768  1.00  0.00    -0.083 C  
HETATM   33  C   UNL     1     -10.379   8.780  73.003  1.00  0.00     0.744 C  
HETATM   34  C   UNL     1     -11.538   8.563  70.765  1.00  0.00    -0.231 C  
HETATM   35  F   UNL     1     -11.855   9.243  69.638  1.00  0.00     0.017 F  
HETATM   36  F   UNL     1     -12.706   8.098  71.280  1.00  0.00    -0.312 F  
HETATM   37  C   UNL     1     -10.669   7.382  70.403  1.00  0.00    -0.250 C  
HETATM   38  C   UNL     1     -10.152   6.687  71.660  1.00  0.00    -0.201 C  
ENDBRANCH  29  31
ENDBRANCH  20  27
ENDBRANCH  18  19
ENDBRANCH  17  18
ENDBRANCH   8  10
TORSDOF 6
ENDMDL
MODEL      241
REMARK 921   NORMALIZED FREE ENERGY PREDICTED BY IDOCK:   -0.56 KCAL/MOL
REMARK 922        TOTAL FREE ENERGY PREDICTED BY IDOCK:   -2.29 KCAL/MOL
REMARK 923 INTER-LIGAND FREE ENERGY PREDICTED BY IDOCK:   -4.47 KCAL/MOL
REMARK 924 INTRA-LIGAND FREE ENERGY PREDICTED BY IDOCK:    2.18 KCAL/MOL
REMARK 927      BINDING AFFINITY PREDICTED BY RF-SCORE:    0.00 PKD
ROOT
HETATM    1  C   UNL     1      -5.610  11.176  68.970  1.00  0.00    -0.040 C  
HETATM    2  C   UNL     1      -6.880  10.404  68.573  1.00  0.00    -0.061 C  
HETATM    3  C   UNL     1      -7.135  10.512  67.100  1.00  0.00    -0.091 A  
HETATM    4  C   UNL     1      -8.102  10.969  69.310  1.00  0.00    -0.012 C  
HETATM    5  N   UNL     1      -7.586  11.611  66.533  1.00  0.00    -0.048 NA 
HETATM    6  N   UNL     1      -8.069  11.278  65.316  1.00  0.00     0.272 NA 
HETATM    7  C   UNL     1      -7.821  10.005  65.093  1.00  0.00    -0.136 A  
HETATM    8  N   UNL     1      -7.109   9.487  66.161  1.00  0.00    -0.091 NA 
HETATM    9  C   UNL     1      -8.272   9.332  63.858  1.00  0.00    -0.165 C  
ENDROOT
BRANCH   8  10
HETATM   10  C   UNL     1      -6.546   8.139  66.389  1.00  0.00    -0.051 C  
HETATM   11  C   UNL     1      -6.342   7.694  67.857  1.00  0.00    -0.050 C  
HETATM   12  C   UNL     1      -6.884   6.315  68.279  1.00  0.00    -0.071 C  
HETATM   13  C   UNL     1      -5.809   5.288  67.930  1.00  0.00    -0.017 C  
HETATM   14  C   UNL     1      -6.080   5.014  66.459  1.00  0.00    -0.031 C  
HETATM   15  C   UNL     1      -7.455   5.688  66.177  1.00  0.00    -0.082 C  
HETATM   16  C   UNL     1      -7.236   7.054  65.508  1.00  0.00    -0.070 C  
HETATM   17  N   UNL     1      -8.049   5.808  67.517  1.00  0.00    -0.102 NA 
BRANCH  17  18
HETATM   18  C   UNL     1      -9.340   6.558  67.717  1.00  0.00    -0.118 C  
BRANCH  18  19
HETATM   19  C   UNL     1      -9.336   7.982  68.439  1.00  0.00    -0.138 C  
HETATM   20  C   UNL     1      -9.611   8.166  70.028  1.00  0.00    -0.171 C  
BRANCH  20  21
HETATM   21  C   UNL     1     -10.946   8.471  70.776  1.00  0.00    -0.282 A  
HETATM   22  C   UNL     1     -13.363   9.264  72.125  1.00  0.00    -0.537 A  
HETATM   23  C   UNL     1     -11.752   9.574  70.346  1.00  0.00    -0.227 A  
HETATM   24  C   UNL     1     -12.586   8.189  72.577  1.00  0.00    -0.200 A  
HETATM   25  C   UNL     1     -11.396   7.802  71.919  1.00  0.00    -0.315 A  
HETATM   26  C   UNL     1     -12.939   9.963  71.002  1.00  0.00    -0.412 A  
ENDBRANCH  20  21
BRANCH  20  27
HETATM   27  N   UNL     1      -8.853   7.182  70.787  1.00  0.00    -0.147 N  
HETATM   28  H   UNL     1      -7.920   7.407  71.132  1.00  0.00     0.000 HD 
HETATM   29  C   UNL     1      -9.402   5.953  71.037  1.00  0.00    -0.161 C  
HETATM   30  O   UNL     1     -10.498   5.632  70.578  1.00  0.00    -0.239 OA 
BRANCH  29  31
HETATM   31  C   UNL     1      -8.537   4.963  71.803  1.00  0.00    -0.132 C  
HETATM   32  C   UNL     1      -6.478   6.387  72.041  1.00  0.00    -0.054 C  
HETATM   33  C   UNL     1      -7.029   5.055  71.544  1.00  0.00    -0.053 C  
HETATM   34  C   UNL     1      -6.810   6.642  73.501  1.00  0.00    -0.076 C  
HETATM   35  F   UNL     1      -6.414   7.890  73.847  1.00  0.00    -0.079 F  
HETATM   36  F   UNL     1      -6.098   5.781  74.275  1.00  0.00    -0.054 F  
HETATM   37  C   UNL     1      -8.275   6.481  73.828  1.00  0.00    -0.113 C  
HETATM   38  C   UNL     1      -8.801   5.147  73.301  1.00  0.00    -0.118 C  
ENDBRANCH  29  31
ENDBRANCH  20  27
ENDBRANCH  18  19
ENDBRANCH  17  18
ENDBRANCH   8  10
TORSDOF 6
ENDMDL
MODEL      242
REMARK 921   NORMALIZED FREE ENERGY PREDICTED BY IDOCK:   -0.33 KCAL/MOL
REMARK 922        TOTAL FREE ENERGY PREDICTED BY IDOCK:   -1.99 KCAL/MOL
REMARK 923 INTER-LIGAND FREE ENERGY PREDICTED BY IDOCK:   -3.74 KCAL/MOL
REMARK 924 INTRA-LIGAND FREE ENERGY PREDICTED BY IDOCK:    1.75 KCAL/MOL
REMARK 927      BINDING AFFINITY PREDICTED BY RF-SCORE:    0.00 PKD
ROOT
HETATM    1  C   UNL     1      -6.408  11.157  65.550  1.00  0.00     0.282 C  
HETATM    2  C   UNL     1      -7.702  11.278  66.374  1.00  0.00    -0.089 C  
HETATM    3  C   UNL     1      -8.859  11.666  65.504  1.00  0.00     0.113 A  
HETATM    4  C   UNL     1      -7.545  12.349  67.462  1.00  0.00    -0.155 C  
HETATM    5  N   UNL     1      -9.013  12.881  65.024  1.00  0.00     1.120 NA 
HETATM    6  N   UNL     1     -10.299  13.009  64.629  1.00  0.00    -0.359 NA 
HETATM    7  C   UNL     1     -10.904  11.848  64.769  1.00  0.00    -0.307 A  
HETATM    8  N   UNL     1      -9.989  10.910  65.215  1.00  0.00    -0.255 NA 
HETATM    9  C   UNL     1     -12.338  11.679  64.463  1.00  0.00     0.135 C  
ENDROOT
BRANCH   8  10
HETATM   10  C   UNL     1     -10.135   9.462  65.482  1.00  0.00     0.099 C  
HETATM   11  C   UNL     1      -9.063   8.519  64.888  1.00  0.00     0.181 C  
HETATM   12  C   UNL     1      -8.407   7.486  65.823  1.00  0.00    -0.142 C  
HETATM   13  C   UNL     1      -9.320   6.261  65.844  1.00  0.00    -0.007 C  
HETATM   14  C   UNL     1     -10.357   6.641  66.888  1.00  0.00    -0.324 C  
HETATM   15  C   UNL     1      -9.784   7.917  67.571  1.00  0.00    -0.159 C  
HETATM   16  C   UNL     1     -10.452   9.168  66.979  1.00  0.00    -0.311 C  
HETATM   17  N   UNL     1      -8.349   7.846  67.260  1.00  0.00    -0.121 NA 
BRANCH  17  18
HETATM   18  C   UNL     1      -7.431   8.988  67.612  1.00  0.00    -0.085 C  
BRANCH  18  19
HETATM   19  C   UNL     1      -7.561   9.714  69.027  1.00  0.00    -0.076 C  
HETATM   20  C   UNL     1      -8.378   9.073  70.275  1.00  0.00    -0.157 C  
BRANCH  20  21
HETATM   21  C   UNL     1      -9.860   9.294  70.711  1.00  0.00    -0.350 A  
HETATM   22  C   UNL     1     -12.554   9.935  71.497  1.00  0.00    -0.513 A  
HETATM   23  C   UNL     1     -10.606  10.368  70.127  1.00  0.00    -0.245 A  
HETATM   24  C   UNL     1     -11.842   8.887  72.094  1.00  0.00    -0.417 A  
HETATM   25  C   UNL     1     -10.517   8.575  71.713  1.00  0.00    -0.370 A  
HETATM   26  C   UNL     1     -11.928  10.683  70.507  1.00  0.00    -0.446 A  
ENDBRANCH  20  21
BRANCH  20  27
HETATM   27  N   UNL     1      -8.041   7.665  70.427  1.00  0.00    -0.111 N  
HETATM   28  H   UNL     1      -8.772   6.955  70.388  1.00  0.00     0.000 HD 
HETATM   29  C   UNL     1      -6.736   7.300  70.624  1.00  0.00    -0.048 C  
HETATM   30  O   UNL     1      -5.843   8.139  70.741  1.00  0.00    -0.032 OA 
BRANCH  29  31
HETATM   31  C   UNL     1      -6.464   5.815  70.814  1.00  0.00    -0.036 C  
HETATM   32  C   UNL     1      -8.780   4.958  70.340  1.00  0.00    -0.123 C  
HETATM   33  C   UNL     1      -7.637   4.986  71.348  1.00  0.00    -0.088 C  
HETATM   34  C   UNL     1      -8.334   4.475  68.971  1.00  0.00    -0.079 C  
HETATM   35  F   UNL     1      -9.354   4.599  68.089  1.00  0.00    -0.125 F  
HETATM   36  F   UNL     1      -8.041   3.150  69.042  1.00  0.00    -0.058 F  
HETATM   37  C   UNL     1      -7.126   5.205  68.434  1.00  0.00    -0.062 C  
HETATM   38  C   UNL     1      -6.006   5.231  69.473  1.00  0.00    -0.021 C  
ENDBRANCH  29  31
ENDBRANCH  20  27
ENDBRANCH  18  19
ENDBRANCH  17  18
ENDBRANCH   8  10
TORSDOF 6
ENDMDL
MODEL      243
REMARK 921   NORMALIZED FREE ENERGY PREDICTED BY IDOCK:   -0.19 KCAL/MOL
REMARK 922        TOTAL FREE ENERGY PREDICTED BY IDOCK:   -1.79 KCAL/MOL
REMARK 923 INTER-LIGAND FREE ENERGY PREDICTED BY IDOCK:   -0.29 KCAL/MOL
REMARK 924 INTRA-LIGAND FREE ENERGY PREDICTED BY IDOCK:   -1.50 KCAL/MOL
REMARK 927      BINDING AFFINITY PREDICTED BY RF-SCORE:    0.00 PKD
ROOT
HETATM    1  C   UNL     1     -10.148  10.256  67.599  1.00  0.00    -0.229 C  
HETATM    2  C   UNL     1      -9.862   9.901  69.069  1.00  0.00    -0.193 C  
HETATM    3  C   UNL     1      -8.720   8.936  69.175  1.00  0.00    -0.132 A  
HETATM    4  C   UNL     1     -11.096   9.250  69.710  1.00  0.00    -0.168 C  
HETATM    5  N   UNL     1      -8.828   7.665  68.854  1.00  0.00    -0.135 NA 
HETATM    6  N   UNL     1      -7.789   7.008  69.415  1.00  0.00    -0.111 NA 
HETATM    7  C   UNL     1      -6.991   7.885  69.987  1.00  0.00    -0.049 A  
HETATM    8  N   UNL     1      -7.478   9.160  69.759  1.00  0.00    -0.064 NA 
HETATM    9  C   UNL     1      -5.785   7.466  70.730  1.00  0.00    -0.027 C  
ENDROOT
BRANCH   8  10
HETATM   10  C   UNL     1      -6.942  10.485  70.137  1.00  0.00    -0.113 C  
HETATM   11  C   UNL     1      -5.572  10.892  69.542  1.00  0.00    -0.039 C  
HETATM   12  C   UNL     1      -5.453  12.277  68.878  1.00  0.00    -0.054 C  
HETATM   13  C   UNL     1      -5.148  13.279  69.990  1.00  0.00    -0.087 C  
HETATM   14  C   UNL     1      -6.530  13.592  70.540  1.00  0.00     0.190 C  
HETATM   15  C   UNL     1      -7.517  12.966  69.511  1.00  0.00     0.605 C  
HETATM   16  C   UNL     1      -8.016  11.609  70.031  1.00  0.00     1.873 C  
HETATM   17  N   UNL     1      -6.697  12.836  68.298  1.00  0.00    -0.078 NA 
BRANCH  17  18
HETATM   18  C   UNL     1      -7.232  12.121  67.085  1.00  0.00    -0.117 C  
BRANCH  18  19
HETATM   19  C   UNL     1      -7.738  12.954  65.821  1.00  0.00     2.989 C  
HETATM   20  C   UNL     1      -9.069  13.882  65.853  1.00  0.00     0.345 C  
BRANCH  20  21
HETATM   21  C   UNL     1     -10.534  13.534  65.443  1.00  0.00    -0.322 A  
HETATM   22  C   UNL     1     -13.283  12.861  64.916  1.00  0.00     0.272 A  
HETATM   23  C   UNL     1     -11.614  13.958  66.282  1.00  0.00    -0.378 A  
HETATM   24  C   UNL     1     -12.245  12.420  64.085  1.00  0.00    -0.558 A  
HETATM   25  C   UNL     1     -10.894  12.745  64.345  1.00  0.00    -0.395 A  
HETATM   26  C   UNL     1     -12.963  13.634  66.026  1.00  0.00    -0.064 A  
ENDBRANCH  20  21
BRANCH  20  27
HETATM   27  N   UNL     1      -9.093  14.688  67.066  1.00  0.00    -0.226 N  
HETATM   28  H   UNL     1      -9.730  14.453  67.826  1.00  0.00     0.000 HD 
HETATM   29  C   UNL     1      -8.253  15.764  67.177  1.00  0.00    -0.206 C  
HETATM   30  O   UNL     1      -7.521  16.109  66.250  1.00  0.00    -0.076 OA 
BRANCH  29  31
HETATM   31  C   UNL     1      -8.360  16.582  68.456  1.00  0.00    -0.210 C  
HETATM   32  C   UNL     1      -8.614  18.856  67.412  1.00  0.00    -0.293 C  
HETATM   33  C   UNL     1      -7.802  18.008  68.384  1.00  0.00    -0.300 C  
HETATM   34  C   UNL     1     -10.097  18.854  67.742  1.00  0.00    -0.369 C  
HETATM   35  F   UNL     1     -10.780  19.510  66.774  1.00  0.00    -0.498 F  
HETATM   36  F   UNL     1     -10.296  19.547  68.895  1.00  0.00    -0.473 F  
HETATM   37  C   UNL     1     -10.680  17.471  67.908  1.00  0.00    -0.340 C  
HETATM   38  C   UNL     1      -9.834  16.641  68.871  1.00  0.00    -0.261 C  
ENDBRANCH  29  31
ENDBRANCH  20  27
ENDBRANCH  18  19
ENDBRANCH  17  18
ENDBRANCH   8  10
TORSDOF 6
ENDMDL
MODEL      244
REMARK 921   NORMALIZED FREE ENERGY PREDICTED BY IDOCK:   -0.14 KCAL/MOL
REMARK 922        TOTAL FREE ENERGY PREDICTED BY IDOCK:   -1.72 KCAL/MOL
REMARK 923 INTER-LIGAND FREE ENERGY PREDICTED BY IDOCK:   -3.99 KCAL/MOL
REMARK 924 INTRA-LIGAND FREE ENERGY PREDICTED BY IDOCK:    2.27 KCAL/MOL
REMARK 927      BINDING AFFINITY PREDICTED BY RF-SCORE:    0.00 PKD
ROOT
HETATM    1  C   UNL     1     -12.331  13.698  66.140  1.00  0.00    -0.476 C  
HETATM    2  C   UNL     1     -11.185  13.125  66.992  1.00  0.00    -0.325 C  
HETATM    3  C   UNL     1     -11.417  11.677  67.299  1.00  0.00    -0.277 A  
HETATM    4  C   UNL     1     -11.078  13.882  68.322  1.00  0.00    -0.280 C  
HETATM    5  N   UNL     1     -12.313  11.268  68.172  1.00  0.00    -0.251 NA 
HETATM    6  N   UNL     1     -12.015   9.992  68.502  1.00  0.00     0.255 NA 
HETATM    7  C   UNL     1     -11.007   9.585  67.760  1.00  0.00    -0.100 A  
HETATM    8  N   UNL     1     -10.657  10.591  66.877  1.00  0.00    -0.253 NA 
HETATM    9  C   UNL     1     -10.418   8.241  67.923  1.00  0.00    -0.259 C  
ENDROOT
BRANCH   8  10
HETATM   10  C   UNL     1      -9.637  10.633  65.807  1.00  0.00    -0.210 C  
HETATM   11  C   UNL     1      -8.350  11.446  66.086  1.00  0.00    -0.071 C  
HETATM   12  C   UNL     1      -6.992  10.771  65.813  1.00  0.00    -0.048 C  
HETATM   13  C   UNL     1      -6.679  10.983  64.333  1.00  0.00     0.795 C  
HETATM   14  C   UNL     1      -7.446   9.852  63.668  1.00  0.00    -0.135 C  
HETATM   15  C   UNL     1      -7.891   8.930  64.842  1.00  0.00    -0.121 C  
HETATM   16  C   UNL     1      -9.355   9.223  65.205  1.00  0.00    -0.239 C  
HETATM   17  N   UNL     1      -6.961   9.293  65.922  1.00  0.00    -0.088 NA 
BRANCH  17  18
HETATM   18  C   UNL     1      -7.144   8.735  67.309  1.00  0.00    -0.079 C  
BRANCH  18  19
HETATM   19  C   UNL     1      -8.273   9.326  68.269  1.00  0.00    -0.115 C  
HETATM   20  C   UNL     1      -7.957   9.895  69.756  1.00  0.00    -0.174 C  
BRANCH  20  21
HETATM   21  C   UNL     1      -8.025   9.166  71.134  1.00  0.00    -0.122 A  
HETATM   22  C   UNL     1      -7.941   7.723  73.625  1.00  0.00    -0.215 A  
HETATM   23  C   UNL     1      -6.821   8.979  71.886  1.00  0.00     0.043 A  
HETATM   24  C   UNL     1      -9.132   7.879  72.903  1.00  0.00    -0.281 A  
HETATM   25  C   UNL     1      -9.174   8.582  71.678  1.00  0.00    -0.304 A  
HETATM   26  C   UNL     1      -6.775   8.277  73.108  1.00  0.00    -0.121 A  
ENDBRANCH  20  21
BRANCH  20  27
HETATM   27  N   UNL     1      -6.780  10.752  69.728  1.00  0.00    -0.125 N  
HETATM   28  H   UNL     1      -5.861  10.370  69.947  1.00  0.00     0.000 HD 
HETATM   29  C   UNL     1      -6.917  12.076  69.405  1.00  0.00     0.024 C  
HETATM   30  O   UNL     1      -8.021  12.578  69.201  1.00  0.00     0.199 OA 
BRANCH  29  31
HETATM   31  C   UNL     1      -5.651  12.919  69.434  1.00  0.00    -0.084 C  
HETATM   32  C   UNL     1      -6.112  14.338  67.409  1.00  0.00     0.224 C  
HETATM   33  C   UNL     1      -5.126  13.381  68.070  1.00  0.00    -0.108 C  
HETATM   34  C   UNL     1      -6.460  15.517  68.302  1.00  0.00    -0.118 C  
HETATM   35  F   UNL     1      -7.435  16.256  67.720  1.00  0.00    -0.123 F  
HETATM   36  F   UNL     1      -5.373  16.326  68.411  1.00  0.00    -0.095 F  
HETATM   37  C   UNL     1      -6.903  15.119  69.689  1.00  0.00    -0.188 C  
HETATM   38  C   UNL     1      -5.906  14.147  70.315  1.00  0.00    -0.147 C  
ENDBRANCH  29  31
ENDBRANCH  20  27
ENDBRANCH  18  19
ENDBRANCH  17  18
ENDBRANCH   8  10
TORSDOF 6
ENDMDL
MODEL      245
REMARK 921   NORMALIZED FREE ENERGY PREDICTED BY IDOCK:   -0.07 KCAL/MOL
REMARK 922        TOTAL FREE ENERGY PREDICTED BY IDOCK:   -1.63 KCAL/MOL
REMARK 923 INTER-LIGAND FREE ENERGY PREDICTED BY IDOCK:   -1.22 KCAL/MOL
REMARK 924 INTRA-LIGAND FREE ENERGY PREDICTED BY IDOCK:   -0.41 KCAL/MOL
REMARK 927      BINDING AFFINITY PREDICTED BY RF-SCORE:    0.00 PKD
ROOT
HETATM    1  C   UNL     1     -11.800  14.302  69.991  1.00  0.00    -0.378 C  
HETATM    2  C   UNL     1     -10.823  14.998  69.026  1.00  0.00    -0.242 C  
HETATM    3  C   UNL     1      -9.401  14.729  69.416  1.00  0.00     0.026 A  
HETATM    4  C   UNL     1     -11.043  16.517  69.046  1.00  0.00    -0.284 C  
HETATM    5  N   UNL     1      -8.828  15.296  70.457  1.00  0.00     1.015 NA 
HETATM    6  N   UNL     1      -7.491  15.165  70.313  1.00  0.00     0.208 NA 
HETATM    7  C   UNL     1      -7.248  14.433  69.247  1.00  0.00    -0.107 A  
HETATM    8  N   UNL     1      -8.448  14.019  68.695  1.00  0.00    -0.141 NA 
HETATM    9  C   UNL     1      -5.869  14.152  68.797  1.00  0.00    -0.085 C  
ENDROOT
BRANCH   8  10
HETATM   10  C   UNL     1      -8.733  13.150  67.534  1.00  0.00    -0.201 C  
HETATM   11  C   UNL     1      -7.530  12.703  66.669  1.00  0.00     0.503 C  
HETATM   12  C   UNL     1      -7.392  11.205  66.337  1.00  0.00    -0.099 C  
HETATM   13  C   UNL     1      -8.245  10.944  65.096  1.00  0.00     0.048 C  
HETATM   14  C   UNL     1      -9.633  10.750  65.685  1.00  0.00    -0.263 C  
HETATM   15  C   UNL     1      -9.400  10.633  67.220  1.00  0.00    -0.150 C  
HETATM   16  C   UNL     1      -9.699  11.981  67.894  1.00  0.00    -0.194 C  
HETATM   17  N   UNL     1      -7.981  10.260  67.315  1.00  0.00    -0.107 NA 
BRANCH  17  18
HETATM   18  C   UNL     1      -7.295  10.192  68.654  1.00  0.00    -0.082 C  
BRANCH  18  19
HETATM   19  C   UNL     1      -6.183   9.081  68.931  1.00  0.00    -0.044 C  
HETATM   20  C   UNL     1      -6.505   7.681  69.687  1.00  0.00    -0.031 C  
BRANCH  20  21
HETATM   21  C   UNL     1      -6.374   7.316  71.199  1.00  0.00    -0.036 A  
HETATM   22  C   UNL     1      -5.911   6.723  73.978  1.00  0.00    -0.059 A  
HETATM   23  C   UNL     1      -5.608   8.166  72.059  1.00  0.00    -0.037 A  
HETATM   24  C   UNL     1      -6.654   5.865  73.156  1.00  0.00    -0.069 A  
HETATM   25  C   UNL     1      -6.878   6.153  71.790  1.00  0.00    -0.068 A  
HETATM   26  C   UNL     1      -5.381   7.881  73.422  1.00  0.00    -0.045 A  
ENDBRANCH  20  21
BRANCH  20  27
HETATM   27  N   UNL     1      -7.727   7.092  69.159  1.00  0.00    -0.107 N  
HETATM   28  H   UNL     1      -8.564   7.038  69.738  1.00  0.00     0.000 HD 
HETATM   29  C   UNL     1      -7.743   6.610  67.877  1.00  0.00    -0.108 C  
HETATM   30  O   UNL     1      -6.731   6.602  67.178  1.00  0.00    -0.058 OA 
BRANCH  29  31
HETATM   31  C   UNL     1      -9.042   5.973  67.405  1.00  0.00    -0.106 C  
HETATM   32  C   UNL     1      -9.572   4.650  69.476  1.00  0.00    -0.258 C  
HETATM   33  C   UNL     1      -9.347   4.582  67.970  1.00  0.00    -0.182 C  
HETATM   34  C   UNL     1     -10.648   5.654  69.856  1.00  0.00    -0.328 C  
HETATM   35  F   UNL     1     -10.709   5.767  71.204  1.00  0.00    -0.279 F  
HETATM   36  F   UNL     1     -11.857   5.183  69.451  1.00  0.00     1.577 F  
HETATM   37  C   UNL     1     -10.440   7.023  69.254  1.00  0.00    -0.223 C  
HETATM   38  C   UNL     1     -10.198   6.919  67.750  1.00  0.00    -0.224 C  
ENDBRANCH  29  31
ENDBRANCH  20  27
ENDBRANCH  18  19
ENDBRANCH  17  18
ENDBRANCH   8  10
TORSDOF 6
ENDMDL
MODEL      246
REMARK 921   NORMALIZED FREE ENERGY PREDICTED BY IDOCK:   -0.01 KCAL/MOL
REMARK 922        TOTAL FREE ENERGY PREDICTED BY IDOCK:   -1.55 KCAL/MOL
REMARK 923 INTER-LIGAND FREE ENERGY PREDICTED BY IDOCK:   -4.25 KCAL/MOL
REMARK 924 INTRA-LIGAND FREE ENERGY PREDICTED BY IDOCK:    2.69 KCAL/MOL
REMARK 927      BINDING AFFINITY PREDICTED BY RF-SCORE:    0.00 PKD
ROOT
HETATM    1  C   UNL     1      -8.183   5.839  66.695  1.00  0.00    -0.106 C  
HETATM    2  C   UNL     1      -9.510   5.380  67.324  1.00  0.00    -0.128 C  
HETATM    3  C   UNL     1      -9.309   4.158  68.168  1.00  0.00    -0.159 A  
HETATM    4  C   UNL     1     -10.531   5.039  66.230  1.00  0.00    -0.352 C  
HETATM    5  N   UNL     1      -9.100   2.964  67.656  1.00  0.00    -0.166 NA 
HETATM    6  N   UNL     1      -9.346   2.052  68.623  1.00  0.00    -0.172 NA 
HETATM    7  C   UNL     1      -9.602   2.684  69.748  1.00  0.00     0.004 A  
HETATM    8  N   UNL     1      -9.471   4.047  69.545  1.00  0.00    -0.175 NA 
HETATM    9  C   UNL     1      -9.958   1.956  70.983  1.00  0.00     0.003 C  
ENDROOT
BRANCH   8  10
HETATM   10  C   UNL     1      -9.599   5.185  70.481  1.00  0.00    -0.180 C  
HETATM   11  C   UNL     1      -8.290   5.833  70.993  1.00  0.00    -0.123 C  
HETATM   12  C   UNL     1      -8.159   7.366  70.910  1.00  0.00    -0.105 C  
HETATM   13  C   UNL     1      -8.809   7.936  72.169  1.00  0.00    -0.196 C  
HETATM   14  C   UNL     1     -10.281   7.979  71.790  1.00  0.00    -0.260 C  
HETATM   15  C   UNL     1     -10.304   7.700  70.258  1.00  0.00    -0.214 C  
HETATM   16  C   UNL     1     -10.655   6.226  70.004  1.00  0.00    -0.307 C  
HETATM   17  N   UNL     1      -8.935   8.032  69.837  1.00  0.00    -0.144 NA 
BRANCH  17  18
HETATM   18  C   UNL     1      -8.478   7.755  68.429  1.00  0.00    -0.125 C  
BRANCH  18  19
HETATM   19  C   UNL     1      -7.007   8.165  67.968  1.00  0.00    -0.077 C  
HETATM   20  C   UNL     1      -6.721   9.259  66.803  1.00  0.00    -0.076 C  
BRANCH  20  21
HETATM   21  C   UNL     1      -6.482   9.045  65.276  1.00  0.00    -0.068 A  
HETATM   22  C   UNL     1      -5.979   8.880  62.446  1.00  0.00    -0.091 A  
HETATM   23  C   UNL     1      -5.403   9.735  64.635  1.00  0.00    -0.066 A  
HETATM   24  C   UNL     1      -7.051   8.205  63.045  1.00  0.00    -0.088 A  
HETATM   25  C   UNL     1      -7.302   8.290  64.433  1.00  0.00    -0.092 A  
HETATM   26  C   UNL     1      -5.150   9.654  63.249  1.00  0.00    -0.070 A  
ENDBRANCH  20  21
BRANCH  20  27
HETATM   27  N   UNL     1      -7.565  10.430  66.994  1.00  0.00    -0.099 N  
HETATM   28  H   UNL     1      -7.151  11.326  67.250  1.00  0.00     0.000 HD 
HETATM   29  C   UNL     1      -8.920  10.319  66.826  1.00  0.00    -0.132 C  
HETATM   30  O   UNL     1      -9.453   9.238  66.582  1.00  0.00    -0.166 OA 
BRANCH  29  31
HETATM   31  C   UNL     1      -9.743  11.575  67.079  1.00  0.00    -0.202 C  
HETATM   32  C   UNL     1     -11.435  10.588  68.657  1.00  0.00    -0.290 C  
HETATM   33  C   UNL     1     -11.234  11.351  67.352  1.00  0.00    -0.370 C  
HETATM   34  C   UNL     1     -10.748  11.262  69.833  1.00  0.00     0.190 C  
HETATM   35  F   UNL     1     -10.847  10.476  70.930  1.00  0.00    -0.309 F  
HETATM   36  F   UNL     1     -11.401  12.419  70.124  1.00  0.00    -0.239 F  
HETATM   37  C   UNL     1      -9.294  11.583  69.584  1.00  0.00     1.086 C  
HETATM   38  C   UNL     1      -9.124  12.328  68.262  1.00  0.00    -0.187 C  
ENDBRANCH  29  31
ENDBRANCH  20  27
ENDBRANCH  18  19
ENDBRANCH  17  18
ENDBRANCH   8  10
TORSDOF 6
ENDMDL
MODEL      247
REMARK 921   NORMALIZED FREE ENERGY PREDICTED BY IDOCK:   -0.00 KCAL/MOL
REMARK 922        TOTAL FREE ENERGY PREDICTED BY IDOCK:   -1.54 KCAL/MOL
REMARK 923 INTER-LIGAND FREE ENERGY PREDICTED BY IDOCK:   -2.45 KCAL/MOL
REMARK 924 INTRA-LIGAND FREE ENERGY PREDICTED BY IDOCK:    0.91 KCAL/MOL
REMARK 927      BINDING AFFINITY PREDICTED BY RF-SCORE:    0.00 PKD
ROOT
HETATM    1  C   UNL     1      -7.838   9.458  70.766  1.00  0.00    -0.151 C  
HETATM    2  C   UNL     1      -7.047  10.393  69.834  1.00  0.00    -0.160 C  
HETATM    3  C   UNL     1      -6.569   9.659  68.618  1.00  0.00    -0.051 A  
HETATM    4  C   UNL     1      -5.819  10.959  70.561  1.00  0.00    -0.130 C  
HETATM    5  N   UNL     1      -5.575   8.797  68.650  1.00  0.00    -0.040 NA 
HETATM    6  N   UNL     1      -5.145   8.616  67.382  1.00  0.00    -0.033 NA 
HETATM    7  C   UNL     1      -5.935   9.280  66.566  1.00  0.00    -0.059 A  
HETATM    8  N   UNL     1      -6.949   9.875  67.298  1.00  0.00    -0.083 NA 
HETATM    9  C   UNL     1      -5.692   9.317  65.110  1.00  0.00    -0.058 C  
ENDROOT
BRANCH   8  10
HETATM   10  C   UNL     1      -8.111  10.682  66.868  1.00  0.00    -0.124 C  
HETATM   11  C   UNL     1      -8.980  10.119  65.718  1.00  0.00    -0.187 C  
HETATM   12  C   UNL     1     -10.506  10.071  65.919  1.00  0.00    -0.045 C  
HETATM   13  C   UNL     1     -11.051  11.440  65.517  1.00  0.00    -0.203 C  
HETATM   14  C   UNL     1     -10.847  12.260  66.781  1.00  0.00    -0.291 C  
HETATM   15  C   UNL     1     -10.473  11.216  67.874  1.00  0.00    -0.190 C  
HETATM   16  C   UNL     1      -8.949  11.199  68.075  1.00  0.00    -0.149 C  
HETATM   17  N   UNL     1     -10.980   9.953  67.318  1.00  0.00    -0.203 NA 
BRANCH  17  18
HETATM   18  C   UNL     1     -10.686   8.643  68.001  1.00  0.00    -0.074 C  
BRANCH  18  19
HETATM   19  C   UNL     1     -11.344   7.292  67.462  1.00  0.00     0.281 C  
HETATM   20  C   UNL     1     -10.469   5.988  67.053  1.00  0.00    -0.270 C  
BRANCH  20  21
HETATM   21  C   UNL     1      -9.918   5.558  65.658  1.00  0.00     0.167 A  
HETATM   22  C   UNL     1      -8.907   4.542  63.161  1.00  0.00    -0.128 A  
HETATM   23  C   UNL     1     -10.375   4.333  65.074  1.00  0.00    -0.203 A  
HETATM   24  C   UNL     1      -8.431   5.738  63.717  1.00  0.00     0.053 A  
HETATM   25  C   UNL     1      -8.923   6.235  64.945  1.00  0.00     0.364 A  
HETATM   26  C   UNL     1      -9.885   3.834  63.848  1.00  0.00    -0.175 A  
ENDBRANCH  20  21
BRANCH  20  27
HETATM   27  N   UNL     1      -9.459   5.720  68.067  1.00  0.00    -0.109 N  
HETATM   28  H   UNL     1      -8.529   6.131  67.987  1.00  0.00     0.000 HD 
HETATM   29  C   UNL     1      -9.767   4.913  69.130  1.00  0.00    -0.182 C  
HETATM   30  O   UNL     1     -10.858   4.352  69.218  1.00  0.00     1.068 OA 
BRANCH  29  31
HETATM   31  C   UNL     1      -8.650   4.646  70.129  1.00  0.00    -0.101 C  
HETATM   32  C   UNL     1      -8.086   7.032  70.689  1.00  0.00    -0.117 C  
HETATM   33  C   UNL     1      -7.540   5.701  70.185  1.00  0.00    -0.085 C  
HETATM   34  C   UNL     1      -8.796   6.898  72.026  1.00  0.00    -0.132 C  
HETATM   35  F   UNL     1      -9.373   8.078  72.355  1.00  0.00    -0.186 F  
HETATM   36  F   UNL     1      -7.877   6.632  72.991  1.00  0.00    -0.098 F  
HETATM   37  C   UNL     1      -9.845   5.812  72.050  1.00  0.00    -0.183 C  
HETATM   38  C   UNL     1      -9.273   4.498  71.522  1.00  0.00    -0.186 C  
ENDBRANCH  29  31
ENDBRANCH  20  27
ENDBRANCH  18  19
ENDBRANCH  17  18
ENDBRANCH   8  10
TORSDOF 6
ENDMDL
MODEL      248
REMARK 921   NORMALIZED FREE ENERGY PREDICTED BY IDOCK:    0.31 KCAL/MOL
REMARK 922        TOTAL FREE ENERGY PREDICTED BY IDOCK:   -1.12 KCAL/MOL
REMARK 923 INTER-LIGAND FREE ENERGY PREDICTED BY IDOCK:   -0.60 KCAL/MOL
REMARK 924 INTRA-LIGAND FREE ENERGY PREDICTED BY IDOCK:   -0.52 KCAL/MOL
REMARK 927      BINDING AFFINITY PREDICTED BY RF-SCORE:    0.00 PKD
ROOT
HETATM    1  C   UNL     1     -10.630  20.086  67.266  1.00  0.00    -0.442 C  
HETATM    2  C   UNL     1      -9.513  19.082  66.932  1.00  0.00    -0.355 C  
HETATM    3  C   UNL     1      -8.482  19.704  66.040  1.00  0.00    -0.265 A  
HETATM    4  C   UNL     1     -10.093  17.859  66.208  1.00  0.00    -0.351 C  
HETATM    5  N   UNL     1      -8.694  19.943  64.763  1.00  0.00     1.478 NA 
HETATM    6  N   UNL     1      -7.493  20.127  64.172  1.00  0.00     0.773 NA 
HETATM    7  C   UNL     1      -6.557  20.107  65.097  1.00  0.00    -0.298 A  
HETATM    8  N   UNL     1      -7.148  19.959  66.340  1.00  0.00    -0.231 NA 
HETATM    9  C   UNL     1      -5.126  20.236  64.755  1.00  0.00    -0.193 C  
ENDROOT
BRANCH   8  10
HETATM   10  C   UNL     1      -6.561  19.926  67.696  1.00  0.00    -0.228 C  
HETATM   11  C   UNL     1      -7.514  20.175  68.889  1.00  0.00    -0.045 C  
HETATM   12  C   UNL     1      -7.479  19.181  70.066  1.00  0.00     0.622 C  
HETATM   13  C   UNL     1      -6.362  19.638  71.001  1.00  0.00     0.089 C  
HETATM   14  C   UNL     1      -5.126  19.024  70.364  1.00  0.00    -0.212 C  
HETATM   15  C   UNL     1      -5.680  18.040  69.292  1.00  0.00    -0.213 C  
HETATM   16  C   UNL     1      -5.623  18.699  67.904  1.00  0.00    -0.176 C  
HETATM   17  N   UNL     1      -7.058  17.797  69.742  1.00  0.00     0.256 NA 
BRANCH  17  18
HETATM   18  C   UNL     1      -8.014  17.005  68.889  1.00  0.00    -0.217 C  
BRANCH  18  19
HETATM   19  C   UNL     1      -7.457  15.963  67.816  1.00  0.00    -0.157 C  
HETATM   20  C   UNL     1      -8.047  14.459  67.658  1.00  0.00    -0.177 C  
BRANCH  20  21
HETATM   21  C   UNL     1      -7.556  13.126  68.303  1.00  0.00    -0.139 A  
HETATM   22  C   UNL     1      -6.488  10.795  69.613  1.00  0.00    -0.103 A  
HETATM   23  C   UNL     1      -7.123  13.129  69.669  1.00  0.00     0.361 A  
HETATM   24  C   UNL     1      -6.891  10.767  68.271  1.00  0.00    -0.067 A  
HETATM   25  C   UNL     1      -7.410  11.912  67.625  1.00  0.00    -0.123 A  
HETATM   26  C   UNL     1      -6.603  11.988  70.315  1.00  0.00     0.439 A  
ENDBRANCH  20  21
BRANCH  20  27
HETATM   27  N   UNL     1      -9.503  14.485  67.668  1.00  0.00    -0.206 N  
HETATM   28  H   UNL     1     -10.005  14.832  68.485  1.00  0.00     0.000 HD 
HETATM   29  C   UNL     1     -10.193  14.041  66.571  1.00  0.00    -0.279 C  
HETATM   30  O   UNL     1      -9.615  13.558  65.599  1.00  0.00    -0.141 OA 
BRANCH  29  31
HETATM   31  C   UNL     1     -11.712  14.062  66.668  1.00  0.00    -0.420 C  
HETATM   32  C   UNL     1     -12.222  14.581  64.261  1.00  0.00    -0.441 C  
HETATM   33  C   UNL     1     -12.428  15.017  65.707  1.00  0.00     0.369 C  
HETATM   34  C   UNL     1     -12.638  13.138  64.027  1.00  0.00    -0.169 C  
HETATM   35  F   UNL     1     -12.309  12.769  62.766  1.00  0.00    -0.381 F  
HETATM   36  F   UNL     1     -13.991  13.047  64.118  1.00  0.00     1.556 F  
HETATM   37  C   UNL     1     -12.024  12.164  65.003  1.00  0.00    -0.343 C  
HETATM   38  C   UNL     1     -12.230  12.638  66.440  1.00  0.00    -0.174 C  
ENDBRANCH  29  31
ENDBRANCH  20  27
ENDBRANCH  18  19
ENDBRANCH  17  18
ENDBRANCH   8  10
TORSDOF 6
ENDMDL
MODEL      249
REMARK 921   NORMALIZED FREE ENERGY PREDICTED BY IDOCK:    0.47 KCAL/MOL
REMARK 922        TOTAL FREE ENERGY PREDICTED BY IDOCK:   -0.90 KCAL/MOL
REMARK 923 INTER-LIGAND FREE ENERGY PREDICTED BY IDOCK:    0.40 KCAL/MOL
REMARK 924 INTRA-LIGAND FREE ENERGY PREDICTED BY IDOCK:   -1.29 KCAL/MOL
REMARK 927      BINDING AFFINITY PREDICTED BY RF-SCORE:    0.00 PKD
ROOT
HETATM    1  C   UNL     1     -11.070  11.624  71.421  1.00  0.00     3.469 C  
HETATM    2  C   UNL     1     -11.213  12.005  69.937  1.00  0.00    -0.020 C  
HETATM    3  C   UNL     1     -11.413  13.482  69.780  1.00  0.00    -0.175 A  
HETATM    4  C   UNL     1     -12.424  11.293  69.317  1.00  0.00    -0.002 C  
HETATM    5  N   UNL     1     -12.544  14.085  70.078  1.00  0.00    -0.273 NA 
HETATM    6  N   UNL     1     -12.538  15.295  69.476  1.00  0.00    -0.072 NA 
HETATM    7  C   UNL     1     -11.369  15.477  68.900  1.00  0.00    -0.324 A  
HETATM    8  N   UNL     1     -10.555  14.389  69.167  1.00  0.00    -0.241 NA 
HETATM    9  C   UNL     1     -11.072  16.693  68.116  1.00  0.00    -0.285 C  
ENDROOT
BRANCH   8  10
HETATM   10  C   UNL     1      -9.149  14.117  68.802  1.00  0.00    -0.071 C  
HETATM   11  C   UNL     1      -8.491  12.852  69.404  1.00  0.00     1.146 C  
HETATM   12  C   UNL     1      -7.752  11.894  68.450  1.00  0.00    -0.131 C  
HETATM   13  C   UNL     1      -6.330  12.430  68.296  1.00  0.00    -0.057 C  
HETATM   14  C   UNL     1      -6.490  13.486  67.214  1.00  0.00     0.212 C  
HETATM   15  C   UNL     1      -7.923  13.259  66.648  1.00  0.00     0.538 C  
HETATM   16  C   UNL     1      -8.895  14.273  67.272  1.00  0.00    -0.224 C  
HETATM   17  N   UNL     1      -8.224  11.875  67.045  1.00  0.00    -0.167 NA 
BRANCH  17  18
HETATM   18  C   UNL     1      -9.597  11.296  66.824  1.00  0.00    -0.193 C  
BRANCH  18  19
HETATM   19  C   UNL     1      -9.792  10.042  65.856  1.00  0.00    -0.330 C  
HETATM   20  C   UNL     1      -9.114   8.595  66.140  1.00  0.00    -0.201 C  
BRANCH  20  21
HETATM   21  C   UNL     1      -7.762   8.012  65.623  1.00  0.00    -0.094 A  
HETATM   22  C   UNL     1      -5.298   7.067  64.472  1.00  0.00    -0.028 A  
HETATM   23  C   UNL     1      -6.882   8.853  64.869  1.00  0.00    -0.073 A  
HETATM   24  C   UNL     1      -6.147   6.218  65.194  1.00  0.00    -0.030 A  
HETATM   25  C   UNL     1      -7.360   6.679  65.755  1.00  0.00    -0.075 A  
HETATM   26  C   UNL     1      -5.672   8.395  64.306  1.00  0.00    -0.064 A  
ENDBRANCH  20  21
BRANCH  20  27
HETATM   27  N   UNL     1      -9.290   8.222  67.537  1.00  0.00    -0.139 N  
HETATM   28  H   UNL     1      -8.751   8.690  68.265  1.00  0.00     0.000 HD 
HETATM   29  C   UNL     1     -10.184   7.238  67.865  1.00  0.00    -0.191 C  
HETATM   30  O   UNL     1     -10.798   6.612  67.002  1.00  0.00    -0.337 OA 
BRANCH  29  31
HETATM   31  C   UNL     1     -10.287   6.874  69.339  1.00  0.00    -0.220 C  
HETATM   32  C   UNL     1      -9.669   4.443  69.158  1.00  0.00    -0.240 C  
HETATM   33  C   UNL     1     -10.720   5.436  69.642  1.00  0.00    -0.267 C  
HETATM   34  C   UNL     1      -8.289   4.740  69.720  1.00  0.00    -0.075 C  
HETATM   35  F   UNL     1      -7.379   3.914  69.153  1.00  0.00    -0.051 F  
HETATM   36  F   UNL     1      -8.285   4.468  71.052  1.00  0.00    -0.081 F  
HETATM   37  C   UNL     1      -7.849   6.171  69.522  1.00  0.00    -0.100 C  
HETATM   38  C   UNL     1      -8.929   7.139  69.999  1.00  0.00    -0.142 C  
ENDBRANCH  29  31
ENDBRANCH  20  27
ENDBRANCH  18  19
ENDBRANCH  17  18
ENDBRANCH   8  10
TORSDOF 6
ENDMDL
MODEL      250
REMARK 921   NORMALIZED FREE ENERGY PREDICTED BY IDOCK:    1.39 KCAL/MOL
REMARK 922        TOTAL FREE ENERGY PREDICTED BY IDOCK:    0.34 KCAL/MOL
REMARK 923 INTER-LIGAND FREE ENERGY PREDICTED BY IDOCK:   -0.33 KCAL/MOL
REMARK 924 INTRA-LIGAND FREE ENERGY PREDICTED BY IDOCK:    0.67 KCAL/MOL
REMARK 927      BINDING AFFINITY PREDICTED BY RF-SCORE:    0.00 PKD
ROOT
HETATM    1  C   UNL     1      -7.025  13.601  71.050  1.00  0.00     1.966 C  
HETATM    2  C   UNL     1      -7.828  13.198  69.801  1.00  0.00     1.439 C  
HETATM    3  C   UNL     1      -6.929  13.038  68.613  1.00  0.00    -0.102 A  
HETATM    4  C   UNL     1      -8.871  14.273  69.466  1.00  0.00     0.552 C  
HETATM    5  N   UNL     1      -6.395  14.061  67.980  1.00  0.00    -0.127 NA 
HETATM    6  N   UNL     1      -5.980  13.626  66.770  1.00  0.00     0.971 NA 
HETATM    7  C   UNL     1      -6.162  12.324  66.701  1.00  0.00     0.480 A  
HETATM    8  N   UNL     1      -6.658  11.869  67.910  1.00  0.00    -0.069 NA 
HETATM    9  C   UNL     1      -5.846  11.561  65.477  1.00  0.00     0.917 C  
ENDROOT
BRANCH   8  10
HETATM   10  C   UNL     1      -6.985  10.503  68.373  1.00  0.00    -0.066 C  
HETATM   11  C   UNL     1      -7.038  10.265  69.901  1.00  0.00    -0.152 C  
HETATM   12  C   UNL     1      -8.273   9.550  70.482  1.00  0.00    -0.167 C  
HETATM   13  C   UNL     1      -8.014   8.049  70.364  1.00  0.00    -0.103 C  
HETATM   14  C   UNL     1      -8.437   7.753  68.935  1.00  0.00    -0.129 C  
HETATM   15  C   UNL     1      -9.164   9.045  68.460  1.00  0.00    -0.136 C  
HETATM   16  C   UNL     1      -8.205   9.899  67.614  1.00  0.00    -0.114 C  
HETATM   17  N   UNL     1      -9.536   9.702  69.722  1.00  0.00    -0.206 NA 
BRANCH  17  18
HETATM   18  C   UNL     1     -10.136  11.084  69.718  1.00  0.00     0.332 C  
BRANCH  18  19
HETATM   19  C   UNL     1     -11.712  11.274  69.883  1.00  0.00    -0.430 C  
HETATM   20  C   UNL     1     -12.432  12.728  69.848  1.00  0.00     0.050 C  
BRANCH  20  21
HETATM   21  C   UNL     1     -12.809  13.679  71.027  1.00  0.00    -0.360 A  
HETATM   22  C   UNL     1     -13.314  15.563  73.145  1.00  0.00    -0.632 A  
HETATM   23  C   UNL     1     -12.598  15.088  70.883  1.00  0.00    -0.419 A  
HETATM   24  C   UNL     1     -13.516  14.187  73.319  1.00  0.00     0.288 A  
HETATM   25  C   UNL     1     -13.264  13.260  72.282  1.00  0.00    -0.567 A  
HETATM   26  C   UNL     1     -12.848  16.015  71.917  1.00  0.00    -0.331 A  
ENDBRANCH  20  21
BRANCH  20  27
HETATM   27  N   UNL     1     -11.913  13.522  68.744  1.00  0.00    -0.350 N  
HETATM   28  H   UNL     1     -11.779  14.527  68.851  1.00  0.00     0.000 HD 
HETATM   29  C   UNL     1     -11.605  12.908  67.559  1.00  0.00    -0.356 C  
HETATM   30  O   UNL     1     -11.817  11.710  67.379  1.00  0.00    -0.603 OA 
BRANCH  29  31
HETATM   31  C   UNL     1     -11.104  13.806  66.437  1.00  0.00    -0.309 C  
HETATM   32  C   UNL     1      -9.219  12.354  65.623  1.00  0.00     0.141 C  
HETATM   33  C   UNL     1      -9.601  13.734  66.146  1.00  0.00    -0.234 C  
HETATM   34  C   UNL     1     -10.041  11.945  64.413  1.00  0.00    -0.279 C  
HETATM   35  F   UNL     1      -9.753  10.665  64.077  1.00  0.00    -0.250 F  
HETATM   36  F   UNL     1      -9.681  12.715  63.352  1.00  0.00    -0.228 F  
HETATM   37  C   UNL     1     -11.531  12.079  64.618  1.00  0.00    -0.371 C  
HETATM   38  C   UNL     1     -11.879  13.463  65.160  1.00  0.00    -0.375 C  
ENDBRANCH  29  31
ENDBRANCH  20  27
ENDBRANCH  18  19
ENDBRANCH  17  18
ENDBRANCH   8  10
TORSDOF 6
ENDMDL
MODEL      251
REMARK 921   NORMALIZED FREE ENERGY PREDICTED BY IDOCK:    1.45 KCAL/MOL
REMARK 922        TOTAL FREE ENERGY PREDICTED BY IDOCK:    0.43 KCAL/MOL
REMARK 923 INTER-LIGAND FREE ENERGY PREDICTED BY IDOCK:   -3.61 KCAL/MOL
REMARK 924 INTRA-LIGAND FREE ENERGY PREDICTED BY IDOCK:    4.04 KCAL/MOL
REMARK 927      BINDING AFFINITY PREDICTED BY RF-SCORE:    0.00 PKD
ROOT
HETATM    1  C   UNL     1      -8.590   8.662  64.453  1.00  0.00    -0.068 C  
HETATM    2  C   UNL     1      -9.217   8.923  65.834  1.00  0.00    -0.290 C  
HETATM    3  C   UNL     1      -9.367   7.646  66.604  1.00  0.00    -0.190 A  
HETATM    4  C   UNL     1     -10.608   9.552  65.679  1.00  0.00     0.676 C  
HETATM    5  N   UNL     1     -10.285   6.746  66.321  1.00  0.00     0.077 NA 
HETATM    6  N   UNL     1     -10.414   5.937  67.396  1.00  0.00    -0.218 NA 
HETATM    7  C   UNL     1      -9.509   6.271  68.291  1.00  0.00    -0.117 A  
HETATM    8  N   UNL     1      -8.722   7.290  67.784  1.00  0.00    -0.126 NA 
HETATM    9  C   UNL     1      -9.430   5.595  69.602  1.00  0.00    -0.180 C  
ENDROOT
BRANCH   8  10
HETATM   10  C   UNL     1      -7.550   7.987  68.356  1.00  0.00    -0.108 C  
HETATM   11  C   UNL     1      -6.833   9.023  67.458  1.00  0.00    -0.077 C  
HETATM   12  C   UNL     1      -6.541  10.416  68.048  1.00  0.00    -0.061 C  
HETATM   13  C   UNL     1      -5.217  10.311  68.802  1.00  0.00    -0.038 C  
HETATM   14  C   UNL     1      -5.648   9.760  70.151  1.00  0.00    -0.042 C  
HETATM   15  C   UNL     1      -7.201   9.870  70.147  1.00  0.00    -0.155 C  
HETATM   16  C   UNL     1      -7.817   8.506  69.800  1.00  0.00    -0.094 C  
HETATM   17  N   UNL     1      -7.461  10.882  69.112  1.00  0.00    -0.124 NA 
BRANCH  17  18
HETATM   18  C   UNL     1      -8.870  11.185  68.673  1.00  0.00    -0.155 C  
BRANCH  18  19
HETATM   19  C   UNL     1      -9.246  11.175  67.122  1.00  0.00    -0.165 C  
HETATM   20  C   UNL     1      -9.444  12.533  66.255  1.00  0.00    -0.210 C  
BRANCH  20  21
HETATM   21  C   UNL     1     -10.748  13.331  65.942  1.00  0.00    -0.284 A  
HETATM   22  C   UNL     1     -13.168  14.853  65.595  1.00  0.00     0.920 A  
HETATM   23  C   UNL     1     -11.021  14.536  66.666  1.00  0.00    -0.321 A  
HETATM   24  C   UNL     1     -12.934  13.669  64.883  1.00  0.00    -0.131 A  
HETATM   25  C   UNL     1     -11.749  12.918  65.056  1.00  0.00    -0.381 A  
HETATM   26  C   UNL     1     -12.203  15.287  66.497  1.00  0.00     0.608 A  
ENDBRANCH  20  21
BRANCH  20  27
HETATM   27  N   UNL     1      -8.367  13.472  66.536  1.00  0.00    -0.302 N  
HETATM   28  H   UNL     1      -7.589  13.571  65.885  1.00  0.00     0.000 HD 
HETATM   29  C   UNL     1      -8.407  14.221  67.682  1.00  0.00    -0.181 C  
HETATM   30  O   UNL     1      -9.299  14.075  68.516  1.00  0.00    -0.206 OA 
BRANCH  29  31
HETATM   31  C   UNL     1      -7.229  15.153  67.928  1.00  0.00    -0.158 C  
HETATM   32  C   UNL     1      -8.155  17.211  66.819  1.00  0.00    -0.278 C  
HETATM   33  C   UNL     1      -6.993  16.225  66.860  1.00  0.00    -0.226 C  
HETATM   34  C   UNL     1      -8.437  17.830  68.178  1.00  0.00    -0.262 C  
HETATM   35  F   UNL     1      -9.556  18.589  68.109  1.00  0.00    -0.286 F  
HETATM   36  F   UNL     1      -7.418  18.669  68.503  1.00  0.00    -0.270 F  
HETATM   37  C   UNL     1      -8.595  16.816  69.285  1.00  0.00     0.033 C  
HETATM   38  C   UNL     1      -7.426  15.833  69.287  1.00  0.00    -0.220 C  
ENDBRANCH  29  31
ENDBRANCH  20  27
ENDBRANCH  18  19
ENDBRANCH  17  18
ENDBRANCH   8  10
TORSDOF 6
ENDMDL
MODEL      252
REMARK 921   NORMALIZED FREE ENERGY PREDICTED BY IDOCK:    1.61 KCAL/MOL
REMARK 922        TOTAL FREE ENERGY PREDICTED BY IDOCK:    0.64 KCAL/MOL
REMARK 923 INTER-LIGAND FREE ENERGY PREDICTED BY IDOCK:   -2.46 KCAL/MOL
REMARK 924 INTRA-LIGAND FREE ENERGY PREDICTED BY IDOCK:    3.11 KCAL/MOL
REMARK 927      BINDING AFFINITY PREDICTED BY RF-SCORE:    0.00 PKD
ROOT
HETATM    1  C   UNL     1      -9.498   9.676  65.102  1.00  0.00    -0.332 C  
HETATM    2  C   UNL     1      -9.235   8.420  64.252  1.00  0.00     0.965 C  
HETATM    3  C   UNL     1      -7.821   7.950  64.414  1.00  0.00    -0.139 A  
HETATM    4  C   UNL     1      -9.469   8.722  62.766  1.00  0.00     1.418 C  
HETATM    5  N   UNL     1      -6.796   8.572  63.871  1.00  0.00    -0.079 NA 
HETATM    6  N   UNL     1      -5.750   7.716  63.866  1.00  0.00    -0.044 NA 
HETATM    7  C   UNL     1      -6.099   6.614  64.495  1.00  0.00    -0.035 A  
HETATM    8  N   UNL     1      -7.388   6.756  64.980  1.00  0.00    -0.077 NA 
HETATM    9  C   UNL     1      -5.179   5.465  64.614  1.00  0.00    -0.010 C  
ENDROOT
BRANCH   8  10
HETATM   10  C   UNL     1      -8.226   5.845  65.789  1.00  0.00    -0.130 C  
HETATM   11  C   UNL     1      -8.233   6.061  67.321  1.00  0.00    -0.106 C  
HETATM   12  C   UNL     1      -9.595   6.138  68.036  1.00  0.00    -0.115 C  
HETATM   13  C   UNL     1     -10.019   4.703  68.343  1.00  0.00    -0.134 C  
HETATM   14  C   UNL     1     -10.659   4.262  67.038  1.00  0.00     0.717 C  
HETATM   15  C   UNL     1     -10.800   5.569  66.203  1.00  0.00     0.032 C  
HETATM   16  C   UNL     1      -9.652   5.663  65.187  1.00  0.00     0.430 C  
HETATM   17  N   UNL     1     -10.735   6.625  67.224  1.00  0.00    -0.311 NA 
BRANCH  17  18
HETATM   18  C   UNL     1     -10.680   8.076  66.822  1.00  0.00    -0.007 C  
BRANCH  18  19
HETATM   19  C   UNL     1      -9.658   9.069  67.541  1.00  0.00    -0.182 C  
HETATM   20  C   UNL     1     -10.024   9.881  68.898  1.00  0.00    -0.181 C  
BRANCH  20  21
HETATM   21  C   UNL     1     -10.598  11.322  69.070  1.00  0.00    -0.241 A  
HETATM   22  C   UNL     1     -11.868  13.882  69.420  1.00  0.00    -0.384 A  
HETATM   23  C   UNL     1     -11.644  11.549  70.021  1.00  0.00    -0.364 A  
HETATM   24  C   UNL     1     -10.856  13.685  68.471  1.00  0.00    -0.275 A  
HETATM   25  C   UNL     1     -10.235  12.428  68.294  1.00  0.00    -0.230 A  
HETATM   26  C   UNL     1     -12.266  12.802  70.199  1.00  0.00    -0.320 A  
ENDBRANCH  20  21
BRANCH  20  27
HETATM   27  N   UNL     1     -10.669   8.994  69.857  1.00  0.00    -0.227 N  
HETATM   28  H   UNL     1     -11.647   9.134  70.109  1.00  0.00     0.000 HD 
HETATM   29  C   UNL     1      -9.951   7.971  70.418  1.00  0.00    -0.188 C  
HETATM   30  O   UNL     1      -8.753   7.820  70.182  1.00  0.00    -0.138 OA 
BRANCH  29  31
HETATM   31  C   UNL     1     -10.678   7.110  71.440  1.00  0.00    -0.245 C  
HETATM   32  C   UNL     1     -12.407   8.786  72.164  1.00  0.00    -0.458 C  
HETATM   33  C   UNL     1     -11.290   7.859  72.629  1.00  0.00    -0.468 C  
HETATM   34  C   UNL     1     -13.469   8.055  71.360  1.00  0.00    -0.222 C  
HETATM   35  F   UNL     1     -14.359   8.947  70.864  1.00  0.00    -0.337 F  
HETATM   36  F   UNL     1     -14.164   7.232  72.188  1.00  0.00    -0.378 F  
HETATM   37  C   UNL     1     -12.910   7.231  70.224  1.00  0.00     0.620 C  
HETATM   38  C   UNL     1     -11.781   6.329  70.718  1.00  0.00    -0.289 C  
ENDBRANCH  29  31
ENDBRANCH  20  27
ENDBRANCH  18  19
ENDBRANCH  17  18
ENDBRANCH   8  10
TORSDOF 6
ENDMDL
MODEL      253
REMARK 921   NORMALIZED FREE ENERGY PREDICTED BY IDOCK:    1.85 KCAL/MOL
REMARK 922        TOTAL FREE ENERGY PREDICTED BY IDOCK:    0.95 KCAL/MOL
REMARK 923 INTER-LIGAND FREE ENERGY PREDICTED BY IDOCK:   -0.54 KCAL/MOL
REMARK 924 INTRA-LIGAND FREE ENERGY PREDICTED BY IDOCK:    1.50 KCAL/MOL
REMARK 927      BINDING AFFINITY PREDICTED BY RF-SCORE:    0.00 PKD
ROOT
HETATM    1  C   UNL     1     -11.570   9.752  70.644  1.00  0.00    -0.389 C  
HETATM    2  C   UNL     1     -10.893   9.423  69.303  1.00  0.00    -0.190 C  
HETATM    3  C   UNL     1     -10.917  10.607  68.384  1.00  0.00    -0.251 A  
HETATM    4  C   UNL     1     -11.621   8.265  68.606  1.00  0.00     1.339 C  
HETATM    5  N   UNL     1     -12.009  11.011  67.771  1.00  0.00    -0.524 NA 
HETATM    6  N   UNL     1     -11.637  11.817  66.753  1.00  0.00    -0.536 NA 
HETATM    7  C   UNL     1     -10.333  11.992  66.804  1.00  0.00    -0.207 A  
HETATM    8  N   UNL     1      -9.829  11.332  67.912  1.00  0.00    -0.172 NA 
HETATM    9  C   UNL     1      -9.617  12.791  65.789  1.00  0.00    -0.102 C  
ENDROOT
BRANCH   8  10
HETATM   10  C   UNL     1      -8.454  11.251  68.450  1.00  0.00    -0.153 C  
HETATM   11  C   UNL     1      -7.312  10.981  67.442  1.00  0.00    -0.105 C  
HETATM   12  C   UNL     1      -6.075  11.898  67.485  1.00  0.00    -0.100 C  
HETATM   13  C   UNL     1      -5.133  11.325  68.542  1.00  0.00    -0.039 C  
HETATM   14  C   UNL     1      -5.689  11.909  69.831  1.00  0.00    -0.124 C  
HETATM   15  C   UNL     1      -6.715  12.985  69.368  1.00  0.00    -0.018 C  
HETATM   16  C   UNL     1      -8.138  12.411  69.441  1.00  0.00     0.880 C  
HETATM   17  N   UNL     1      -6.296  13.274  67.988  1.00  0.00    -0.111 NA 
BRANCH  17  18
HETATM   18  C   UNL     1      -7.129  14.168  67.106  1.00  0.00     0.310 C  
BRANCH  18  19
HETATM   19  C   UNL     1      -6.805  15.727  67.011  1.00  0.00    -0.073 C  
HETATM   20  C   UNL     1      -7.803  16.872  67.585  1.00  0.00    -0.173 C  
BRANCH  20  21
HETATM   21  C   UNL     1      -8.917  17.679  66.848  1.00  0.00    -0.258 A  
HETATM   22  C   UNL     1     -10.990  19.303  65.684  1.00  0.00    -0.127 A  
HETATM   23  C   UNL     1      -9.008  19.093  67.057  1.00  0.00    -0.327 A  
HETATM   24  C   UNL     1     -10.933  17.919  65.474  1.00  0.00     0.279 A  
HETATM   25  C   UNL     1      -9.919  17.119  66.049  1.00  0.00    -0.270 A  
HETATM   26  C   UNL     1     -10.020  19.893  66.485  1.00  0.00    -0.591 A  
ENDBRANCH  20  21
BRANCH  20  27
HETATM   27  N   UNL     1      -8.278  16.507  68.912  1.00  0.00    -0.242 N  
HETATM   28  H   UNL     1      -7.639  16.515  69.707  1.00  0.00     0.000 HD 
HETATM   29  C   UNL     1      -9.590  16.153  69.085  1.00  0.00    -0.249 C  
HETATM   30  O   UNL     1     -10.366  16.071  68.135  1.00  0.00    -0.247 OA 
BRANCH  29  31
HETATM   31  C   UNL     1     -10.006  15.747  70.492  1.00  0.00     0.500 C  
HETATM   32  C   UNL     1     -12.494  15.992  70.220  1.00  0.00     0.042 C  
HETATM   33  C   UNL     1     -11.275  16.416  71.031  1.00  0.00    -0.129 C  
HETATM   34  C   UNL     1     -12.646  14.482  70.150  1.00  0.00    -0.288 C  
HETATM   35  F   UNL     1     -13.661  14.165  69.312  1.00  0.00     1.275 F  
HETATM   36  F   UNL     1     -12.997  14.015  71.378  1.00  0.00    -0.364 F  
HETATM   37  C   UNL     1     -11.395  13.765  69.704  1.00  0.00    -0.241 C  
HETATM   38  C   UNL     1     -10.189  14.225  70.522  1.00  0.00     1.436 C  
ENDBRANCH  29  31
ENDBRANCH  20  27
ENDBRANCH  18  19
ENDBRANCH  17  18
ENDBRANCH   8  10
TORSDOF 6
ENDMDL
MODEL      254
REMARK 921   NORMALIZED FREE ENERGY PREDICTED BY IDOCK:    1.86 KCAL/MOL
REMARK 922        TOTAL FREE ENERGY PREDICTED BY IDOCK:    0.97 KCAL/MOL
REMARK 923 INTER-LIGAND FREE ENERGY PREDICTED BY IDOCK:   -0.66 KCAL/MOL
REMARK 924 INTRA-LIGAND FREE ENERGY PREDICTED BY IDOCK:    1.63 KCAL/MOL
REMARK 927      BINDING AFFINITY PREDICTED BY RF-SCORE:    0.00 PKD
ROOT
HETATM    1  C   UNL     1     -10.208   7.172  66.271  1.00  0.00     0.171 C  
HETATM    2  C   UNL     1     -10.531   5.688  66.520  1.00  0.00    -0.309 C  
HETATM    3  C   UNL     1      -9.583   4.800  65.773  1.00  0.00    -0.179 A  
HETATM    4  C   UNL     1     -11.956   5.365  66.051  1.00  0.00     2.616 C  
HETATM    5  N   UNL     1      -9.644   4.627  64.470  1.00  0.00    -0.048 NA 
HETATM    6  N   UNL     1      -8.944   3.512  64.168  1.00  0.00    -0.104 NA 
HETATM    7  C   UNL     1      -8.369   3.061  65.263  1.00  0.00    -0.096 A  
HETATM    8  N   UNL     1      -8.646   3.923  66.310  1.00  0.00    -0.110 NA 
HETATM    9  C   UNL     1      -7.569   1.820  65.264  1.00  0.00    -0.070 C  
ENDROOT
BRANCH   8  10
HETATM   10  C   UNL     1      -8.208   3.907  67.723  1.00  0.00    -0.093 C  
HETATM   11  C   UNL     1      -6.940   4.716  68.082  1.00  0.00    -0.056 C  
HETATM   12  C   UNL     1      -7.009   5.679  69.282  1.00  0.00    -0.063 C  
HETATM   13  C   UNL     1      -6.707   4.854  70.532  1.00  0.00    -0.036 C  
HETATM   14  C   UNL     1      -8.061   4.246  70.861  1.00  0.00    -0.071 C  
HETATM   15  C   UNL     1      -9.068   5.002  69.945  1.00  0.00    -0.119 C  
HETATM   16  C   UNL     1      -9.390   4.146  68.710  1.00  0.00    -0.222 C  
HETATM   17  N   UNL     1      -8.345   6.235  69.600  1.00  0.00    -0.124 NA 
BRANCH  17  18
HETATM   18  C   UNL     1      -8.912   7.197  68.588  1.00  0.00    -0.131 C  
BRANCH  18  19
HETATM   19  C   UNL     1      -8.437   8.721  68.577  1.00  0.00    -0.130 C  
HETATM   20  C   UNL     1      -9.461   9.964  68.781  1.00  0.00    -0.157 C  
BRANCH  20  21
HETATM   21  C   UNL     1     -10.205  10.824  67.712  1.00  0.00    -0.212 A  
HETATM   22  C   UNL     1     -11.566  12.592  65.892  1.00  0.00    -0.454 A  
HETATM   23  C   UNL     1      -9.858  12.205  67.562  1.00  0.00    -0.193 A  
HETATM   24  C   UNL     1     -11.937  11.247  66.029  1.00  0.00     1.116 A  
HETATM   25  C   UNL     1     -11.273  10.380  66.926  1.00  0.00     0.058 A  
HETATM   26  C   UNL     1     -10.519  13.074  66.669  1.00  0.00    -0.271 A  
ENDBRANCH  20  21
BRANCH  20  27
HETATM   27  N   UNL     1     -10.366   9.696  69.890  1.00  0.00    -0.230 N  
HETATM   28  H   UNL     1     -11.355   9.931  69.815  1.00  0.00     0.000 HD 
HETATM   29  C   UNL     1      -9.877   9.125  71.036  1.00  0.00    -0.296 C  
HETATM   30  O   UNL     1      -8.678   8.892  71.179  1.00  0.00    -0.189 OA 
BRANCH  29  31
HETATM   31  C   UNL     1     -10.873   8.910  72.167  1.00  0.00    -0.339 C  
HETATM   32  C   UNL     1     -12.535   7.491  70.923  1.00  0.00    -0.163 C  
HETATM   33  C   UNL     1     -12.338   8.759  71.746  1.00  0.00    -0.412 C  
HETATM   34  C   UNL     1     -12.031   6.251  71.642  1.00  0.00    -0.212 C  
HETATM   35  F   UNL     1     -12.108   5.182  70.815  1.00  0.00     1.240 F  
HETATM   36  F   UNL     1     -12.848   5.986  72.696  1.00  0.00    -0.109 F  
HETATM   37  C   UNL     1     -10.616   6.379  72.153  1.00  0.00    -0.249 C  
HETATM   38  C   UNL     1     -10.447   7.667  72.956  1.00  0.00    -0.414 C  
ENDBRANCH  29  31
ENDBRANCH  20  27
ENDBRANCH  18  19
ENDBRANCH  17  18
ENDBRANCH   8  10
TORSDOF 6
ENDMDL
MODEL      255
REMARK 921   NORMALIZED FREE ENERGY PREDICTED BY IDOCK:    2.16 KCAL/MOL
REMARK 922        TOTAL FREE ENERGY PREDICTED BY IDOCK:    1.38 KCAL/MOL
REMARK 923 INTER-LIGAND FREE ENERGY PREDICTED BY IDOCK:   -2.74 KCAL/MOL
REMARK 924 INTRA-LIGAND FREE ENERGY PREDICTED BY IDOCK:    4.12 KCAL/MOL
REMARK 927      BINDING AFFINITY PREDICTED BY RF-SCORE:    0.00 PKD
ROOT
HETATM    1  C   UNL     1     -11.114  19.321  69.242  1.00  0.00     2.037 C  
HETATM    2  C   UNL     1     -10.557  19.421  67.811  1.00  0.00    -0.538 C  
HETATM    3  C   UNL     1      -9.314  18.597  67.660  1.00  0.00    -0.288 A  
HETATM    4  C   UNL     1     -10.207  20.877  67.474  1.00  0.00     0.090 C  
HETATM    5  N   UNL     1      -8.155  18.955  68.171  1.00  0.00    -0.291 NA 
HETATM    6  N   UNL     1      -7.192  18.240  67.550  1.00  0.00    -0.204 NA 
HETATM    7  C   UNL     1      -7.762  17.374  66.739  1.00  0.00    -0.238 A  
HETATM    8  N   UNL     1      -9.137  17.474  66.860  1.00  0.00    -0.247 NA 
HETATM    9  C   UNL     1      -6.965  16.475  65.880  1.00  0.00     1.155 C  
ENDROOT
BRANCH   8  10
HETATM   10  C   UNL     1     -10.226  16.707  66.218  1.00  0.00    -0.334 C  
HETATM   11  C   UNL     1      -9.833  15.727  65.087  1.00  0.00     0.061 C  
HETATM   12  C   UNL     1     -10.372  14.286  65.155  1.00  0.00    -0.415 C  
HETATM   13  C   UNL     1     -11.760  14.300  64.516  1.00  0.00    -0.431 C  
HETATM   14  C   UNL     1     -12.647  14.754  65.663  1.00  0.00     0.067 C  
HETATM   15  C   UNL     1     -11.735  14.682  66.923  1.00  0.00    -0.350 C  
HETATM   16  C   UNL     1     -11.203  16.084  67.259  1.00  0.00    -0.041 C  
HETATM   17  N   UNL     1     -10.666  13.760  66.509  1.00  0.00    -0.283 NA 
BRANCH  17  18
HETATM   18  C   UNL     1      -9.470  13.527  67.395  1.00  0.00    -0.225 C  
BRANCH  18  19
HETATM   19  C   UNL     1      -8.242  14.545  67.367  1.00  0.00    -0.220 C  
HETATM   20  C   UNL     1      -6.779  14.179  67.969  1.00  0.00    -0.148 C  
BRANCH  20  21
HETATM   21  C   UNL     1      -6.190  14.457  69.387  1.00  0.00    -0.113 A  
HETATM   22  C   UNL     1      -5.283  14.846  72.092  1.00  0.00    -0.073 A  
HETATM   23  C   UNL     1      -6.275  13.439  70.391  1.00  0.00    -0.006 A  
HETATM   24  C   UNL     1      -5.200  15.865  71.133  1.00  0.00    -0.083 A  
HETATM   25  C   UNL     1      -5.650  15.677  69.806  1.00  0.00    -0.123 A  
HETATM   26  C   UNL     1      -5.829  13.624  71.716  1.00  0.00     0.101 A  
ENDBRANCH  20  21
BRANCH  20  27
HETATM   27  N   UNL     1      -6.377  12.847  67.539  1.00  0.00    -0.159 N  
HETATM   28  H   UNL     1      -5.603  12.730  66.885  1.00  0.00     0.000 HD 
HETATM   29  C   UNL     1      -7.046  11.752  68.018  1.00  0.00    -0.082 C  
HETATM   30  O   UNL     1      -8.024  11.867  68.755  1.00  0.00    -0.123 OA 
BRANCH  29  31
HETATM   31  C   UNL     1      -6.596  10.396  67.495  1.00  0.00    -0.066 C  
HETATM   32  C   UNL     1      -8.803   9.200  67.637  1.00  0.00    -0.123 C  
HETATM   33  C   UNL     1      -7.340   9.182  68.062  1.00  0.00    -0.083 C  
HETATM   34  C   UNL     1      -8.967   9.300  66.130  1.00  0.00    -0.165 C  
HETATM   35  F   UNL     1     -10.277   9.447  65.823  1.00  0.00    -0.371 F  
HETATM   36  F   UNL     1      -8.563   8.133  65.562  1.00  0.00    -0.141 F  
HETATM   37  C   UNL     1      -8.184  10.432  65.508  1.00  0.00    -0.162 C  
HETATM   38  C   UNL     1      -6.729  10.397  65.968  1.00  0.00    -0.124 C  
ENDBRANCH  29  31
ENDBRANCH  20  27
ENDBRANCH  18  19
ENDBRANCH  17  18
ENDBRANCH   8  10
TORSDOF 6
ENDMDL
MODEL      256
REMARK 921   NORMALIZED FREE ENERGY PREDICTED BY IDOCK:    2.38 KCAL/MOL
REMARK 922        TOTAL FREE ENERGY PREDICTED BY IDOCK:    1.68 KCAL/MOL
REMARK 923 INTER-LIGAND FREE ENERGY PREDICTED BY IDOCK:    0.95 KCAL/MOL
REMARK 924 INTRA-LIGAND FREE ENERGY PREDICTED BY IDOCK:    0.73 KCAL/MOL
REMARK 927      BINDING AFFINITY PREDICTED BY RF-SCORE:    0.00 PKD
ROOT
HETATM    1  C   UNL     1     -11.574  14.899  63.598  1.00  0.00     0.903 C  
HETATM    2  C   UNL     1     -12.233  14.529  64.938  1.00  0.00    -0.409 C  
HETATM    3  C   UNL     1     -11.705  13.225  65.454  1.00  0.00    -0.343 A  
HETATM    4  C   UNL     1     -13.753  14.393  64.768  1.00  0.00     2.208 C  
HETATM    5  N   UNL     1     -12.039  12.064  64.932  1.00  0.00    -0.307 NA 
HETATM    6  N   UNL     1     -11.728  11.103  65.830  1.00  0.00     0.195 NA 
HETATM    7  C   UNL     1     -11.111  11.660  66.851  1.00  0.00    -0.308 A  
HETATM    8  N   UNL     1     -10.958  13.013  66.607  1.00  0.00    -0.275 NA 
HETATM    9  C   UNL     1     -10.686  10.869  68.023  1.00  0.00    -0.263 C  
ENDROOT
BRANCH   8  10
HETATM   10  C   UNL     1     -10.298  14.073  67.400  1.00  0.00    -0.259 C  
HETATM   11  C   UNL     1     -10.471  14.021  68.937  1.00  0.00    -0.210 C  
HETATM   12  C   UNL     1      -9.209  14.137  69.813  1.00  0.00     1.090 C  
HETATM   13  C   UNL     1      -8.933  15.628  70.001  1.00  0.00     0.380 C  
HETATM   14  C   UNL     1      -8.165  15.983  68.738  1.00  0.00    -0.211 C  
HETATM   15  C   UNL     1      -7.824  14.612  68.083  1.00  0.00    -0.128 C  
HETATM   16  C   UNL     1      -8.824  14.313  66.955  1.00  0.00    -0.234 C  
HETATM   17  N   UNL     1      -7.943  13.667  69.203  1.00  0.00     0.182 NA 
BRANCH  17  18
HETATM   18  C   UNL     1      -7.840  12.183  68.967  1.00  0.00     0.169 C  
BRANCH  18  19
HETATM   19  C   UNL     1      -7.487  11.202  70.175  1.00  0.00     0.861 C  
HETATM   20  C   UNL     1      -7.512   9.585  70.034  1.00  0.00    -0.126 C  
BRANCH  20  21
HETATM   21  C   UNL     1      -8.660   8.577  70.353  1.00  0.00    -0.146 A  
HETATM   22  C   UNL     1     -10.703   6.589  70.759  1.00  0.00    -0.290 A  
HETATM   23  C   UNL     1      -8.429   7.175  70.175  1.00  0.00    -0.139 A  
HETATM   24  C   UNL     1     -10.962   7.956  70.928  1.00  0.00    -0.256 A  
HETATM   25  C   UNL     1      -9.961   8.933  70.724  1.00  0.00    -0.282 A  
HETATM   26  C   UNL     1      -9.426   6.197  70.376  1.00  0.00    -0.179 A  
ENDBRANCH  20  21
BRANCH  20  27
HETATM   27  N   UNL     1      -6.848   9.176  68.804  1.00  0.00    -0.060 N  
HETATM   28  H   UNL     1      -6.891   9.768  67.976  1.00  0.00     0.000 HD 
HETATM   29  C   UNL     1      -6.165   7.989  68.769  1.00  0.00    -0.040 C  
HETATM   30  O   UNL     1      -6.152   7.225  69.733  1.00  0.00    -0.026 OA 
BRANCH  29  31
HETATM   31  C   UNL     1      -5.529   7.609  67.440  1.00  0.00    -0.035 C  
HETATM   32  C   UNL     1      -7.014   5.661  66.870  1.00  0.00    -0.065 C  
HETATM   33  C   UNL     1      -5.576   6.120  67.081  1.00  0.00    -0.009 C  
HETATM   34  C   UNL     1      -7.747   6.506  65.842  1.00  0.00    -0.090 C  
HETATM   35  F   UNL     1      -9.049   6.139  65.796  1.00  0.00    -0.162 F  
HETATM   36  F   UNL     1      -7.229   6.253  64.611  1.00  0.00    -0.054 F  
HETATM   37  C   UNL     1      -7.660   7.990  66.103  1.00  0.00    -0.086 C  
HETATM   38  C   UNL     1      -6.211   8.415  66.329  1.00  0.00    -0.049 C  
ENDBRANCH  29  31
ENDBRANCH  20  27
ENDBRANCH  18  19
ENDBRANCH  17  18
ENDBRANCH   8  10
TORSDOF 6
ENDMDL
MODEL      257
REMARK 921   NORMALIZED FREE ENERGY PREDICTED BY IDOCK:    3.38 KCAL/MOL
REMARK 922        TOTAL FREE ENERGY PREDICTED BY IDOCK:    3.03 KCAL/MOL
REMARK 923 INTER-LIGAND FREE ENERGY PREDICTED BY IDOCK:    1.04 KCAL/MOL
REMARK 924 INTRA-LIGAND FREE ENERGY PREDICTED BY IDOCK:    1.99 KCAL/MOL
REMARK 927      BINDING AFFINITY PREDICTED BY RF-SCORE:    0.00 PKD
ROOT
HETATM    1  C   UNL     1      -7.918  10.292  71.322  1.00  0.00     2.466 C  
HETATM    2  C   UNL     1      -8.193   9.348  70.138  1.00  0.00    -0.180 C  
HETATM    3  C   UNL     1      -9.412   9.779  69.380  1.00  0.00    -0.201 A  
HETATM    4  C   UNL     1      -8.426   7.916  70.639  1.00  0.00    -0.125 C  
HETATM    5  N   UNL     1     -10.634   9.612  69.840  1.00  0.00    -0.231 NA 
HETATM    6  N   UNL     1     -11.486   9.732  68.798  1.00  0.00     0.078 NA 
HETATM    7  C   UNL     1     -10.803  10.076  67.727  1.00  0.00    -0.282 A  
HETATM    8  N   UNL     1      -9.472  10.241  68.070  1.00  0.00    -0.145 NA 
HETATM    9  C   UNL     1     -11.453  10.238  66.411  1.00  0.00     1.086 C  
ENDROOT
BRANCH   8  10
HETATM   10  C   UNL     1      -8.307  10.665  67.263  1.00  0.00    -0.120 C  
HETATM   11  C   UNL     1      -6.989  10.957  68.019  1.00  0.00    -0.072 C  
HETATM   12  C   UNL     1      -5.695  10.302  67.500  1.00  0.00    -0.045 C  
HETATM   13  C   UNL     1      -5.144  11.213  66.404  1.00  0.00    -0.116 C  
HETATM   14  C   UNL     1      -5.932  10.772  65.181  1.00  0.00     0.003 C  
HETATM   15  C   UNL     1      -6.650   9.463  65.624  1.00  0.00    -0.070 C  
HETATM   16  C   UNL     1      -8.108   9.773  66.001  1.00  0.00    -0.114 C  
HETATM   17  N   UNL     1      -5.854   9.018  66.777  1.00  0.00    -0.051 NA 
BRANCH  17  18
HETATM   18  C   UNL     1      -6.303   7.848  67.612  1.00  0.00    -0.052 C  
BRANCH  18  19
HETATM   19  C   UNL     1      -5.273   6.687  67.986  1.00  0.00    -0.008 C  
HETATM   20  C   UNL     1      -5.413   5.171  67.424  1.00  0.00    -0.012 C  
BRANCH  20  21
HETATM   21  C   UNL     1      -6.104   3.931  68.072  1.00  0.00    -0.032 A  
HETATM   22  C   UNL     1      -7.421   1.778  69.459  1.00  0.00    -0.043 A  
HETATM   23  C   UNL     1      -7.257   4.127  68.900  1.00  0.00    -0.055 A  
HETATM   24  C   UNL     1      -6.286   1.559  68.666  1.00  0.00    -0.025 A  
HETATM   25  C   UNL     1      -5.635   2.616  67.990  1.00  0.00    -0.018 A  
HETATM   26  C   UNL     1      -7.907   3.075  69.578  1.00  0.00    -0.052 A  
ENDBRANCH  20  21
BRANCH  20  27
HETATM   27  N   UNL     1      -5.702   5.186  65.998  1.00  0.00    -0.017 N  
HETATM   28  H   UNL     1      -5.151   5.768  65.368  1.00  0.00     0.000 HD 
HETATM   29  C   UNL     1      -6.721   4.413  65.508  1.00  0.00    -0.052 C  
HETATM   30  O   UNL     1      -7.444   3.753  66.252  1.00  0.00    -0.078 OA 
BRANCH  29  31
HETATM   31  C   UNL     1      -6.992   4.509  64.013  1.00  0.00    -0.045 C  
HETATM   32  C   UNL     1      -8.987   2.982  63.905  1.00  0.00    -0.097 C  
HETATM   33  C   UNL     1      -7.589   3.257  63.362  1.00  0.00    -0.063 C  
HETATM   34  C   UNL     1      -9.910   4.180  63.762  1.00  0.00    -0.099 C  
HETATM   35  F   UNL     1     -11.088   3.923  64.379  1.00  0.00    -0.313 F  
HETATM   36  F   UNL     1     -10.194   4.366  62.446  1.00  0.00    -0.168 F  
HETATM   37  C   UNL     1      -9.332   5.461  64.313  1.00  0.00     0.507 C  
HETATM   38  C   UNL     1      -7.927   5.698  63.766  1.00  0.00    -0.120 C  
ENDBRANCH  29  31
ENDBRANCH  20  27
ENDBRANCH  18  19
ENDBRANCH  17  18
ENDBRANCH   8  10
TORSDOF 6
ENDMDL
MODEL      258
REMARK 921   NORMALIZED FREE ENERGY PREDICTED BY IDOCK:    4.63 KCAL/MOL
REMARK 922        TOTAL FREE ENERGY PREDICTED BY IDOCK:    4.72 KCAL/MOL
REMARK 923 INTER-LIGAND FREE ENERGY PREDICTED BY IDOCK:    4.87 KCAL/MOL
REMARK 924 INTRA-LIGAND FREE ENERGY PREDICTED BY IDOCK:   -0.15 KCAL/MOL
REMARK 927      BINDING AFFINITY PREDICTED BY RF-SCORE:    0.00 PKD
ROOT
HETATM    1  C   UNL     1     -10.806  19.891  66.806  1.00  0.00    -0.350 C  
HETATM    2  C   UNL     1      -9.826  18.735  67.074  1.00  0.00    -0.359 C  
HETATM    3  C   UNL     1      -8.632  18.823  66.172  1.00  0.00    -0.151 A  
HETATM    4  C   UNL     1     -10.512  17.384  66.823  1.00  0.00    -0.257 C  
HETATM    5  N   UNL     1      -8.682  18.527  64.891  1.00  0.00     2.620 NA 
HETATM    6  N   UNL     1      -7.416  18.329  64.463  1.00  0.00     2.880 NA 
HETATM    7  C   UNL     1      -6.587  18.605  65.448  1.00  0.00    -0.234 A  
HETATM    8  N   UNL     1      -7.311  19.048  66.541  1.00  0.00    -0.225 NA 
HETATM    9  C   UNL     1      -5.127  18.438  65.301  1.00  0.00    -0.204 C  
ENDROOT
BRANCH   8  10
HETATM   10  C   UNL     1      -6.868  19.527  67.869  1.00  0.00    -0.243 C  
HETATM   11  C   UNL     1      -7.881  19.425  69.034  1.00  0.00    -0.325 C  
HETATM   12  C   UNL     1      -7.409  18.781  70.351  1.00  0.00     1.577 C  
HETATM   13  C   UNL     1      -6.739  19.883  71.170  1.00  0.00     0.313 C  
HETATM   14  C   UNL     1      -5.329  19.906  70.603  1.00  0.00    -0.273 C  
HETATM   15  C   UNL     1      -5.238  18.629  69.716  1.00  0.00    -0.187 C  
HETATM   16  C   UNL     1      -5.447  19.005  68.241  1.00  0.00    -0.191 C  
HETATM   17  N   UNL     1      -6.320  17.781  70.239  1.00  0.00     0.196 NA 
BRANCH  17  18
HETATM   18  C   UNL     1      -6.684  16.492  69.550  1.00  0.00    -0.198 C  
BRANCH  18  19
HETATM   19  C   UNL     1      -7.359  15.305  70.375  1.00  0.00     0.534 C  
HETATM   20  C   UNL     1      -8.668  14.500  69.850  1.00  0.00     0.772 C  
BRANCH  20  21
HETATM   21  C   UNL     1     -10.177  14.753  70.153  1.00  0.00     0.217 A  
HETATM   22  C   UNL     1     -12.899  15.427  70.808  1.00  0.00    -0.524 A  
HETATM   23  C   UNL     1     -10.697  16.084  70.051  1.00  0.00    -0.328 A  
HETATM   24  C   UNL     1     -12.414  14.118  70.931  1.00  0.00    -0.436 A  
HETATM   25  C   UNL     1     -11.076  13.787  70.615  1.00  0.00     0.843 A  
HETATM   26  C   UNL     1     -12.030  16.418  70.367  1.00  0.00     0.290 A  
ENDBRANCH  20  21
BRANCH  20  27
HETATM   27  N   UNL     1      -8.515  14.152  68.444  1.00  0.00    -0.167 N  
HETATM   28  H   UNL     1      -8.155  14.838  67.781  1.00  0.00     0.000 HD 
HETATM   29  C   UNL     1      -8.859  12.896  68.019  1.00  0.00    -0.195 C  
HETATM   30  O   UNL     1      -9.357  12.071  68.784  1.00  0.00    -0.091 OA 
BRANCH  29  31
HETATM   31  C   UNL     1      -8.710  12.616  66.531  1.00  0.00    -0.011 C  
HETATM   32  C   UNL     1     -11.149  12.591  65.919  1.00  0.00    -0.334 C  
HETATM   33  C   UNL     1      -9.842  11.807  65.888  1.00  0.00    -0.265 C  
HETATM   34  C   UNL     1     -11.016  13.965  65.285  1.00  0.00    -0.331 C  
HETATM   35  F   UNL     1     -12.164  14.661  65.461  1.00  0.00    -0.360 F  
HETATM   36  F   UNL     1     -10.852  13.820  63.944  1.00  0.00    -0.277 F  
HETATM   37  C   UNL     1      -9.860  14.773  65.825  1.00  0.00    -0.373 C  
HETATM   38  C   UNL     1      -8.571  13.955  65.798  1.00  0.00     1.512 C  
ENDBRANCH  29  31
ENDBRANCH  20  27
ENDBRANCH  18  19
ENDBRANCH  17  18
ENDBRANCH   8  10
TORSDOF 6
ENDMDL
MODEL      259
REMARK 921   NORMALIZED FREE ENERGY PREDICTED BY IDOCK:    4.72 KCAL/MOL
REMARK 922        TOTAL FREE ENERGY PREDICTED BY IDOCK:    4.84 KCAL/MOL
REMARK 923 INTER-LIGAND FREE ENERGY PREDICTED BY IDOCK:    4.52 KCAL/MOL
REMARK 924 INTRA-LIGAND FREE ENERGY PREDICTED BY IDOCK:    0.31 KCAL/MOL
REMARK 927      BINDING AFFINITY PREDICTED BY RF-SCORE:    0.00 PKD
ROOT
HETATM    1  C   UNL     1     -12.624  17.761  67.893  1.00  0.00     4.949 C  
HETATM    2  C   UNL     1     -11.950  16.420  68.231  1.00  0.00     0.495 C  
HETATM    3  C   UNL     1     -11.466  15.735  66.988  1.00  0.00     0.125 A  
HETATM    4  C   UNL     1     -12.943  15.484  68.933  1.00  0.00     1.315 C  
HETATM    5  N   UNL     1     -12.278  15.150  66.134  1.00  0.00     0.262 NA 
HETATM    6  N   UNL     1     -11.540  14.318  65.366  1.00  0.00    -0.337 NA 
HETATM    7  C   UNL     1     -10.269  14.471  65.675  1.00  0.00    -0.357 A  
HETATM    8  N   UNL     1     -10.150  15.463  66.632  1.00  0.00    -0.258 NA 
HETATM    9  C   UNL     1      -9.214  13.660  65.035  1.00  0.00     1.182 C  
ENDROOT
BRANCH   8  10
HETATM   10  C   UNL     1      -8.955  16.050  67.277  1.00  0.00    -0.197 C  
HETATM   11  C   UNL     1      -8.696  15.683  68.758  1.00  0.00    -0.197 C  
HETATM   12  C   UNL     1      -7.287  15.196  69.149  1.00  0.00    -0.167 C  
HETATM   13  C   UNL     1      -6.446  16.442  69.421  1.00  0.00    -0.206 C  
HETATM   14  C   UNL     1      -5.990  16.843  68.028  1.00  0.00    -0.129 C  
HETATM   15  C   UNL     1      -6.370  15.635  67.123  1.00  0.00     0.114 C  
HETATM   16  C   UNL     1      -7.684  15.934  66.383  1.00  0.00     0.055 C  
HETATM   17  N   UNL     1      -6.505  14.529  68.082  1.00  0.00    -0.124 NA 
BRANCH  17  18
HETATM   18  C   UNL     1      -7.021  13.186  67.634  1.00  0.00    -0.154 C  
BRANCH  18  19
HETATM   19  C   UNL     1      -7.450  12.091  68.714  1.00  0.00    -0.086 C  
HETATM   20  C   UNL     1      -8.747  11.133  68.530  1.00  0.00    -0.161 C  
BRANCH  20  21
HETATM   21  C   UNL     1     -10.207  11.327  69.045  1.00  0.00    -0.169 A  
HETATM   22  C   UNL     1     -12.812  11.831  70.162  1.00  0.00     0.225 A  
HETATM   23  C   UNL     1     -10.611  12.613  69.530  1.00  0.00     0.381 A  
HETATM   24  C   UNL     1     -12.439  10.559  69.708  1.00  0.00    -0.133 A  
HETATM   25  C   UNL     1     -11.158  10.309  69.165  1.00  0.00    -0.283 A  
HETATM   26  C   UNL     1     -11.888  12.865  70.074  1.00  0.00    -0.356 A  
ENDBRANCH  20  21
BRANCH  20  27
HETATM   27  N   UNL     1      -8.786  10.592  67.179  1.00  0.00    -0.136 N  
HETATM   28  H   UNL     1      -8.578  11.190  66.380  1.00  0.00     0.000 HD 
HETATM   29  C   UNL     1      -9.106   9.274  66.989  1.00  0.00    -0.130 C  
HETATM   30  O   UNL     1      -9.426   8.546  67.928  1.00  0.00    -0.138 OA 
BRANCH  29  31
HETATM   31  C   UNL     1      -9.166   8.788  65.548  1.00  0.00    -0.202 C  
HETATM   32  C   UNL     1      -8.238  10.842  64.433  1.00  0.00     0.100 C  
HETATM   33  C   UNL     1      -9.410   9.869  64.489  1.00  0.00    -0.336 C  
HETATM   34  C   UNL     1      -6.910  10.136  64.214  1.00  0.00    -0.103 C  
HETATM   35  F   UNL     1      -5.898  11.031  64.306  1.00  0.00    -0.040 F  
HETATM   36  F   UNL     1      -6.875   9.640  62.949  1.00  0.00    -0.098 F  
HETATM   37  C   UNL     1      -6.658   9.004  65.180  1.00  0.00    -0.072 C  
HETATM   38  C   UNL     1      -7.856   8.059  65.228  1.00  0.00    -0.113 C  
ENDBRANCH  29  31
ENDBRANCH  20  27
ENDBRANCH  18  19
ENDBRANCH  17  18
ENDBRANCH   8  10
TORSDOF 6
ENDMDL
MODEL      260
REMARK 921   NORMALIZED FREE ENERGY PREDICTED BY IDOCK:    6.05 KCAL/MOL
REMARK 922        TOTAL FREE ENERGY PREDICTED BY IDOCK:    6.63 KCAL/MOL
REMARK 923 INTER-LIGAND FREE ENERGY PREDICTED BY IDOCK:    1.06 KCAL/MOL
REMARK 924 INTRA-LIGAND FREE ENERGY PREDICTED BY IDOCK:    5.57 KCAL/MOL
REMARK 927      BINDING AFFINITY PREDICTED BY RF-SCORE:    0.00 PKD
ROOT
HETATM    1  C   UNL     1     -10.321  15.148  71.637  1.00  0.00     1.256 C  
HETATM    2  C   UNL     1     -11.122  15.971  70.614  1.00  0.00    -0.352 C  
HETATM    3  C   UNL     1     -10.406  17.241  70.267  1.00  0.00     0.859 A  
HETATM    4  C   UNL     1     -12.498  16.342  71.185  1.00  0.00     0.298 C  
HETATM    5  N   UNL     1     -10.337  18.267  71.088  1.00  0.00     2.594 NA 
HETATM    6  N   UNL     1      -9.986  19.352  70.362  1.00  0.00     0.827 NA 
HETATM    7  C   UNL     1      -9.738  18.975  69.126  1.00  0.00    -0.255 A  
HETATM    8  N   UNL     1      -9.874  17.600  69.034  1.00  0.00    -0.273 NA 
HETATM    9  C   UNL     1      -9.374  19.948  68.077  1.00  0.00    -0.431 C  
ENDROOT
BRANCH   8  10
HETATM   10  C   UNL     1      -9.662  16.679  67.897  1.00  0.00    -0.244 C  
HETATM   11  C   UNL     1      -9.076  15.282  68.215  1.00  0.00    -0.181 C  
HETATM   12  C   UNL     1      -9.789  14.046  67.634  1.00  0.00    -0.233 C  
HETATM   13  C   UNL     1      -9.240  13.839  66.224  1.00  0.00    -0.095 C  
HETATM   14  C   UNL     1     -10.085  14.793  65.396  1.00  0.00    -0.406 C  
HETATM   15  C   UNL     1     -11.226  15.245  66.355  1.00  0.00    -0.224 C  
HETATM   16  C   UNL     1     -10.894  16.625  66.943  1.00  0.00    -0.060 C  
HETATM   17  N   UNL     1     -11.242  14.188  67.377  1.00  0.00    -0.306 NA 
BRANCH  17  18
HETATM   18  C   UNL     1     -12.113  14.318  68.599  1.00  0.00    -0.260 C  
BRANCH  18  19
HETATM   19  C   UNL     1     -11.609  13.758  70.006  1.00  0.00    -0.265 C  
HETATM   20  C   UNL     1     -11.403  12.176  70.303  1.00  0.00     0.355 C  
BRANCH  20  21
HETATM   21  C   UNL     1     -12.390  11.146  70.935  1.00  0.00    -0.500 A  
HETATM   22  C   UNL     1     -14.296   9.208  71.884  1.00  0.00    -0.221 A  
HETATM   23  C   UNL     1     -12.714   9.953  70.212  1.00  0.00     0.072 A  
HETATM   24  C   UNL     1     -14.009  10.374  72.607  1.00  0.00     0.760 A  
HETATM   25  C   UNL     1     -13.077  11.329  72.140  1.00  0.00    -0.272 A  
HETATM   26  C   UNL     1     -13.644   8.999  70.675  1.00  0.00     0.488 A  
ENDBRANCH  20  21
BRANCH  20  27
HETATM   27  N   UNL     1     -10.700  11.543  69.196  1.00  0.00    -0.336 N  
HETATM   28  H   UNL     1     -10.656  12.001  68.286  1.00  0.00     0.000 HD 
HETATM   29  C   UNL     1     -10.097  10.328  69.385  1.00  0.00    -0.235 C  
HETATM   30  O   UNL     1     -10.189   9.723  70.453  1.00  0.00    -0.269 OA 
BRANCH  29  31
HETATM   31  C   UNL     1      -9.414   9.709  68.174  1.00  0.00    -0.144 C  
HETATM   32  C   UNL     1      -8.886   7.459  69.164  1.00  0.00    -0.136 C  
HETATM   33  C   UNL     1      -8.309   8.692  68.479  1.00  0.00    -0.123 C  
HETATM   34  C   UNL     1     -10.018   6.831  68.369  1.00  0.00    -0.151 C  
HETATM   35  F   UNL     1     -10.576   5.827  69.086  1.00  0.00    -0.255 F  
HETATM   36  F   UNL     1      -9.509   6.266  67.242  1.00  0.00    -0.117 F  
HETATM   37  C   UNL     1     -11.095   7.810  67.969  1.00  0.00     0.237 C  
HETATM   38  C   UNL     1     -10.485   9.042  67.304  1.00  0.00    -0.343 C  
ENDBRANCH  29  31
ENDBRANCH  20  27
ENDBRANCH  18  19
ENDBRANCH  17  18
ENDBRANCH   8  10
TORSDOF 6
ENDMDL
MODEL      261
REMARK 921   NORMALIZED FREE ENERGY PREDICTED BY IDOCK:    8.08 KCAL/MOL
REMARK 922        TOTAL FREE ENERGY PREDICTED BY IDOCK:    9.37 KCAL/MOL
REMARK 923 INTER-LIGAND FREE ENERGY PREDICTED BY IDOCK:    5.35 KCAL/MOL
REMARK 924 INTRA-LIGAND FREE ENERGY PREDICTED BY IDOCK:    4.02 KCAL/MOL
REMARK 927      BINDING AFFINITY PREDICTED BY RF-SCORE:    0.00 PKD
ROOT
HETATM    1  C   UNL     1      -6.319  16.362  67.010  1.00  0.00    -0.176 C  
HETATM    2  C   UNL     1      -7.029  15.173  67.681  1.00  0.00    -0.206 C  
HETATM    3  C   UNL     1      -6.403  14.851  69.004  1.00  0.00    -0.099 A  
HETATM    4  C   UNL     1      -6.933  13.924  66.794  1.00  0.00     1.427 C  
HETATM    5  N   UNL     1      -5.234  14.257  69.115  1.00  0.00    -0.078 NA 
HETATM    6  N   UNL     1      -5.137  13.769  70.371  1.00  0.00    -0.092 NA 
HETATM    7  C   UNL     1      -6.192  14.151  71.059  1.00  0.00    -0.023 A  
HETATM    8  N   UNL     1      -6.987  14.957  70.262  1.00  0.00    -0.036 NA 
HETATM    9  C   UNL     1      -6.398  13.732  72.460  1.00  0.00     1.662 C  
ENDROOT
BRANCH   8  10
HETATM   10  C   UNL     1      -8.244  15.677  70.559  1.00  0.00     1.675 C  
HETATM   11  C   UNL     1      -9.010  16.290  69.362  1.00  0.00    -0.071 C  
HETATM   12  C   UNL     1     -10.517  15.999  69.239  1.00  0.00    -0.257 C  
HETATM   13  C   UNL     1     -11.242  17.034  70.097  1.00  0.00     0.573 C  
HETATM   14  C   UNL     1     -11.173  16.420  71.485  1.00  0.00     0.059 C  
HETATM   15  C   UNL     1     -10.672  14.964  71.249  1.00  0.00     0.473 C  
HETATM   16  C   UNL     1      -9.164  14.882  71.534  1.00  0.00     3.898 C  
HETATM   17  N   UNL     1     -10.990  14.726  69.834  1.00  0.00    -0.232 NA 
BRANCH  17  18
HETATM   18  C   UNL     1     -10.525  13.470  69.145  1.00  0.00     0.035 C  
BRANCH  18  19
HETATM   19  C   UNL     1      -9.688  13.560  67.789  1.00  0.00    -0.226 C  
HETATM   20  C   UNL     1     -10.255  14.281  66.450  1.00  0.00    -0.291 C  
BRANCH  20  21
HETATM   21  C   UNL     1     -11.005  13.661  65.230  1.00  0.00    -0.314 A  
HETATM   22  C   UNL     1     -12.219  12.353  62.970  1.00  0.00    -0.122 A  
HETATM   23  C   UNL     1     -11.025  12.237  65.072  1.00  0.00    -0.344 A  
HETATM   24  C   UNL     1     -12.202  13.749  63.092  1.00  0.00     0.253 A  
HETATM   25  C   UNL     1     -11.602  14.392  64.198  1.00  0.00    -0.183 A  
HETATM   26  C   UNL     1     -11.622  11.592  63.968  1.00  0.00    -0.371 A  
ENDBRANCH  20  21
BRANCH  20  27
HETATM   27  N   UNL     1     -10.866  15.559  66.785  1.00  0.00    -0.310 N  
HETATM   28  H   UNL     1     -11.657  15.598  67.426  1.00  0.00     0.000 HD 
HETATM   29  C   UNL     1     -10.369  16.710  66.232  1.00  0.00    -0.317 C  
HETATM   30  O   UNL     1      -9.458  16.686  65.406  1.00  0.00    -0.413 OA 
BRANCH  29  31
HETATM   31  C   UNL     1     -11.081  18.004  66.598  1.00  0.00     0.422 C  
HETATM   32  C   UNL     1      -9.205  19.110  67.855  1.00  0.00    -0.358 C  
HETATM   33  C   UNL     1     -10.656  18.648  67.922  1.00  0.00    -0.397 C  
HETATM   34  C   UNL     1      -8.944  20.033  66.676  1.00  0.00    -0.355 C  
HETATM   35  F   UNL     1      -7.620  20.300  66.591  1.00  0.00    -0.276 F  
HETATM   36  F   UNL     1      -9.567  21.221  66.898  1.00  0.00    -0.368 F  
HETATM   37  C   UNL     1      -9.422  19.480  65.355  1.00  0.00     0.819 C  
HETATM   38  C   UNL     1     -10.871  19.010  65.460  1.00  0.00    -0.025 C  
ENDBRANCH  29  31
ENDBRANCH  20  27
ENDBRANCH  18  19
ENDBRANCH  17  18
ENDBRANCH   8  10
TORSDOF 6
ENDMDL
MODEL      262
REMARK 921   NORMALIZED FREE ENERGY PREDICTED BY IDOCK:    8.33 KCAL/MOL
REMARK 922        TOTAL FREE ENERGY PREDICTED BY IDOCK:    9.71 KCAL/MOL
REMARK 923 INTER-LIGAND FREE ENERGY PREDICTED BY IDOCK:    9.61 KCAL/MOL
REMARK 924 INTRA-LIGAND FREE ENERGY PREDICTED BY IDOCK:    0.10 KCAL/MOL
REMARK 927      BINDING AFFINITY PREDICTED BY RF-SCORE:    0.00 PKD
ROOT
HETATM    1  C   UNL     1      -5.309  16.774  67.064  1.00  0.00    -0.157 C  
HETATM    2  C   UNL     1      -6.033  15.474  67.457  1.00  0.00    -0.099 C  
HETATM    3  C   UNL     1      -6.367  15.467  68.919  1.00  0.00    -0.106 A  
HETATM    4  C   UNL     1      -5.143  14.258  67.167  1.00  0.00     0.893 C  
HETATM    5  N   UNL     1      -5.461  15.284  69.856  1.00  0.00    -0.107 NA 
HETATM    6  N   UNL     1      -6.107  14.947  70.994  1.00  0.00     0.027 NA 
HETATM    7  C   UNL     1      -7.404  15.024  70.784  1.00  0.00     1.093 A  
HETATM    8  N   UNL     1      -7.631  15.474  69.496  1.00  0.00    -0.219 NA 
HETATM    9  C   UNL     1      -8.380  14.666  71.833  1.00  0.00     5.597 C  
ENDROOT
BRANCH   8  10
HETATM   10  C   UNL     1      -8.890  15.778  68.782  1.00  0.00    -0.207 C  
HETATM   11  C   UNL     1      -9.428  14.706  67.804  1.00  0.00    -0.205 C  
HETATM   12  C   UNL     1     -10.906  14.290  67.924  1.00  0.00    -0.253 C  
HETATM   13  C   UNL     1     -11.718  15.292  67.105  1.00  0.00    -0.061 C  
HETATM   14  C   UNL     1     -11.898  16.445  68.078  1.00  0.00     0.409 C  
HETATM   15  C   UNL     1     -11.424  15.883  69.451  1.00  0.00    -0.351 C  
HETATM   16  C   UNL     1      -9.986  16.347  69.733  1.00  0.00     0.012 C  
HETATM   17  N   UNL     1     -11.518  14.427  69.266  1.00  0.00    -0.268 NA 
BRANCH  17  18
HETATM   18  C   UNL     1     -10.999  13.486  70.322  1.00  0.00     0.775 C  
BRANCH  18  19
HETATM   19  C   UNL     1      -9.990  12.315  69.926  1.00  0.00     1.979 C  
HETATM   20  C   UNL     1     -10.472  10.943  69.206  1.00  0.00    -0.202 C  
BRANCH  20  21
HETATM   21  C   UNL     1     -10.856   9.570  69.840  1.00  0.00    -0.272 A  
HETATM   22  C   UNL     1     -11.402   7.078  71.176  1.00  0.00    -0.319 A  
HETATM   23  C   UNL     1     -10.855   9.434  71.266  1.00  0.00    -0.431 A  
HETATM   24  C   UNL     1     -11.396   7.179  69.778  1.00  0.00    -0.158 A  
HETATM   25  C   UNL     1     -11.123   8.400  69.121  1.00  0.00     0.188 A  
HETATM   26  C   UNL     1     -11.126   8.216  71.925  1.00  0.00    -0.346 A  
ENDBRANCH  20  21
BRANCH  20  27
HETATM   27  N   UNL     1     -11.394  11.240  68.119  1.00  0.00    -0.279 N  
HETATM   28  H   UNL     1     -12.360  11.497  68.321  1.00  0.00     0.000 HD 
HETATM   29  C   UNL     1     -10.954  11.173  66.824  1.00  0.00    -0.249 C  
HETATM   30  O   UNL     1      -9.814  10.803  66.549  1.00  0.00    -0.190 OA 
BRANCH  29  31
HETATM   31  C   UNL     1     -11.983  11.459  65.739  1.00  0.00     0.847 C  
HETATM   32  C   UNL     1     -10.764  13.318  64.563  1.00  0.00    -0.428 C  
HETATM   33  C   UNL     1     -12.058  12.913  65.259  1.00  0.00    -0.496 C  
HETATM   34  C   UNL     1     -10.395  12.375  63.431  1.00  0.00    -0.278 C  
HETATM   35  F   UNL     1      -9.177  12.705  62.942  1.00  0.00     0.692 F  
HETATM   36  F   UNL     1     -11.280  12.539  62.412  1.00  0.00     0.550 F  
HETATM   37  C   UNL     1     -10.389  10.919  63.831  1.00  0.00    -0.397 C  
HETATM   38  C   UNL     1     -11.689  10.550  64.541  1.00  0.00     2.626 C  
ENDBRANCH  29  31
ENDBRANCH  20  27
ENDBRANCH  18  19
ENDBRANCH  17  18
ENDBRANCH   8  10
TORSDOF 6
ENDMDL
MODEL      263
REMARK 921   NORMALIZED FREE ENERGY PREDICTED BY IDOCK:    8.47 KCAL/MOL
REMARK 922        TOTAL FREE ENERGY PREDICTED BY IDOCK:    9.91 KCAL/MOL
REMARK 923 INTER-LIGAND FREE ENERGY PREDICTED BY IDOCK:    4.97 KCAL/MOL
REMARK 924 INTRA-LIGAND FREE ENERGY PREDICTED BY IDOCK:    4.94 KCAL/MOL
REMARK 927      BINDING AFFINITY PREDICTED BY RF-SCORE:    0.00 PKD
ROOT
HETATM    1  C   UNL     1      -8.010  15.540  67.175  1.00  0.00    -0.255 C  
HETATM    2  C   UNL     1      -7.754  14.856  68.529  1.00  0.00    -0.123 C  
HETATM    3  C   UNL     1      -8.839  13.872  68.846  1.00  0.00     0.109 A  
HETATM    4  C   UNL     1      -7.712  15.897  69.655  1.00  0.00     0.001 C  
HETATM    5  N   UNL     1     -10.046  14.238  69.222  1.00  0.00    -0.052 NA 
HETATM    6  N   UNL     1     -10.642  13.169  69.794  1.00  0.00     0.562 NA 
HETATM    7  C   UNL     1      -9.848  12.126  69.675  1.00  0.00     1.366 A  
HETATM    8  N   UNL     1      -8.720  12.491  68.962  1.00  0.00     0.358 NA 
HETATM    9  C   UNL     1     -10.204  10.812  70.248  1.00  0.00     0.563 C  
ENDROOT
BRANCH   8  10
HETATM   10  C   UNL     1      -7.555  11.698  68.515  1.00  0.00    -0.127 C  
HETATM   11  C   UNL     1      -7.738  10.164  68.412  1.00  0.00    -0.089 C  
HETATM   12  C   UNL     1      -7.297   9.466  67.112  1.00  0.00    -0.087 C  
HETATM   13  C   UNL     1      -5.805   9.172  67.249  1.00  0.00    -0.046 C  
HETATM   14  C   UNL     1      -5.169  10.489  66.832  1.00  0.00    -0.042 C  
HETATM   15  C   UNL     1      -6.338  11.318  66.223  1.00  0.00    -0.048 C  
HETATM   16  C   UNL     1      -6.862  12.319  67.264  1.00  0.00    -0.140 C  
HETATM   17  N   UNL     1      -7.334  10.291  65.881  1.00  0.00    -0.125 NA 
BRANCH  17  18
HETATM   18  C   UNL     1      -8.705  10.684  65.396  1.00  0.00    -0.185 C  
BRANCH  18  19
HETATM   19  C   UNL     1      -9.932   9.678  65.560  1.00  0.00    -0.279 C  
HETATM   20  C   UNL     1     -10.950   9.726  66.823  1.00  0.00     0.111 C  
BRANCH  20  21
HETATM   21  C   UNL     1     -10.908   8.930  68.164  1.00  0.00    -0.062 A  
HETATM   22  C   UNL     1     -11.006   7.599  70.716  1.00  0.00    -0.262 A  
HETATM   23  C   UNL     1     -12.133   8.664  68.857  1.00  0.00     2.534 A  
HETATM   24  C   UNL     1      -9.792   7.859  70.066  1.00  0.00    -0.181 A  
HETATM   25  C   UNL     1      -9.742   8.516  68.816  1.00  0.00    -0.168 A  
HETATM   26  C   UNL     1     -12.186   8.009  70.106  1.00  0.00     0.661 A  
ENDBRANCH  20  21
BRANCH  20  27
HETATM   27  N   UNL     1     -11.348  11.100  67.097  1.00  0.00    -0.255 N  
HETATM   28  H   UNL     1     -11.086  11.545  67.976  1.00  0.00     0.000 HD 
HETATM   29  C   UNL     1     -12.077  11.790  66.165  1.00  0.00     0.560 C  
HETATM   30  O   UNL     1     -12.463  11.257  65.125  1.00  0.00     0.747 OA 
BRANCH  29  31
HETATM   31  C   UNL     1     -12.490  13.207  66.536  1.00  0.00    -0.082 C  
HETATM   32  C   UNL     1     -10.376  14.390  65.864  1.00  0.00    -0.327 C  
HETATM   33  C   UNL     1     -11.359  14.131  66.999  1.00  0.00    -0.346 C  
HETATM   34  C   UNL     1     -11.059  14.925  64.616  1.00  0.00    -0.323 C  
HETATM   35  F   UNL     1     -10.161  15.008  63.606  1.00  0.00     1.727 F  
HETATM   36  F   UNL     1     -11.490  16.192  64.857  1.00  0.00    -0.298 F  
HETATM   37  C   UNL     1     -12.236  14.095  64.165  1.00  0.00    -0.423 C  
HETATM   38  C   UNL     1     -13.192  13.838  65.328  1.00  0.00    -0.007 C  
ENDBRANCH  29  31
ENDBRANCH  20  27
ENDBRANCH  18  19
ENDBRANCH  17  18
ENDBRANCH   8  10
TORSDOF 6
ENDMDL
MODEL      264
REMARK 921   NORMALIZED FREE ENERGY PREDICTED BY IDOCK:    9.00 KCAL/MOL
REMARK 922        TOTAL FREE ENERGY PREDICTED BY IDOCK:   10.62 KCAL/MOL
REMARK 923 INTER-LIGAND FREE ENERGY PREDICTED BY IDOCK:    6.97 KCAL/MOL
REMARK 924 INTRA-LIGAND FREE ENERGY PREDICTED BY IDOCK:    3.65 KCAL/MOL
REMARK 927      BINDING AFFINITY PREDICTED BY RF-SCORE:    0.00 PKD
ROOT
HETATM    1  C   UNL     1      -8.564  13.428  70.212  1.00  0.00     3.900 C  
HETATM    2  C   UNL     1      -8.524  12.636  68.894  1.00  0.00     0.294 C  
HETATM    3  C   UNL     1      -9.905  12.239  68.465  1.00  0.00    -0.153 A  
HETATM    4  C   UNL     1      -7.693  11.357  69.064  1.00  0.00    -0.064 C  
HETATM    5  N   UNL     1     -10.588  11.283  69.058  1.00  0.00    -0.215 NA 
HETATM    6  N   UNL     1     -11.585  10.911  68.225  1.00  0.00    -0.470 NA 
HETATM    7  C   UNL     1     -11.578  11.704  67.174  1.00  0.00    -0.212 A  
HETATM    8  N   UNL     1     -10.591  12.660  67.332  1.00  0.00    -0.223 NA 
HETATM    9  C   UNL     1     -12.526  11.517  66.057  1.00  0.00     2.276 C  
ENDROOT
BRANCH   8  10
HETATM   10  C   UNL     1     -10.201  13.803  66.478  1.00  0.00    -0.284 C  
HETATM   11  C   UNL     1     -11.340  14.611  65.811  1.00  0.00    -0.340 C  
HETATM   12  C   UNL     1     -11.314  16.146  65.944  1.00  0.00     0.333 C  
HETATM   13  C   UNL     1     -10.424  16.675  64.821  1.00  0.00     0.400 C  
HETATM   14  C   UNL     1      -9.030  16.537  65.411  1.00  0.00     0.923 C  
HETATM   15  C   UNL     1      -9.267  16.214  66.916  1.00  0.00    -0.225 C  
HETATM   16  C   UNL     1      -9.121  14.702  67.151  1.00  0.00    -0.236 C  
HETATM   17  N   UNL     1     -10.639  16.688  67.147  1.00  0.00    -0.299 NA 
BRANCH  17  18
HETATM   18  C   UNL     1     -11.330  16.423  68.460  1.00  0.00    -0.289 C  
BRANCH  18  19
HETATM   19  C   UNL     1     -10.532  16.586  69.833  1.00  0.00    -0.166 C  
HETATM   20  C   UNL     1      -9.050  17.243  69.919  1.00  0.00     1.433 C  
BRANCH  20  21
HETATM   21  C   UNL     1      -7.653  16.549  69.895  1.00  0.00     0.766 A  
HETATM   22  C   UNL     1      -5.155  15.134  69.673  1.00  0.00    -0.090 A  
HETATM   23  C   UNL     1      -7.092  16.151  68.639  1.00  0.00    -0.147 A  
HETATM   24  C   UNL     1      -5.687  15.500  70.917  1.00  0.00     0.068 A  
HETATM   25  C   UNL     1      -6.916  16.190  71.028  1.00  0.00     2.525 A  
HETATM   26  C   UNL     1      -5.867  15.461  68.525  1.00  0.00    -0.096 A  
ENDBRANCH  20  21
BRANCH  20  27
HETATM   27  N   UNL     1      -8.992  18.460  69.121  1.00  0.00    -0.009 N  
HETATM   28  H   UNL     1      -9.835  18.828  68.682  1.00  0.00     0.000 HD 
HETATM   29  C   UNL     1      -7.794  19.107  68.965  1.00  0.00    -0.259 C  
HETATM   30  O   UNL     1      -6.750  18.651  69.428  1.00  0.00    -0.264 OA 
BRANCH  29  31
HETATM   31  C   UNL     1      -7.801  20.350  68.087  1.00  0.00    -0.062 C  
HETATM   32  C   UNL     1      -5.610  19.977  66.911  1.00  0.00    -0.180 C  
HETATM   33  C   UNL     1      -6.427  20.944  67.761  1.00  0.00    -0.400 C  
HETATM   34  C   UNL     1      -6.346  19.550  65.652  1.00  0.00    -0.228 C  
HETATM   35  F   UNL     1      -5.632  18.595  65.010  1.00  0.00    -0.194 F  
HETATM   36  F   UNL     1      -6.427  20.610  64.805  1.00  0.00    -0.283 F  
HETATM   37  C   UNL     1      -7.741  19.035  65.910  1.00  0.00    -0.182 C  
HETATM   38  C   UNL     1      -8.526  20.015  66.779  1.00  0.00    -0.380 C  
ENDBRANCH  29  31
ENDBRANCH  20  27
ENDBRANCH  18  19
ENDBRANCH  17  18
ENDBRANCH   8  10
TORSDOF 6
ENDMDL
MODEL      265
REMARK 921   NORMALIZED FREE ENERGY PREDICTED BY IDOCK:    9.73 KCAL/MOL
REMARK 922        TOTAL FREE ENERGY PREDICTED BY IDOCK:   11.61 KCAL/MOL
REMARK 923 INTER-LIGAND FREE ENERGY PREDICTED BY IDOCK:    4.26 KCAL/MOL
REMARK 924 INTRA-LIGAND FREE ENERGY PREDICTED BY IDOCK:    7.34 KCAL/MOL
REMARK 927      BINDING AFFINITY PREDICTED BY RF-SCORE:    0.00 PKD
ROOT
HETATM    1  C   UNL     1      -5.819  11.610  66.693  1.00  0.00    -0.108 C  
HETATM    2  C   UNL     1      -7.030  12.245  67.398  1.00  0.00    -0.151 C  
HETATM    3  C   UNL     1      -7.375  13.569  66.784  1.00  0.00     0.945 A  
HETATM    4  C   UNL     1      -6.724  12.476  68.884  1.00  0.00    -0.098 C  
HETATM    5  N   UNL     1      -6.654  14.653  66.976  1.00  0.00     0.041 NA 
HETATM    6  N   UNL     1      -7.411  15.718  66.634  1.00  0.00    -0.120 NA 
HETATM    7  C   UNL     1      -8.551  15.286  66.137  1.00  0.00     0.109 A  
HETATM    8  N   UNL     1      -8.535  13.903  66.095  1.00  0.00     0.729 NA 
HETATM    9  C   UNL     1      -9.615  16.220  65.714  1.00  0.00    -0.266 C  
ENDROOT
BRANCH   8  10
HETATM   10  C   UNL     1      -9.532  12.936  65.588  1.00  0.00     0.078 C  
HETATM   11  C   UNL     1     -10.871  12.828  66.357  1.00  0.00    -0.294 C  
HETATM   12  C   UNL     1     -12.180  12.896  65.548  1.00  0.00    -0.474 C  
HETATM   13  C   UNL     1     -12.472  11.480  65.054  1.00  0.00     1.168 C  
HETATM   14  C   UNL     1     -11.625  11.389  63.795  1.00  0.00    -0.167 C  
HETATM   15  C   UNL     1     -11.153  12.849  63.528  1.00  0.00    -0.240 C  
HETATM   16  C   UNL     1      -9.717  13.032  64.044  1.00  0.00     0.579 C  
HETATM   17  N   UNL     1     -12.126  13.657  64.278  1.00  0.00    -0.483 NA 
BRANCH  17  18
HETATM   18  C   UNL     1     -11.942  15.146  64.414  1.00  0.00    -0.310 C  
BRANCH  18  19
HETATM   19  C   UNL     1     -12.625  15.931  65.623  1.00  0.00     2.034 C  
HETATM   20  C   UNL     1     -11.776  16.780  66.715  1.00  0.00     1.409 C  
BRANCH  20  21
HETATM   21  C   UNL     1     -11.231  16.340  68.110  1.00  0.00    -0.298 A  
HETATM   22  C   UNL     1     -10.261  15.304  70.615  1.00  0.00     0.223 A  
HETATM   23  C   UNL     1     -10.432  15.155  68.206  1.00  0.00    -0.241 A  
HETATM   24  C   UNL     1     -11.052  16.459  70.552  1.00  0.00    -0.214 A  
HETATM   25  C   UNL     1     -11.534  16.965  69.324  1.00  0.00     0.447 A  
HETATM   26  C   UNL     1      -9.952  14.646  69.431  1.00  0.00    -0.038 A  
ENDBRANCH  20  21
BRANCH  20  27
HETATM   27  N   UNL     1     -10.773  17.598  66.049  1.00  0.00    -0.214 N  
HETATM   28  H   UNL     1     -10.186  17.197  65.317  1.00  0.00     0.000 HD 
HETATM   29  C   UNL     1     -10.623  18.910  66.411  1.00  0.00    -0.387 C  
HETATM   30  O   UNL     1     -11.271  19.402  67.333  1.00  0.00    -0.348 OA 
BRANCH  29  31
HETATM   31  C   UNL     1      -9.529  19.693  65.699  1.00  0.00     0.157 C  
HETATM   32  C   UNL     1      -8.943  21.277  67.562  1.00  0.00     0.252 C  
HETATM   33  C   UNL     1      -9.387  21.163  66.108  1.00  0.00     1.322 C  
HETATM   34  C   UNL     1      -7.671  20.494  67.842  1.00  0.00    -0.128 C  
HETATM   35  F   UNL     1      -7.402  20.522  69.168  1.00  0.00    -0.061 F  
HETATM   36  F   UNL     1      -6.628  21.106  67.221  1.00  0.00    -0.326 F  
HETATM   37  C   UNL     1      -7.728  19.058  67.379  1.00  0.00    -0.254 C  
HETATM   38  C   UNL     1      -8.194  18.977  65.927  1.00  0.00    -0.011 C  
ENDBRANCH  29  31
ENDBRANCH  20  27
ENDBRANCH  18  19
ENDBRANCH  17  18
ENDBRANCH   8  10
TORSDOF 6
ENDMDL
MODEL      266
REMARK 921   NORMALIZED FREE ENERGY PREDICTED BY IDOCK:    9.92 KCAL/MOL
REMARK 922        TOTAL FREE ENERGY PREDICTED BY IDOCK:   11.86 KCAL/MOL
REMARK 923 INTER-LIGAND FREE ENERGY PREDICTED BY IDOCK:   13.16 KCAL/MOL
REMARK 924 INTRA-LIGAND FREE ENERGY PREDICTED BY IDOCK:   -1.30 KCAL/MOL
REMARK 927      BINDING AFFINITY PREDICTED BY RF-SCORE:    0.00 PKD
ROOT
HETATM    1  C   UNL     1     -11.279   6.240  72.868  1.00  0.00    -0.233 C  
HETATM    2  C   UNL     1     -11.042   4.772  72.474  1.00  0.00    -0.124 C  
HETATM    3  C   UNL     1     -10.937   4.625  70.986  1.00  0.00     0.771 A  
HETATM    4  C   UNL     1     -12.204   3.894  72.958  1.00  0.00     0.655 C  
HETATM    5  N   UNL     1     -11.979   4.705  70.187  1.00  0.00     6.194 NA 
HETATM    6  N   UNL     1     -11.633   4.157  69.001  1.00  0.00     7.123 NA 
HETATM    7  C   UNL     1     -10.356   3.839  69.037  1.00  0.00     1.179 A  
HETATM    8  N   UNL     1      -9.823   4.231  70.253  1.00  0.00    -0.208 NA 
HETATM    9  C   UNL     1      -9.692   3.173  67.899  1.00  0.00     0.013 C  
ENDROOT
BRANCH   8  10
HETATM   10  C   UNL     1      -8.443   4.152  70.778  1.00  0.00    -0.071 C  
HETATM   11  C   UNL     1      -7.413   3.348  69.949  1.00  0.00    -0.044 C  
HETATM   12  C   UNL     1      -6.060   4.012  69.632  1.00  0.00    -0.023 C  
HETATM   13  C   UNL     1      -5.145   3.749  70.827  1.00  0.00     0.000 C  
HETATM   14  C   UNL     1      -5.534   4.858  71.791  1.00  0.00    -0.005 C  
HETATM   15  C   UNL     1      -6.426   5.819  70.951  1.00  0.00    -0.040 C  
HETATM   16  C   UNL     1      -7.909   5.540  71.244  1.00  0.00    -0.110 C  
HETATM   17  N   UNL     1      -6.056   5.492  69.566  1.00  0.00    -0.020 NA 
BRANCH  17  18
HETATM   18  C   UNL     1      -6.808   6.098  68.410  1.00  0.00    -0.074 C  
BRANCH  18  19
HETATM   19  C   UNL     1      -6.118   6.211  66.975  1.00  0.00    -0.022 C  
HETATM   20  C   UNL     1      -6.903   6.745  65.659  1.00  0.00    -0.055 C  
BRANCH  20  21
HETATM   21  C   UNL     1      -7.657   5.938  64.556  1.00  0.00    -0.087 A  
HETATM   22  C   UNL     1      -9.107   4.293  62.690  1.00  0.00    -0.121 A  
HETATM   23  C   UNL     1      -8.881   5.274  64.891  1.00  0.00    -0.090 A  
HETATM   24  C   UNL     1      -7.904   4.920  62.340  1.00  0.00    -0.067 A  
HETATM   25  C   UNL     1      -7.188   5.724  63.256  1.00  0.00    -0.053 A  
HETATM   26  C   UNL     1      -9.596   4.470  63.979  1.00  0.00     0.015 A  
ENDBRANCH  20  21
BRANCH  20  27
HETATM   27  N   UNL     1      -7.666   7.943  65.978  1.00  0.00    -0.089 N  
HETATM   28  H   UNL     1      -8.390   7.915  66.696  1.00  0.00     0.000 HD 
HETATM   29  C   UNL     1      -7.404   9.109  65.308  1.00  0.00    -0.092 C  
HETATM   30  O   UNL     1      -6.583   9.155  64.393  1.00  0.00    -0.078 OA 
BRANCH  29  31
HETATM   31  C   UNL     1      -8.267  10.310  65.667  1.00  0.00    -0.153 C  
HETATM   32  C   UNL     1      -9.218   9.442  67.827  1.00  0.00    -0.141 C  
HETATM   33  C   UNL     1      -9.548  10.001  66.448  1.00  0.00    -0.248 C  
HETATM   34  C   UNL     1      -8.291  10.354  68.614  1.00  0.00    -0.127 C  
HETATM   35  F   UNL     1      -7.928   9.747  69.768  1.00  0.00    -0.097 F  
HETATM   36  F   UNL     1      -8.969  11.479  68.964  1.00  0.00    -0.126 F  
HETATM   37  C   UNL     1      -7.050  10.758  67.856  1.00  0.00    -0.085 C  
HETATM   38  C   UNL     1      -7.413  11.295  66.473  1.00  0.00    -0.105 C  
ENDBRANCH  29  31
ENDBRANCH  20  27
ENDBRANCH  18  19
ENDBRANCH  17  18
ENDBRANCH   8  10
TORSDOF 6
ENDMDL
MODEL      267
REMARK 921   NORMALIZED FREE ENERGY PREDICTED BY IDOCK:   10.19 KCAL/MOL
REMARK 922        TOTAL FREE ENERGY PREDICTED BY IDOCK:   12.22 KCAL/MOL
REMARK 923 INTER-LIGAND FREE ENERGY PREDICTED BY IDOCK:   -0.49 KCAL/MOL
REMARK 924 INTRA-LIGAND FREE ENERGY PREDICTED BY IDOCK:   12.71 KCAL/MOL
REMARK 927      BINDING AFFINITY PREDICTED BY RF-SCORE:    0.00 PKD
ROOT
HETATM    1  C   UNL     1      -9.195   5.434  68.764  1.00  0.00    -0.148 C  
HETATM    2  C   UNL     1      -7.666   5.603  68.717  1.00  0.00    -0.089 C  
HETATM    3  C   UNL     1      -7.287   7.053  68.726  1.00  0.00    -0.093 A  
HETATM    4  C   UNL     1      -7.097   4.972  67.439  1.00  0.00    -0.066 C  
HETATM    5  N   UNL     1      -7.439   7.837  67.680  1.00  0.00    -0.102 NA 
HETATM    6  N   UNL     1      -6.669   8.931  67.869  1.00  0.00    -0.068 NA 
HETATM    7  C   UNL     1      -6.130   8.870  69.068  1.00  0.00    -0.043 A  
HETATM    8  N   UNL     1      -6.591   7.738  69.717  1.00  0.00    -0.034 NA 
HETATM    9  C   UNL     1      -5.194   9.905  69.551  1.00  0.00    -0.034 C  
ENDROOT
BRANCH   8  10
HETATM   10  C   UNL     1      -6.338   7.231  71.083  1.00  0.00    -0.036 C  
HETATM   11  C   UNL     1      -5.717   8.216  72.101  1.00  0.00    -0.039 C  
HETATM   12  C   UNL     1      -6.386   8.351  73.482  1.00  0.00    -0.115 C  
HETATM   13  C   UNL     1      -5.813   7.243  74.364  1.00  0.00    -0.070 C  
HETATM   14  C   UNL     1      -6.673   6.047  73.994  1.00  0.00    -0.080 C  
HETATM   15  C   UNL     1      -7.839   6.643  73.151  1.00  0.00    -0.098 C  
HETATM   16  C   UNL     1      -7.554   6.442  71.655  1.00  0.00    -0.095 C  
HETATM   17  N   UNL     1      -7.839   8.061  73.537  1.00  0.00    -0.166 NA 
BRANCH  17  18
HETATM   18  C   UNL     1      -8.730   9.048  72.829  1.00  0.00     0.823 C  
BRANCH  18  19
HETATM   19  C   UNL     1     -10.246   8.669  72.503  1.00  0.00    -0.238 C  
HETATM   20  C   UNL     1     -10.661   7.353  71.649  1.00  0.00    -0.214 C  
BRANCH  20  21
HETATM   21  C   UNL     1     -10.935   7.207  70.120  1.00  0.00    -0.293 A  
HETATM   22  C   UNL     1     -11.500   7.166  67.296  1.00  0.00     0.499 A  
HETATM   23  C   UNL     1     -10.609   8.292  69.244  1.00  0.00    -0.191 A  
HETATM   24  C   UNL     1     -11.843   6.095  68.132  1.00  0.00     1.747 A  
HETATM   25  C   UNL     1     -11.572   6.116  69.519  1.00  0.00    -0.097 A  
HETATM   26  C   UNL     1     -10.880   8.275  67.860  1.00  0.00    -0.037 A  
ENDBRANCH  20  21
BRANCH  20  27
HETATM   27  N   UNL     1      -9.911   6.194  72.111  1.00  0.00    -0.158 N  
HETATM   28  H   UNL     1      -9.174   5.795  71.531  1.00  0.00     0.000 HD 
HETATM   29  C   UNL     1     -10.202   5.645  73.332  1.00  0.00    -0.206 C  
HETATM   30  O   UNL     1     -11.129   6.066  74.023  1.00  0.00     0.119 OA 
BRANCH  29  31
HETATM   31  C   UNL     1      -9.404   4.413  73.733  1.00  0.00    -0.118 C  
HETATM   32  C   UNL     1     -10.637   2.714  72.348  1.00  0.00    -0.020 C  
HETATM   33  C   UNL     1     -10.181   3.092  73.752  1.00  0.00    -0.208 C  
HETATM   34  C   UNL     1      -9.485   2.669  71.358  1.00  0.00    -0.145 C  
HETATM   35  F   UNL     1      -9.966   2.461  70.109  1.00  0.00    -0.110 F  
HETATM   36  F   UNL     1      -8.692   1.605  71.650  1.00  0.00    -0.058 F  
HETATM   37  C   UNL     1      -8.635   3.916  71.359  1.00  0.00    -0.116 C  
HETATM   38  C   UNL     1      -8.211   4.279  72.780  1.00  0.00    -0.094 C  
ENDBRANCH  29  31
ENDBRANCH  20  27
ENDBRANCH  18  19
ENDBRANCH  17  18
ENDBRANCH   8  10
TORSDOF 6
ENDMDL
MODEL      268
REMARK 921   NORMALIZED FREE ENERGY PREDICTED BY IDOCK:   10.22 KCAL/MOL
REMARK 922        TOTAL FREE ENERGY PREDICTED BY IDOCK:   12.26 KCAL/MOL
REMARK 923 INTER-LIGAND FREE ENERGY PREDICTED BY IDOCK:   -0.07 KCAL/MOL
REMARK 924 INTRA-LIGAND FREE ENERGY PREDICTED BY IDOCK:   12.32 KCAL/MOL
REMARK 927      BINDING AFFINITY PREDICTED BY RF-SCORE:    0.00 PKD
ROOT
HETATM    1  C   UNL     1      -8.863   8.649  65.312  1.00  0.00    -0.178 C  
HETATM    2  C   UNL     1      -8.859   7.433  64.369  1.00  0.00     0.695 C  
HETATM    3  C   UNL     1      -7.502   6.799  64.316  1.00  0.00    -0.100 A  
HETATM    4  C   UNL     1      -9.240   7.861  62.944  1.00  0.00     1.594 C  
HETATM    5  N   UNL     1      -6.487   7.339  63.677  1.00  0.00    -0.048 NA 
HETATM    6  N   UNL     1      -5.559   6.376  63.487  1.00  0.00    -0.022 NA 
HETATM    7  C   UNL     1      -5.955   5.279  64.097  1.00  0.00    -0.021 A  
HETATM    8  N   UNL     1      -7.147   5.528  64.754  1.00  0.00    -0.053 NA 
HETATM    9  C   UNL     1      -5.170   4.029  64.031  1.00  0.00    -0.009 C  
ENDROOT
BRANCH   8  10
HETATM   10  C   UNL     1      -7.979   4.662  65.617  1.00  0.00    -0.095 C  
HETATM   11  C   UNL     1      -7.931   4.922  67.141  1.00  0.00    -0.099 C  
HETATM   12  C   UNL     1      -9.267   5.055  67.898  1.00  0.00    -0.119 C  
HETATM   13  C   UNL     1      -9.714   3.640  68.261  1.00  0.00    -0.082 C  
HETATM   14  C   UNL     1     -10.407   3.177  66.990  1.00  0.00     1.882 C  
HETATM   15  C   UNL     1     -10.545   4.462  66.122  1.00  0.00     0.105 C  
HETATM   16  C   UNL     1      -9.428   4.498  65.067  1.00  0.00    -0.156 C  
HETATM   17  N   UNL     1     -10.421   5.546  67.108  1.00  0.00    -0.249 NA 
BRANCH  17  18
HETATM   18  C   UNL     1     -10.345   6.982  66.661  1.00  0.00    -0.144 C  
BRANCH  18  19
HETATM   19  C   UNL     1      -9.291   7.976  67.332  1.00  0.00    -0.173 C  
HETATM   20  C   UNL     1      -9.537   8.682  68.772  1.00  0.00    -0.156 C  
BRANCH  20  21
HETATM   21  C   UNL     1     -10.146  10.080  69.103  1.00  0.00    -0.219 A  
HETATM   22  C   UNL     1     -11.482  12.565  69.674  1.00  0.00    -0.255 A  
HETATM   23  C   UNL     1     -11.384  10.152  69.819  1.00  0.00    -0.312 A  
HETATM   24  C   UNL     1     -10.278  12.524  68.959  1.00  0.00     0.096 A  
HETATM   25  C   UNL     1      -9.624  11.304  68.673  1.00  0.00    -0.195 A  
HETATM   26  C   UNL     1     -12.040  11.367  70.105  1.00  0.00    -0.439 A  
ENDBRANCH  20  21
BRANCH  20  27
HETATM   27  N   UNL     1     -10.035   7.707  69.733  1.00  0.00    -0.182 N  
HETATM   28  H   UNL     1      -9.617   7.639  70.660  1.00  0.00     0.000 HD 
HETATM   29  C   UNL     1     -11.070   6.881  69.381  1.00  0.00    -0.206 C  
HETATM   30  O   UNL     1     -11.549   6.896  68.248  1.00  0.00     0.189 OA 
BRANCH  29  31
HETATM   31  C   UNL     1     -11.512   5.862  70.421  1.00  0.00    -0.096 C  
HETATM   32  C   UNL     1      -9.238   5.173  71.244  1.00  0.00    -0.182 C  
HETATM   33  C   UNL     1     -10.555   4.687  70.651  1.00  0.00     0.175 C  
HETATM   34  C   UNL     1      -9.439   5.986  72.512  1.00  0.00    -0.147 C  
HETATM   35  F   UNL     1      -8.253   6.500  72.916  1.00  0.00    -0.108 F  
HETATM   36  F   UNL     1      -9.862   5.160  73.506  1.00  0.00    -0.146 F  
HETATM   37  C   UNL     1     -10.438   7.107  72.362  1.00  0.00    -0.247 C  
HETATM   38  C   UNL     1     -11.738   6.592  71.749  1.00  0.00    -0.363 C  
ENDBRANCH  29  31
ENDBRANCH  20  27
ENDBRANCH  18  19
ENDBRANCH  17  18
ENDBRANCH   8  10
TORSDOF 6
ENDMDL
MODEL      269
REMARK 921   NORMALIZED FREE ENERGY PREDICTED BY IDOCK:   10.22 KCAL/MOL
REMARK 922        TOTAL FREE ENERGY PREDICTED BY IDOCK:   12.26 KCAL/MOL
REMARK 923 INTER-LIGAND FREE ENERGY PREDICTED BY IDOCK:    9.83 KCAL/MOL
REMARK 924 INTRA-LIGAND FREE ENERGY PREDICTED BY IDOCK:    2.43 KCAL/MOL
REMARK 927      BINDING AFFINITY PREDICTED BY RF-SCORE:    0.00 PKD
ROOT
HETATM    1  C   UNL     1     -10.016   7.314  73.372  1.00  0.00    -0.343 C  
HETATM    2  C   UNL     1      -9.109   7.869  72.260  1.00  0.00    -0.217 C  
HETATM    3  C   UNL     1      -8.341   6.767  71.594  1.00  0.00    -0.111 A  
HETATM    4  C   UNL     1      -8.099   8.868  72.843  1.00  0.00     0.418 C  
HETATM    5  N   UNL     1      -7.323   6.161  72.167  1.00  0.00    -0.092 NA 
HETATM    6  N   UNL     1      -6.626   5.524  71.201  1.00  0.00    -0.042 NA 
HETATM    7  C   UNL     1      -7.269   5.650  70.059  1.00  0.00    -0.068 A  
HETATM    8  N   UNL     1      -8.448   6.341  70.275  1.00  0.00    -0.132 NA 
HETATM    9  C   UNL     1      -6.728   5.099  68.800  1.00  0.00    -0.050 C  
ENDROOT
BRANCH   8  10
HETATM   10  C   UNL     1      -9.544   6.704  69.351  1.00  0.00    -0.145 C  
HETATM   11  C   UNL     1     -10.957   6.874  69.957  1.00  0.00    -0.320 C  
HETATM   12  C   UNL     1     -11.747   8.151  69.610  1.00  0.00     0.682 C  
HETATM   13  C   UNL     1     -12.462   7.885  68.287  1.00  0.00     5.843 C  
HETATM   14  C   UNL     1     -11.385   8.196  67.261  1.00  0.00     1.095 C  
HETATM   15  C   UNL     1     -10.249   8.883  68.074  1.00  0.00    -0.213 C  
HETATM   16  C   UNL     1      -9.144   7.862  68.388  1.00  0.00    -0.135 C  
HETATM   17  N   UNL     1     -10.941   9.351  69.284  1.00  0.00    -0.170 NA 
BRANCH  17  18
HETATM   18  C   UNL     1     -10.163   9.948  70.428  1.00  0.00    -0.236 C  
BRANCH  18  19
HETATM   19  C   UNL     1      -9.862  11.515  70.462  1.00  0.00     3.624 C  
HETATM   20  C   UNL     1      -9.338  12.340  69.167  1.00  0.00     0.585 C  
BRANCH  20  21
HETATM   21  C   UNL     1      -7.879  12.688  68.734  1.00  0.00     0.039 A  
HETATM   22  C   UNL     1      -5.153  13.097  67.904  1.00  0.00    -0.103 A  
HETATM   23  C   UNL     1      -7.261  11.929  67.688  1.00  0.00    -0.112 A  
HETATM   24  C   UNL     1      -5.727  13.845  68.941  1.00  0.00    -0.082 A  
HETATM   25  C   UNL     1      -7.064  13.641  69.353  1.00  0.00     0.080 A  
HETATM   26  C   UNL     1      -5.927  12.129  67.276  1.00  0.00    -0.152 A  
ENDBRANCH  20  21
BRANCH  20  27
HETATM   27  N   UNL     1     -10.109  11.972  67.988  1.00  0.00    -0.192 N  
HETATM   28  H   UNL     1      -9.638  11.780  67.105  1.00  0.00     0.000 HD 
HETATM   29  C   UNL     1     -11.473  11.884  68.075  1.00  0.00    -0.323 C  
HETATM   30  O   UNL     1     -12.073  12.172  69.110  1.00  0.00    -0.267 OA 
BRANCH  29  31
HETATM   31  C   UNL     1     -12.216  11.532  66.795  1.00  0.00     1.199 C  
HETATM   32  C   UNL     1     -11.579  13.550  65.437  1.00  0.00    -0.334 C  
HETATM   33  C   UNL     1     -12.737  12.719  65.978  1.00  0.00     0.422 C  
HETATM   34  C   UNL     1     -10.590  12.716  64.641  1.00  0.00    -0.333 C  
HETATM   35  F   UNL     1      -9.522  13.476  64.303  1.00  0.00     0.121 F  
HETATM   36  F   UNL     1     -11.174  12.328  63.477  1.00  0.00    -0.403 F  
HETATM   37  C   UNL     1     -10.109  11.485  65.370  1.00  0.00    -0.304 C  
HETATM   38  C   UNL     1     -11.290  10.685  65.915  1.00  0.00     0.598 C  
ENDBRANCH  29  31
ENDBRANCH  20  27
ENDBRANCH  18  19
ENDBRANCH  17  18
ENDBRANCH   8  10
TORSDOF 6
ENDMDL
MODEL      270
REMARK 921   NORMALIZED FREE ENERGY PREDICTED BY IDOCK:   11.46 KCAL/MOL
REMARK 922        TOTAL FREE ENERGY PREDICTED BY IDOCK:   13.94 KCAL/MOL
REMARK 923 INTER-LIGAND FREE ENERGY PREDICTED BY IDOCK:   10.86 KCAL/MOL
REMARK 924 INTRA-LIGAND FREE ENERGY PREDICTED BY IDOCK:    3.08 KCAL/MOL
REMARK 927      BINDING AFFINITY PREDICTED BY RF-SCORE:    0.00 PKD
ROOT
HETATM    1  C   UNL     1      -6.036   3.177  69.217  1.00  0.00    -0.024 C  
HETATM    2  C   UNL     1      -7.003   4.370  69.118  1.00  0.00    -0.050 C  
HETATM    3  C   UNL     1      -6.610   5.460  70.069  1.00  0.00    -0.046 A  
HETATM    4  C   UNL     1      -8.432   3.930  69.463  1.00  0.00    -0.090 C  
HETATM    5  N   UNL     1      -6.797   5.374  71.368  1.00  0.00    -0.055 NA 
HETATM    6  N   UNL     1      -6.711   6.621  71.881  1.00  0.00    -0.058 NA 
HETATM    7  C   UNL     1      -6.369   7.453  70.920  1.00  0.00    -0.039 A  
HETATM    8  N   UNL     1      -6.169   6.740  69.751  1.00  0.00    -0.036 NA 
HETATM    9  C   UNL     1      -6.240   8.904  71.161  1.00  0.00    -0.057 C  
ENDROOT
BRANCH   8  10
HETATM   10  C   UNL     1      -5.732   7.180  68.409  1.00  0.00    -0.022 C  
HETATM   11  C   UNL     1      -6.038   6.239  67.219  1.00  0.00    -0.021 C  
HETATM   12  C   UNL     1      -6.708   6.843  65.970  1.00  0.00    -0.052 C  
HETATM   13  C   UNL     1      -5.591   7.411  65.096  1.00  0.00    -0.033 C  
HETATM   14  C   UNL     1      -5.356   8.781  65.710  1.00  0.00    -0.034 C  
HETATM   15  C   UNL     1      -6.548   8.986  66.691  1.00  0.00    -0.068 C  
HETATM   16  C   UNL     1      -6.099   8.668  68.126  1.00  0.00    -0.051 C  
HETATM   17  N   UNL     1      -7.556   8.038  66.195  1.00  0.00    -0.084 NA 
BRANCH  17  18
HETATM   18  C   UNL     1      -8.829   7.802  66.963  1.00  0.00    -0.127 C  
BRANCH  18  19
HETATM   19  C   UNL     1     -10.004   8.881  66.919  1.00  0.00    -0.315 C  
HETATM   20  C   UNL     1      -9.945  10.283  67.734  1.00  0.00    -0.173 C  
BRANCH  20  21
HETATM   21  C   UNL     1     -10.501  10.634  69.150  1.00  0.00    -0.245 A  
HETATM   22  C   UNL     1     -11.331  11.184  71.851  1.00  0.00     3.332 A  
HETATM   23  C   UNL     1      -9.591  11.048  70.175  1.00  0.00     1.359 A  
HETATM   24  C   UNL     1     -12.242  10.767  70.871  1.00  0.00    -0.487 A  
HETATM   25  C   UNL     1     -11.835  10.491  69.546  1.00  0.00    -0.287 A  
HETATM   26  C   UNL     1      -9.994  11.322  71.499  1.00  0.00     8.052 A  
ENDBRANCH  20  21
BRANCH  20  27
HETATM   27  N   UNL     1      -8.641  10.909  67.566  1.00  0.00    -0.126 N  
HETATM   28  H   UNL     1      -7.898  10.422  67.067  1.00  0.00     0.000 HD 
HETATM   29  C   UNL     1      -8.421  12.158  68.084  1.00  0.00    -0.175 C  
HETATM   30  O   UNL     1      -9.277  12.741  68.747  1.00  0.00    -0.012 OA 
BRANCH  29  31
HETATM   31  C   UNL     1      -7.023  12.733  67.904  1.00  0.00    -0.116 C  
HETATM   32  C   UNL     1      -7.517  15.105  68.576  1.00  0.00    -0.121 C  
HETATM   33  C   UNL     1      -6.957  14.204  67.481  1.00  0.00    -0.173 C  
HETATM   34  C   UNL     1      -6.837  14.879  69.916  1.00  0.00    -0.167 C  
HETATM   35  F   UNL     1      -7.462  15.605  70.872  1.00  0.00     0.876 F  
HETATM   36  F   UNL     1      -5.561  15.342  69.849  1.00  0.00    -0.104 F  
HETATM   37  C   UNL     1      -6.799  13.431  70.341  1.00  0.00     0.796 C  
HETATM   38  C   UNL     1      -6.253  12.553  69.217  1.00  0.00    -0.105 C  
ENDBRANCH  29  31
ENDBRANCH  20  27
ENDBRANCH  18  19
ENDBRANCH  17  18
ENDBRANCH   8  10
TORSDOF 6
ENDMDL
MODEL      271
REMARK 921   NORMALIZED FREE ENERGY PREDICTED BY IDOCK:   11.70 KCAL/MOL
REMARK 922        TOTAL FREE ENERGY PREDICTED BY IDOCK:   14.27 KCAL/MOL
REMARK 923 INTER-LIGAND FREE ENERGY PREDICTED BY IDOCK:    4.95 KCAL/MOL
REMARK 924 INTRA-LIGAND FREE ENERGY PREDICTED BY IDOCK:    9.32 KCAL/MOL
REMARK 927      BINDING AFFINITY PREDICTED BY RF-SCORE:    0.00 PKD
ROOT
HETATM    1  C   UNL     1     -11.182   8.821  72.027  1.00  0.00    -0.443 C  
HETATM    2  C   UNL     1      -9.790   9.475  72.019  1.00  0.00     1.031 C  
HETATM    3  C   UNL     1      -8.825   8.675  71.197  1.00  0.00    -0.199 A  
HETATM    4  C   UNL     1      -9.234   9.569  73.447  1.00  0.00     4.423 C  
HETATM    5  N   UNL     1      -8.321   7.529  71.604  1.00  0.00    -0.106 NA 
HETATM    6  N   UNL     1      -7.230   7.268  70.851  1.00  0.00    -0.068 NA 
HETATM    7  C   UNL     1      -7.126   8.191  69.919  1.00  0.00    -0.059 A  
HETATM    8  N   UNL     1      -8.200   9.059  70.016  1.00  0.00    -0.115 NA 
HETATM    9  C   UNL     1      -6.000   8.204  68.963  1.00  0.00    -0.039 C  
ENDROOT
BRANCH   8  10
HETATM   10  C   UNL     1      -8.583  10.225  69.191  1.00  0.00    -0.164 C  
HETATM   11  C   UNL     1      -8.270  10.157  67.677  1.00  0.00    -0.110 C  
HETATM   12  C   UNL     1      -9.399  10.499  66.687  1.00  0.00    -0.161 C  
HETATM   13  C   UNL     1      -9.392  12.017  66.512  1.00  0.00    -0.226 C  
HETATM   14  C   UNL     1     -10.208  12.491  67.704  1.00  0.00    -0.220 C  
HETATM   15  C   UNL     1     -10.845  11.196  68.288  1.00  0.00    -0.212 C  
HETATM   16  C   UNL     1     -10.030  10.716  69.499  1.00  0.00    -0.138 C  
HETATM   17  N   UNL     1     -10.782  10.255  67.160  1.00  0.00    -0.257 NA 
BRANCH  17  18
HETATM   18  C   UNL     1     -11.164   8.809  67.347  1.00  0.00     0.727 C  
BRANCH  18  19
HETATM   19  C   UNL     1     -10.287   7.863  68.285  1.00  0.00    -0.239 C  
HETATM   20  C   UNL     1      -9.295   6.717  67.702  1.00  0.00    -0.120 C  
BRANCH  20  21
HETATM   21  C   UNL     1      -9.565   5.200  67.457  1.00  0.00    -0.159 A  
HETATM   22  C   UNL     1      -9.844   2.359  67.083  1.00  0.00     0.679 A  
HETATM   23  C   UNL     1      -9.022   4.238  68.368  1.00  0.00    -0.151 A  
HETATM   24  C   UNL     1     -10.374   3.278  66.168  1.00  0.00     1.250 A  
HETATM   25  C   UNL     1     -10.233   4.673  66.347  1.00  0.00    -0.293 A  
HETATM   26  C   UNL     1      -9.160   2.845  68.191  1.00  0.00    -0.226 A  
ENDBRANCH  20  21
BRANCH  20  27
HETATM   27  N   UNL     1      -8.510   7.246  66.596  1.00  0.00    -0.120 N  
HETATM   28  H   UNL     1      -7.695   7.832  66.777  1.00  0.00     0.000 HD 
HETATM   29  C   UNL     1      -8.874   6.951  65.308  1.00  0.00     0.182 C  
HETATM   30  O   UNL     1      -9.888   6.302  65.058  1.00  0.00     1.087 OA 
BRANCH  29  31
HETATM   31  C   UNL     1      -8.030   7.569  64.203  1.00  0.00    -0.098 C  
HETATM   32  C   UNL     1      -7.520   9.764  65.320  1.00  0.00    -0.120 C  
HETATM   33  C   UNL     1      -8.105   9.095  64.081  1.00  0.00    -0.149 C  
HETATM   34  C   UNL     1      -6.104   9.297  65.615  1.00  0.00    -0.059 C  
HETATM   35  F   UNL     1      -5.689   9.820  66.793  1.00  0.00    -0.047 F  
HETATM   36  F   UNL     1      -5.269   9.783  64.659  1.00  0.00    -0.051 F  
HETATM   37  C   UNL     1      -5.958   7.795  65.662  1.00  0.00    -0.038 C  
HETATM   38  C   UNL     1      -6.570   7.155  64.419  1.00  0.00    -0.040 C  
ENDBRANCH  29  31
ENDBRANCH  20  27
ENDBRANCH  18  19
ENDBRANCH  17  18
ENDBRANCH   8  10
TORSDOF 6
ENDMDL
MODEL      272
REMARK 921   NORMALIZED FREE ENERGY PREDICTED BY IDOCK:   12.70 KCAL/MOL
REMARK 922        TOTAL FREE ENERGY PREDICTED BY IDOCK:   15.62 KCAL/MOL
REMARK 923 INTER-LIGAND FREE ENERGY PREDICTED BY IDOCK:   10.54 KCAL/MOL
REMARK 924 INTRA-LIGAND FREE ENERGY PREDICTED BY IDOCK:    5.07 KCAL/MOL
REMARK 927      BINDING AFFINITY PREDICTED BY RF-SCORE:    0.00 PKD
ROOT
HETATM    1  C   UNL     1     -12.313   8.261  72.336  1.00  0.00    -0.385 C  
HETATM    2  C   UNL     1     -11.387   7.301  71.570  1.00  0.00    -0.280 C  
HETATM    3  C   UNL     1     -11.841   7.135  70.151  1.00  0.00    -0.065 A  
HETATM    4  C   UNL     1     -11.384   5.917  72.233  1.00  0.00    -0.351 C  
HETATM    5  N   UNL     1     -12.901   6.429  69.820  1.00  0.00     2.315 NA 
HETATM    6  N   UNL     1     -12.818   6.153  68.500  1.00  0.00     6.851 NA 
HETATM    7  C   UNL     1     -11.769   6.774  68.002  1.00  0.00     0.991 A  
HETATM    8  N   UNL     1     -11.169   7.524  68.998  1.00  0.00     0.158 NA 
HETATM    9  C   UNL     1     -11.384   6.629  66.584  1.00  0.00     0.414 C  
ENDROOT
BRANCH   8  10
HETATM   10  C   UNL     1     -10.004   8.434  68.959  1.00  0.00    -0.190 C  
HETATM   11  C   UNL     1      -9.082   8.460  70.201  1.00  0.00    -0.150 C  
HETATM   12  C   UNL     1      -7.564   8.318  69.981  1.00  0.00    -0.072 C  
HETATM   13  C   UNL     1      -7.025   9.717  69.684  1.00  0.00    -0.071 C  
HETATM   14  C   UNL     1      -7.291   9.864  68.195  1.00  0.00    -0.080 C  
HETATM   15  C   UNL     1      -7.692   8.435  67.721  1.00  0.00    -0.103 C  
HETATM   16  C   UNL     1      -9.221   8.334  67.615  1.00  0.00    -0.150 C  
HETATM   17  N   UNL     1      -7.144   7.568  68.774  1.00  0.00    -0.078 NA 
BRANCH  17  18
HETATM   18  C   UNL     1      -7.444   6.092  68.784  1.00  0.00    -0.086 C  
BRANCH  18  19
HETATM   19  C   UNL     1      -6.914   5.158  67.603  1.00  0.00    -0.065 C  
HETATM   20  C   UNL     1      -7.207   5.466  66.036  1.00  0.00    -0.076 C  
BRANCH  20  21
HETATM   21  C   UNL     1      -8.353   4.938  65.118  1.00  0.00    -0.133 A  
HETATM   22  C   UNL     1     -10.621   4.040  63.589  1.00  0.00    -0.138 A  
HETATM   23  C   UNL     1      -9.584   5.668  65.049  1.00  0.00     0.532 A  
HETATM   24  C   UNL     1      -9.434   3.298  63.650  1.00  0.00    -0.116 A  
HETATM   25  C   UNL     1      -8.322   3.736  64.405  1.00  0.00    -0.094 A  
HETATM   26  C   UNL     1     -10.696   5.233  64.297  1.00  0.00     2.047 A  
ENDBRANCH  20  21
BRANCH  20  27
HETATM   27  N   UNL     1      -6.975   6.874  65.747  1.00  0.00    -0.062 N  
HETATM   28  H   UNL     1      -7.361   7.594  66.356  1.00  0.00     0.000 HD 
HETATM   29  C   UNL     1      -6.232   7.223  64.650  1.00  0.00    -0.037 C  
HETATM   30  O   UNL     1      -5.809   6.378  63.863  1.00  0.00    -0.022 OA 
BRANCH  29  31
HETATM   31  C   UNL     1      -6.063   8.713  64.389  1.00  0.00    -0.066 C  
HETATM   32  C   UNL     1      -7.853   8.981  62.643  1.00  0.00    -0.127 C  
HETATM   33  C   UNL     1      -6.375   9.179  62.963  1.00  0.00    -0.090 C  
HETATM   34  C   UNL     1      -8.760   9.651  63.660  1.00  0.00    -0.224 C  
HETATM   35  F   UNL     1     -10.050   9.331  63.401  1.00  0.00     0.960 F  
HETATM   36  F   UNL     1      -8.660  11.000  63.522  1.00  0.00    -0.144 F  
HETATM   37  C   UNL     1      -8.439   9.291  65.091  1.00  0.00    -0.173 C  
HETATM   38  C   UNL     1      -6.951   9.481  65.374  1.00  0.00    -0.094 C  
ENDBRANCH  29  31
ENDBRANCH  20  27
ENDBRANCH  18  19
ENDBRANCH  17  18
ENDBRANCH   8  10
TORSDOF 6
ENDMDL
MODEL      273
REMARK 921   NORMALIZED FREE ENERGY PREDICTED BY IDOCK:   13.13 KCAL/MOL
REMARK 922        TOTAL FREE ENERGY PREDICTED BY IDOCK:   16.19 KCAL/MOL
REMARK 923 INTER-LIGAND FREE ENERGY PREDICTED BY IDOCK:   15.92 KCAL/MOL
REMARK 924 INTRA-LIGAND FREE ENERGY PREDICTED BY IDOCK:    0.27 KCAL/MOL
REMARK 927      BINDING AFFINITY PREDICTED BY RF-SCORE:    0.00 PKD
ROOT
HETATM    1  C   UNL     1     -11.279   6.240  72.868  1.00  0.00    -0.233 C  
HETATM    2  C   UNL     1     -11.042   4.772  72.474  1.00  0.00    -0.124 C  
HETATM    3  C   UNL     1     -10.937   4.625  70.986  1.00  0.00     0.771 A  
HETATM    4  C   UNL     1     -12.204   3.894  72.958  1.00  0.00     0.655 C  
HETATM    5  N   UNL     1     -11.979   4.705  70.187  1.00  0.00     6.194 NA 
HETATM    6  N   UNL     1     -11.633   4.157  69.001  1.00  0.00     7.123 NA 
HETATM    7  C   UNL     1     -10.356   3.839  69.037  1.00  0.00     1.179 A  
HETATM    8  N   UNL     1      -9.823   4.231  70.253  1.00  0.00    -0.208 NA 
HETATM    9  C   UNL     1      -9.692   3.173  67.899  1.00  0.00     0.013 C  
ENDROOT
BRANCH   8  10
HETATM   10  C   UNL     1      -8.443   4.152  70.778  1.00  0.00    -0.071 C  
HETATM   11  C   UNL     1      -7.413   3.348  69.949  1.00  0.00    -0.044 C  
HETATM   12  C   UNL     1      -6.060   4.012  69.632  1.00  0.00    -0.023 C  
HETATM   13  C   UNL     1      -5.145   3.749  70.827  1.00  0.00     0.000 C  
HETATM   14  C   UNL     1      -5.534   4.858  71.791  1.00  0.00    -0.005 C  
HETATM   15  C   UNL     1      -6.426   5.819  70.951  1.00  0.00    -0.040 C  
HETATM   16  C   UNL     1      -7.909   5.540  71.244  1.00  0.00    -0.110 C  
HETATM   17  N   UNL     1      -6.056   5.492  69.566  1.00  0.00    -0.020 NA 
BRANCH  17  18
HETATM   18  C   UNL     1      -6.808   6.098  68.410  1.00  0.00    -0.074 C  
BRANCH  18  19
HETATM   19  C   UNL     1      -8.394   6.265  68.483  1.00  0.00    -0.115 C  
HETATM   20  C   UNL     1      -9.256   7.010  67.328  1.00  0.00    -0.129 C  
BRANCH  20  21
HETATM   21  C   UNL     1      -9.715   8.499  67.236  1.00  0.00    -0.239 A  
HETATM   22  C   UNL     1     -10.362  11.304  67.178  1.00  0.00    -0.244 A  
HETATM   23  C   UNL     1      -8.735   9.520  67.019  1.00  0.00    -0.135 A  
HETATM   24  C   UNL     1     -11.341  10.327  67.406  1.00  0.00     0.043 A  
HETATM   25  C   UNL     1     -11.023   8.950  67.440  1.00  0.00     0.079 A  
HETATM   26  C   UNL     1      -9.048  10.895  66.987  1.00  0.00    -0.158 A  
ENDBRANCH  20  21
BRANCH  20  27
HETATM   27  N   UNL     1      -8.829   6.561  66.011  1.00  0.00    -0.167 N  
HETATM   28  H   UNL     1      -7.863   6.691  65.712  1.00  0.00     0.000 HD 
HETATM   29  C   UNL     1      -9.734   5.962  65.176  1.00  0.00     0.812 C  
HETATM   30  O   UNL     1     -10.920   5.851  65.484  1.00  0.00     1.031 OA 
BRANCH  29  31
HETATM   31  C   UNL     1      -9.227   5.553  63.800  1.00  0.00     0.612 C  
HETATM   32  C   UNL     1      -6.760   5.695  64.267  1.00  0.00    -0.045 C  
HETATM   33  C   UNL     1      -7.894   6.176  63.370  1.00  0.00    -0.107 C  
HETATM   34  C   UNL     1      -6.673   4.180  64.328  1.00  0.00    -0.044 C  
HETATM   35  F   UNL     1      -5.740   3.814  65.239  1.00  0.00    -0.018 F  
HETATM   36  F   UNL     1      -6.246   3.711  63.126  1.00  0.00    -0.016 F  
HETATM   37  C   UNL     1      -7.983   3.510  64.667  1.00  0.00    -0.086 C  
HETATM   38  C   UNL     1      -9.101   4.026  63.765  1.00  0.00    -0.132 C  
ENDBRANCH  29  31
ENDBRANCH  20  27
ENDBRANCH  18  19
ENDBRANCH  17  18
ENDBRANCH   8  10
TORSDOF 6
ENDMDL
MODEL      274
REMARK 921   NORMALIZED FREE ENERGY PREDICTED BY IDOCK:   13.94 KCAL/MOL
REMARK 922        TOTAL FREE ENERGY PREDICTED BY IDOCK:   17.29 KCAL/MOL
REMARK 923 INTER-LIGAND FREE ENERGY PREDICTED BY IDOCK:   13.04 KCAL/MOL
REMARK 924 INTRA-LIGAND FREE ENERGY PREDICTED BY IDOCK:    4.25 KCAL/MOL
REMARK 927      BINDING AFFINITY PREDICTED BY RF-SCORE:    0.00 PKD
ROOT
HETATM    1  C   UNL     1     -11.279   6.240  72.868  1.00  0.00    -0.233 C  
HETATM    2  C   UNL     1     -11.041   4.776  72.460  1.00  0.00    -0.124 C  
HETATM    3  C   UNL     1     -10.950   4.642  70.970  1.00  0.00     0.771 A  
HETATM    4  C   UNL     1     -12.197   3.891  72.946  1.00  0.00     0.839 C  
HETATM    5  N   UNL     1     -11.999   4.726  70.181  1.00  0.00     5.521 NA 
HETATM    6  N   UNL     1     -11.663   4.189  68.987  1.00  0.00     8.293 NA 
HETATM    7  C   UNL     1     -10.385   3.874  69.009  1.00  0.00     1.037 A  
HETATM    8  N   UNL     1      -9.842   4.257  70.223  1.00  0.00    -0.208 NA 
HETATM    9  C   UNL     1      -9.729   3.220  67.859  1.00  0.00    -0.023 C  
ENDROOT
BRANCH   8  10
HETATM   10  C   UNL     1      -8.457   4.178  70.734  1.00  0.00    -0.071 C  
HETATM   11  C   UNL     1      -7.432   3.384  69.889  1.00  0.00    -0.044 C  
HETATM   12  C   UNL     1      -6.084   4.055  69.565  1.00  0.00    -0.027 C  
HETATM   13  C   UNL     1      -5.157   3.785  70.749  1.00  0.00     0.000 C  
HETATM   14  C   UNL     1      -5.540   4.884  71.726  1.00  0.00    -0.008 C  
HETATM   15  C   UNL     1      -6.443   5.850  70.903  1.00  0.00    -0.040 C  
HETATM   16  C   UNL     1      -7.922   5.564  71.207  1.00  0.00    -0.111 C  
HETATM   17  N   UNL     1      -6.085   5.536  69.512  1.00  0.00    -0.020 NA 
BRANCH  17  18
HETATM   18  C   UNL     1      -6.849   6.149  68.368  1.00  0.00    -0.074 C  
BRANCH  18  19
HETATM   19  C   UNL     1      -8.434   6.311  68.457  1.00  0.00    -0.115 C  
HETATM   20  C   UNL     1      -9.157   7.704  68.872  1.00  0.00    -0.140 C  
BRANCH  20  21
HETATM   21  C   UNL     1      -9.639   8.194  70.273  1.00  0.00    -0.171 A  
HETATM   22  C   UNL     1     -10.465   8.887  72.943  1.00  0.00     0.833 A  
HETATM   23  C   UNL     1      -8.918   7.787  71.442  1.00  0.00    -0.151 A  
HETATM   24  C   UNL     1     -11.198   9.288  71.817  1.00  0.00    -0.413 A  
HETATM   25  C   UNL     1     -10.796   8.944  70.506  1.00  0.00    -0.276 A  
HETATM   26  C   UNL     1      -9.318   8.127  72.751  1.00  0.00    -0.344 A  
ENDBRANCH  20  21
BRANCH  20  27
HETATM   27  N   UNL     1      -8.547   8.819  68.161  1.00  0.00    -0.133 N  
HETATM   28  H   UNL     1      -7.554   9.019  68.274  1.00  0.00     0.000 HD 
HETATM   29  C   UNL     1      -9.319   9.596  67.338  1.00  0.00    -0.134 C  
HETATM   30  O   UNL     1     -10.531   9.418  67.234  1.00  0.00    -0.251 OA 
BRANCH  29  31
HETATM   31  C   UNL     1      -8.623  10.767  66.658  1.00  0.00    -0.143 C  
HETATM   32  C   UNL     1     -10.346  12.537  67.129  1.00  0.00    -0.230 C  
HETATM   33  C   UNL     1      -9.546  11.825  66.044  1.00  0.00    -0.248 C  
HETATM   34  C   UNL     1      -9.457  13.131  68.208  1.00  0.00    -0.210 C  
HETATM   35  F   UNL     1     -10.223  13.630  69.206  1.00  0.00    -0.128 F  
HETATM   36  F   UNL     1      -8.767  14.180  67.687  1.00  0.00    -0.154 F  
HETATM   37  C   UNL     1      -8.468  12.149  68.789  1.00  0.00     0.093 C  
HETATM   38  C   UNL     1      -7.697  11.439  67.678  1.00  0.00    -0.121 C  
ENDBRANCH  29  31
ENDBRANCH  20  27
ENDBRANCH  18  19
ENDBRANCH  17  18
ENDBRANCH   8  10
TORSDOF 6
ENDMDL
MODEL      275
REMARK 921   NORMALIZED FREE ENERGY PREDICTED BY IDOCK:   15.13 KCAL/MOL
REMARK 922        TOTAL FREE ENERGY PREDICTED BY IDOCK:   18.90 KCAL/MOL
REMARK 923 INTER-LIGAND FREE ENERGY PREDICTED BY IDOCK:   19.05 KCAL/MOL
REMARK 924 INTRA-LIGAND FREE ENERGY PREDICTED BY IDOCK:   -0.15 KCAL/MOL
REMARK 927      BINDING AFFINITY PREDICTED BY RF-SCORE:    0.00 PKD
ROOT
HETATM    1  C   UNL     1     -12.138  13.711  69.955  1.00  0.00    -0.417 C  
HETATM    2  C   UNL     1     -11.284  14.987  69.860  1.00  0.00    -0.303 C  
HETATM    3  C   UNL     1     -10.078  14.893  70.745  1.00  0.00     0.867 A  
HETATM    4  C   UNL     1     -12.101  16.211  70.298  1.00  0.00    -0.015 C  
HETATM    5  N   UNL     1     -10.145  14.996  72.056  1.00  0.00     2.162 NA 
HETATM    6  N   UNL     1      -8.901  15.258  72.513  1.00  0.00     6.955 NA 
HETATM    7  C   UNL     1      -8.058  15.212  71.503  1.00  0.00     4.119 A  
HETATM    8  N   UNL     1      -8.744  14.859  70.354  1.00  0.00     0.935 NA 
HETATM    9  C   UNL     1      -6.622  15.505  71.679  1.00  0.00     1.957 C  
ENDROOT
BRANCH   8  10
HETATM   10  C   UNL     1      -8.268  14.623  68.974  1.00  0.00    -0.110 C  
HETATM   11  C   UNL     1      -6.738  14.589  68.747  1.00  0.00    -0.091 C  
HETATM   12  C   UNL     1      -6.147  13.406  67.958  1.00  0.00    -0.129 C  
HETATM   13  C   UNL     1      -6.252  13.762  66.476  1.00  0.00     3.134 C  
HETATM   14  C   UNL     1      -7.678  13.356  66.140  1.00  0.00     2.303 C  
HETATM   15  C   UNL     1      -8.162  12.545  67.378  1.00  0.00    -0.183 C  
HETATM   16  C   UNL     1      -9.018  13.444  68.284  1.00  0.00    -0.176 C  
HETATM   17  N   UNL     1      -6.905  12.134  68.020  1.00  0.00    -0.074 NA 
BRANCH  17  18
HETATM   18  C   UNL     1      -6.920  11.444  69.359  1.00  0.00    -0.092 C  
BRANCH  18  19
HETATM   19  C   UNL     1      -5.983  10.179  69.620  1.00  0.00    -0.044 C  
HETATM   20  C   UNL     1      -6.527   8.651  69.553  1.00  0.00    -0.040 C  
BRANCH  20  21
HETATM   21  C   UNL     1      -7.052   7.732  70.699  1.00  0.00    -0.049 A  
HETATM   22  C   UNL     1      -7.823   6.086  72.933  1.00  0.00    -0.106 A  
HETATM   23  C   UNL     1      -6.790   8.093  72.060  1.00  0.00    -0.080 A  
HETATM   24  C   UNL     1      -8.081   5.701  71.610  1.00  0.00    -0.118 A  
HETATM   25  C   UNL     1      -7.698   6.505  70.512  1.00  0.00    -0.105 A  
HETATM   26  C   UNL     1      -7.170   7.292  73.157  1.00  0.00    -0.078 A  
ENDBRANCH  20  21
BRANCH  20  27
HETATM   27  N   UNL     1      -7.358   8.463  68.372  1.00  0.00    -0.092 N  
HETATM   28  H   UNL     1      -8.359   8.296  68.470  1.00  0.00     0.000 HD 
HETATM   29  C   UNL     1      -6.786   8.513  67.129  1.00  0.00    -0.063 C  
HETATM   30  O   UNL     1      -5.572   8.648  66.984  1.00  0.00    -0.037 OA 
BRANCH  29  31
HETATM   31  C   UNL     1      -7.709   8.270  65.944  1.00  0.00    -0.087 C  
HETATM   32  C   UNL     1      -9.031   6.356  66.899  1.00  0.00    -0.126 C  
HETATM   33  C   UNL     1      -8.161   6.820  65.737  1.00  0.00    -0.123 C  
HETATM   34  C   UNL     1     -10.213   7.279  67.142  1.00  0.00    -0.269 C  
HETATM   35  F   UNL     1     -10.869   6.893  68.262  1.00  0.00    -0.223 F  
HETATM   36  F   UNL     1     -11.093   7.152  66.114  1.00  0.00     0.319 F  
HETATM   37  C   UNL     1      -9.831   8.734  67.269  1.00  0.00    -0.260 C  
HETATM   38  C   UNL     1      -8.945   9.163  66.102  1.00  0.00    -0.211 C  
ENDBRANCH  29  31
ENDBRANCH  20  27
ENDBRANCH  18  19
ENDBRANCH  17  18
ENDBRANCH   8  10
TORSDOF 6
ENDMDL
MODEL      276
REMARK 921   NORMALIZED FREE ENERGY PREDICTED BY IDOCK:   15.55 KCAL/MOL
REMARK 922        TOTAL FREE ENERGY PREDICTED BY IDOCK:   19.46 KCAL/MOL
REMARK 923 INTER-LIGAND FREE ENERGY PREDICTED BY IDOCK:   19.44 KCAL/MOL
REMARK 924 INTRA-LIGAND FREE ENERGY PREDICTED BY IDOCK:    0.02 KCAL/MOL
REMARK 927      BINDING AFFINITY PREDICTED BY RF-SCORE:    0.00 PKD
ROOT
HETATM    1  C   UNL     1     -10.616   8.029  67.308  1.00  0.00    -0.360 C  
HETATM    2  C   UNL     1      -9.475   7.078  66.907  1.00  0.00    -0.199 C  
HETATM    3  C   UNL     1      -8.703   7.626  65.744  1.00  0.00    -0.125 A  
HETATM    4  C   UNL     1     -10.037   5.709  66.501  1.00  0.00    -0.225 C  
HETATM    5  N   UNL     1      -9.175   7.632  64.515  1.00  0.00     1.138 NA 
HETATM    6  N   UNL     1      -8.132   7.815  63.675  1.00  0.00    -0.100 NA 
HETATM    7  C   UNL     1      -7.045   8.024  64.386  1.00  0.00    -0.077 A  
HETATM    8  N   UNL     1      -7.375   8.036  65.730  1.00  0.00    -0.077 NA 
HETATM    9  C   UNL     1      -5.726   8.211  63.748  1.00  0.00    -0.061 C  
ENDROOT
BRANCH   8  10
HETATM   10  C   UNL     1      -6.546   8.276  66.931  1.00  0.00    -0.057 C  
HETATM   11  C   UNL     1      -6.119   9.735  67.219  1.00  0.00    -0.055 C  
HETATM   12  C   UNL     1      -6.346  10.291  68.637  1.00  0.00    -0.051 C  
HETATM   13  C   UNL     1      -5.134   9.884  69.473  1.00  0.00    -0.035 C  
HETATM   14  C   UNL     1      -5.489   8.469  69.903  1.00  0.00    -0.029 C  
HETATM   15  C   UNL     1      -6.988   8.302  69.516  1.00  0.00    -0.046 C  
HETATM   16  C   UNL     1      -7.099   7.538  68.187  1.00  0.00    -0.084 C  
HETATM   17  N   UNL     1      -7.461   9.690  69.406  1.00  0.00    -0.085 NA 
BRANCH  17  18
HETATM   18  C   UNL     1      -8.846   9.989  68.893  1.00  0.00    -0.148 C  
BRANCH  18  19
HETATM   19  C   UNL     1      -9.780  11.029  69.662  1.00  0.00     0.333 C  
HETATM   20  C   UNL     1      -9.622  12.637  69.508  1.00  0.00     1.423 C  
BRANCH  20  21
HETATM   21  C   UNL     1      -8.815  13.645  70.384  1.00  0.00     4.020 A  
HETATM   22  C   UNL     1      -7.157  15.339  72.018  1.00  0.00     3.338 A  
HETATM   23  C   UNL     1      -7.388  13.685  70.267  1.00  0.00     1.281 A  
HETATM   24  C   UNL     1      -8.550  15.310  72.164  1.00  0.00     6.791 A  
HETATM   25  C   UNL     1      -9.365  14.474  71.366  1.00  0.00     4.406 A  
HETATM   26  C   UNL     1      -6.572  14.517  71.063  1.00  0.00     0.384 A  
ENDBRANCH  20  21
BRANCH  20  27
HETATM   27  N   UNL     1      -9.469  12.996  68.105  1.00  0.00    -0.216 N  
HETATM   28  H   UNL     1      -8.651  13.518  67.795  1.00  0.00     0.000 HD 
HETATM   29  C   UNL     1     -10.433  12.626  67.205  1.00  0.00    -0.228 C  
HETATM   30  O   UNL     1     -11.462  12.053  67.562  1.00  0.00    -0.298 OA 
BRANCH  29  31
HETATM   31  C   UNL     1     -10.226  13.069  65.764  1.00  0.00    -0.297 C  
HETATM   32  C   UNL     1     -11.352  11.132  64.623  1.00  0.00     0.058 C  
HETATM   33  C   UNL     1     -10.066  11.943  64.737  1.00  0.00    -0.295 C  
HETATM   34  C   UNL     1     -12.559  12.001  64.314  1.00  0.00    -0.255 C  
HETATM   35  F   UNL     1     -13.684  11.249  64.357  1.00  0.00     0.989 F  
HETATM   36  F   UNL     1     -12.454  12.470  63.043  1.00  0.00    -0.547 F  
HETATM   37  C   UNL     1     -12.715  13.177  65.248  1.00  0.00    -0.457 C  
HETATM   38  C   UNL     1     -11.407  13.957  65.356  1.00  0.00    -0.311 C  
ENDBRANCH  29  31
ENDBRANCH  20  27
ENDBRANCH  18  19
ENDBRANCH  17  18
ENDBRANCH   8  10
TORSDOF 6
ENDMDL
MODEL      277
REMARK 921   NORMALIZED FREE ENERGY PREDICTED BY IDOCK:   18.50 KCAL/MOL
REMARK 922        TOTAL FREE ENERGY PREDICTED BY IDOCK:   23.45 KCAL/MOL
REMARK 923 INTER-LIGAND FREE ENERGY PREDICTED BY IDOCK:   17.88 KCAL/MOL
REMARK 924 INTRA-LIGAND FREE ENERGY PREDICTED BY IDOCK:    5.57 KCAL/MOL
REMARK 927      BINDING AFFINITY PREDICTED BY RF-SCORE:    0.00 PKD
ROOT
HETATM    1  C   UNL     1      -6.736  13.618  71.347  1.00  0.00     1.912 C  
HETATM    2  C   UNL     1      -7.477  12.804  70.271  1.00  0.00     2.406 C  
HETATM    3  C   UNL     1      -6.516  11.994  69.455  1.00  0.00    -0.115 A  
HETATM    4  C   UNL     1      -8.237  13.741  69.322  1.00  0.00     0.465 C  
HETATM    5  N   UNL     1      -5.722  12.528  68.551  1.00  0.00    -0.054 NA 
HETATM    6  N   UNL     1      -5.288  11.534  67.745  1.00  0.00    -0.046 NA 
HETATM    7  C   UNL     1      -5.727  10.385  68.213  1.00  0.00    -0.040 A  
HETATM    8  N   UNL     1      -6.425  10.608  69.387  1.00  0.00    -0.058 NA 
HETATM    9  C   UNL     1      -5.456   9.111  67.518  1.00  0.00    -0.038 C  
ENDROOT
BRANCH   8  10
HETATM   10  C   UNL     1      -7.072   9.667  70.326  1.00  0.00    -0.127 C  
HETATM   11  C   UNL     1      -7.268  10.141  71.785  1.00  0.00     2.092 C  
HETATM   12  C   UNL     1      -8.663   9.981  72.419  1.00  0.00     5.382 C  
HETATM   13  C   UNL     1      -8.735   8.563  72.983  1.00  0.00    -0.122 C  
HETATM   14  C   UNL     1      -9.125   7.742  71.765  1.00  0.00    -0.171 C  
HETATM   15  C   UNL     1      -9.519   8.795  70.687  1.00  0.00    -0.197 C  
HETATM   16  C   UNL     1      -8.347   9.009  69.717  1.00  0.00    -0.129 C  
HETATM   17  N   UNL     1      -9.813   9.995  71.485  1.00  0.00     0.978 NA 
BRANCH  17  18
HETATM   18  C   UNL     1     -10.093  11.313  70.811  1.00  0.00     3.529 C  
BRANCH  18  19
HETATM   19  C   UNL     1     -11.571  11.667  70.325  1.00  0.00    -0.254 C  
HETATM   20  C   UNL     1     -11.886  12.356  68.889  1.00  0.00    -0.301 C  
BRANCH  20  21
HETATM   21  C   UNL     1     -12.061  13.863  68.527  1.00  0.00    -0.331 A  
HETATM   22  C   UNL     1     -12.166  16.639  67.768  1.00  0.00     1.658 A  
HETATM   23  C   UNL     1     -11.500  14.359  67.306  1.00  0.00    -0.377 A  
HETATM   24  C   UNL     1     -12.711  16.184  68.976  1.00  0.00     1.348 A  
HETATM   25  C   UNL     1     -12.656  14.823  69.352  1.00  0.00     0.027 A  
HETATM   26  C   UNL     1     -11.552  15.717  66.928  1.00  0.00     0.193 A  
ENDBRANCH  20  21
BRANCH  20  27
HETATM   27  N   UNL     1     -11.123  11.699  67.837  1.00  0.00    -0.229 N  
HETATM   28  H   UNL     1     -10.882  12.204  66.985  1.00  0.00     0.000 HD 
HETATM   29  C   UNL     1     -10.730  10.397  68.001  1.00  0.00    -0.249 C  
HETATM   30  O   UNL     1     -11.062   9.744  68.989  1.00  0.00    -0.196 OA 
BRANCH  29  31
HETATM   31  C   UNL     1      -9.970   9.764  66.845  1.00  0.00    -0.270 C  
HETATM   32  C   UNL     1     -10.294  11.594  65.151  1.00  0.00    -0.326 C  
HETATM   33  C   UNL     1     -10.481  10.110  65.442  1.00  0.00    -0.054 C  
HETATM   34  C   UNL     1      -8.857  12.046  65.348  1.00  0.00     0.450 C  
HETATM   35  F   UNL     1      -8.779  13.391  65.207  1.00  0.00     0.907 F  
HETATM   36  F   UNL     1      -8.084  11.508  64.368  1.00  0.00     0.482 F  
HETATM   37  C   UNL     1      -8.275  11.656  66.686  1.00  0.00    -0.140 C  
HETATM   38  C   UNL     1      -8.496  10.169  66.956  1.00  0.00    -0.129 C  
ENDBRANCH  29  31
ENDBRANCH  20  27
ENDBRANCH  18  19
ENDBRANCH  17  18
ENDBRANCH   8  10
TORSDOF 6
ENDMDL
MODEL      278
REMARK 921   NORMALIZED FREE ENERGY PREDICTED BY IDOCK:   18.71 KCAL/MOL
REMARK 922        TOTAL FREE ENERGY PREDICTED BY IDOCK:   23.73 KCAL/MOL
REMARK 923 INTER-LIGAND FREE ENERGY PREDICTED BY IDOCK:   13.32 KCAL/MOL
REMARK 924 INTRA-LIGAND FREE ENERGY PREDICTED BY IDOCK:   10.41 KCAL/MOL
REMARK 927      BINDING AFFINITY PREDICTED BY RF-SCORE:    0.00 PKD
ROOT
HETATM    1  C   UNL     1      -8.237   6.636  66.696  1.00  0.00    -0.112 C  
HETATM    2  C   UNL     1      -7.230   7.691  67.186  1.00  0.00    -0.090 C  
HETATM    3  C   UNL     1      -7.599   9.057  66.690  1.00  0.00    -0.089 A  
HETATM    4  C   UNL     1      -5.821   7.364  66.673  1.00  0.00    -0.035 C  
HETATM    5  N   UNL     1      -7.431   9.430  65.439  1.00  0.00    -0.097 NA 
HETATM    6  N   UNL     1      -7.483  10.780  65.402  1.00  0.00    -0.019 NA 
HETATM    7  C   UNL     1      -7.785  11.227  66.602  1.00  0.00    -0.148 A  
HETATM    8  N   UNL     1      -7.993  10.153  67.449  1.00  0.00    -0.109 NA 
HETATM    9  C   UNL     1      -7.867  12.673  66.892  1.00  0.00     0.047 C  
ENDROOT
BRANCH   8  10
HETATM   10  C   UNL     1      -8.397  10.102  68.871  1.00  0.00    -0.130 C  
HETATM   11  C   UNL     1      -8.786  11.439  69.546  1.00  0.00     0.732 C  
HETATM   12  C   UNL     1     -10.110  11.496  70.332  1.00  0.00     2.643 C  
HETATM   13  C   UNL     1      -9.812  10.993  71.743  1.00  0.00     8.651 C  
HETATM   14  C   UNL     1      -9.901   9.484  71.581  1.00  0.00     0.340 C  
HETATM   15  C   UNL     1     -10.520   9.273  70.168  1.00  0.00    -0.230 C  
HETATM   16  C   UNL     1      -9.409   8.952  69.157  1.00  0.00    -0.148 C  
HETATM   17  N   UNL     1     -11.173  10.562  69.894  1.00  0.00    -0.286 NA 
BRANCH  17  18
HETATM   18  C   UNL     1     -11.775  10.843  68.542  1.00  0.00    -0.237 C  
BRANCH  18  19
HETATM   19  C   UNL     1     -10.842  10.924  67.249  1.00  0.00    -0.342 C  
HETATM   20  C   UNL     1     -10.859  12.186  66.228  1.00  0.00    -0.282 C  
BRANCH  20  21
HETATM   21  C   UNL     1     -11.666  12.385  64.908  1.00  0.00    -0.418 A  
HETATM   22  C   UNL     1     -12.983  12.634  62.360  1.00  0.00     2.615 A  
HETATM   23  C   UNL     1     -11.674  11.339  63.930  1.00  0.00     0.155 A  
HETATM   24  C   UNL     1     -12.980  13.679  63.292  1.00  0.00     1.155 A  
HETATM   25  C   UNL     1     -12.329  13.560  64.542  1.00  0.00    -0.406 A  
HETATM   26  C   UNL     1     -12.322  11.455  62.682  1.00  0.00     1.207 A  
ENDBRANCH  20  21
BRANCH  20  27
HETATM   27  N   UNL     1     -10.847  13.437  66.973  1.00  0.00    -0.271 N  
HETATM   28  H   UNL     1     -10.443  14.277  66.560  1.00  0.00     0.000 HD 
HETATM   29  C   UNL     1     -11.384  13.478  68.232  1.00  0.00    -0.294 C  
HETATM   30  O   UNL     1     -11.819  12.466  68.780  1.00  0.00    -0.314 OA 
BRANCH  29  31
HETATM   31  C   UNL     1     -11.302  14.809  68.965  1.00  0.00    -0.295 C  
HETATM   32  C   UNL     1      -9.041  14.504  70.022  1.00  0.00     0.952 C  
HETATM   33  C   UNL     1     -10.514  14.799  70.279  1.00  0.00     0.145 C  
HETATM   34  C   UNL     1      -8.427  15.458  69.011  1.00  0.00    -0.229 C  
HETATM   35  F   UNL     1      -7.163  15.066  68.724  1.00  0.00    -0.105 F  
HETATM   36  F   UNL     1      -8.333  16.694  69.568  1.00  0.00    -0.160 F  
HETATM   37  C   UNL     1      -9.213  15.569  67.727  1.00  0.00    -0.179 C  
HETATM   38  C   UNL     1     -10.687  15.845  68.019  1.00  0.00    -0.301 C  
ENDBRANCH  29  31
ENDBRANCH  20  27
ENDBRANCH  18  19
ENDBRANCH  17  18
ENDBRANCH   8  10
TORSDOF 6
ENDMDL
MODEL      279
REMARK 921   NORMALIZED FREE ENERGY PREDICTED BY IDOCK:   22.30 KCAL/MOL
REMARK 922        TOTAL FREE ENERGY PREDICTED BY IDOCK:   28.58 KCAL/MOL
REMARK 923 INTER-LIGAND FREE ENERGY PREDICTED BY IDOCK:   16.20 KCAL/MOL
REMARK 924 INTRA-LIGAND FREE ENERGY PREDICTED BY IDOCK:   12.38 KCAL/MOL
REMARK 927      BINDING AFFINITY PREDICTED BY RF-SCORE:    0.00 PKD
ROOT
HETATM    1  C   UNL     1      -7.669  13.668  65.025  1.00  0.00     8.794 C  
HETATM    2  C   UNL     1      -7.096  14.023  66.408  1.00  0.00     2.825 C  
HETATM    3  C   UNL     1      -8.119  14.722  67.250  1.00  0.00    -0.207 A  
HETATM    4  C   UNL     1      -5.884  14.954  66.262  1.00  0.00     4.482 C  
HETATM    5  N   UNL     1      -8.480  15.971  67.043  1.00  0.00    -0.195 NA 
HETATM    6  N   UNL     1      -9.094  16.414  68.163  1.00  0.00    -0.198 NA 
HETATM    7  C   UNL     1      -9.203  15.414  69.012  1.00  0.00    -0.235 A  
HETATM    8  N   UNL     1      -8.700  14.264  68.427  1.00  0.00    -0.178 NA 
HETATM    9  C   UNL     1      -9.791  15.597  70.354  1.00  0.00     0.370 C  
ENDROOT
BRANCH   8  10
HETATM   10  C   UNL     1      -8.630  12.874  68.926  1.00  0.00     0.316 C  
HETATM   11  C   UNL     1      -8.853  11.739  67.897  1.00  0.00    -0.165 C  
HETATM   12  C   UNL     1      -7.829  10.589  67.852  1.00  0.00    -0.105 C  
HETATM   13  C   UNL     1      -8.257   9.572  68.908  1.00  0.00    -0.116 C  
HETATM   14  C   UNL     1      -7.653  10.143  70.181  1.00  0.00    -0.119 C  
HETATM   15  C   UNL     1      -6.700  11.274  69.694  1.00  0.00    -0.122 C  
HETATM   16  C   UNL     1      -7.393  12.637  69.843  1.00  0.00     1.089 C  
HETATM   17  N   UNL     1      -6.452  10.920  68.289  1.00  0.00    -0.057 NA 
BRANCH  17  18
HETATM   18  C   UNL     1      -5.686  11.854  67.388  1.00  0.00    -0.113 C  
BRANCH  18  19
HETATM   19  C   UNL     1      -5.960  11.855  65.816  1.00  0.00     1.577 C  
HETATM   20  C   UNL     1      -7.103  10.937  65.119  1.00  0.00     0.293 C  
BRANCH  20  21
HETATM   21  C   UNL     1      -6.986   9.517  64.482  1.00  0.00    -0.103 A  
HETATM   22  C   UNL     1      -6.919   6.972  63.136  1.00  0.00    -0.058 A  
HETATM   23  C   UNL     1      -6.990   9.390  63.055  1.00  0.00    -0.097 A  
HETATM   24  C   UNL     1      -6.928   7.067  64.535  1.00  0.00    -0.051 A  
HETATM   25  C   UNL     1      -6.966   8.315  65.196  1.00  0.00    -0.074 A  
HETATM   26  C   UNL     1      -6.953   8.145  62.392  1.00  0.00    -0.087 A  
ENDBRANCH  20  21
BRANCH  20  27
HETATM   27  N   UNL     1      -8.345  11.018  65.876  1.00  0.00    -0.254 N  
HETATM   28  H   UNL     1      -8.361  10.771  66.865  1.00  0.00     0.000 HD 
HETATM   29  C   UNL     1      -9.491  11.429  65.248  1.00  0.00    -0.209 C  
HETATM   30  O   UNL     1      -9.514  11.670  64.042  1.00  0.00    -0.160 OA 
BRANCH  29  31
HETATM   31  C   UNL     1     -10.758  11.452  66.091  1.00  0.00    -0.320 C  
HETATM   32  C   UNL     1     -11.408  13.850  65.704  1.00  0.00    -0.310 C  
HETATM   33  C   UNL     1     -11.092  12.793  66.755  1.00  0.00    -0.314 C  
HETATM   34  C   UNL     1     -12.507  13.410  64.751  1.00  0.00    -0.365 C  
HETATM   35  F   UNL     1     -12.650  14.327  63.766  1.00  0.00    -0.438 F  
HETATM   36  F   UNL     1     -13.688  13.375  65.423  1.00  0.00     0.058 F  
HETATM   37  C   UNL     1     -12.267  12.054  64.133  1.00  0.00    -0.459 C  
HETATM   38  C   UNL     1     -11.934  11.022  65.209  1.00  0.00     1.501 C  
ENDBRANCH  29  31
ENDBRANCH  20  27
ENDBRANCH  18  19
ENDBRANCH  17  18
ENDBRANCH   8  10
TORSDOF 6
ENDMDL
MODEL      280
REMARK 921   NORMALIZED FREE ENERGY PREDICTED BY IDOCK:   29.82 KCAL/MOL
REMARK 922        TOTAL FREE ENERGY PREDICTED BY IDOCK:   38.74 KCAL/MOL
REMARK 923 INTER-LIGAND FREE ENERGY PREDICTED BY IDOCK:   36.08 KCAL/MOL
REMARK 924 INTRA-LIGAND FREE ENERGY PREDICTED BY IDOCK:    2.66 KCAL/MOL
REMARK 927      BINDING AFFINITY PREDICTED BY RF-SCORE:    0.00 PKD
ROOT
HETATM    1  C   UNL     1     -11.727  15.492  65.439  1.00  0.00     0.173 C  
HETATM    2  C   UNL     1     -12.859  14.469  65.236  1.00  0.00    -0.102 C  
HETATM    3  C   UNL     1     -12.344  13.221  64.585  1.00  0.00    -0.391 A  
HETATM    4  C   UNL     1     -13.956  15.057  64.337  1.00  0.00     4.190 C  
HETATM    5  N   UNL     1     -12.019  13.164  63.311  1.00  0.00    -0.507 NA 
HETATM    6  N   UNL     1     -11.974  11.861  62.955  1.00  0.00    -0.149 NA 
HETATM    7  C   UNL     1     -12.166  11.121  64.027  1.00  0.00     1.046 A  
HETATM    8  N   UNL     1     -12.289  11.944  65.132  1.00  0.00    -0.256 NA 
HETATM    9  C   UNL     1     -12.220   9.647  63.951  1.00  0.00    11.284 C  
ENDROOT
BRANCH   8  10
HETATM   10  C   UNL     1     -12.465  11.625  66.565  1.00  0.00     2.183 C  
HETATM   11  C   UNL     1     -11.191  11.310  67.384  1.00  0.00    -0.370 C  
HETATM   12  C   UNL     1     -10.990  12.043  68.724  1.00  0.00    -0.239 C  
HETATM   13  C   UNL     1     -11.742  11.244  69.786  1.00  0.00    -0.422 C  
HETATM   14  C   UNL     1     -13.164  11.762  69.644  1.00  0.00     1.657 C  
HETATM   15  C   UNL     1     -13.041  13.008  68.718  1.00  0.00     2.512 C  
HETATM   16  C   UNL     1     -13.424  12.625  67.280  1.00  0.00     6.505 C  
HETATM   17  N   UNL     1     -11.623  13.378  68.842  1.00  0.00    -0.291 NA 
BRANCH  17  18
HETATM   18  C   UNL     1     -11.036  14.461  67.974  1.00  0.00    -0.258 C  
BRANCH  18  19
HETATM   19  C   UNL     1      -9.531  14.940  68.200  1.00  0.00    -0.202 C  
HETATM   20  C   UNL     1      -9.147  16.442  68.683  1.00  0.00    -0.233 C  
BRANCH  20  21
HETATM   21  C   UNL     1      -8.775  17.695  67.831  1.00  0.00    -0.245 A  
HETATM   22  C   UNL     1      -7.880  20.011  66.373  1.00  0.00    -0.326 A  
HETATM   23  C   UNL     1      -7.423  17.863  67.389  1.00  0.00    -0.213 A  
HETATM   24  C   UNL     1      -9.207  19.880  66.805  1.00  0.00    -0.480 A  
HETATM   25  C   UNL     1      -9.646  18.746  67.526  1.00  0.00    -0.333 A  
HETATM   26  C   UNL     1      -6.981  18.994  66.670  1.00  0.00    -0.220 A  
ENDBRANCH  20  21
BRANCH  20  27
HETATM   27  N   UNL     1     -10.007  16.853  69.784  1.00  0.00     0.106 N  
HETATM   28  H   UNL     1      -9.602  17.133  70.676  1.00  0.00     0.000 HD 
HETATM   29  C   UNL     1     -11.366  16.860  69.611  1.00  0.00     0.435 C  
HETATM   30  O   UNL     1     -11.885  16.465  68.568  1.00  0.00    -0.156 OA 
BRANCH  29  31
HETATM   31  C   UNL     1     -12.204  17.263  70.816  1.00  0.00     4.492 C  
HETATM   32  C   UNL     1     -12.610  14.969  71.761  1.00  0.00    -0.409 C  
HETATM   33  C   UNL     1     -13.265  16.251  71.260  1.00  0.00     1.339 C  
HETATM   34  C   UNL     1     -11.594  15.230  72.861  1.00  0.00    -0.287 C  
HETATM   35  F   UNL     1     -10.952  14.078  73.170  1.00  0.00     1.773 F  
HETATM   36  F   UNL     1     -12.249  15.624  73.985  1.00  0.00    -0.521 F  
HETATM   37  C   UNL     1     -10.573  16.284  72.506  1.00  0.00     3.100 C  
HETATM   38  C   UNL     1     -11.259  17.547  71.989  1.00  0.00     1.894 C  
ENDBRANCH  29  31
ENDBRANCH  20  27
ENDBRANCH  18  19
ENDBRANCH  17  18
ENDBRANCH   8  10
TORSDOF 6
ENDMDL
MODEL      281
REMARK 921   NORMALIZED FREE ENERGY PREDICTED BY IDOCK:   38.50 KCAL/MOL
REMARK 922        TOTAL FREE ENERGY PREDICTED BY IDOCK:   50.47 KCAL/MOL
REMARK 923 INTER-LIGAND FREE ENERGY PREDICTED BY IDOCK:   17.42 KCAL/MOL
REMARK 924 INTRA-LIGAND FREE ENERGY PREDICTED BY IDOCK:   33.05 KCAL/MOL
REMARK 927      BINDING AFFINITY PREDICTED BY RF-SCORE:    0.00 PKD
ROOT
HETATM    1  C   UNL     1     -12.367   8.218  72.326  1.00  0.00    -0.410 C  
HETATM    2  C   UNL     1     -11.526   7.170  71.577  1.00  0.00    -0.298 C  
HETATM    3  C   UNL     1     -12.040   6.965  70.184  1.00  0.00    -0.055 A  
HETATM    4  C   UNL     1     -11.578   5.821  72.307  1.00  0.00    -0.300 C  
HETATM    5  N   UNL     1     -13.149   6.307  69.923  1.00  0.00     3.249 NA 
HETATM    6  N   UNL     1     -13.129   5.966  68.616  1.00  0.00     9.537 NA 
HETATM    7  C   UNL     1     -12.066   6.501  68.054  1.00  0.00     2.849 A  
HETATM    8  N   UNL     1     -11.388   7.260  68.992  1.00  0.00     0.158 NA 
HETATM    9  C   UNL     1     -11.741   6.267  66.632  1.00  0.00     1.285 C  
ENDROOT
BRANCH   8  10
HETATM   10  C   UNL     1     -10.175   8.097  68.869  1.00  0.00    -0.210 C  
HETATM   11  C   UNL     1     -10.376   9.629  68.782  1.00  0.00    -0.233 C  
HETATM   12  C   UNL     1      -9.540  10.525  69.716  1.00  0.00     0.069 C  
HETATM   13  C   UNL     1      -8.202  10.767  69.020  1.00  0.00    -0.139 C  
HETATM   14  C   UNL     1      -7.406   9.527  69.394  1.00  0.00    -0.084 C  
HETATM   15  C   UNL     1      -8.255   8.829  70.498  1.00  0.00    -0.131 C  
HETATM   16  C   UNL     1      -9.065   7.679  69.880  1.00  0.00    -0.147 C  
HETATM   17  N   UNL     1      -9.111   9.915  70.997  1.00  0.00     0.231 NA 
BRANCH  17  18
HETATM   18  C   UNL     1     -10.210   9.630  71.987  1.00  0.00     1.231 C  
BRANCH  18  19
HETATM   19  C   UNL     1      -9.863   8.997  73.411  1.00  0.00     2.331 C  
HETATM   20  C   UNL     1      -8.875   7.722  73.591  1.00  0.00    -0.266 C  
BRANCH  20  21
HETATM   21  C   UNL     1      -9.221   6.203  73.682  1.00  0.00    -0.131 A  
HETATM   22  C   UNL     1      -9.948   3.443  74.064  1.00  0.00    -0.173 A  
HETATM   23  C   UNL     1     -10.429   5.799  74.336  1.00  0.00    -0.196 A  
HETATM   24  C   UNL     1      -8.752   3.809  73.432  1.00  0.00    -0.086 A  
HETATM   25  C   UNL     1      -8.391   5.164  73.249  1.00  0.00    -0.111 A  
HETATM   26  C   UNL     1     -10.791   4.448  74.521  1.00  0.00     0.026 A  
ENDBRANCH  20  21
BRANCH  20  27
HETATM   27  N   UNL     1      -7.680   7.891  72.778  1.00  0.00    -0.107 N  
HETATM   28  H   UNL     1      -7.552   8.735  72.222  1.00  0.00     0.000 HD 
HETATM   29  C   UNL     1      -6.727   6.906  72.766  1.00  0.00    -0.066 C  
HETATM   30  O   UNL     1      -6.885   5.850  73.375  1.00  0.00    -0.077 OA 
BRANCH  29  31
HETATM   31  C   UNL     1      -5.523   7.134  71.863  1.00  0.00    -0.036 C  
HETATM   32  C   UNL     1      -6.354   5.906  69.832  1.00  0.00    -0.031 C  
HETATM   33  C   UNL     1      -5.228   6.021  70.853  1.00  0.00    -0.013 C  
HETATM   34  C   UNL     1      -6.643   7.226  69.138  1.00  0.00    -0.041 C  
HETATM   35  F   UNL     1      -7.734   7.095  68.347  1.00  0.00    -0.107 F  
HETATM   36  F   UNL     1      -5.603   7.533  68.319  1.00  0.00    -0.023 F  
HETATM   37  C   UNL     1      -6.859   8.378  70.090  1.00  0.00    -0.042 C  
HETATM   38  C   UNL     1      -5.725   8.454  71.111  1.00  0.00    -0.034 C  
ENDBRANCH  29  31
ENDBRANCH  20  27
ENDBRANCH  18  19
ENDBRANCH  17  18
ENDBRANCH   8  10
TORSDOF 6
ENDMDL
MODEL      282
REMARK 921   NORMALIZED FREE ENERGY PREDICTED BY IDOCK:   39.47 KCAL/MOL
REMARK 922        TOTAL FREE ENERGY PREDICTED BY IDOCK:   51.78 KCAL/MOL
REMARK 923 INTER-LIGAND FREE ENERGY PREDICTED BY IDOCK:   43.42 KCAL/MOL
REMARK 924 INTRA-LIGAND FREE ENERGY PREDICTED BY IDOCK:    8.35 KCAL/MOL
REMARK 927      BINDING AFFINITY PREDICTED BY RF-SCORE:    0.00 PKD
ROOT
HETATM    1  C   UNL     1     -12.936   6.759  65.882  1.00  0.00    11.110 C  
HETATM    2  C   UNL     1     -11.996   7.150  67.035  1.00  0.00     2.979 C  
HETATM    3  C   UNL     1     -10.940   8.105  66.567  1.00  0.00     1.009 A  
HETATM    4  C   UNL     1     -11.296   5.906  67.599  1.00  0.00     0.427 C  
HETATM    5  N   UNL     1      -9.922   7.732  65.820  1.00  0.00     0.558 NA 
HETATM    6  N   UNL     1      -8.978   8.696  65.898  1.00  0.00    -0.189 NA 
HETATM    7  C   UNL     1      -9.455   9.701  66.602  1.00  0.00    -0.170 A  
HETATM    8  N   UNL     1     -10.764   9.428  66.957  1.00  0.00    -0.195 NA 
HETATM    9  C   UNL     1      -8.636  10.892  66.903  1.00  0.00    -0.136 C  
ENDROOT
BRANCH   8  10
HETATM   10  C   UNL     1     -11.757  10.235  67.698  1.00  0.00     0.859 C  
HETATM   11  C   UNL     1     -12.171   9.736  69.103  1.00  0.00     1.022 C  
HETATM   12  C   UNL     1     -12.144  10.743  70.268  1.00  0.00    -0.348 C  
HETATM   13  C   UNL     1     -13.483  11.479  70.251  1.00  0.00     1.391 C  
HETATM   14  C   UNL     1     -13.246  12.570  69.220  1.00  0.00     2.510 C  
HETATM   15  C   UNL     1     -11.713  12.537  68.952  1.00  0.00    -0.322 C  
HETATM   16  C   UNL     1     -11.428  11.758  67.659  1.00  0.00    -0.370 C  
HETATM   17  N   UNL     1     -11.180  11.862  70.145  1.00  0.00     0.093 NA 
BRANCH  17  18
HETATM   18  C   UNL     1      -9.724  11.483  70.224  1.00  0.00     2.779 C  
BRANCH  18  19
HETATM   19  C   UNL     1      -8.617  12.406  69.539  1.00  0.00     1.501 C  
HETATM   20  C   UNL     1      -8.987  13.675  68.596  1.00  0.00    -0.025 C  
BRANCH  20  21
HETATM   21  C   UNL     1      -9.134  13.750  67.044  1.00  0.00    -0.253 A  
HETATM   22  C   UNL     1      -9.417  13.651  64.181  1.00  0.00     2.263 A  
HETATM   23  C   UNL     1      -9.995  12.818  66.379  1.00  0.00    -0.268 A  
HETATM   24  C   UNL     1      -8.557  14.564  64.805  1.00  0.00     5.461 A  
HETATM   25  C   UNL     1      -8.413  14.610  66.210  1.00  0.00     0.425 A  
HETATM   26  C   UNL     1     -10.140  12.769  64.976  1.00  0.00    -0.239 A  
ENDBRANCH  20  21
BRANCH  20  27
HETATM   27  N   UNL     1     -10.038  14.472  69.213  1.00  0.00    -0.403 N  
HETATM   28  H   UNL     1     -10.916  14.632  68.722  1.00  0.00     0.000 HD 
HETATM   29  C   UNL     1      -9.836  15.005  70.459  1.00  0.00     0.662 C  
HETATM   30  O   UNL     1      -8.763  14.882  71.046  1.00  0.00     1.916 OA 
BRANCH  29  31
HETATM   31  C   UNL     1     -10.962  15.858  71.025  1.00  0.00    -0.169 C  
HETATM   32  C   UNL     1     -12.317  14.021  72.080  1.00  0.00    -0.125 C  
HETATM   33  C   UNL     1     -12.337  15.186  71.097  1.00  0.00    -0.404 C  
HETATM   34  C   UNL     1     -11.825  14.435  73.457  1.00  0.00     0.442 C  
HETATM   35  F   UNL     1     -11.702  13.341  74.244  1.00  0.00     3.550 F  
HETATM   36  F   UNL     1     -12.761  15.230  74.041  1.00  0.00    -0.569 F  
HETATM   37  C   UNL     1     -10.511  15.178  73.435  1.00  0.00     3.794 C  
HETATM   38  C   UNL     1     -10.558  16.325  72.427  1.00  0.00     2.859 C  
ENDBRANCH  29  31
ENDBRANCH  20  27
ENDBRANCH  18  19
ENDBRANCH  17  18
ENDBRANCH   8  10
TORSDOF 6
ENDMDL
MODEL      283
REMARK 921   NORMALIZED FREE ENERGY PREDICTED BY IDOCK:   42.17 KCAL/MOL
REMARK 922        TOTAL FREE ENERGY PREDICTED BY IDOCK:   55.42 KCAL/MOL
REMARK 923 INTER-LIGAND FREE ENERGY PREDICTED BY IDOCK:   32.03 KCAL/MOL
REMARK 924 INTRA-LIGAND FREE ENERGY PREDICTED BY IDOCK:   23.39 KCAL/MOL
REMARK 927      BINDING AFFINITY PREDICTED BY RF-SCORE:    0.00 PKD
ROOT
HETATM    1  C   UNL     1     -13.002  14.949  64.763  1.00  0.00     0.544 C  
HETATM    2  C   UNL     1     -12.747  15.195  66.261  1.00  0.00     1.118 C  
HETATM    3  C   UNL     1     -12.378  13.920  66.958  1.00  0.00    -0.249 A  
HETATM    4  C   UNL     1     -14.007  15.756  66.932  1.00  0.00     8.137 C  
HETATM    5  N   UNL     1     -13.254  12.976  67.228  1.00  0.00     2.251 NA 
HETATM    6  N   UNL     1     -12.716  12.173  68.172  1.00  0.00     0.935 NA 
HETATM    7  C   UNL     1     -11.479  12.558  68.404  1.00  0.00    -0.312 A  
HETATM    8  N   UNL     1     -11.163  13.608  67.558  1.00  0.00    -0.284 NA 
HETATM    9  C   UNL     1     -10.641  11.900  69.426  1.00  0.00     0.068 C  
ENDROOT
BRANCH   8  10
HETATM   10  C   UNL     1      -9.905  14.364  67.378  1.00  0.00    -0.224 C  
HETATM   11  C   UNL     1      -9.245  14.956  68.646  1.00  0.00    -0.193 C  
HETATM   12  C   UNL     1      -7.744  14.694  68.872  1.00  0.00    -0.141 C  
HETATM   13  C   UNL     1      -6.983  15.772  68.102  1.00  0.00    -0.125 C  
HETATM   14  C   UNL     1      -6.936  15.200  66.694  1.00  0.00     1.181 C  
HETATM   15  C   UNL     1      -7.417  13.727  66.848  1.00  0.00     0.577 C  
HETATM   16  C   UNL     1      -8.898  13.621  66.450  1.00  0.00     0.103 C  
HETATM   17  N   UNL     1      -7.199  13.452  68.275  1.00  0.00    -0.099 NA 
BRANCH  17  18
HETATM   18  C   UNL     1      -7.682  12.163  68.889  1.00  0.00     0.036 C  
BRANCH  18  19
HETATM   19  C   UNL     1      -8.076  12.110  70.435  1.00  0.00     4.423 C  
HETATM   20  C   UNL     1      -9.600  11.887  70.948  1.00  0.00     7.772 C  
BRANCH  20  21
HETATM   21  C   UNL     1     -10.683  12.942  71.335  1.00  0.00     5.942 A  
HETATM   22  C   UNL     1     -12.824  14.786  71.889  1.00  0.00    -0.395 A  
HETATM   23  C   UNL     1     -12.060  12.549  71.368  1.00  0.00     0.450 A  
HETATM   24  C   UNL     1     -11.486  15.200  71.850  1.00  0.00    -0.457 A  
HETATM   25  C   UNL     1     -10.434  14.297  71.573  1.00  0.00     3.000 A  
HETATM   26  C   UNL     1     -13.112  13.449  71.643  1.00  0.00    -0.463 A  
ENDBRANCH  20  21
BRANCH  20  27
HETATM   27  N   UNL     1     -10.231  10.809  70.200  1.00  0.00    -0.310 N  
HETATM   28  H   UNL     1     -11.104  10.397  70.529  1.00  0.00     0.000 HD 
HETATM   29  C   UNL     1      -9.644  10.352  69.050  1.00  0.00    -0.204 C  
HETATM   30  O   UNL     1      -8.558  10.784  68.665  1.00  0.00    -0.136 OA 
BRANCH  29  31
HETATM   31  C   UNL     1     -10.339   9.198  68.342  1.00  0.00    -0.242 C  
HETATM   32  C   UNL     1      -8.735   7.366  68.971  1.00  0.00    -0.133 C  
HETATM   33  C   UNL     1      -9.421   8.088  67.818  1.00  0.00    -0.166 C  
HETATM   34  C   UNL     1      -9.725   6.834  69.993  1.00  0.00    -0.163 C  
HETATM   35  F   UNL     1      -9.056   6.324  71.054  1.00  0.00    -0.148 F  
HETATM   36  F   UNL     1     -10.421   5.804  69.442  1.00  0.00    -0.241 F  
HETATM   37  C   UNL     1     -10.709   7.870  70.481  1.00  0.00    -0.233 C  
HETATM   38  C   UNL     1     -11.365   8.588  69.303  1.00  0.00     0.410 C  
ENDBRANCH  29  31
ENDBRANCH  20  27
ENDBRANCH  18  19
ENDBRANCH  17  18
ENDBRANCH   8  10
TORSDOF 6
ENDMDL
MODEL      284
REMARK 921   NORMALIZED FREE ENERGY PREDICTED BY IDOCK:   45.00 KCAL/MOL
REMARK 922        TOTAL FREE ENERGY PREDICTED BY IDOCK:   59.25 KCAL/MOL
REMARK 923 INTER-LIGAND FREE ENERGY PREDICTED BY IDOCK:   35.29 KCAL/MOL
REMARK 924 INTRA-LIGAND FREE ENERGY PREDICTED BY IDOCK:   23.95 KCAL/MOL
REMARK 927      BINDING AFFINITY PREDICTED BY RF-SCORE:    0.00 PKD
ROOT
HETATM    1  C   UNL     1      -9.568   8.522  73.465  1.00  0.00     0.545 C  
HETATM    2  C   UNL     1      -8.972   9.252  72.249  1.00  0.00     0.969 C  
HETATM    3  C   UNL     1      -8.382   8.278  71.274  1.00  0.00    -0.131 A  
HETATM    4  C   UNL     1      -7.860  10.212  72.693  1.00  0.00     5.274 C  
HETATM    5  N   UNL     1      -7.247   7.649  71.494  1.00  0.00    -0.061 NA 
HETATM    6  N   UNL     1      -6.806   7.170  70.310  1.00  0.00    -0.055 NA 
HETATM    7  C   UNL     1      -7.714   7.412  69.388  1.00  0.00    -0.106 A  
HETATM    8  N   UNL     1      -8.810   8.017  69.977  1.00  0.00    -0.142 NA 
HETATM    9  C   UNL     1      -7.498   7.048  67.973  1.00  0.00    -0.099 C  
ENDROOT
BRANCH   8  10
HETATM   10  C   UNL     1     -10.105   8.446  69.406  1.00  0.00    -0.198 C  
HETATM   11  C   UNL     1     -11.358   8.305  70.304  1.00  0.00    -0.129 C  
HETATM   12  C   UNL     1     -12.290   9.523  70.445  1.00  0.00     0.116 C  
HETATM   13  C   UNL     1     -13.260   9.479  69.266  1.00  0.00     3.791 C  
HETATM   14  C   UNL     1     -12.461  10.140  68.155  1.00  0.00     3.216 C  
HETATM   15  C   UNL     1     -11.223  10.757  68.870  1.00  0.00    -0.268 C  
HETATM   16  C   UNL     1     -10.009   9.830  68.698  1.00  0.00    -0.181 C  
HETATM   17  N   UNL     1     -11.660  10.854  70.271  1.00  0.00    -0.321 NA 
BRANCH  17  18
HETATM   18  C   UNL     1     -10.692  11.266  71.349  1.00  0.00     4.191 C  
BRANCH  18  19
HETATM   19  C   UNL     1     -10.418  12.812  71.632  1.00  0.00     8.966 C  
HETATM   20  C   UNL     1      -9.462  13.725  70.689  1.00  0.00     4.506 C  
BRANCH  20  21
HETATM   21  C   UNL     1      -7.944  14.056  70.837  1.00  0.00     3.683 A  
HETATM   22  C   UNL     1      -5.136  14.690  70.873  1.00  0.00    -0.125 A  
HETATM   23  C   UNL     1      -7.356  15.038  69.976  1.00  0.00     0.045 A  
HETATM   24  C   UNL     1      -5.682  13.714  71.718  1.00  0.00    -0.049 A  
HETATM   25  C   UNL     1      -7.060  13.398  71.697  1.00  0.00     4.563 A  
HETATM   26  C   UNL     1      -5.982  15.354  69.993  1.00  0.00    -0.146 A  
ENDBRANCH  20  21
BRANCH  20  27
HETATM   27  N   UNL     1      -9.763  13.486  69.285  1.00  0.00    -0.186 N  
HETATM   28  H   UNL     1      -9.026  13.549  68.583  1.00  0.00     0.000 HD 
HETATM   29  C   UNL     1     -11.045  13.177  68.913  1.00  0.00    -0.266 C  
HETATM   30  O   UNL     1     -11.966  13.159  69.728  1.00  0.00    -0.313 OA 
BRANCH  29  31
HETATM   31  C   UNL     1     -11.293  12.979  67.424  1.00  0.00    -0.347 C  
HETATM   32  C   UNL     1      -8.901  12.745  66.685  1.00  0.00    -0.113 C  
HETATM   33  C   UNL     1     -10.203  13.514  66.490  1.00  0.00    -0.283 C  
HETATM   34  C   UNL     1      -9.084  11.245  66.526  1.00  0.00    -0.184 C  
HETATM   35  F   UNL     1      -7.931  10.610  66.841  1.00  0.00    -0.112 F  
HETATM   36  F   UNL     1      -9.338  10.966  65.220  1.00  0.00    -0.197 F  
HETATM   37  C   UNL     1     -10.205  10.679  67.364  1.00  0.00    -0.243 C  
HETATM   38  C   UNL     1     -11.489  11.481  67.162  1.00  0.00    -0.313 C  
ENDBRANCH  29  31
ENDBRANCH  20  27
ENDBRANCH  18  19
ENDBRANCH  17  18
ENDBRANCH   8  10
TORSDOF 6
ENDMDL
MODEL      285
REMARK 921   NORMALIZED FREE ENERGY PREDICTED BY IDOCK:   47.64 KCAL/MOL
REMARK 922        TOTAL FREE ENERGY PREDICTED BY IDOCK:   62.80 KCAL/MOL
REMARK 923 INTER-LIGAND FREE ENERGY PREDICTED BY IDOCK:   54.42 KCAL/MOL
REMARK 924 INTRA-LIGAND FREE ENERGY PREDICTED BY IDOCK:    8.39 KCAL/MOL
REMARK 927      BINDING AFFINITY PREDICTED BY RF-SCORE:    0.00 PKD
ROOT
HETATM    1  C   UNL     1      -5.751  11.577  66.569  1.00  0.00    -0.113 C  
HETATM    2  C   UNL     1      -7.126  11.836  67.209  1.00  0.00    -0.140 C  
HETATM    3  C   UNL     1      -7.912  12.831  66.409  1.00  0.00     0.723 A  
HETATM    4  C   UNL     1      -6.958  12.394  68.629  1.00  0.00    -0.091 C  
HETATM    5  N   UNL     1      -7.636  14.117  66.403  1.00  0.00     1.175 NA 
HETATM    6  N   UNL     1      -8.720  14.769  65.926  1.00  0.00     0.426 NA 
HETATM    7  C   UNL     1      -9.615  13.883  65.545  1.00  0.00     0.022 A  
HETATM    8  N   UNL     1      -9.099  12.610  65.719  1.00  0.00     0.162 NA 
HETATM    9  C   UNL     1     -10.934  14.290  65.021  1.00  0.00    -0.394 C  
ENDROOT
BRANCH   8  10
HETATM   10  C   UNL     1      -9.667  11.281  65.406  1.00  0.00    -0.231 C  
HETATM   11  C   UNL     1     -10.651  10.671  66.431  1.00  0.00    -0.240 C  
HETATM   12  C   UNL     1     -11.996  10.127  65.911  1.00  0.00     4.397 C  
HETATM   13  C   UNL     1     -11.747   8.690  65.455  1.00  0.00     9.521 C  
HETATM   14  C   UNL     1     -11.207   8.881  64.046  1.00  0.00    11.267 C  
HETATM   15  C   UNL     1     -11.465  10.382  63.722  1.00  0.00     2.966 C  
HETATM   16  C   UNL     1     -10.174  11.187  63.935  1.00  0.00    -0.420 C  
HETATM   17  N   UNL     1     -12.522  10.753  64.675  1.00  0.00     2.680 NA 
BRANCH  17  18
HETATM   18  C   UNL     1     -12.967  12.186  64.805  1.00  0.00     0.411 C  
BRANCH  18  19
HETATM   19  C   UNL     1     -13.472  12.744  66.212  1.00  0.00     3.805 C  
HETATM   20  C   UNL     1     -12.664  13.873  67.054  1.00  0.00     0.350 C  
BRANCH  20  21
HETATM   21  C   UNL     1     -11.609  13.698  68.191  1.00  0.00    -0.367 A  
HETATM   22  C   UNL     1      -9.494  13.408  70.123  1.00  0.00     3.245 A  
HETATM   23  C   UNL     1     -10.409  14.479  68.155  1.00  0.00    -0.232 A  
HETATM   24  C   UNL     1     -10.652  12.621  70.174  1.00  0.00     1.671 A  
HETATM   25  C   UNL     1     -11.689  12.758  69.223  1.00  0.00    -0.376 A  
HETATM   26  C   UNL     1      -9.372  14.343  69.102  1.00  0.00     0.057 A  
ENDBRANCH  20  21
BRANCH  20  27
HETATM   27  N   UNL     1     -12.242  14.952  66.174  1.00  0.00    -0.005 N  
HETATM   28  H   UNL     1     -11.774  14.744  65.292  1.00  0.00     0.000 HD 
HETATM   29  C   UNL     1     -12.478  16.252  66.538  1.00  0.00     2.969 C  
HETATM   30  O   UNL     1     -12.981  16.535  67.625  1.00  0.00     2.946 OA 
BRANCH  29  31
HETATM   31  C   UNL     1     -11.975  17.328  65.588  1.00  0.00     3.227 C  
HETATM   32  C   UNL     1     -11.554  19.140  67.280  1.00  0.00     0.958 C  
HETATM   33  C   UNL     1     -12.284  18.773  65.993  1.00  0.00     5.491 C  
HETATM   34  C   UNL     1     -10.057  18.896  67.186  1.00  0.00    -0.358 C  
HETATM   35  F   UNL     1      -9.484  19.111  68.394  1.00  0.00    -0.335 F  
HETATM   36  F   UNL     1      -9.513  19.802  66.331  1.00  0.00    -0.358 F  
HETATM   37  C   UNL     1      -9.698  17.509  66.708  1.00  0.00    -0.296 C  
HETATM   38  C   UNL     1     -10.459  17.165  65.430  1.00  0.00    -0.096 C  
ENDBRANCH  29  31
ENDBRANCH  20  27
ENDBRANCH  18  19
ENDBRANCH  17  18
ENDBRANCH   8  10
TORSDOF 6
ENDMDL
MODEL      286
REMARK 921   NORMALIZED FREE ENERGY PREDICTED BY IDOCK:   49.16 KCAL/MOL
REMARK 922        TOTAL FREE ENERGY PREDICTED BY IDOCK:   64.86 KCAL/MOL
REMARK 923 INTER-LIGAND FREE ENERGY PREDICTED BY IDOCK:   30.65 KCAL/MOL
REMARK 924 INTRA-LIGAND FREE ENERGY PREDICTED BY IDOCK:   34.21 KCAL/MOL
REMARK 927      BINDING AFFINITY PREDICTED BY RF-SCORE:    0.00 PKD
ROOT
HETATM    1  C   UNL     1      -9.698   6.000  68.973  1.00  0.00    -0.161 C  
HETATM    2  C   UNL     1      -8.184   6.270  69.027  1.00  0.00    -0.114 C  
HETATM    3  C   UNL     1      -7.890   7.724  68.812  1.00  0.00    -0.123 A  
HETATM    4  C   UNL     1      -7.459   5.472  67.934  1.00  0.00    -0.080 C  
HETATM    5  N   UNL     1      -7.985   8.304  67.634  1.00  0.00    -0.116 NA 
HETATM    6  N   UNL     1      -7.301   9.468  67.691  1.00  0.00    -0.083 NA 
HETATM    7  C   UNL     1      -6.878   9.652  68.924  1.00  0.00    -0.054 A  
HETATM    8  N   UNL     1      -7.334   8.617  69.721  1.00  0.00    -0.051 NA 
HETATM    9  C   UNL     1      -6.053  10.820  69.294  1.00  0.00    -0.045 C  
ENDROOT
BRANCH   8  10
HETATM   10  C   UNL     1      -7.186   8.371  71.172  1.00  0.00    -0.068 C  
HETATM   11  C   UNL     1      -6.223   9.296  71.953  1.00  0.00     0.043 C  
HETATM   12  C   UNL     1      -6.736   9.947  73.252  1.00  0.00     1.953 C  
HETATM   13  C   UNL     1      -6.507   8.937  74.376  1.00  0.00    -0.075 C  
HETATM   14  C   UNL     1      -7.730   8.040  74.267  1.00  0.00    -0.262 C  
HETATM   15  C   UNL     1      -8.682   8.786  73.286  1.00  0.00     0.441 C  
HETATM   16  C   UNL     1      -8.560   8.175  71.881  1.00  0.00    -0.202 C  
HETATM   17  N   UNL     1      -8.198  10.173  73.339  1.00  0.00     5.688 NA 
BRANCH  17  18
HETATM   18  C   UNL     1      -8.756  11.215  72.405  1.00  0.00    15.423 C  
BRANCH  18  19
HETATM   19  C   UNL     1     -10.161  10.979  71.687  1.00  0.00     6.470 C  
HETATM   20  C   UNL     1     -10.396   9.827  70.567  1.00  0.00    -0.283 C  
BRANCH  20  21
HETATM   21  C   UNL     1     -10.306   9.921  69.012  1.00  0.00    -0.224 A  
HETATM   22  C   UNL     1     -10.135  10.329  66.167  1.00  0.00    -0.307 A  
HETATM   23  C   UNL     1      -9.494  10.940  68.419  1.00  0.00    -0.178 A  
HETATM   24  C   UNL     1     -10.949   9.332  66.721  1.00  0.00     0.204 A  
HETATM   25  C   UNL     1     -11.039   9.134  68.117  1.00  0.00     0.106 A  
HETATM   26  C   UNL     1      -9.403  11.141  67.026  1.00  0.00    -0.182 A  
ENDBRANCH  20  21
BRANCH  20  27
HETATM   27  N   UNL     1      -9.803   8.571  71.004  1.00  0.00    -0.183 N  
HETATM   28  H   UNL     1      -9.197   8.044  70.377  1.00  0.00     0.000 HD 
HETATM   29  C   UNL     1     -10.067   8.103  72.264  1.00  0.00    -0.269 C  
HETATM   30  O   UNL     1     -10.846   8.684  73.017  1.00  0.00     0.159 OA 
BRANCH  29  31
HETATM   31  C   UNL     1      -9.444   6.765  72.637  1.00  0.00    -0.152 C  
HETATM   32  C   UNL     1     -11.555   5.538  73.240  1.00  0.00    -0.018 C  
HETATM   33  C   UNL     1     -10.176   5.970  73.724  1.00  0.00    -0.253 C  
HETATM   34  C   UNL     1     -11.494   4.768  71.931  1.00  0.00     0.756 C  
HETATM   35  F   UNL     1     -12.750   4.529  71.485  1.00  0.00     3.315 F  
HETATM   36  F   UNL     1     -10.925   3.555  72.157  1.00  0.00     0.020 F  
HETATM   37  C   UNL     1     -10.710   5.471  70.849  1.00  0.00    -0.283 C  
HETATM   38  C   UNL     1      -9.343   5.908  71.371  1.00  0.00    -0.165 C  
ENDBRANCH  29  31
ENDBRANCH  20  27
ENDBRANCH  18  19
ENDBRANCH  17  18
ENDBRANCH   8  10
TORSDOF 6
ENDMDL
MODEL      287
REMARK 921   NORMALIZED FREE ENERGY PREDICTED BY IDOCK:   50.60 KCAL/MOL
REMARK 922        TOTAL FREE ENERGY PREDICTED BY IDOCK:   66.81 KCAL/MOL
REMARK 923 INTER-LIGAND FREE ENERGY PREDICTED BY IDOCK:   11.78 KCAL/MOL
REMARK 924 INTRA-LIGAND FREE ENERGY PREDICTED BY IDOCK:   55.03 KCAL/MOL
REMARK 927      BINDING AFFINITY PREDICTED BY RF-SCORE:    0.00 PKD
ROOT
HETATM    1  C   UNL     1      -6.664  11.215  68.557  1.00  0.00    -0.062 C  
HETATM    2  C   UNL     1      -7.550  10.738  69.720  1.00  0.00     0.020 C  
HETATM    3  C   UNL     1      -8.775  11.593  69.848  1.00  0.00     2.101 A  
HETATM    4  C   UNL     1      -6.778  10.812  71.045  1.00  0.00     1.011 C  
HETATM    5  N   UNL     1      -8.743  12.817  70.331  1.00  0.00     4.766 NA 
HETATM    6  N   UNL     1     -10.004  13.158  70.674  1.00  0.00     4.555 NA 
HETATM    7  C   UNL     1     -10.820  12.192  70.306  1.00  0.00     1.368 A  
HETATM    8  N   UNL     1     -10.097  11.208  69.656  1.00  0.00     0.138 NA 
HETATM    9  C   UNL     1     -12.269  12.252  70.589  1.00  0.00    -0.378 C  
ENDROOT
BRANCH   8  10
HETATM   10  C   UNL     1     -10.532   9.950  69.012  1.00  0.00    -0.210 C  
HETATM   11  C   UNL     1      -9.440   9.084  68.338  1.00  0.00    -0.154 C  
HETATM   12  C   UNL     1      -9.393   7.582  68.679  1.00  0.00    -0.143 C  
HETATM   13  C   UNL     1     -10.377   6.883  67.742  1.00  0.00    -0.253 C  
HETATM   14  C   UNL     1     -11.704   7.068  68.459  1.00  0.00     0.810 C  
HETATM   15  C   UNL     1     -11.321   7.601  69.871  1.00  0.00    -0.003 C  
HETATM   16  C   UNL     1     -11.499   9.127  69.915  1.00  0.00     0.033 C  
HETATM   17  N   UNL     1      -9.915   7.196  70.011  1.00  0.00    -0.178 NA 
BRANCH  17  18
HETATM   18  C   UNL     1      -9.099   7.655  71.192  1.00  0.00    -0.146 C  
BRANCH  18  19
HETATM   19  C   UNL     1      -7.659   7.024  71.465  1.00  0.00    -0.089 C  
HETATM   20  C   UNL     1      -6.908   6.048  70.407  1.00  0.00    -0.054 C  
BRANCH  20  21
HETATM   21  C   UNL     1      -6.902   4.490  70.324  1.00  0.00    -0.037 A  
HETATM   22  C   UNL     1      -6.766   1.615  70.373  1.00  0.00    -0.028 A  
HETATM   23  C   UNL     1      -7.003   3.726  71.531  1.00  0.00    -0.031 A  
HETATM   24  C   UNL     1      -6.651   2.338  69.178  1.00  0.00    -0.029 A  
HETATM   25  C   UNL     1      -6.712   3.750  69.153  1.00  0.00    -0.045 A  
HETATM   26  C   UNL     1      -6.940   2.317  71.559  1.00  0.00    -0.031 A  
ENDBRANCH  20  21
BRANCH  20  27
HETATM   27  N   UNL     1      -7.002   6.597  69.062  1.00  0.00    -0.082 N  
HETATM   28  H   UNL     1      -6.287   7.236  68.716  1.00  0.00     0.000 HD 
HETATM   29  C   UNL     1      -8.059   6.248  68.263  1.00  0.00    -0.112 C  
HETATM   30  O   UNL     1      -8.970   5.531  68.676  1.00  0.00    -0.113 OA 
BRANCH  29  31
HETATM   31  C   UNL     1      -8.112   6.889  66.884  1.00  0.00    -0.109 C  
HETATM   32  C   UNL     1      -8.843   9.192  67.582  1.00  0.00    -0.123 C  
HETATM   33  C   UNL     1      -9.162   7.990  66.701  1.00  0.00    -0.225 C  
HETATM   34  C   UNL     1      -7.437   9.720  67.354  1.00  0.00    -0.091 C  
HETATM   35  F   UNL     1      -7.165  10.695  68.253  1.00  0.00    -0.077 F  
HETATM   36  F   UNL     1      -7.374  10.297  66.125  1.00  0.00    -0.098 F  
HETATM   37  C   UNL     1      -6.368   8.657  67.440  1.00  0.00    -0.057 C  
HETATM   38  C   UNL     1      -6.726   7.460  66.562  1.00  0.00    -0.061 C  
ENDBRANCH  29  31
ENDBRANCH  20  27
ENDBRANCH  18  19
ENDBRANCH  17  18
ENDBRANCH   8  10
TORSDOF 6
ENDMDL
MODEL      288
REMARK 921   NORMALIZED FREE ENERGY PREDICTED BY IDOCK:   70.46 KCAL/MOL
REMARK 922        TOTAL FREE ENERGY PREDICTED BY IDOCK:   93.63 KCAL/MOL
REMARK 923 INTER-LIGAND FREE ENERGY PREDICTED BY IDOCK:    0.51 KCAL/MOL
REMARK 924 INTRA-LIGAND FREE ENERGY PREDICTED BY IDOCK:   93.12 KCAL/MOL
REMARK 927      BINDING AFFINITY PREDICTED BY RF-SCORE:    0.00 PKD
ROOT
HETATM    1  C   UNL     1      -8.604   9.522  70.791  1.00  0.00    -0.096 C  
HETATM    2  C   UNL     1      -8.329   9.109  69.335  1.00  0.00    -0.124 C  
HETATM    3  C   UNL     1      -7.173   8.158  69.255  1.00  0.00    -0.072 A  
HETATM    4  C   UNL     1      -7.991  10.341  68.484  1.00  0.00    -0.107 C  
HETATM    5  N   UNL     1      -5.924   8.540  69.417  1.00  0.00    -0.036 NA 
HETATM    6  N   UNL     1      -5.128   7.572  68.913  1.00  0.00    -0.018 NA 
HETATM    7  C   UNL     1      -5.878   6.557  68.540  1.00  0.00    -0.021 A  
HETATM    8  N   UNL     1      -7.199   6.829  68.850  1.00  0.00    -0.089 NA 
HETATM    9  C   UNL     1      -5.298   5.358  67.902  1.00  0.00    -0.008 C  
ENDROOT
BRANCH   8  10
HETATM   10  C   UNL     1      -8.422   6.012  68.689  1.00  0.00    -0.113 C  
HETATM   11  C   UNL     1      -8.919   5.757  67.246  1.00  0.00    -0.112 C  
HETATM   12  C   UNL     1      -9.247   4.309  66.838  1.00  0.00    -0.148 C  
HETATM   13  C   UNL     1     -10.688   4.040  67.269  1.00  0.00     1.707 C  
HETATM   14  C   UNL     1     -10.529   3.658  68.731  1.00  0.00     1.674 C  
HETATM   15  C   UNL     1      -8.996   3.465  68.926  1.00  0.00    -0.128 C  
HETATM   16  C   UNL     1      -8.392   4.724  69.566  1.00  0.00    -0.086 C  
HETATM   17  N   UNL     1      -8.511   3.242  67.557  1.00  0.00    -0.087 NA 
BRANCH  17  18
HETATM   18  C   UNL     1      -7.034   3.160  67.271  1.00  0.00    -0.053 C  
BRANCH  18  19
HETATM   19  C   UNL     1      -5.979   3.690  68.346  1.00  0.00    -0.027 C  
HETATM   20  C   UNL     1      -6.418   4.321  69.775  1.00  0.00    -0.032 C  
BRANCH  20  21
HETATM   21  C   UNL     1      -6.653   5.811  70.173  1.00  0.00    -0.047 A  
HETATM   22  C   UNL     1      -6.932   8.528  71.085  1.00  0.00    -0.070 A  
HETATM   23  C   UNL     1      -5.553   6.584  70.667  1.00  0.00    -0.023 A  
HETATM   24  C   UNL     1      -8.029   7.791  70.620  1.00  0.00    -0.098 A  
HETATM   25  C   UNL     1      -7.894   6.455  70.177  1.00  0.00    -0.107 A  
HETATM   26  C   UNL     1      -5.684   7.917  71.110  1.00  0.00    -0.034 A  
ENDBRANCH  20  21
BRANCH  20  27
HETATM   27  N   UNL     1      -7.443   3.494  70.398  1.00  0.00    -0.041 N  
HETATM   28  H   UNL     1      -8.418   3.793  70.391  1.00  0.00     0.000 HD 
HETATM   29  C   UNL     1      -7.087   2.313  70.993  1.00  0.00    -0.033 C  
HETATM   30  O   UNL     1      -5.912   1.961  71.074  1.00  0.00    -0.016 OA 
BRANCH  29  31
HETATM   31  C   UNL     1      -8.205   1.521  71.657  1.00  0.00    -0.044 C  
HETATM   32  C   UNL     1      -8.408   2.876  73.766  1.00  0.00    -0.073 C  
HETATM   33  C   UNL     1      -8.177   1.484  73.188  1.00  0.00    -0.052 C  
HETATM   34  C   UNL     1      -9.686   3.513  73.246  1.00  0.00    -0.111 C  
HETATM   35  F   UNL     1      -9.768   4.791  73.686  1.00  0.00    -0.131 F  
HETATM   36  F   UNL     1     -10.753   2.853  73.768  1.00  0.00    -0.196 F  
HETATM   37  C   UNL     1      -9.803   3.499  71.741  1.00  0.00    -0.230 C  
HETATM   38  C   UNL     1      -9.547   2.097  71.193  1.00  0.00    -0.212 C  
ENDBRANCH  29  31
ENDBRANCH  20  27
ENDBRANCH  18  19
ENDBRANCH  17  18
ENDBRANCH   8  10
TORSDOF 6
ENDMDL
MODEL      289
REMARK 921   NORMALIZED FREE ENERGY PREDICTED BY IDOCK:   79.61 KCAL/MOL
REMARK 922        TOTAL FREE ENERGY PREDICTED BY IDOCK:  105.99 KCAL/MOL
REMARK 923 INTER-LIGAND FREE ENERGY PREDICTED BY IDOCK:   83.85 KCAL/MOL
REMARK 924 INTRA-LIGAND FREE ENERGY PREDICTED BY IDOCK:   22.14 KCAL/MOL
REMARK 927      BINDING AFFINITY PREDICTED BY RF-SCORE:    0.00 PKD
ROOT
HETATM    1  C   UNL     1      -8.386   6.621  66.730  1.00  0.00    -0.115 C  
HETATM    2  C   UNL     1      -7.319   7.547  67.340  1.00  0.00    -0.099 C  
HETATM    3  C   UNL     1      -7.647   8.987  67.083  1.00  0.00    -0.091 A  
HETATM    4  C   UNL     1      -5.943   7.256  66.725  1.00  0.00    -0.035 C  
HETATM    5  N   UNL     1      -7.508   9.550  65.901  1.00  0.00    -0.099 NA 
HETATM    6  N   UNL     1      -7.504  10.889  66.081  1.00  0.00    -0.133 NA 
HETATM    7  C   UNL     1      -7.745  11.149  67.348  1.00  0.00    -0.120 A  
HETATM    8  N   UNL     1      -7.968   9.961  68.022  1.00  0.00    -0.100 NA 
HETATM    9  C   UNL     1      -7.757  12.531  67.867  1.00  0.00    -0.138 C  
ENDROOT
BRANCH   8  10
HETATM   10  C   UNL     1      -8.325   9.697  69.433  1.00  0.00    -0.145 C  
HETATM   11  C   UNL     1      -8.642  10.921  70.325  1.00  0.00     1.756 C  
HETATM   12  C   UNL     1      -9.934  10.893  71.162  1.00  0.00     4.130 C  
HETATM   13  C   UNL     1      -9.606  10.163  72.463  1.00  0.00     6.627 C  
HETATM   14  C   UNL     1      -9.755   8.703  72.069  1.00  0.00    -0.391 C  
HETATM   15  C   UNL     1     -10.430   8.738  70.667  1.00  0.00    -0.210 C  
HETATM   16  C   UNL     1      -9.367   8.547  69.574  1.00  0.00    -0.161 C  
HETATM   17  N   UNL     1     -11.045  10.072  70.625  1.00  0.00    -0.319 NA 
BRANCH  17  18
HETATM   18  C   UNL     1     -11.683  10.582  69.359  1.00  0.00    -0.223 C  
BRANCH  18  19
HETATM   19  C   UNL     1     -10.801  10.799  68.047  1.00  0.00    -0.302 C  
HETATM   20  C   UNL     1     -10.610  12.249  67.343  1.00  0.00    -0.222 C  
BRANCH  20  21
HETATM   21  C   UNL     1     -11.412  12.897  66.172  1.00  0.00    -0.393 A  
HETATM   22  C   UNL     1     -12.749  13.978  63.862  1.00  0.00     0.215 A  
HETATM   23  C   UNL     1     -11.657  12.133  64.985  1.00  0.00    -0.365 A  
HETATM   24  C   UNL     1     -12.511  14.753  65.005  1.00  0.00    -0.150 A  
HETATM   25  C   UNL     1     -11.850  14.225  66.137  1.00  0.00    -0.413 A  
HETATM   26  C   UNL     1     -12.315  12.657  63.853  1.00  0.00    -0.546 A  
ENDBRANCH  20  21
BRANCH  20  27
HETATM   27  N   UNL     1     -10.329  13.264  68.347  1.00  0.00    -0.248 N  
HETATM   28  H   UNL     1      -9.788  14.093  68.102  1.00  0.00     0.000 HD 
HETATM   29  C   UNL     1     -10.796  13.098  69.624  1.00  0.00     0.298 C  
HETATM   30  O   UNL     1     -11.394  12.078  69.963  1.00  0.00    -0.150 OA 
BRANCH  29  31
HETATM   31  C   UNL     1     -10.430  14.180  70.630  1.00  0.00     1.511 C  
HETATM   32  C   UNL     1     -10.251  12.730  72.676  1.00  0.00    16.226 C  
HETATM   33  C   UNL     1     -10.923  13.953  72.063  1.00  0.00     3.612 C  
HETATM   34  C   UNL     1      -8.735  12.810  72.614  1.00  0.00    21.741 C  
HETATM   35  F   UNL     1      -8.199  11.646  73.048  1.00  0.00    14.358 F  
HETATM   36  F   UNL     1      -8.307  13.777  73.469  1.00  0.00     5.559 F  
HETATM   37  C   UNL     1      -8.199  13.118  71.236  1.00  0.00     9.855 C  
HETATM   38  C   UNL     1      -8.906  14.334  70.642  1.00  0.00     3.132 C  
ENDBRANCH  29  31
ENDBRANCH  20  27
ENDBRANCH  18  19
ENDBRANCH  17  18
ENDBRANCH   8  10
TORSDOF 6
ENDMDL
MODEL      290
REMARK 921   NORMALIZED FREE ENERGY PREDICTED BY IDOCK:   96.44 KCAL/MOL
REMARK 922        TOTAL FREE ENERGY PREDICTED BY IDOCK:  128.72 KCAL/MOL
REMARK 923 INTER-LIGAND FREE ENERGY PREDICTED BY IDOCK:   82.19 KCAL/MOL
REMARK 924 INTRA-LIGAND FREE ENERGY PREDICTED BY IDOCK:   46.53 KCAL/MOL
REMARK 927      BINDING AFFINITY PREDICTED BY RF-SCORE:    0.00 PKD
ROOT
HETATM    1  C   UNL     1     -12.983  14.969  64.878  1.00  0.00     0.616 C  
HETATM    2  C   UNL     1     -12.676  15.701  66.196  1.00  0.00     2.097 C  
HETATM    3  C   UNL     1     -12.186  14.744  67.240  1.00  0.00     0.050 A  
HETATM    4  C   UNL     1     -13.941  16.385  66.734  1.00  0.00     9.319 C  
HETATM    5  N   UNL     1     -12.980  13.895  67.858  1.00  0.00     1.372 NA 
HETATM    6  N   UNL     1     -12.343  13.472  68.973  1.00  0.00    -0.157 NA 
HETATM    7  C   UNL     1     -11.127  13.975  68.984  1.00  0.00    -0.264 A  
HETATM    8  N   UNL     1     -10.926  14.707  67.827  1.00  0.00    -0.278 NA 
HETATM    9  C   UNL     1     -10.198  13.730  70.105  1.00  0.00     1.557 C  
ENDROOT
BRANCH   8  10
HETATM   10  C   UNL     1      -9.734  15.427  67.328  1.00  0.00    -0.212 C  
HETATM   11  C   UNL     1      -9.154  16.545  68.226  1.00  0.00    -0.214 C  
HETATM   12  C   UNL     1      -7.641  16.532  68.516  1.00  0.00    -0.200 C  
HETATM   13  C   UNL     1      -6.960  17.256  67.356  1.00  0.00    -0.185 C  
HETATM   14  C   UNL     1      -6.834  16.160  66.311  1.00  0.00     0.927 C  
HETATM   15  C   UNL     1      -7.190  14.847  67.069  1.00  0.00     0.231 C  
HETATM   16  C   UNL     1      -8.647  14.457  66.775  1.00  0.00    -0.139 C  
HETATM   17  N   UNL     1      -6.979  15.207  68.479  1.00  0.00    -0.102 NA 
BRANCH  17  18
HETATM   18  C   UNL     1      -7.362  14.252  69.579  1.00  0.00     0.040 C  
BRANCH  18  19
HETATM   19  C   UNL     1      -7.371  14.741  71.098  1.00  0.00     1.763 C  
HETATM   20  C   UNL     1      -8.732  15.138  71.888  1.00  0.00     5.613 C  
BRANCH  20  21
HETATM   21  C   UNL     1      -9.403  16.535  72.072  1.00  0.00     8.833 A  
HETATM   22  C   UNL     1     -10.837  19.020  72.316  1.00  0.00     3.929 A  
HETATM   23  C   UNL     1     -10.789  16.603  72.426  1.00  0.00     2.254 A  
HETATM   24  C   UNL     1      -9.483  18.983  71.955  1.00  0.00     5.748 A  
HETATM   25  C   UNL     1      -8.780  17.763  71.830  1.00  0.00    12.671 A  
HETATM   26  C   UNL     1     -11.495  17.819  72.550  1.00  0.00     2.165 A  
ENDBRANCH  20  21
BRANCH  20  27
HETATM   27  N   UNL     1      -9.766  14.142  71.643  1.00  0.00     4.866 N  
HETATM   28  H   UNL     1     -10.601  14.114  72.227  1.00  0.00     0.000 HD 
HETATM   29  C   UNL     1      -9.608  13.243  70.622  1.00  0.00     5.924 C  
HETATM   30  O   UNL     1      -8.582  13.212  69.944  1.00  0.00     1.978 OA 
BRANCH  29  31
HETATM   31  C   UNL     1     -10.709  12.207  70.450  1.00  0.00     1.968 C  
HETATM   32  C   UNL     1     -11.544  12.166  72.822  1.00  0.00     7.433 C  
HETATM   33  C   UNL     1     -10.995  11.328  71.672  1.00  0.00     4.174 C  
HETATM   34  C   UNL     1     -12.766  12.974  72.417  1.00  0.00     0.136 C  
HETATM   35  F   UNL     1     -13.126  13.794  73.433  1.00  0.00    -0.418 F  
HETATM   36  F   UNL     1     -13.809  12.127  72.214  1.00  0.00    -0.472 F  
HETATM   37  C   UNL     1     -12.564  13.795  71.166  1.00  0.00    -0.452 C  
HETATM   38  C   UNL     1     -11.996  12.932  70.041  1.00  0.00    -0.380 C  
ENDBRANCH  29  31
ENDBRANCH  20  27
ENDBRANCH  18  19
ENDBRANCH  17  18
ENDBRANCH   8  10
TORSDOF 6
ENDMDL
