MODEL        1
REMARK 921   NORMALIZED FREE ENERGY PREDICTED BY IDOCK:   -7.79 KCAL/MOL
REMARK 922        TOTAL FREE ENERGY PREDICTED BY IDOCK:   -8.89 KCAL/MOL
REMARK 923 INTER-LIGAND FREE ENERGY PREDICTED BY IDOCK:   -8.70 KCAL/MOL
REMARK 924 INTRA-LIGAND FREE ENERGY PREDICTED BY IDOCK:   -0.19 KCAL/MOL
REMARK 927      BINDING AFFINITY PREDICTED BY RF-SCORE:    0.00 PKD
ROOT
HETATM    1  C   UNL     1      -9.321  11.285  68.094  1.00  0.00    -0.181 C  
HETATM    2  C   UNL     1     -10.179  10.101  67.615  1.00  0.00    -0.246 C  
HETATM    3  C   UNL     1     -10.225  10.107  66.061  1.00  0.00    -0.288 C  
HETATM    4  C   UNL     1      -9.647   8.734  68.162  1.00  0.00    -0.162 C  
HETATM    5  C   UNL     1     -10.488   7.548  67.654  1.00  0.00    -0.319 C  
HETATM    6  C   UNL     1      -9.492   8.655  69.710  1.00  0.00    -0.166 C  
ENDROOT
BRANCH   3   7
HETATM    7  C   UNL     1     -10.904  11.306  65.436  1.00  0.00    -0.255 A  
HETATM    8  C   UNL     1     -11.592  12.233  66.238  1.00  0.00    -0.446 A  
HETATM    9  C   UNL     1     -10.804  11.539  64.053  1.00  0.00    -0.453 A  
HETATM   10  C   UNL     1     -12.171  13.352  65.653  1.00  0.00    -0.463 A  
HETATM   11  H   UNL     1     -12.588  14.804  62.778  1.00  0.00     0.000 HD 
HETATM   12  O   UNL     1     -12.841  14.291  66.388  1.00  0.00    -0.479 OA 
HETATM   13  C   UNL     1     -11.395  12.661  63.474  1.00  0.00    -0.527 A  
HETATM   14  C   UNL     1     -12.078  13.559  64.280  1.00  0.00    -0.431 A  
HETATM   15  O   UNL     1     -12.652  14.662  63.715  1.00  0.00    -0.820 OA 
HETATM   16  H   UNL     1     -13.238  15.057  65.988  1.00  0.00     0.000 HD 
ENDBRANCH   3   7
BRANCH   6  17
HETATM   17  C   UNL     1     -10.781   8.726  70.498  1.00  0.00    -0.259 A  
HETATM   18  C   UNL     1     -13.032   8.880  72.142  1.00  0.00    -0.416 A  
HETATM   19  C   UNL     1     -12.549   7.641  71.737  1.00  0.00    -0.331 A  
HETATM   20  C   UNL     1     -11.438   7.556  70.905  1.00  0.00    -0.303 A  
HETATM   21  H   UNL     1     -13.945   6.583  72.771  1.00  0.00     0.000 HD 
HETATM   22  C   UNL     1     -12.438  10.051  71.701  1.00  0.00    -0.513 A  
HETATM   23  O   UNL     1     -14.095   8.951  72.996  1.00  0.00    -1.075 OA 
HETATM   24  O   UNL     1     -13.186   6.524  72.203  1.00  0.00    -0.125 OA 
HETATM   25  C   UNL     1     -11.316   9.973  70.874  1.00  0.00    -0.439 A  
HETATM   26  H   UNL     1     -14.425   9.798  73.273  1.00  0.00     0.000 HD 
ENDBRANCH   6  17
TORSDOF 2
ENDMDL
MODEL        2
REMARK 921   NORMALIZED FREE ENERGY PREDICTED BY IDOCK:   -7.78 KCAL/MOL
REMARK 922        TOTAL FREE ENERGY PREDICTED BY IDOCK:   -8.88 KCAL/MOL
REMARK 923 INTER-LIGAND FREE ENERGY PREDICTED BY IDOCK:   -8.38 KCAL/MOL
REMARK 924 INTRA-LIGAND FREE ENERGY PREDICTED BY IDOCK:   -0.50 KCAL/MOL
REMARK 927      BINDING AFFINITY PREDICTED BY RF-SCORE:    0.00 PKD
ROOT
HETATM    1  C   UNL     1     -10.651   9.159  67.579  1.00  0.00    -0.317 C  
HETATM    2  C   UNL     1     -10.206  10.502  68.184  1.00  0.00    -0.187 C  
HETATM    3  C   UNL     1      -9.938  10.307  69.703  1.00  0.00    -0.240 C  
HETATM    4  C   UNL     1      -8.947  11.083  67.455  1.00  0.00    -0.137 C  
HETATM    5  C   UNL     1      -8.484  12.410  68.084  1.00  0.00    -0.180 C  
HETATM    6  C   UNL     1      -9.089  11.243  65.913  1.00  0.00    -0.217 C  
ENDROOT
BRANCH   3   7
HETATM    7  C   UNL     1     -11.147   9.934  70.533  1.00  0.00    -0.398 A  
HETATM    8  C   UNL     1     -11.289   8.630  71.037  1.00  0.00    -0.322 A  
HETATM    9  C   UNL     1     -12.111  10.904  70.859  1.00  0.00    -0.455 A  
HETATM   10  C   UNL     1     -12.383   8.317  71.834  1.00  0.00    -0.338 A  
HETATM   11  H   UNL     1     -15.062   9.625  73.124  1.00  0.00     0.000 HD 
HETATM   12  O   UNL     1     -12.565   7.067  72.361  1.00  0.00    -0.509 OA 
HETATM   13  C   UNL     1     -13.209  10.579  71.654  1.00  0.00    -0.493 A  
HETATM   14  C   UNL     1     -13.339   9.285  72.134  1.00  0.00    -0.468 A  
HETATM   15  O   UNL     1     -14.410   8.965  72.919  1.00  0.00    -0.548 OA 
HETATM   16  H   UNL     1     -13.313   6.853  72.906  1.00  0.00     0.000 HD 
ENDBRANCH   3   7
BRANCH   6  17
HETATM   17  C   UNL     1     -10.106  12.266  65.456  1.00  0.00    -0.279 A  
HETATM   18  C   UNL     1     -11.911  14.115  64.397  1.00  0.00    -0.428 A  
HETATM   19  C   UNL     1     -10.697  14.547  64.921  1.00  0.00    -0.429 A  
HETATM   20  C   UNL     1      -9.799  13.635  65.464  1.00  0.00    -0.175 A  
HETATM   21  H   UNL     1     -11.027  16.506  64.485  1.00  0.00     0.000 HD 
HETATM   22  C   UNL     1     -12.262  12.776  64.437  1.00  0.00    -0.499 A  
HETATM   23  O   UNL     1     -12.764  15.014  63.824  1.00  0.00    -0.889 OA 
HETATM   24  O   UNL     1     -10.414  15.883  64.857  1.00  0.00    -0.542 OA 
HETATM   25  C   UNL     1     -11.361  11.853  64.971  1.00  0.00    -0.333 A  
HETATM   26  H   UNL     1     -13.593  14.719  63.467  1.00  0.00     0.000 HD 
ENDBRANCH   6  17
TORSDOF 2
ENDMDL
MODEL        3
REMARK 921   NORMALIZED FREE ENERGY PREDICTED BY IDOCK:   -7.72 KCAL/MOL
REMARK 922        TOTAL FREE ENERGY PREDICTED BY IDOCK:   -8.81 KCAL/MOL
REMARK 923 INTER-LIGAND FREE ENERGY PREDICTED BY IDOCK:   -8.57 KCAL/MOL
REMARK 924 INTRA-LIGAND FREE ENERGY PREDICTED BY IDOCK:   -0.25 KCAL/MOL
REMARK 927      BINDING AFFINITY PREDICTED BY RF-SCORE:    0.00 PKD
ROOT
HETATM    1  C   UNL     1      -9.082  11.154  68.039  1.00  0.00    -0.153 C  
HETATM    2  C   UNL     1     -10.055  10.023  67.660  1.00  0.00    -0.232 C  
HETATM    3  C   UNL     1     -10.234  10.008  66.116  1.00  0.00    -0.283 C  
HETATM    4  C   UNL     1      -9.568   8.631  68.189  1.00  0.00    -0.162 C  
HETATM    5  C   UNL     1     -10.525   7.497  67.779  1.00  0.00    -0.288 C  
HETATM    6  C   UNL     1      -9.284   8.565  69.718  1.00  0.00    -0.157 C  
ENDROOT
BRANCH   3   7
HETATM    7  C   UNL     1     -10.885  11.241  65.526  1.00  0.00    -0.244 A  
HETATM    8  C   UNL     1     -11.563  12.152  66.354  1.00  0.00    -0.429 A  
HETATM    9  C   UNL     1     -10.768  11.518  64.153  1.00  0.00    -0.428 A  
HETATM   10  C   UNL     1     -12.116  13.301  65.802  1.00  0.00    -0.441 A  
HETATM   11  H   UNL     1     -12.479  14.858  62.975  1.00  0.00     0.000 HD 
HETATM   12  O   UNL     1     -12.776  14.227  66.563  1.00  0.00    -0.521 OA 
HETATM   13  C   UNL     1     -11.332  12.670  63.608  1.00  0.00    -0.544 A  
HETATM   14  C   UNL     1     -12.006  13.553  64.438  1.00  0.00    -0.422 A  
HETATM   15  O   UNL     1     -12.555  14.686  63.906  1.00  0.00    -0.834 OA 
HETATM   16  H   UNL     1     -13.154  15.013  66.186  1.00  0.00     0.000 HD 
ENDBRANCH   3   7
BRANCH   6  17
HETATM   17  C   UNL     1     -10.493   8.735  70.612  1.00  0.00    -0.253 A  
HETATM   18  C   UNL     1     -12.853   8.978  72.084  1.00  0.00    -0.410 A  
HETATM   19  C   UNL     1     -12.294  10.096  71.475  1.00  0.00    -0.408 A  
HETATM   20  C   UNL     1     -11.110   9.987  70.753  1.00  0.00    -0.407 A  
HETATM   21  H   UNL     1     -13.767  11.359  72.083  1.00  0.00     0.000 HD 
HETATM   22  C   UNL     1     -12.227   7.744  72.011  1.00  0.00    -0.342 A  
HETATM   23  O   UNL     1     -14.040   9.087  72.750  1.00  0.00    -0.893 OA 
HETATM   24  O   UNL     1     -12.959  11.285  71.590  1.00  0.00    -0.448 OA 
HETATM   25  C   UNL     1     -11.044   7.625  71.280  1.00  0.00    -0.268 A  
HETATM   26  H   UNL     1     -14.422   8.323  73.166  1.00  0.00     0.000 HD 
ENDBRANCH   6  17
TORSDOF 2
ENDMDL
MODEL        4
REMARK 921   NORMALIZED FREE ENERGY PREDICTED BY IDOCK:   -7.40 KCAL/MOL
REMARK 922        TOTAL FREE ENERGY PREDICTED BY IDOCK:   -8.45 KCAL/MOL
REMARK 923 INTER-LIGAND FREE ENERGY PREDICTED BY IDOCK:   -8.15 KCAL/MOL
REMARK 924 INTRA-LIGAND FREE ENERGY PREDICTED BY IDOCK:   -0.30 KCAL/MOL
REMARK 927      BINDING AFFINITY PREDICTED BY RF-SCORE:    0.00 PKD
ROOT
HETATM    1  C   UNL     1     -10.446   8.836  67.461  1.00  0.00    -0.340 C  
HETATM    2  C   UNL     1      -9.956  10.197  67.985  1.00  0.00    -0.173 C  
HETATM    3  C   UNL     1      -9.677  10.079  69.511  1.00  0.00    -0.253 C  
HETATM    4  C   UNL     1      -8.688  10.699  67.213  1.00  0.00    -0.129 C  
HETATM    5  C   UNL     1      -8.180  12.044  67.762  1.00  0.00    -0.151 C  
HETATM    6  C   UNL     1      -8.843  10.776  65.666  1.00  0.00    -0.202 C  
ENDROOT
BRANCH   3   7
HETATM    7  C   UNL     1     -10.887   9.789  70.371  1.00  0.00    -0.370 A  
HETATM    8  C   UNL     1     -10.915   8.656  71.201  1.00  0.00    -0.320 A  
HETATM    9  C   UNL     1     -11.973  10.682  70.395  1.00  0.00    -0.436 A  
HETATM   10  C   UNL     1     -12.016   8.429  72.018  1.00  0.00    -0.357 A  
HETATM   11  H   UNL     1     -14.901   9.685  72.824  1.00  0.00     0.000 HD 
HETATM   12  O   UNL     1     -12.090   7.348  72.855  1.00  0.00    -0.542 OA 
HETATM   13  C   UNL     1     -13.076  10.443  71.212  1.00  0.00    -0.494 A  
HETATM   14  C   UNL     1     -13.090   9.314  72.017  1.00  0.00    -0.436 A  
HETATM   15  O   UNL     1     -14.168   9.080  72.824  1.00  0.00    -0.572 OA 
HETATM   16  H   UNL     1     -12.842   7.193  73.413  1.00  0.00     0.000 HD 
ENDBRANCH   3   7
BRANCH   6  17
HETATM   17  C   UNL     1      -9.835  11.802  65.162  1.00  0.00    -0.263 A  
HETATM   18  C   UNL     1     -11.782  13.663  64.427  1.00  0.00    -0.411 A  
HETATM   19  C   UNL     1     -11.854  12.357  63.956  1.00  0.00    -0.439 A  
HETATM   20  C   UNL     1     -10.880  11.428  64.304  1.00  0.00    -0.416 A  
HETATM   21  H   UNL     1     -13.586  12.655  62.932  1.00  0.00     0.000 HD 
HETATM   22  C   UNL     1     -10.725  14.071  65.223  1.00  0.00    -0.367 A  
HETATM   23  O   UNL     1     -12.769  14.554  64.118  1.00  0.00    -0.711 OA 
HETATM   24  O   UNL     1     -12.920  12.020  63.169  1.00  0.00    -0.662 OA 
HETATM   25  C   UNL     1      -9.749  13.141  65.586  1.00  0.00    -0.107 A  
HETATM   26  H   UNL     1     -12.720  15.447  64.439  1.00  0.00     0.000 HD 
ENDBRANCH   6  17
TORSDOF 2
ENDMDL
MODEL        5
REMARK 921   NORMALIZED FREE ENERGY PREDICTED BY IDOCK:   -7.18 KCAL/MOL
REMARK 922        TOTAL FREE ENERGY PREDICTED BY IDOCK:   -8.22 KCAL/MOL
REMARK 923 INTER-LIGAND FREE ENERGY PREDICTED BY IDOCK:   -7.76 KCAL/MOL
REMARK 924 INTRA-LIGAND FREE ENERGY PREDICTED BY IDOCK:   -0.46 KCAL/MOL
REMARK 927      BINDING AFFINITY PREDICTED BY RF-SCORE:    0.00 PKD
ROOT
HETATM    1  C   UNL     1     -10.720  16.522  69.124  1.00  0.00    -0.335 C  
HETATM    2  C   UNL     1      -9.667  15.663  68.404  1.00  0.00    -0.202 C  
HETATM    3  C   UNL     1      -8.249  16.137  68.832  1.00  0.00    -0.229 C  
HETATM    4  C   UNL     1      -9.865  14.135  68.688  1.00  0.00    -0.206 C  
HETATM    5  C   UNL     1      -8.790  13.280  67.992  1.00  0.00    -0.190 C  
HETATM    6  C   UNL     1     -11.283  13.579  68.364  1.00  0.00    -0.309 C  
ENDROOT
BRANCH   3   7
HETATM    7  C   UNL     1      -7.886  17.548  68.424  1.00  0.00    -0.263 A  
HETATM    8  C   UNL     1      -7.177  18.382  69.305  1.00  0.00    -0.108 A  
HETATM    9  C   UNL     1      -8.201  18.020  67.138  1.00  0.00    -0.231 A  
HETATM   10  C   UNL     1      -6.812  19.660  68.897  1.00  0.00    -0.342 A  
HETATM   11  H   UNL     1      -7.013  21.689  66.369  1.00  0.00     0.000 HD 
HETATM   12  O   UNL     1      -6.111  20.509  69.709  1.00  0.00    -0.343 OA 
HETATM   13  C   UNL     1      -7.838  19.305  66.741  1.00  0.00    -0.276 A  
HETATM   14  C   UNL     1      -7.147  20.118  67.626  1.00  0.00    -0.282 A  
HETATM   15  O   UNL     1      -6.784  21.376  67.236  1.00  0.00    -0.551 OA 
HETATM   16  H   UNL     1      -5.862  21.383  69.431  1.00  0.00     0.000 HD 
ENDBRANCH   3   7
BRANCH   6  17
HETATM   17  C   UNL     1     -11.666  13.587  66.899  1.00  0.00    -0.424 A  
HETATM   18  C   UNL     1     -12.155  13.540  64.151  1.00  0.00    -0.435 A  
HETATM   19  C   UNL     1     -11.870  14.744  64.788  1.00  0.00    -0.423 A  
HETATM   20  C   UNL     1     -11.641  14.778  66.159  1.00  0.00    -0.292 A  
HETATM   21  H   UNL     1     -11.957  15.847  63.082  1.00  0.00     0.000 HD 
HETATM   22  C   UNL     1     -12.248  12.362  64.873  1.00  0.00    -0.485 A  
HETATM   23  O   UNL     1     -12.332  13.511  62.798  1.00  0.00    -0.855 OA 
HETATM   24  O   UNL     1     -11.800  15.871  64.018  1.00  0.00    -0.608 OA 
HETATM   25  C   UNL     1     -12.008  12.388  66.248  1.00  0.00    -0.369 A  
HETATM   26  H   UNL     1     -12.527  12.689  62.363  1.00  0.00     0.000 HD 
ENDBRANCH   6  17
TORSDOF 2
ENDMDL
MODEL        6
REMARK 921   NORMALIZED FREE ENERGY PREDICTED BY IDOCK:   -7.17 KCAL/MOL
REMARK 922        TOTAL FREE ENERGY PREDICTED BY IDOCK:   -8.20 KCAL/MOL
REMARK 923 INTER-LIGAND FREE ENERGY PREDICTED BY IDOCK:   -7.69 KCAL/MOL
REMARK 924 INTRA-LIGAND FREE ENERGY PREDICTED BY IDOCK:   -0.51 KCAL/MOL
REMARK 927      BINDING AFFINITY PREDICTED BY RF-SCORE:    0.00 PKD
ROOT
HETATM    1  C   UNL     1     -10.731  16.256  68.880  1.00  0.00    -0.300 C  
HETATM    2  C   UNL     1      -9.665  15.451  68.114  1.00  0.00    -0.212 C  
HETATM    3  C   UNL     1      -8.255  15.957  68.531  1.00  0.00    -0.169 C  
HETATM    4  C   UNL     1      -9.810  13.910  68.356  1.00  0.00    -0.229 C  
HETATM    5  C   UNL     1      -8.723  13.110  67.616  1.00  0.00    -0.192 C  
HETATM    6  C   UNL     1     -11.217  13.320  68.041  1.00  0.00    -0.307 C  
ENDROOT
BRANCH   3   7
HETATM    7  C   UNL     1      -7.944  17.391  68.159  1.00  0.00    -0.233 A  
HETATM    8  C   UNL     1      -8.445  17.941  66.968  1.00  0.00    -0.248 A  
HETATM    9  C   UNL     1      -7.199  18.205  69.030  1.00  0.00    -0.226 A  
HETATM   10  C   UNL     1      -8.187  19.272  66.664  1.00  0.00    -0.293 A  
HETATM   11  H   UNL     1      -6.672  21.906  67.810  1.00  0.00     0.000 HD 
HETATM   12  O   UNL     1      -8.661  19.863  65.524  1.00  0.00    -0.378 OA 
HETATM   13  C   UNL     1      -6.939  19.537  68.714  1.00  0.00    -0.371 A  
HETATM   14  C   UNL     1      -7.434  20.061  67.529  1.00  0.00    -0.287 A  
HETATM   15  O   UNL     1      -7.186  21.368  67.220  1.00  0.00    -0.538 OA 
HETATM   16  H   UNL     1      -8.485  20.773  65.316  1.00  0.00     0.000 HD 
ENDBRANCH   3   7
BRANCH   6  17
HETATM   17  C   UNL     1     -11.628  13.359  66.585  1.00  0.00    -0.399 A  
HETATM   18  C   UNL     1     -12.162  13.448  63.846  1.00  0.00    -0.415 A  
HETATM   19  C   UNL     1     -12.257  14.604  64.613  1.00  0.00    -0.434 A  
HETATM   20  C   UNL     1     -12.008  14.566  65.980  1.00  0.00    -0.319 A  
HETATM   21  H   UNL     1     -12.746  15.795  63.038  1.00  0.00     0.000 HD 
HETATM   22  C   UNL     1     -11.850  12.233  64.434  1.00  0.00    -0.464 A  
HETATM   23  O   UNL     1     -12.363  13.506  62.497  1.00  0.00    -0.609 OA 
HETATM   24  O   UNL     1     -12.576  15.770  63.972  1.00  0.00    -0.654 OA 
HETATM   25  C   UNL     1     -11.588  12.189  65.804  1.00  0.00    -0.414 A  
HETATM   26  H   UNL     1     -12.298  12.716  61.974  1.00  0.00     0.000 HD 
ENDBRANCH   6  17
TORSDOF 2
ENDMDL
MODEL        7
REMARK 921   NORMALIZED FREE ENERGY PREDICTED BY IDOCK:   -7.12 KCAL/MOL
REMARK 922        TOTAL FREE ENERGY PREDICTED BY IDOCK:   -8.15 KCAL/MOL
REMARK 923 INTER-LIGAND FREE ENERGY PREDICTED BY IDOCK:   -7.70 KCAL/MOL
REMARK 924 INTRA-LIGAND FREE ENERGY PREDICTED BY IDOCK:   -0.45 KCAL/MOL
REMARK 927      BINDING AFFINITY PREDICTED BY RF-SCORE:    0.00 PKD
ROOT
HETATM    1  C   UNL     1     -12.014  14.216  66.894  1.00  0.00    -0.479 C  
HETATM    2  C   UNL     1     -10.680  14.339  67.650  1.00  0.00    -0.259 C  
HETATM    3  C   UNL     1     -10.585  13.193  68.697  1.00  0.00    -0.259 C  
HETATM    4  C   UNL     1      -9.452  14.322  66.677  1.00  0.00    -0.302 C  
HETATM    5  C   UNL     1      -8.117  14.412  67.439  1.00  0.00    -0.217 C  
HETATM    6  C   UNL     1      -9.493  15.387  65.541  1.00  0.00    -0.160 C  
ENDROOT
BRANCH   3   7
HETATM    7  C   UNL     1     -11.618  13.236  69.802  1.00  0.00    -0.297 A  
HETATM    8  C   UNL     1     -12.050  12.050  70.418  1.00  0.00    -0.407 A  
HETATM    9  C   UNL     1     -12.111  14.468  70.265  1.00  0.00    -0.386 A  
HETATM   10  C   UNL     1     -12.965  12.112  71.462  1.00  0.00    -0.295 A  
HETATM   11  H   UNL     1     -14.694  14.225  73.222  1.00  0.00     0.000 HD 
HETATM   12  O   UNL     1     -13.411  10.989  72.105  1.00  0.00    -0.594 OA 
HETATM   13  C   UNL     1     -13.035  14.520  71.308  1.00  0.00    -0.403 A  
HETATM   14  C   UNL     1     -13.458  13.339  71.898  1.00  0.00    -0.438 A  
HETATM   15  O   UNL     1     -14.358  13.387  72.924  1.00  0.00    -0.460 OA 
HETATM   16  H   UNL     1     -14.037  11.031  72.819  1.00  0.00     0.000 HD 
ENDBRANCH   3   7
BRANCH   6  17
HETATM   17  C   UNL     1      -9.400  16.828  65.996  1.00  0.00    -0.245 A  
HETATM   18  C   UNL     1      -9.233  19.545  66.613  1.00  0.00    -0.354 A  
HETATM   19  C   UNL     1      -8.080  18.768  66.571  1.00  0.00    -0.289 A  
HETATM   20  C   UNL     1      -8.156  17.411  66.280  1.00  0.00    -0.298 A  
HETATM   21  H   UNL     1      -6.832  20.317  66.996  1.00  0.00     0.000 HD 
HETATM   22  C   UNL     1     -10.478  18.977  66.400  1.00  0.00    -0.524 A  
HETATM   23  O   UNL     1      -9.142  20.886  66.854  1.00  0.00    -0.615 OA 
HETATM   24  O   UNL     1      -6.883  19.390  66.797  1.00  0.00    -0.196 OA 
HETATM   25  C   UNL     1     -10.561  17.617  66.097  1.00  0.00    -0.220 A  
HETATM   26  H   UNL     1      -9.929  21.417  66.883  1.00  0.00     0.000 HD 
ENDBRANCH   6  17
TORSDOF 2
ENDMDL
MODEL        8
REMARK 921   NORMALIZED FREE ENERGY PREDICTED BY IDOCK:   -7.11 KCAL/MOL
REMARK 922        TOTAL FREE ENERGY PREDICTED BY IDOCK:   -8.13 KCAL/MOL
REMARK 923 INTER-LIGAND FREE ENERGY PREDICTED BY IDOCK:   -7.48 KCAL/MOL
REMARK 924 INTRA-LIGAND FREE ENERGY PREDICTED BY IDOCK:   -0.65 KCAL/MOL
REMARK 927      BINDING AFFINITY PREDICTED BY RF-SCORE:    0.00 PKD
ROOT
HETATM    1  C   UNL     1     -11.958  14.589  68.371  1.00  0.00    -0.309 C  
HETATM    2  C   UNL     1     -10.480  14.275  68.078  1.00  0.00    -0.235 C  
HETATM    3  C   UNL     1      -9.594  15.387  68.706  1.00  0.00    -0.209 C  
HETATM    4  C   UNL     1     -10.069  12.857  68.602  1.00  0.00    -0.136 C  
HETATM    5  C   UNL     1      -8.581  12.559  68.337  1.00  0.00    -0.123 C  
HETATM    6  C   UNL     1     -10.950  11.680  68.089  1.00  0.00    -0.275 C  
ENDROOT
BRANCH   3   7
HETATM    7  C   UNL     1      -9.779  16.771  68.122  1.00  0.00    -0.247 A  
HETATM    8  C   UNL     1     -10.141  17.849  68.948  1.00  0.00    -0.349 A  
HETATM    9  C   UNL     1      -9.533  17.006  66.758  1.00  0.00    -0.270 A  
HETATM   10  C   UNL     1     -10.262  19.121  68.404  1.00  0.00    -0.389 A  
HETATM   11  H   UNL     1      -9.998  20.735  65.597  1.00  0.00     0.000 HD 
HETATM   12  O   UNL     1     -10.599  20.208  69.164  1.00  0.00    -0.533 OA 
HETATM   13  C   UNL     1      -9.665  18.284  66.219  1.00  0.00    -0.293 A  
HETATM   14  C   UNL     1     -10.032  19.334  67.047  1.00  0.00    -0.357 A  
HETATM   15  O   UNL     1     -10.156  20.590  66.522  1.00  0.00    -0.375 OA 
HETATM   16  H   UNL     1     -10.683  21.078  68.792  1.00  0.00     0.000 HD 
ENDBRANCH   3   7
BRANCH   6  17
HETATM   17  C   UNL     1     -10.866  11.404  66.604  1.00  0.00    -0.339 A  
HETATM   18  C   UNL     1     -10.519  11.022  63.860  1.00  0.00    -0.354 A  
HETATM   19  C   UNL     1     -11.387  12.005  64.322  1.00  0.00    -0.364 A  
HETATM   20  C   UNL     1     -11.577  12.192  65.687  1.00  0.00    -0.409 A  
HETATM   21  H   UNL     1     -11.885  12.661  62.463  1.00  0.00     0.000 HD 
HETATM   22  C   UNL     1      -9.856  10.189  64.746  1.00  0.00    -0.382 A  
HETATM   23  O   UNL     1     -10.304  10.878  62.519  1.00  0.00    -0.730 OA 
HETATM   24  O   UNL     1     -12.016  12.788  63.395  1.00  0.00    -0.517 OA 
HETATM   25  C   UNL     1     -10.034  10.378  66.118  1.00  0.00    -0.290 A  
HETATM   26  H   UNL     1      -9.712  10.206  62.203  1.00  0.00     0.000 HD 
ENDBRANCH   6  17
TORSDOF 2
ENDMDL
MODEL        9
REMARK 921   NORMALIZED FREE ENERGY PREDICTED BY IDOCK:   -7.10 KCAL/MOL
REMARK 922        TOTAL FREE ENERGY PREDICTED BY IDOCK:   -8.12 KCAL/MOL
REMARK 923 INTER-LIGAND FREE ENERGY PREDICTED BY IDOCK:   -7.66 KCAL/MOL
REMARK 924 INTRA-LIGAND FREE ENERGY PREDICTED BY IDOCK:   -0.46 KCAL/MOL
REMARK 927      BINDING AFFINITY PREDICTED BY RF-SCORE:    0.00 PKD
ROOT
HETATM    1  C   UNL     1      -9.345  11.810  68.263  1.00  0.00    -0.193 C  
HETATM    2  C   UNL     1     -10.165  10.674  67.628  1.00  0.00    -0.229 C  
HETATM    3  C   UNL     1     -10.169  10.857  66.084  1.00  0.00    -0.304 C  
HETATM    4  C   UNL     1      -9.619   9.262  68.031  1.00  0.00    -0.161 C  
HETATM    5  C   UNL     1     -10.421   8.128  67.367  1.00  0.00    -0.356 C  
HETATM    6  C   UNL     1      -9.503   9.009  69.563  1.00  0.00    -0.164 C  
ENDROOT
BRANCH   3   7
HETATM    7  C   UNL     1     -10.857  12.108  65.580  1.00  0.00    -0.323 A  
HETATM    8  C   UNL     1     -10.115  13.272  65.320  1.00  0.00    -0.254 A  
HETATM    9  C   UNL     1     -12.237  12.100  65.311  1.00  0.00    -0.177 A  
HETATM   10  C   UNL     1     -10.756  14.397  64.816  1.00  0.00    -0.403 A  
HETATM   11  H   UNL     1     -13.680  15.479  63.907  1.00  0.00     0.000 HD 
HETATM   12  O   UNL     1     -10.080  15.553  64.533  1.00  0.00    -0.349 OA 
HETATM   13  C   UNL     1     -12.872  13.236  64.812  1.00  0.00    -0.259 A  
HETATM   14  C   UNL     1     -12.126  14.379  64.570  1.00  0.00    -0.481 A  
HETATM   15  O   UNL     1     -12.745  15.492  64.075  1.00  0.00    -0.611 OA 
HETATM   16  H   UNL     1     -10.517  16.322  64.189  1.00  0.00     0.000 HD 
ENDBRANCH   3   7
BRANCH   6  17
HETATM   17  C   UNL     1     -10.814   8.967  70.317  1.00  0.00    -0.265 A  
HETATM   18  C   UNL     1     -13.112   8.909  71.902  1.00  0.00    -0.386 A  
HETATM   19  C   UNL     1     -12.543   7.721  71.455  1.00  0.00    -0.333 A  
HETATM   20  C   UNL     1     -11.408   7.741  70.652  1.00  0.00    -0.275 A  
HETATM   21  H   UNL     1     -13.897   6.534  72.402  1.00  0.00     0.000 HD 
HETATM   22  C   UNL     1     -12.579  10.132  71.529  1.00  0.00    -0.537 A  
HETATM   23  O   UNL     1     -14.198   8.876  72.727  1.00  0.00    -0.924 OA 
HETATM   24  O   UNL     1     -13.122   6.548  71.853  1.00  0.00    -0.236 OA 
HETATM   25  C   UNL     1     -11.434  10.160  70.733  1.00  0.00    -0.442 A  
HETATM   26  H   UNL     1     -14.587   9.688  73.032  1.00  0.00     0.000 HD 
ENDBRANCH   6  17
TORSDOF 2
ENDMDL
MODEL       10
REMARK 921   NORMALIZED FREE ENERGY PREDICTED BY IDOCK:   -7.08 KCAL/MOL
REMARK 922        TOTAL FREE ENERGY PREDICTED BY IDOCK:   -8.10 KCAL/MOL
REMARK 923 INTER-LIGAND FREE ENERGY PREDICTED BY IDOCK:   -7.56 KCAL/MOL
REMARK 924 INTRA-LIGAND FREE ENERGY PREDICTED BY IDOCK:   -0.54 KCAL/MOL
REMARK 927      BINDING AFFINITY PREDICTED BY RF-SCORE:    0.00 PKD
ROOT
HETATM    1  C   UNL     1      -8.220   9.361  67.455  1.00  0.00    -0.121 C  
HETATM    2  C   UNL     1      -9.712   9.398  67.829  1.00  0.00    -0.182 C  
HETATM    3  C   UNL     1     -10.059   8.123  68.648  1.00  0.00    -0.211 C  
HETATM    4  C   UNL     1     -10.086  10.699  68.617  1.00  0.00    -0.194 C  
HETATM    5  C   UNL     1     -11.572  10.717  69.019  1.00  0.00    -0.332 C  
HETATM    6  C   UNL     1      -9.706  12.034  67.911  1.00  0.00    -0.194 C  
ENDROOT
BRANCH   3   7
HETATM    7  C   UNL     1      -9.918   6.813  67.902  1.00  0.00    -0.164 A  
HETATM    8  C   UNL     1     -10.889   6.420  66.966  1.00  0.00    -0.464 A  
HETATM    9  C   UNL     1      -8.783   6.005  68.093  1.00  0.00    -0.113 A  
HETATM   10  C   UNL     1     -10.721   5.237  66.258  1.00  0.00    -0.196 A  
HETATM   11  H   UNL     1      -8.681   2.733  65.914  1.00  0.00     0.000 HD 
HETATM   12  O   UNL     1     -11.629   4.812  65.326  1.00  0.00    -1.065 OA 
HETATM   13  C   UNL     1      -8.627   4.816  67.383  1.00  0.00    -0.104 A  
HETATM   14  C   UNL     1      -9.601   4.439  66.471  1.00  0.00    -0.197 A  
HETATM   15  O   UNL     1      -9.446   3.277  65.769  1.00  0.00    -0.155 OA 
HETATM   16  H   UNL     1     -11.515   4.003  64.842  1.00  0.00     0.000 HD 
ENDBRANCH   3   7
BRANCH   6  17
HETATM   17  C   UNL     1     -10.453  12.326  66.628  1.00  0.00    -0.247 A  
HETATM   18  C   UNL     1     -11.707  13.059  64.244  1.00  0.00    -0.389 A  
HETATM   19  C   UNL     1     -12.315  13.334  65.464  1.00  0.00    -0.480 A  
HETATM   20  C   UNL     1     -11.705  12.958  66.655  1.00  0.00    -0.452 A  
HETATM   21  H   UNL     1     -13.924  14.259  64.632  1.00  0.00     0.000 HD 
HETATM   22  C   UNL     1     -10.502  12.379  64.190  1.00  0.00    -0.415 A  
HETATM   23  O   UNL     1     -12.292  13.474  63.082  1.00  0.00    -0.968 OA 
HETATM   24  O   UNL     1     -13.508  14.002  65.446  1.00  0.00    -0.679 OA 
HETATM   25  C   UNL     1      -9.878  12.009  65.383  1.00  0.00    -0.243 A  
HETATM   26  H   UNL     1     -11.877  13.287  62.248  1.00  0.00     0.000 HD 
ENDBRANCH   6  17
TORSDOF 2
ENDMDL
MODEL       11
REMARK 921   NORMALIZED FREE ENERGY PREDICTED BY IDOCK:   -7.02 KCAL/MOL
REMARK 922        TOTAL FREE ENERGY PREDICTED BY IDOCK:   -8.03 KCAL/MOL
REMARK 923 INTER-LIGAND FREE ENERGY PREDICTED BY IDOCK:   -7.55 KCAL/MOL
REMARK 924 INTRA-LIGAND FREE ENERGY PREDICTED BY IDOCK:   -0.48 KCAL/MOL
REMARK 927      BINDING AFFINITY PREDICTED BY RF-SCORE:    0.00 PKD
ROOT
HETATM    1  C   UNL     1     -11.202  16.024  64.628  1.00  0.00    -0.340 C  
HETATM    2  C   UNL     1     -10.817  15.310  65.936  1.00  0.00    -0.345 C  
HETATM    3  C   UNL     1     -10.489  16.379  67.017  1.00  0.00    -0.291 C  
HETATM    4  C   UNL     1     -11.943  14.336  66.424  1.00  0.00    -0.438 C  
HETATM    5  C   UNL     1     -11.569  13.649  67.750  1.00  0.00    -0.373 C  
HETATM    6  C   UNL     1     -12.398  13.274  65.381  1.00  0.00    -0.528 C  
ENDROOT
BRANCH   3   7
HETATM    7  C   UNL     1      -9.284  17.248  66.725  1.00  0.00    -0.270 A  
HETATM    8  C   UNL     1      -9.367  18.644  66.853  1.00  0.00    -0.308 A  
HETATM    9  C   UNL     1      -8.053  16.663  66.382  1.00  0.00    -0.359 A  
HETATM   10  C   UNL     1      -8.240  19.424  66.625  1.00  0.00    -0.306 A  
HETATM   11  H   UNL     1      -5.105  19.201  65.804  1.00  0.00     0.000 HD 
HETATM   12  O   UNL     1      -8.261  20.787  66.747  1.00  0.00    -0.555 OA 
HETATM   13  C   UNL     1      -6.929  17.453  66.148  1.00  0.00    -0.298 A  
HETATM   14  C   UNL     1      -7.032  18.830  66.269  1.00  0.00    -0.235 A  
HETATM   15  O   UNL     1      -5.929  19.607  66.046  1.00  0.00    -0.167 OA 
HETATM   16  H   UNL     1      -7.490  21.319  66.591  1.00  0.00     0.000 HD 
ENDBRANCH   3   7
BRANCH   6  17
HETATM   17  C   UNL     1     -11.356  12.243  65.005  1.00  0.00    -0.376 A  
HETATM   18  C   UNL     1      -9.602  10.222  64.207  1.00  0.00    -0.313 A  
HETATM   19  C   UNL     1     -10.132  10.218  65.493  1.00  0.00    -0.281 A  
HETATM   20  C   UNL     1     -10.994  11.229  65.903  1.00  0.00    -0.221 A  
HETATM   21  H   UNL     1      -9.209   8.489  66.037  1.00  0.00     0.000 HD 
HETATM   22  C   UNL     1      -9.895  11.248  63.324  1.00  0.00    -0.418 A  
HETATM   23  O   UNL     1      -8.794   9.200  63.800  1.00  0.00    -0.378 OA 
HETATM   24  O   UNL     1      -9.797   9.179  66.317  1.00  0.00    -0.252 OA 
HETATM   25  C   UNL     1     -10.768  12.261  63.726  1.00  0.00    -0.494 A  
HETATM   26  H   UNL     1      -8.432   9.203  62.922  1.00  0.00     0.000 HD 
ENDBRANCH   6  17
TORSDOF 2
ENDMDL
MODEL       12
REMARK 921   NORMALIZED FREE ENERGY PREDICTED BY IDOCK:   -7.00 KCAL/MOL
REMARK 922        TOTAL FREE ENERGY PREDICTED BY IDOCK:   -8.01 KCAL/MOL
REMARK 923 INTER-LIGAND FREE ENERGY PREDICTED BY IDOCK:   -7.74 KCAL/MOL
REMARK 924 INTRA-LIGAND FREE ENERGY PREDICTED BY IDOCK:   -0.27 KCAL/MOL
REMARK 927      BINDING AFFINITY PREDICTED BY RF-SCORE:    0.00 PKD
ROOT
HETATM    1  C   UNL     1      -8.499  13.925  68.283  1.00  0.00    -0.169 C  
HETATM    2  C   UNL     1      -9.884  14.038  67.621  1.00  0.00    -0.233 C  
HETATM    3  C   UNL     1      -9.777  14.974  66.384  1.00  0.00    -0.305 C  
HETATM    4  C   UNL     1     -10.458  12.636  67.224  1.00  0.00    -0.237 C  
HETATM    5  C   UNL     1     -11.828  12.754  66.531  1.00  0.00    -0.471 C  
HETATM    6  C   UNL     1     -10.532  11.598  68.382  1.00  0.00    -0.230 C  
ENDROOT
BRANCH   3   7
HETATM    7  C   UNL     1      -9.417  16.413  66.688  1.00  0.00    -0.277 A  
HETATM    8  C   UNL     1     -10.186  17.162  67.594  1.00  0.00    -0.329 A  
HETATM    9  C   UNL     1      -8.275  16.996  66.112  1.00  0.00    -0.284 A  
HETATM   10  C   UNL     1      -9.815  18.466  67.896  1.00  0.00    -0.329 A  
HETATM   11  H   UNL     1      -7.569  20.708  67.204  1.00  0.00     0.000 HD 
HETATM   12  O   UNL     1     -10.521  19.237  68.780  1.00  0.00    -0.488 OA 
HETATM   13  C   UNL     1      -7.915  18.308  66.415  1.00  0.00    -0.290 A  
HETATM   14  C   UNL     1      -8.691  19.036  67.304  1.00  0.00    -0.278 A  
HETATM   15  O   UNL     1      -8.336  20.320  67.608  1.00  0.00    -0.315 OA 
HETATM   16  H   UNL     1     -10.267  20.129  68.986  1.00  0.00     0.000 HD 
ENDBRANCH   3   7
BRANCH   6  17
HETATM   17  C   UNL     1     -11.503  11.932  69.494  1.00  0.00    -0.357 A  
HETATM   18  C   UNL     1     -13.110  12.583  71.682  1.00  0.00    -0.315 A  
HETATM   19  C   UNL     1     -12.862  11.250  71.371  1.00  0.00    -0.410 A  
HETATM   20  C   UNL     1     -12.076  10.917  70.274  1.00  0.00    -0.440 A  
HETATM   21  H   UNL     1     -13.931  10.522  72.941  1.00  0.00     0.000 HD 
HETATM   22  C   UNL     1     -12.607  13.600  70.888  1.00  0.00    -0.421 A  
HETATM   23  O   UNL     1     -13.845  12.899  72.788  1.00  0.00    -0.727 OA 
HETATM   24  O   UNL     1     -13.394  10.294  72.192  1.00  0.00    -0.443 OA 
HETATM   25  C   UNL     1     -11.808  13.274  69.791  1.00  0.00    -0.394 A  
HETATM   26  H   UNL     1     -14.015  13.810  73.000  1.00  0.00     0.000 HD 
ENDBRANCH   6  17
TORSDOF 2
ENDMDL
MODEL       13
REMARK 921   NORMALIZED FREE ENERGY PREDICTED BY IDOCK:   -6.97 KCAL/MOL
REMARK 922        TOTAL FREE ENERGY PREDICTED BY IDOCK:   -7.98 KCAL/MOL
REMARK 923 INTER-LIGAND FREE ENERGY PREDICTED BY IDOCK:   -7.37 KCAL/MOL
REMARK 924 INTRA-LIGAND FREE ENERGY PREDICTED BY IDOCK:   -0.61 KCAL/MOL
REMARK 927      BINDING AFFINITY PREDICTED BY RF-SCORE:    0.00 PKD
ROOT
HETATM    1  C   UNL     1      -8.525  13.577  68.020  1.00  0.00    -0.176 C  
HETATM    2  C   UNL     1      -9.924  14.158  67.751  1.00  0.00    -0.235 C  
HETATM    3  C   UNL     1     -10.883  13.001  67.354  1.00  0.00    -0.269 C  
HETATM    4  C   UNL     1     -10.474  14.954  68.982  1.00  0.00    -0.247 C  
HETATM    5  C   UNL     1     -11.887  15.507  68.721  1.00  0.00    -0.335 C  
HETATM    6  C   UNL     1      -9.544  16.089  69.506  1.00  0.00    -0.200 C  
ENDROOT
BRANCH   3   7
HETATM    7  C   UNL     1     -10.545  12.292  66.060  1.00  0.00    -0.287 A  
HETATM    8  C   UNL     1     -10.072  10.969  66.077  1.00  0.00    -0.297 A  
HETATM    9  C   UNL     1     -10.756  12.928  64.824  1.00  0.00    -0.354 A  
HETATM   10  C   UNL     1      -9.809  10.318  64.878  1.00  0.00    -0.336 A  
HETATM   11  H   UNL     1      -9.879  10.761  61.662  1.00  0.00     0.000 HD 
HETATM   12  O   UNL     1      -9.358   9.026  64.836  1.00  0.00    -0.446 OA 
HETATM   13  C   UNL     1     -10.482  12.269  63.627  1.00  0.00    -0.483 A  
HETATM   14  C   UNL     1     -10.007  10.967  63.663  1.00  0.00    -0.361 A  
HETATM   15  O   UNL     1      -9.744  10.317  62.491  1.00  0.00    -0.262 OA 
HETATM   16  H   UNL     1      -9.178   8.581  64.017  1.00  0.00     0.000 HD 
ENDBRANCH   3   7
BRANCH   6  17
HETATM   17  C   UNL     1      -9.340  17.252  68.559  1.00  0.00    -0.276 A  
HETATM   18  C   UNL     1      -9.138  19.314  66.688  1.00  0.00    -0.338 A  
HETATM   19  C   UNL     1      -8.307  18.203  66.593  1.00  0.00    -0.263 A  
HETATM   20  C   UNL     1      -8.390  17.179  67.530  1.00  0.00    -0.199 A  
HETATM   21  H   UNL     1      -7.380  18.847  64.901  1.00  0.00     0.000 HD 
HETATM   22  C   UNL     1     -10.039  19.437  67.734  1.00  0.00    -0.508 A  
HETATM   23  O   UNL     1      -9.081  20.292  65.737  1.00  0.00    -0.547 OA 
HETATM   24  O   UNL     1      -7.436  18.147  65.541  1.00  0.00    -0.540 OA 
HETATM   25  C   UNL     1     -10.135  18.407  68.671  1.00  0.00    -0.407 A  
HETATM   26  H   UNL     1      -9.648  21.051  65.803  1.00  0.00     0.000 HD 
ENDBRANCH   6  17
TORSDOF 2
ENDMDL
MODEL       14
REMARK 921   NORMALIZED FREE ENERGY PREDICTED BY IDOCK:   -6.94 KCAL/MOL
REMARK 922        TOTAL FREE ENERGY PREDICTED BY IDOCK:   -7.95 KCAL/MOL
REMARK 923 INTER-LIGAND FREE ENERGY PREDICTED BY IDOCK:   -7.45 KCAL/MOL
REMARK 924 INTRA-LIGAND FREE ENERGY PREDICTED BY IDOCK:   -0.50 KCAL/MOL
REMARK 927      BINDING AFFINITY PREDICTED BY RF-SCORE:    0.00 PKD
ROOT
HETATM    1  C   UNL     1      -8.302  14.292  67.649  1.00  0.00    -0.187 C  
HETATM    2  C   UNL     1      -9.449  15.302  67.828  1.00  0.00    -0.197 C  
HETATM    3  C   UNL     1     -10.797  14.530  67.890  1.00  0.00    -0.260 C  
HETATM    4  C   UNL     1      -9.248  16.196  69.099  1.00  0.00    -0.246 C  
HETATM    5  C   UNL     1     -10.413  17.183  69.294  1.00  0.00    -0.267 C  
HETATM    6  C   UNL     1      -7.888  16.953  69.168  1.00  0.00    -0.116 C  
ENDROOT
BRANCH   3   7
HETATM    7  C   UNL     1     -11.178  13.788  66.627  1.00  0.00    -0.327 A  
HETATM    8  C   UNL     1     -11.779  14.471  65.556  1.00  0.00    -0.343 A  
HETATM    9  C   UNL     1     -10.882  12.421  66.488  1.00  0.00    -0.284 A  
HETATM   10  C   UNL     1     -12.082  13.784  64.386  1.00  0.00    -0.436 A  
HETATM   11  H   UNL     1     -11.906  10.834  63.039  1.00  0.00     0.000 HD 
HETATM   12  O   UNL     1     -12.655  14.402  63.308  1.00  0.00    -1.043 OA 
HETATM   13  C   UNL     1     -11.196  11.739  65.314  1.00  0.00    -0.315 A  
HETATM   14  C   UNL     1     -11.798  12.426  64.271  1.00  0.00    -0.398 A  
HETATM   15  O   UNL     1     -12.101  11.761  63.117  1.00  0.00    -0.389 OA 
HETATM   16  H   UNL     1     -12.862  13.932  62.509  1.00  0.00     0.000 HD 
ENDBRANCH   3   7
BRANCH   6  17
HETATM   17  C   UNL     1      -7.680  18.015  68.110  1.00  0.00    -0.274 A  
HETATM   18  C   UNL     1      -7.508  19.923  66.079  1.00  0.00    -0.324 A  
HETATM   19  C   UNL     1      -6.934  18.668  65.907  1.00  0.00    -0.270 A  
HETATM   20  C   UNL     1      -7.002  17.717  66.919  1.00  0.00    -0.212 A  
HETATM   21  H   UNL     1      -6.286  19.051  64.017  1.00  0.00     0.000 HD 
HETATM   22  C   UNL     1      -8.127  20.261  67.272  1.00  0.00    -0.381 A  
HETATM   23  O   UNL     1      -7.476  20.833  65.062  1.00  0.00    -0.434 OA 
HETATM   24  O   UNL     1      -6.332  18.401  64.709  1.00  0.00    -0.370 OA 
HETATM   25  C   UNL     1      -8.208  19.308  68.288  1.00  0.00    -0.372 A  
HETATM   26  H   UNL     1      -7.867  21.690  65.180  1.00  0.00     0.000 HD 
ENDBRANCH   6  17
TORSDOF 2
ENDMDL
MODEL       15
REMARK 921   NORMALIZED FREE ENERGY PREDICTED BY IDOCK:   -6.91 KCAL/MOL
REMARK 922        TOTAL FREE ENERGY PREDICTED BY IDOCK:   -7.91 KCAL/MOL
REMARK 923 INTER-LIGAND FREE ENERGY PREDICTED BY IDOCK:   -7.27 KCAL/MOL
REMARK 924 INTRA-LIGAND FREE ENERGY PREDICTED BY IDOCK:   -0.63 KCAL/MOL
REMARK 927      BINDING AFFINITY PREDICTED BY RF-SCORE:    0.00 PKD
ROOT
HETATM    1  C   UNL     1     -12.127  13.601  70.545  1.00  0.00    -0.411 C  
HETATM    2  C   UNL     1     -11.694  12.874  69.260  1.00  0.00    -0.378 C  
HETATM    3  C   UNL     1     -12.380  11.479  69.214  1.00  0.00    -0.121 C  
HETATM    4  C   UNL     1     -12.021  13.710  67.977  1.00  0.00    -0.385 C  
HETATM    5  C   UNL     1     -11.616  12.966  66.691  1.00  0.00    -0.428 C  
HETATM    6  C   UNL     1     -11.441  15.155  67.963  1.00  0.00    -0.355 C  
ENDROOT
BRANCH   3   7
HETATM    7  C   UNL     1     -11.974  10.519  70.311  1.00  0.00    -0.411 A  
HETATM    8  C   UNL     1     -12.928  10.039  71.224  1.00  0.00    -0.495 A  
HETATM    9  C   UNL     1     -10.651  10.051  70.393  1.00  0.00    -0.343 A  
HETATM   10  C   UNL     1     -12.547   9.124  72.198  1.00  0.00    -0.381 A  
HETATM   11  H   UNL     1      -9.966   7.483  73.291  1.00  0.00     0.000 HD 
HETATM   12  O   UNL     1     -13.437   8.614  73.104  1.00  0.00    -0.883 OA 
HETATM   13  C   UNL     1     -10.276   9.139  71.377  1.00  0.00    -0.402 A  
HETATM   14  C   UNL     1     -11.228   8.683  72.276  1.00  0.00    -0.328 A  
HETATM   15  O   UNL     1     -10.865   7.784  73.238  1.00  0.00    -0.383 OA 
HETATM   16  H   UNL     1     -13.176   7.988  73.770  1.00  0.00     0.000 HD 
ENDBRANCH   3   7
BRANCH   6  17
HETATM   17  C   UNL     1      -9.932  15.251  67.916  1.00  0.00    -0.228 A  
HETATM   18  C   UNL     1      -7.145  15.207  67.759  1.00  0.00    -0.165 A  
HETATM   19  C   UNL     1      -7.777  15.005  68.981  1.00  0.00    -0.170 A  
HETATM   20  C   UNL     1      -9.164  15.041  69.071  1.00  0.00    -0.205 A  
HETATM   21  H   UNL     1      -6.045  14.723  70.008  1.00  0.00     0.000 HD 
HETATM   22  C   UNL     1      -7.880  15.480  66.617  1.00  0.00    -0.062 A  
HETATM   23  O   UNL     1      -5.785  15.124  67.673  1.00  0.00    -0.260 OA 
HETATM   24  O   UNL     1      -6.992  14.747  70.070  1.00  0.00    -0.180 OA 
HETATM   25  C   UNL     1      -9.274  15.507  66.698  1.00  0.00    -0.299 A  
HETATM   26  H   UNL     1      -5.353  15.262  66.838  1.00  0.00     0.000 HD 
ENDBRANCH   6  17
TORSDOF 2
ENDMDL
MODEL       16
REMARK 921   NORMALIZED FREE ENERGY PREDICTED BY IDOCK:   -6.90 KCAL/MOL
REMARK 922        TOTAL FREE ENERGY PREDICTED BY IDOCK:   -7.90 KCAL/MOL
REMARK 923 INTER-LIGAND FREE ENERGY PREDICTED BY IDOCK:   -7.63 KCAL/MOL
REMARK 924 INTRA-LIGAND FREE ENERGY PREDICTED BY IDOCK:   -0.27 KCAL/MOL
REMARK 927      BINDING AFFINITY PREDICTED BY RF-SCORE:    0.00 PKD
ROOT
HETATM    1  C   UNL     1     -11.924  13.247  69.959  1.00  0.00    -0.399 C  
HETATM    2  C   UNL     1     -11.424  12.478  68.723  1.00  0.00    -0.353 C  
HETATM    3  C   UNL     1     -11.899  11.001  68.822  1.00  0.00    -0.352 C  
HETATM    4  C   UNL     1     -11.904  13.141  67.388  1.00  0.00    -0.412 C  
HETATM    5  C   UNL     1     -11.430  12.351  66.154  1.00  0.00    -0.430 C  
HETATM    6  C   UNL     1     -11.543  14.647  67.229  1.00  0.00    -0.404 C  
ENDROOT
BRANCH   3   7
HETATM    7  C   UNL     1     -11.327  10.211  69.980  1.00  0.00    -0.351 A  
HETATM    8  C   UNL     1     -12.176   9.677  70.964  1.00  0.00    -0.409 A  
HETATM    9  C   UNL     1      -9.947   9.953  70.051  1.00  0.00    -0.302 A  
HETATM   10  C   UNL     1     -11.639   8.917  71.996  1.00  0.00    -0.364 A  
HETATM   11  H   UNL     1      -8.815   7.778  73.126  1.00  0.00     0.000 HD 
HETATM   12  O   UNL     1     -12.420   8.363  72.974  1.00  0.00    -0.648 OA 
HETATM   13  C   UNL     1      -9.416   9.195  71.094  1.00  0.00    -0.331 A  
HETATM   14  C   UNL     1     -10.268   8.685  72.062  1.00  0.00    -0.337 A  
HETATM   15  O   UNL     1      -9.750   7.936  73.081  1.00  0.00    -0.256 OA 
HETATM   16  H   UNL     1     -12.052   7.844  73.679  1.00  0.00     0.000 HD 
ENDBRANCH   3   7
BRANCH   6  17
HETATM   17  C   UNL     1     -10.066  14.954  67.114  1.00  0.00    -0.240 A  
HETATM   18  C   UNL     1      -7.356  15.628  67.106  1.00  0.00    -0.212 A  
HETATM   19  C   UNL     1      -8.271  16.411  66.410  1.00  0.00    -0.331 A  
HETATM   20  C   UNL     1      -9.620  16.073  66.396  1.00  0.00    -0.309 A  
HETATM   21  H   UNL     1      -6.880  17.754  65.781  1.00  0.00     0.000 HD 
HETATM   22  C   UNL     1      -7.765  14.482  67.769  1.00  0.00    -0.167 A  
HETATM   23  O   UNL     1      -6.042  15.994  67.152  1.00  0.00    -0.290 OA 
HETATM   24  O   UNL     1      -7.801  17.524  65.771  1.00  0.00    -0.544 OA 
HETATM   25  C   UNL     1      -9.119  14.144  67.768  1.00  0.00    -0.190 A  
HETATM   26  H   UNL     1      -5.417  15.459  67.627  1.00  0.00     0.000 HD 
ENDBRANCH   6  17
TORSDOF 2
ENDMDL
MODEL       17
REMARK 921   NORMALIZED FREE ENERGY PREDICTED BY IDOCK:   -6.87 KCAL/MOL
REMARK 922        TOTAL FREE ENERGY PREDICTED BY IDOCK:   -7.87 KCAL/MOL
REMARK 923 INTER-LIGAND FREE ENERGY PREDICTED BY IDOCK:   -7.30 KCAL/MOL
REMARK 924 INTRA-LIGAND FREE ENERGY PREDICTED BY IDOCK:   -0.57 KCAL/MOL
REMARK 927      BINDING AFFINITY PREDICTED BY RF-SCORE:    0.00 PKD
ROOT
HETATM    1  C   UNL     1     -12.276  13.571  70.640  1.00  0.00    -0.434 C  
HETATM    2  C   UNL     1     -11.712  12.949  69.351  1.00  0.00    -0.382 C  
HETATM    3  C   UNL     1     -12.275  11.507  69.199  1.00  0.00    -0.221 C  
HETATM    4  C   UNL     1     -12.035  13.820  68.090  1.00  0.00    -0.394 C  
HETATM    5  C   UNL     1     -11.499  13.178  66.798  1.00  0.00    -0.386 C  
HETATM    6  C   UNL     1     -11.580  15.307  68.178  1.00  0.00    -0.344 C  
ENDROOT
BRANCH   3   7
HETATM    7  C   UNL     1     -11.852  10.529  70.273  1.00  0.00    -0.418 A  
HETATM    8  C   UNL     1     -12.777  10.080  71.231  1.00  0.00    -0.500 A  
HETATM    9  C   UNL     1     -10.544  10.012  70.289  1.00  0.00    -0.354 A  
HETATM   10  C   UNL     1     -12.384   9.148  72.183  1.00  0.00    -0.354 A  
HETATM   11  H   UNL     1      -9.815   7.408  73.145  1.00  0.00     0.000 HD 
HETATM   12  O   UNL     1     -13.246   8.668  73.131  1.00  0.00    -0.826 OA 
HETATM   13  C   UNL     1     -10.157   9.082  71.252  1.00  0.00    -0.384 A  
HETATM   14  C   UNL     1     -11.080   8.659  72.196  1.00  0.00    -0.364 A  
HETATM   15  O   UNL     1     -10.704   7.742  73.137  1.00  0.00    -0.378 OA 
HETATM   16  H   UNL     1     -12.977   8.031  73.782  1.00  0.00     0.000 HD 
ENDBRANCH   3   7
BRANCH   6  17
HETATM   17  C   UNL     1     -10.083  15.527  68.226  1.00  0.00    -0.218 A  
HETATM   18  C   UNL     1      -7.365  16.135  68.417  1.00  0.00    -0.140 A  
HETATM   19  C   UNL     1      -8.051  16.375  67.232  1.00  0.00    -0.171 A  
HETATM   20  C   UNL     1      -9.401  16.061  67.123  1.00  0.00    -0.222 A  
HETATM   21  H   UNL     1      -6.439  17.164  66.275  1.00  0.00     0.000 HD 
HETATM   22  C   UNL     1      -8.003  15.550  69.498  1.00  0.00    -0.192 A  
HETATM   23  O   UNL     1      -6.052  16.491  68.528  1.00  0.00    -0.124 OA 
HETATM   24  O   UNL     1      -7.361  16.949  66.200  1.00  0.00    -0.268 OA 
HETATM   25  C   UNL     1      -9.361  15.241  69.400  1.00  0.00    -0.228 A  
HETATM   26  H   UNL     1      -5.583  16.327  69.338  1.00  0.00     0.000 HD 
ENDBRANCH   6  17
TORSDOF 2
ENDMDL
MODEL       18
REMARK 921   NORMALIZED FREE ENERGY PREDICTED BY IDOCK:   -6.86 KCAL/MOL
REMARK 922        TOTAL FREE ENERGY PREDICTED BY IDOCK:   -7.85 KCAL/MOL
REMARK 923 INTER-LIGAND FREE ENERGY PREDICTED BY IDOCK:   -7.25 KCAL/MOL
REMARK 924 INTRA-LIGAND FREE ENERGY PREDICTED BY IDOCK:   -0.60 KCAL/MOL
REMARK 927      BINDING AFFINITY PREDICTED BY RF-SCORE:    0.00 PKD
ROOT
HETATM    1  C   UNL     1     -12.036  12.660  67.666  1.00  0.00    -0.309 C  
HETATM    2  C   UNL     1     -10.800  13.000  68.517  1.00  0.00    -0.282 C  
HETATM    3  C   UNL     1      -9.605  12.124  68.045  1.00  0.00    -0.204 C  
HETATM    4  C   UNL     1     -10.447  14.524  68.453  1.00  0.00    -0.246 C  
HETATM    5  C   UNL     1      -9.191  14.856  69.279  1.00  0.00    -0.100 C  
HETATM    6  C   UNL     1     -11.608  15.490  68.834  1.00  0.00    -0.384 C  
ENDROOT
BRANCH   3   7
HETATM    7  C   UNL     1      -9.772  10.634  68.250  1.00  0.00    -0.169 A  
HETATM    8  C   UNL     1      -9.954   9.780  67.149  1.00  0.00    -0.252 A  
HETATM    9  C   UNL     1      -9.686  10.080  69.540  1.00  0.00    -0.253 A  
HETATM   10  C   UNL     1     -10.060   8.410  67.352  1.00  0.00    -0.236 A  
HETATM   11  H   UNL     1     -10.049   6.167  69.702  1.00  0.00     0.000 HD 
HETATM   12  O   UNL     1     -10.227   7.532  66.316  1.00  0.00    -0.473 OA 
HETATM   13  C   UNL     1      -9.800   8.705  69.734  1.00  0.00    -0.183 A  
HETATM   14  C   UNL     1      -9.990   7.879  68.637  1.00  0.00    -0.191 A  
HETATM   15  O   UNL     1     -10.097   6.530  68.825  1.00  0.00    -0.149 OA 
HETATM   16  H   UNL     1     -10.299   6.595  66.454  1.00  0.00     0.000 HD 
ENDBRANCH   3   7
BRANCH   6  17
HETATM   17  C   UNL     1     -12.062  15.424  70.276  1.00  0.00    -0.402 A  
HETATM   18  C   UNL     1     -12.707  15.184  72.982  1.00  0.00    -0.450 A  
HETATM   19  C   UNL     1     -13.257  14.307  72.054  1.00  0.00    -0.385 A  
HETATM   20  C   UNL     1     -12.953  14.429  70.703  1.00  0.00    -0.348 A  
HETATM   21  H   UNL     1     -14.283  13.233  73.443  1.00  0.00     0.000 HD 
HETATM   22  C   UNL     1     -11.874  16.214  72.576  1.00  0.00    -0.630 A  
HETATM   23  O   UNL     1     -12.974  15.026  74.311  1.00  0.00    -0.495 OA 
HETATM   24  O   UNL     1     -14.076  13.316  72.520  1.00  0.00    -0.709 OA 
HETATM   25  C   UNL     1     -11.557  16.336  71.222  1.00  0.00    -0.402 A  
HETATM   26  H   UNL     1     -12.599  15.625  74.945  1.00  0.00     0.000 HD 
ENDBRANCH   6  17
TORSDOF 2
ENDMDL
MODEL       19
REMARK 921   NORMALIZED FREE ENERGY PREDICTED BY IDOCK:   -6.84 KCAL/MOL
REMARK 922        TOTAL FREE ENERGY PREDICTED BY IDOCK:   -7.83 KCAL/MOL
REMARK 923 INTER-LIGAND FREE ENERGY PREDICTED BY IDOCK:   -7.55 KCAL/MOL
REMARK 924 INTRA-LIGAND FREE ENERGY PREDICTED BY IDOCK:   -0.28 KCAL/MOL
REMARK 927      BINDING AFFINITY PREDICTED BY RF-SCORE:    0.00 PKD
ROOT
HETATM    1  C   UNL     1      -9.548  14.501  68.695  1.00  0.00    -0.219 C  
HETATM    2  C   UNL     1     -10.916  14.044  68.159  1.00  0.00    -0.268 C  
HETATM    3  C   UNL     1     -12.018  14.985  68.722  1.00  0.00    -0.282 C  
HETATM    4  C   UNL     1     -10.948  14.004  66.594  1.00  0.00    -0.300 C  
HETATM    5  C   UNL     1     -12.328  13.579  66.060  1.00  0.00    -0.486 C  
HETATM    6  C   UNL     1      -9.830  13.147  65.930  1.00  0.00    -0.241 C  
ENDROOT
BRANCH   3   7
HETATM    7  C   UNL     1     -12.201  14.946  70.224  1.00  0.00    -0.389 A  
HETATM    8  C   UNL     1     -12.855  13.862  70.833  1.00  0.00    -0.370 A  
HETATM    9  C   UNL     1     -11.665  15.965  71.032  1.00  0.00    -0.473 A  
HETATM   10  C   UNL     1     -12.973  13.820  72.217  1.00  0.00    -0.336 A  
HETATM   11  H   UNL     1     -12.220  15.494  74.896  1.00  0.00     0.000 HD 
HETATM   12  O   UNL     1     -13.590  12.783  72.863  1.00  0.00    -0.664 OA 
HETATM   13  C   UNL     1     -11.795  15.918  72.418  1.00  0.00    -0.618 A  
HETATM   14  C   UNL     1     -12.453  14.845  73.001  1.00  0.00    -0.385 A  
HETATM   15  O   UNL     1     -12.576  14.794  74.361  1.00  0.00    -0.440 OA 
HETATM   16  H   UNL     1     -13.671  12.754  73.809  1.00  0.00     0.000 HD 
ENDBRANCH   3   7
BRANCH   6  17
HETATM   17  C   UNL     1      -9.908  11.659  66.194  1.00  0.00    -0.250 A  
HETATM   18  C   UNL     1     -10.268   8.921  66.605  1.00  0.00    -0.268 A  
HETATM   19  C   UNL     1     -10.419   9.810  67.663  1.00  0.00    -0.251 A  
HETATM   20  C   UNL     1     -10.225  11.174  67.471  1.00  0.00    -0.216 A  
HETATM   21  H   UNL     1     -10.917   8.368  69.008  1.00  0.00     0.000 HD 
HETATM   22  C   UNL     1      -9.892   9.372  65.350  1.00  0.00    -0.159 A  
HETATM   23  O   UNL     1     -10.506   7.590  66.793  1.00  0.00    -0.404 OA 
HETATM   24  O   UNL     1     -10.784   9.299  68.878  1.00  0.00    -0.215 OA 
HETATM   25  C   UNL     1      -9.707  10.740  65.147  1.00  0.00    -0.319 A  
HETATM   26  H   UNL     1     -10.403   6.983  66.070  1.00  0.00     0.000 HD 
ENDBRANCH   6  17
TORSDOF 2
ENDMDL
MODEL       20
REMARK 921   NORMALIZED FREE ENERGY PREDICTED BY IDOCK:   -6.81 KCAL/MOL
REMARK 922        TOTAL FREE ENERGY PREDICTED BY IDOCK:   -7.80 KCAL/MOL
REMARK 923 INTER-LIGAND FREE ENERGY PREDICTED BY IDOCK:   -7.33 KCAL/MOL
REMARK 924 INTRA-LIGAND FREE ENERGY PREDICTED BY IDOCK:   -0.47 KCAL/MOL
REMARK 927      BINDING AFFINITY PREDICTED BY RF-SCORE:    0.00 PKD
ROOT
HETATM    1  C   UNL     1     -12.135  14.146  66.970  1.00  0.00    -0.449 C  
HETATM    2  C   UNL     1     -10.753  14.104  67.645  1.00  0.00    -0.260 C  
HETATM    3  C   UNL     1     -10.723  12.927  68.661  1.00  0.00    -0.273 C  
HETATM    4  C   UNL     1      -9.594  13.980  66.598  1.00  0.00    -0.299 C  
HETATM    5  C   UNL     1      -8.215  13.905  67.278  1.00  0.00    -0.176 C  
HETATM    6  C   UNL     1      -9.585  15.072  65.488  1.00  0.00    -0.209 C  
ENDROOT
BRANCH   3   7
HETATM    7  C   UNL     1     -11.678  13.054  69.829  1.00  0.00    -0.346 A  
HETATM    8  C   UNL     1     -12.049  14.320  70.310  1.00  0.00    -0.403 A  
HETATM    9  C   UNL     1     -12.251  11.907  70.405  1.00  0.00    -0.399 A  
HETATM   10  C   UNL     1     -12.961  14.419  71.353  1.00  0.00    -0.335 A  
HETATM   11  H   UNL     1     -14.775  12.599  73.340  1.00  0.00     0.000 HD 
HETATM   12  O   UNL     1     -13.367  15.627  71.853  1.00  0.00    -0.451 OA 
HETATM   13  C   UNL     1     -13.160  12.015  71.456  1.00  0.00    -0.362 A  
HETATM   14  C   UNL     1     -13.507  13.273  71.925  1.00  0.00    -0.438 A  
HETATM   15  O   UNL     1     -14.403  13.381  72.951  1.00  0.00    -0.460 OA 
HETATM   16  H   UNL     1     -13.990  15.694  72.567  1.00  0.00     0.000 HD 
ENDBRANCH   3   7
BRANCH   6  17
HETATM   17  C   UNL     1      -9.308  16.482  65.964  1.00  0.00    -0.302 A  
HETATM   18  C   UNL     1      -8.751  18.992  67.050  1.00  0.00    -0.294 A  
HETATM   19  C   UNL     1     -10.067  18.553  66.949  1.00  0.00    -0.370 A  
HETATM   20  C   UNL     1     -10.354  17.311  66.394  1.00  0.00    -0.316 A  
HETATM   21  H   UNL     1     -10.854  20.219  67.811  1.00  0.00     0.000 HD 
HETATM   22  C   UNL     1      -7.707  18.217  66.573  1.00  0.00    -0.279 A  
HETATM   23  O   UNL     1      -8.477  20.193  67.638  1.00  0.00    -0.319 OA 
HETATM   24  O   UNL     1     -11.051  19.370  67.432  1.00  0.00    -0.445 OA 
HETATM   25  C   UNL     1      -7.987  16.964  66.026  1.00  0.00    -0.147 A  
HETATM   26  H   UNL     1      -7.578  20.494  67.708  1.00  0.00     0.000 HD 
ENDBRANCH   6  17
TORSDOF 2
ENDMDL
MODEL       21
REMARK 921   NORMALIZED FREE ENERGY PREDICTED BY IDOCK:   -6.81 KCAL/MOL
REMARK 922        TOTAL FREE ENERGY PREDICTED BY IDOCK:   -7.80 KCAL/MOL
REMARK 923 INTER-LIGAND FREE ENERGY PREDICTED BY IDOCK:   -7.26 KCAL/MOL
REMARK 924 INTRA-LIGAND FREE ENERGY PREDICTED BY IDOCK:   -0.54 KCAL/MOL
REMARK 927      BINDING AFFINITY PREDICTED BY RF-SCORE:    0.00 PKD
ROOT
HETATM    1  C   UNL     1     -12.138  13.396  70.350  1.00  0.00    -0.405 C  
HETATM    2  C   UNL     1     -11.637  12.713  69.065  1.00  0.00    -0.367 C  
HETATM    3  C   UNL     1     -12.159  11.249  69.035  1.00  0.00    -0.325 C  
HETATM    4  C   UNL     1     -12.070  13.497  67.780  1.00  0.00    -0.316 C  
HETATM    5  C   UNL     1     -11.596  12.794  66.495  1.00  0.00    -0.435 C  
HETATM    6  C   UNL     1     -11.661  14.999  67.750  1.00  0.00    -0.336 C  
ENDROOT
BRANCH   3   7
HETATM    7  C   UNL     1     -11.634  10.351  70.135  1.00  0.00    -0.392 A  
HETATM    8  C   UNL     1     -12.512   9.804  71.086  1.00  0.00    -0.443 A  
HETATM    9  C   UNL     1     -10.272  10.005  70.181  1.00  0.00    -0.297 A  
HETATM   10  C   UNL     1     -12.021   8.945  72.061  1.00  0.00    -0.369 A  
HETATM   11  H   UNL     1      -9.269   7.564  73.097  1.00  0.00     0.000 HD 
HETATM   12  O   UNL     1     -12.832   8.375  73.004  1.00  0.00    -0.706 OA 
HETATM   13  C   UNL     1      -9.787   9.149  71.167  1.00  0.00    -0.371 A  
HETATM   14  C   UNL     1     -10.666   8.627  72.104  1.00  0.00    -0.347 A  
HETATM   15  O   UNL     1     -10.194   7.782  73.068  1.00  0.00    -0.278 OA 
HETATM   16  H   UNL     1     -12.496   7.788  73.671  1.00  0.00     0.000 HD 
ENDBRANCH   3   7
BRANCH   6  17
HETATM   17  C   UNL     1     -10.173  15.267  67.686  1.00  0.00    -0.242 A  
HETATM   18  C   UNL     1      -7.408  15.568  67.442  1.00  0.00    -0.210 A  
HETATM   19  C   UNL     1      -7.947  14.987  68.585  1.00  0.00    -0.153 A  
HETATM   20  C   UNL     1      -9.324  14.848  68.721  1.00  0.00    -0.203 A  
HETATM   21  H   UNL     1      -6.140  14.636  69.449  1.00  0.00     0.000 HD 
HETATM   22  C   UNL     1      -8.230  16.048  66.436  1.00  0.00    -0.309 A  
HETATM   23  O   UNL     1      -6.054  15.658  67.298  1.00  0.00    -0.310 OA 
HETATM   24  O   UNL     1      -7.080  14.541  69.543  1.00  0.00    -0.153 OA 
HETATM   25  C   UNL     1      -9.613  15.901  66.562  1.00  0.00    -0.291 A  
HETATM   26  H   UNL     1      -5.685  16.055  66.518  1.00  0.00     0.000 HD 
ENDBRANCH   6  17
TORSDOF 2
ENDMDL
MODEL       22
REMARK 921   NORMALIZED FREE ENERGY PREDICTED BY IDOCK:   -6.78 KCAL/MOL
REMARK 922        TOTAL FREE ENERGY PREDICTED BY IDOCK:   -7.76 KCAL/MOL
REMARK 923 INTER-LIGAND FREE ENERGY PREDICTED BY IDOCK:   -7.97 KCAL/MOL
REMARK 924 INTRA-LIGAND FREE ENERGY PREDICTED BY IDOCK:    0.21 KCAL/MOL
REMARK 927      BINDING AFFINITY PREDICTED BY RF-SCORE:    0.00 PKD
ROOT
HETATM    1  C   UNL     1      -8.797  12.355  68.229  1.00  0.00    -0.174 C  
HETATM    2  C   UNL     1      -9.108  10.925  67.755  1.00  0.00    -0.149 C  
HETATM    3  C   UNL     1      -8.930  10.855  66.212  1.00  0.00    -0.188 C  
HETATM    4  C   UNL     1      -8.216   9.861  68.478  1.00  0.00    -0.106 C  
HETATM    5  C   UNL     1      -8.507   8.434  67.977  1.00  0.00    -0.132 C  
HETATM    6  C   UNL     1      -8.266   9.902  70.034  1.00  0.00    -0.187 C  
ENDROOT
BRANCH   3   7
HETATM    7  C   UNL     1      -9.889  11.707  65.408  1.00  0.00    -0.268 A  
HETATM    8  C   UNL     1     -10.721  11.120  64.439  1.00  0.00    -0.388 A  
HETATM    9  C   UNL     1     -10.001  13.084  65.664  1.00  0.00    -0.239 A  
HETATM   10  C   UNL     1     -11.627  11.909  63.743  1.00  0.00    -0.462 A  
HETATM   11  H   UNL     1     -12.668  14.974  63.476  1.00  0.00     0.000 HD 
HETATM   12  O   UNL     1     -12.469  11.388  62.798  1.00  0.00    -0.929 OA 
HETATM   13  C   UNL     1     -10.909  13.870  64.955  1.00  0.00    -0.413 A  
HETATM   14  C   UNL     1     -11.714  13.275  63.995  1.00  0.00    -0.430 A  
HETATM   15  O   UNL     1     -12.609  14.042  63.304  1.00  0.00    -0.801 OA 
HETATM   16  H   UNL     1     -13.089  11.928  62.321  1.00  0.00     0.000 HD 
ENDBRANCH   3   7
BRANCH   6  17
HETATM   17  C   UNL     1      -9.598   9.536  70.652  1.00  0.00    -0.292 A  
HETATM   18  C   UNL     1     -12.035   9.050  71.924  1.00  0.00    -0.375 A  
HETATM   19  C   UNL     1     -10.882   8.403  72.357  1.00  0.00    -0.346 A  
HETATM   20  C   UNL     1      -9.667   8.627  71.719  1.00  0.00    -0.361 A  
HETATM   21  H   UNL     1     -11.816   7.417  73.871  1.00  0.00     0.000 HD 
HETATM   22  C   UNL     1     -12.002   9.901  70.832  1.00  0.00    -0.434 A  
HETATM   23  O   UNL     1     -13.213   8.858  72.586  1.00  0.00    -0.560 OA 
HETATM   24  O   UNL     1     -10.986   7.570  73.436  1.00  0.00    -0.380 OA 
HETATM   25  C   UNL     1     -10.783  10.140  70.194  1.00  0.00    -0.355 A  
HETATM   26  H   UNL     1     -14.001   9.299  72.290  1.00  0.00     0.000 HD 
ENDBRANCH   6  17
TORSDOF 2
ENDMDL
MODEL       23
REMARK 921   NORMALIZED FREE ENERGY PREDICTED BY IDOCK:   -6.76 KCAL/MOL
REMARK 922        TOTAL FREE ENERGY PREDICTED BY IDOCK:   -7.74 KCAL/MOL
REMARK 923 INTER-LIGAND FREE ENERGY PREDICTED BY IDOCK:   -7.35 KCAL/MOL
REMARK 924 INTRA-LIGAND FREE ENERGY PREDICTED BY IDOCK:   -0.40 KCAL/MOL
REMARK 927      BINDING AFFINITY PREDICTED BY RF-SCORE:    0.00 PKD
ROOT
HETATM    1  C   UNL     1     -11.281  16.072  64.634  1.00  0.00    -0.340 C  
HETATM    2  C   UNL     1     -10.890  15.338  65.929  1.00  0.00    -0.345 C  
HETATM    3  C   UNL     1     -10.549  16.390  67.022  1.00  0.00    -0.260 C  
HETATM    4  C   UNL     1     -12.016  14.362  66.411  1.00  0.00    -0.402 C  
HETATM    5  C   UNL     1     -11.636  13.654  67.725  1.00  0.00    -0.373 C  
HETATM    6  C   UNL     1     -12.483  13.316  65.356  1.00  0.00    -0.543 C  
ENDROOT
BRANCH   3   7
HETATM    7  C   UNL     1      -9.343  17.258  66.735  1.00  0.00    -0.272 A  
HETATM    8  C   UNL     1      -8.067  16.683  66.609  1.00  0.00    -0.309 A  
HETATM    9  C   UNL     1      -9.495  18.641  66.530  1.00  0.00    -0.331 A  
HETATM   10  C   UNL     1      -6.978  17.488  66.301  1.00  0.00    -0.297 A  
HETATM   11  H   UNL     1      -6.176  20.576  65.691  1.00  0.00     0.000 HD 
HETATM   12  O   UNL     1      -5.716  16.980  66.155  1.00  0.00    -0.302 OA 
HETATM   13  C   UNL     1      -8.395  19.442  66.228  1.00  0.00    -0.346 A  
HETATM   14  C   UNL     1      -7.142  18.859  66.118  1.00  0.00    -0.256 A  
HETATM   15  O   UNL     1      -6.063  19.641  65.816  1.00  0.00    -0.177 OA 
HETATM   16  H   UNL     1      -4.971  17.530  65.944  1.00  0.00     0.000 HD 
ENDBRANCH   3   7
BRANCH   6  17
HETATM   17  C   UNL     1     -11.448  12.287  64.958  1.00  0.00    -0.386 A  
HETATM   18  C   UNL     1      -9.712  10.257  64.144  1.00  0.00    -0.291 A  
HETATM   19  C   UNL     1     -10.130  10.327  65.468  1.00  0.00    -0.281 A  
HETATM   20  C   UNL     1     -10.982  11.343  65.886  1.00  0.00    -0.268 A  
HETATM   21  H   UNL     1      -9.115   8.660  66.040  1.00  0.00     0.000 HD 
HETATM   22  C   UNL     1     -10.109  11.215  63.225  1.00  0.00    -0.426 A  
HETATM   23  O   UNL     1      -8.914   9.229  63.734  1.00  0.00    -0.390 OA 
HETATM   24  O   UNL     1      -9.697   9.354  66.325  1.00  0.00    -0.220 OA 
HETATM   25  C   UNL     1     -10.973  12.232  63.635  1.00  0.00    -0.532 A  
HETATM   26  H   UNL     1      -8.628   9.182  62.829  1.00  0.00     0.000 HD 
ENDBRANCH   6  17
TORSDOF 2
ENDMDL
MODEL       24
REMARK 921   NORMALIZED FREE ENERGY PREDICTED BY IDOCK:   -6.74 KCAL/MOL
REMARK 922        TOTAL FREE ENERGY PREDICTED BY IDOCK:   -7.72 KCAL/MOL
REMARK 923 INTER-LIGAND FREE ENERGY PREDICTED BY IDOCK:   -7.42 KCAL/MOL
REMARK 924 INTRA-LIGAND FREE ENERGY PREDICTED BY IDOCK:   -0.30 KCAL/MOL
REMARK 927      BINDING AFFINITY PREDICTED BY RF-SCORE:    0.00 PKD
ROOT
HETATM    1  C   UNL     1      -8.456  14.937  68.622  1.00  0.00    -0.166 C  
HETATM    2  C   UNL     1      -9.789  15.275  67.932  1.00  0.00    -0.216 C  
HETATM    3  C   UNL     1      -9.493  16.028  66.604  1.00  0.00    -0.259 C  
HETATM    4  C   UNL     1     -10.658  13.997  67.679  1.00  0.00    -0.249 C  
HETATM    5  C   UNL     1     -11.976  14.335  66.959  1.00  0.00    -0.463 C  
HETATM    6  C   UNL     1     -10.944  13.130  68.941  1.00  0.00    -0.270 C  
ENDROOT
BRANCH   3   7
HETATM    7  C   UNL     1      -8.827  17.378  66.758  1.00  0.00    -0.272 A  
HETATM    8  C   UNL     1      -7.620  17.655  66.095  1.00  0.00    -0.315 A  
HETATM    9  C   UNL     1      -9.439  18.390  67.519  1.00  0.00    -0.277 A  
HETATM   10  C   UNL     1      -7.045  18.915  66.211  1.00  0.00    -0.243 A  
HETATM   11  H   UNL     1      -7.496  21.809  67.615  1.00  0.00     0.000 HD 
HETATM   12  O   UNL     1      -5.877  19.243  65.577  1.00  0.00    -0.163 OA 
HETATM   13  C   UNL     1      -8.851  19.649  67.635  1.00  0.00    -0.378 A  
HETATM   14  C   UNL     1      -7.655  19.901  66.982  1.00  0.00    -0.269 A  
HETATM   15  O   UNL     1      -7.080  21.136  67.089  1.00  0.00    -0.415 OA 
HETATM   16  H   UNL     1      -5.484  20.104  65.657  1.00  0.00     0.000 HD 
ENDBRANCH   3   7
BRANCH   6  17
HETATM   17  C   UNL     1     -11.809  13.784  69.997  1.00  0.00    -0.377 A  
HETATM   18  C   UNL     1     -13.221  14.981  72.086  1.00  0.00    -0.368 A  
HETATM   19  C   UNL     1     -13.344  13.616  71.855  1.00  0.00    -0.425 A  
HETATM   20  C   UNL     1     -12.656  13.014  70.807  1.00  0.00    -0.321 A  
HETATM   21  H   UNL     1     -14.605  13.305  73.420  1.00  0.00     0.000 HD 
HETATM   22  C   UNL     1     -12.440  15.772  71.259  1.00  0.00    -0.505 A  
HETATM   23  O   UNL     1     -13.864  15.554  73.146  1.00  0.00    -0.566 OA 
HETATM   24  O   UNL     1     -14.136  12.894  72.704  1.00  0.00    -0.562 OA 
HETATM   25  C   UNL     1     -11.739  15.173  70.212  1.00  0.00    -0.338 A  
HETATM   26  H   UNL     1     -13.780  16.487  73.304  1.00  0.00     0.000 HD 
ENDBRANCH   6  17
TORSDOF 2
ENDMDL
MODEL       25
REMARK 921   NORMALIZED FREE ENERGY PREDICTED BY IDOCK:   -6.72 KCAL/MOL
REMARK 922        TOTAL FREE ENERGY PREDICTED BY IDOCK:   -7.70 KCAL/MOL
REMARK 923 INTER-LIGAND FREE ENERGY PREDICTED BY IDOCK:   -7.05 KCAL/MOL
REMARK 924 INTRA-LIGAND FREE ENERGY PREDICTED BY IDOCK:   -0.65 KCAL/MOL
REMARK 927      BINDING AFFINITY PREDICTED BY RF-SCORE:    0.00 PKD
ROOT
HETATM    1  C   UNL     1     -12.118  12.763  67.738  1.00  0.00    -0.191 C  
HETATM    2  C   UNL     1     -10.861  13.084  68.565  1.00  0.00    -0.282 C  
HETATM    3  C   UNL     1      -9.682  12.209  68.052  1.00  0.00    -0.203 C  
HETATM    4  C   UNL     1     -10.501  14.607  68.516  1.00  0.00    -0.247 C  
HETATM    5  C   UNL     1      -9.224  14.920  69.317  1.00  0.00    -0.100 C  
HETATM    6  C   UNL     1     -11.648  15.573  68.938  1.00  0.00    -0.384 C  
ENDROOT
BRANCH   3   7
HETATM    7  C   UNL     1      -9.852  10.717  68.239  1.00  0.00    -0.174 A  
HETATM    8  C   UNL     1      -9.890  10.162  69.529  1.00  0.00    -0.255 A  
HETATM    9  C   UNL     1     -10.032   9.877  67.126  1.00  0.00    -0.252 A  
HETATM   10  C   UNL     1     -10.092   8.796  69.684  1.00  0.00    -0.204 A  
HETATM   11  H   UNL     1     -10.558   6.073  67.975  1.00  0.00     0.000 HD 
HETATM   12  O   UNL     1     -10.151   8.204  70.917  1.00  0.00    -0.186 OA 
HETATM   13  C   UNL     1     -10.227   8.507  67.291  1.00  0.00    -0.346 A  
HETATM   14  C   UNL     1     -10.252   7.975  68.571  1.00  0.00    -0.207 A  
HETATM   15  O   UNL     1     -10.449   6.633  68.735  1.00  0.00    -0.183 OA 
HETATM   16  H   UNL     1     -10.288   7.270  71.022  1.00  0.00     0.000 HD 
ENDBRANCH   3   7
BRANCH   6  17
HETATM   17  C   UNL     1     -12.068  15.488  70.390  1.00  0.00    -0.426 A  
HETATM   18  C   UNL     1     -12.651  15.212  73.106  1.00  0.00    -0.473 A  
HETATM   19  C   UNL     1     -13.221  14.346  72.179  1.00  0.00    -0.384 A  
HETATM   20  C   UNL     1     -12.949  14.486  70.823  1.00  0.00    -0.403 A  
HETATM   21  H   UNL     1     -14.214  13.253  73.578  1.00  0.00     0.000 HD 
HETATM   22  C   UNL     1     -11.829  16.248  72.694  1.00  0.00    -0.596 A  
HETATM   23  O   UNL     1     -12.888  15.036  74.439  1.00  0.00    -0.504 OA 
HETATM   24  O   UNL     1     -14.029  13.349  72.651  1.00  0.00    -0.755 OA 
HETATM   25  C   UNL     1     -11.542  16.388  71.335  1.00  0.00    -0.300 A  
HETATM   26  H   UNL     1     -12.498  15.627  75.072  1.00  0.00     0.000 HD 
ENDBRANCH   6  17
TORSDOF 2
ENDMDL
MODEL       26
REMARK 921   NORMALIZED FREE ENERGY PREDICTED BY IDOCK:   -6.68 KCAL/MOL
REMARK 922        TOTAL FREE ENERGY PREDICTED BY IDOCK:   -7.65 KCAL/MOL
REMARK 923 INTER-LIGAND FREE ENERGY PREDICTED BY IDOCK:   -6.98 KCAL/MOL
REMARK 924 INTRA-LIGAND FREE ENERGY PREDICTED BY IDOCK:   -0.67 KCAL/MOL
REMARK 927      BINDING AFFINITY PREDICTED BY RF-SCORE:    0.00 PKD
ROOT
HETATM    1  C   UNL     1      -8.433   9.376  67.951  1.00  0.00    -0.116 C  
HETATM    2  C   UNL     1      -9.950   9.450  68.196  1.00  0.00    -0.202 C  
HETATM    3  C   UNL     1     -10.375   8.256  69.096  1.00  0.00    -0.225 C  
HETATM    4  C   UNL     1     -10.373  10.819  68.830  1.00  0.00    -0.220 C  
HETATM    5  C   UNL     1     -11.887  10.878  69.104  1.00  0.00    -0.389 C  
HETATM    6  C   UNL     1      -9.923  12.083  68.040  1.00  0.00    -0.197 C  
ENDROOT
BRANCH   3   7
HETATM    7  C   UNL     1     -10.187   6.884  68.486  1.00  0.00    -0.187 A  
HETATM    8  C   UNL     1     -10.852   6.537  67.298  1.00  0.00    -0.463 A  
HETATM    9  C   UNL     1      -9.300   5.963  69.069  1.00  0.00    -0.138 A  
HETATM   10  C   UNL     1     -10.633   5.290  66.727  1.00  0.00    -0.242 A  
HETATM   11  H   UNL     1      -8.963   2.538  67.164  1.00  0.00     0.000 HD 
HETATM   12  O   UNL     1     -11.244   4.904  65.564  1.00  0.00    -0.850 OA 
HETATM   13  C   UNL     1      -9.092   4.711  68.493  1.00  0.00    -0.157 A  
HETATM   14  C   UNL     1      -9.764   4.382  67.326  1.00  0.00    -0.184 A  
HETATM   15  O   UNL     1      -9.557   3.157  66.756  1.00  0.00    -0.121 OA 
HETATM   16  H   UNL     1     -11.095   4.051  65.174  1.00  0.00     0.000 HD 
ENDBRANCH   3   7
BRANCH   6  17
HETATM   17  C   UNL     1     -10.559  12.259  66.678  1.00  0.00    -0.257 A  
HETATM   18  C   UNL     1     -11.883  12.421  64.225  1.00  0.00    -0.398 A  
HETATM   19  C   UNL     1     -10.725  11.660  64.343  1.00  0.00    -0.330 A  
HETATM   20  C   UNL     1     -10.051  11.587  65.557  1.00  0.00    -0.286 A  
HETATM   21  H   UNL     1     -10.758  11.025  62.411  1.00  0.00     0.000 HD 
HETATM   22  C   UNL     1     -12.368  13.145  65.302  1.00  0.00    -0.532 A  
HETATM   23  O   UNL     1     -12.563  12.448  63.042  1.00  0.00    -0.703 OA 
HETATM   24  O   UNL     1     -10.297  10.975  63.240  1.00  0.00    -0.345 OA 
HETATM   25  C   UNL     1     -11.702  13.067  66.527  1.00  0.00    -0.437 A  
HETATM   26  H   UNL     1     -13.354  12.968  62.961  1.00  0.00     0.000 HD 
ENDBRANCH   6  17
TORSDOF 2
ENDMDL
MODEL       27
REMARK 921   NORMALIZED FREE ENERGY PREDICTED BY IDOCK:   -6.66 KCAL/MOL
REMARK 922        TOTAL FREE ENERGY PREDICTED BY IDOCK:   -7.63 KCAL/MOL
REMARK 923 INTER-LIGAND FREE ENERGY PREDICTED BY IDOCK:   -7.15 KCAL/MOL
REMARK 924 INTRA-LIGAND FREE ENERGY PREDICTED BY IDOCK:   -0.48 KCAL/MOL
REMARK 927      BINDING AFFINITY PREDICTED BY RF-SCORE:    0.00 PKD
ROOT
HETATM    1  C   UNL     1     -10.694  15.115  68.905  1.00  0.00    -0.240 C  
HETATM    2  C   UNL     1      -9.466  14.794  68.035  1.00  0.00    -0.204 C  
HETATM    3  C   UNL     1      -8.341  15.820  68.352  1.00  0.00    -0.164 C  
HETATM    4  C   UNL     1      -8.970  13.324  68.244  1.00  0.00    -0.176 C  
HETATM    5  C   UNL     1      -7.721  13.016  67.397  1.00  0.00    -0.159 C  
HETATM    6  C   UNL     1     -10.049  12.223  68.025  1.00  0.00    -0.206 C  
ENDROOT
BRANCH   3   7
HETATM    7  C   UNL     1      -8.654  17.257  67.998  1.00  0.00    -0.234 A  
HETATM    8  C   UNL     1      -9.473  17.556  66.896  1.00  0.00    -0.278 A  
HETATM    9  C   UNL     1      -8.178  18.307  68.802  1.00  0.00    -0.253 A  
HETATM   10  C   UNL     1      -9.787  18.879  66.612  1.00  0.00    -0.358 A  
HETATM   11  H   UNL     1      -9.271  21.909  67.662  1.00  0.00     0.000 HD 
HETATM   12  O   UNL     1     -10.589  19.226  65.559  1.00  0.00    -0.520 OA 
HETATM   13  C   UNL     1      -8.492  19.632  68.505  1.00  0.00    -0.334 A  
HETATM   14  C   UNL     1      -9.293  19.909  67.408  1.00  0.00    -0.355 A  
HETATM   15  O   UNL     1      -9.607  21.207  67.118  1.00  0.00    -0.282 OA 
HETATM   16  H   UNL     1     -10.804  20.131  65.364  1.00  0.00     0.000 HD 
ENDBRANCH   3   7
BRANCH   6  17
HETATM   17  C   UNL     1     -10.563  12.088  66.608  1.00  0.00    -0.266 A  
HETATM   18  C   UNL     1     -11.651  11.673  64.070  1.00  0.00    -0.280 A  
HETATM   19  C   UNL     1     -10.448  11.069  64.420  1.00  0.00    -0.354 A  
HETATM   20  C   UNL     1      -9.891  11.283  65.676  1.00  0.00    -0.277 A  
HETATM   21  H   UNL     1     -10.237  10.102  62.643  1.00  0.00     0.000 HD 
HETATM   22  C   UNL     1     -12.299  12.523  64.952  1.00  0.00    -0.539 A  
HETATM   23  O   UNL     1     -12.212  11.419  62.852  1.00  0.00    -0.940 OA 
HETATM   24  O   UNL     1      -9.856  10.248  63.501  1.00  0.00    -0.275 OA 
HETATM   25  C   UNL     1     -11.751  12.733  66.219  1.00  0.00    -0.460 A  
HETATM   26  H   UNL     1     -13.034  11.832  62.613  1.00  0.00     0.000 HD 
ENDBRANCH   6  17
TORSDOF 2
ENDMDL
MODEL       28
REMARK 921   NORMALIZED FREE ENERGY PREDICTED BY IDOCK:   -6.61 KCAL/MOL
REMARK 922        TOTAL FREE ENERGY PREDICTED BY IDOCK:   -7.58 KCAL/MOL
REMARK 923 INTER-LIGAND FREE ENERGY PREDICTED BY IDOCK:   -8.05 KCAL/MOL
REMARK 924 INTRA-LIGAND FREE ENERGY PREDICTED BY IDOCK:    0.47 KCAL/MOL
REMARK 927      BINDING AFFINITY PREDICTED BY RF-SCORE:    0.00 PKD
ROOT
HETATM    1  C   UNL     1      -9.512  11.516  68.850  1.00  0.00    -0.027 C  
HETATM    2  C   UNL     1     -10.879  12.218  68.776  1.00  0.00    -0.266 C  
HETATM    3  C   UNL     1     -11.562  12.142  70.171  1.00  0.00    -0.202 C  
HETATM    4  C   UNL     1     -10.749  13.700  68.286  1.00  0.00    -0.266 C  
HETATM    5  C   UNL     1     -12.115  14.410  68.245  1.00  0.00    -0.260 C  
HETATM    6  C   UNL     1     -10.007  13.888  66.930  1.00  0.00    -0.264 C  
ENDROOT
BRANCH   3   7
HETATM    7  C   UNL     1     -11.910  10.749  70.648  1.00  0.00    -0.460 A  
HETATM    8  C   UNL     1     -12.847  10.564  71.678  1.00  0.00    -0.581 A  
HETATM    9  C   UNL     1     -11.345   9.622  70.025  1.00  0.00    -0.239 A  
HETATM   10  C   UNL     1     -13.189   9.277  72.073  1.00  0.00    -0.447 A  
HETATM   11  H   UNL     1     -12.554   6.156  71.435  1.00  0.00     0.000 HD 
HETATM   12  O   UNL     1     -14.104   9.038  73.063  1.00  0.00    -1.086 OA 
HETATM   13  C   UNL     1     -11.689   8.335  70.433  1.00  0.00     0.015 A  
HETATM   14  C   UNL     1     -12.608   8.171  71.458  1.00  0.00    -0.304 A  
HETATM   15  O   UNL     1     -12.951   6.910  71.855  1.00  0.00    -0.325 OA 
HETATM   16  H   UNL     1     -14.338   8.158  73.333  1.00  0.00     0.000 HD 
ENDBRANCH   3   7
BRANCH   6  17
HETATM   17  C   UNL     1     -10.709  13.312  65.719  1.00  0.00    -0.286 A  
HETATM   18  C   UNL     1     -12.076  12.077  63.621  1.00  0.00    -0.527 A  
HETATM   19  C   UNL     1     -10.708  11.876  63.776  1.00  0.00    -0.418 A  
HETATM   20  C   UNL     1     -10.017  12.500  64.809  1.00  0.00    -0.177 A  
HETATM   21  H   UNL     1     -10.557  10.607  62.195  1.00  0.00     0.000 HD 
HETATM   22  C   UNL     1     -12.767  12.925  64.471  1.00  0.00    -0.359 A  
HETATM   23  O   UNL     1     -12.753  11.423  62.633  1.00  0.00    -0.834 OA 
HETATM   24  O   UNL     1     -10.084  11.033  62.900  1.00  0.00    -0.282 OA 
HETATM   25  C   UNL     1     -12.082  13.546  65.516  1.00  0.00    -0.454 A  
HETATM   26  H   UNL     1     -13.687  11.560  62.527  1.00  0.00     0.000 HD 
ENDBRANCH   6  17
TORSDOF 2
ENDMDL
MODEL       29
REMARK 921   NORMALIZED FREE ENERGY PREDICTED BY IDOCK:   -6.61 KCAL/MOL
REMARK 922        TOTAL FREE ENERGY PREDICTED BY IDOCK:   -7.57 KCAL/MOL
REMARK 923 INTER-LIGAND FREE ENERGY PREDICTED BY IDOCK:   -7.26 KCAL/MOL
REMARK 924 INTRA-LIGAND FREE ENERGY PREDICTED BY IDOCK:   -0.31 KCAL/MOL
REMARK 927      BINDING AFFINITY PREDICTED BY RF-SCORE:    0.00 PKD
ROOT
HETATM    1  C   UNL     1     -11.282  10.778  67.414  1.00  0.00    -0.315 C  
HETATM    2  C   UNL     1     -10.220  11.296  68.399  1.00  0.00    -0.205 C  
HETATM    3  C   UNL     1      -9.974  10.218  69.491  1.00  0.00    -0.252 C  
HETATM    4  C   UNL     1      -8.887  11.682  67.671  1.00  0.00    -0.159 C  
HETATM    5  C   UNL     1      -7.814  12.169  68.663  1.00  0.00    -0.078 C  
HETATM    6  C   UNL     1      -9.040  12.702  66.505  1.00  0.00    -0.163 C  
ENDROOT
BRANCH   3   7
HETATM    7  C   UNL     1     -11.159   9.916  70.383  1.00  0.00    -0.382 A  
HETATM    8  C   UNL     1     -11.357   8.620  70.888  1.00  0.00    -0.314 A  
HETATM    9  C   UNL     1     -12.041  10.943  70.764  1.00  0.00    -0.469 A  
HETATM   10  C   UNL     1     -12.425   8.371  71.742  1.00  0.00    -0.335 A  
HETATM   11  H   UNL     1     -14.943   9.837  73.178  1.00  0.00     0.000 HD 
HETATM   12  O   UNL     1     -12.658   7.131  72.273  1.00  0.00    -0.504 OA 
HETATM   13  C   UNL     1     -13.113  10.682  71.615  1.00  0.00    -0.555 A  
HETATM   14  C   UNL     1     -13.299   9.395  72.096  1.00  0.00    -0.468 A  
HETATM   15  O   UNL     1     -14.346   9.138  72.936  1.00  0.00    -0.519 OA 
HETATM   16  H   UNL     1     -13.388   6.961  72.856  1.00  0.00     0.000 HD 
ENDBRANCH   3   7
BRANCH   6  17
HETATM   17  C   UNL     1      -9.485  14.091  66.909  1.00  0.00    -0.271 A  
HETATM   18  C   UNL     1     -10.474  16.634  67.496  1.00  0.00    -0.317 A  
HETATM   19  C   UNL     1      -9.390  16.489  66.637  1.00  0.00    -0.256 A  
HETATM   20  C   UNL     1      -8.881  15.227  66.351  1.00  0.00    -0.311 A  
HETATM   21  H   UNL     1      -9.216  18.482  66.267  1.00  0.00     0.000 HD 
HETATM   22  C   UNL     1     -11.045  15.531  68.107  1.00  0.00    -0.325 A  
HETATM   23  O   UNL     1     -10.995  17.874  67.732  1.00  0.00    -0.307 OA 
HETATM   24  O   UNL     1      -8.868  17.620  66.072  1.00  0.00    -0.502 OA 
HETATM   25  C   UNL     1     -10.546  14.260  67.817  1.00  0.00    -0.253 A  
HETATM   26  H   UNL     1     -11.735  17.973  68.319  1.00  0.00     0.000 HD 
ENDBRANCH   6  17
TORSDOF 2
ENDMDL
MODEL       30
REMARK 921   NORMALIZED FREE ENERGY PREDICTED BY IDOCK:   -6.59 KCAL/MOL
REMARK 922        TOTAL FREE ENERGY PREDICTED BY IDOCK:   -7.55 KCAL/MOL
REMARK 923 INTER-LIGAND FREE ENERGY PREDICTED BY IDOCK:   -7.35 KCAL/MOL
REMARK 924 INTRA-LIGAND FREE ENERGY PREDICTED BY IDOCK:   -0.20 KCAL/MOL
REMARK 927      BINDING AFFINITY PREDICTED BY RF-SCORE:    0.00 PKD
ROOT
HETATM    1  C   UNL     1     -10.418   7.999  66.984  1.00  0.00    -0.410 C  
HETATM    2  C   UNL     1      -9.559   9.218  67.361  1.00  0.00    -0.190 C  
HETATM    3  C   UNL     1      -8.624   8.832  68.542  1.00  0.00    -0.134 C  
HETATM    4  C   UNL     1      -8.739   9.757  66.140  1.00  0.00    -0.150 C  
HETATM    5  C   UNL     1      -7.856  10.956  66.528  1.00  0.00    -0.152 C  
HETATM    6  C   UNL     1      -9.582  10.099  64.876  1.00  0.00    -0.369 C  
ENDROOT
BRANCH   3   7
HETATM    7  C   UNL     1      -9.324   8.484  69.838  1.00  0.00    -0.159 A  
HETATM    8  C   UNL     1      -9.130   7.228  70.436  1.00  0.00    -0.155 A  
HETATM    9  C   UNL     1     -10.130   9.435  70.487  1.00  0.00    -0.335 A  
HETATM   10  C   UNL     1      -9.745   6.942  71.649  1.00  0.00    -0.161 A  
HETATM   11  H   UNL     1     -11.705   8.242  73.888  1.00  0.00     0.000 HD 
HETATM   12  O   UNL     1      -9.580   5.740  72.282  1.00  0.00    -0.148 OA 
HETATM   13  C   UNL     1     -10.749   9.137  71.700  1.00  0.00    -0.441 A  
HETATM   14  C   UNL     1     -10.553   7.889  72.271  1.00  0.00    -0.271 A  
HETATM   15  O   UNL     1     -11.154   7.596  73.463  1.00  0.00    -0.315 OA 
HETATM   16  H   UNL     1     -10.000   5.544  73.111  1.00  0.00     0.000 HD 
ENDBRANCH   3   7
BRANCH   6  17
HETATM   17  C   UNL     1     -10.543  11.258  65.029  1.00  0.00    -0.353 A  
HETATM   18  C   UNL     1     -12.488  13.240  65.322  1.00  0.00    -0.489 A  
HETATM   19  C   UNL     1     -12.012  12.912  64.057  1.00  0.00    -0.451 A  
HETATM   20  C   UNL     1     -11.032  11.938  63.904  1.00  0.00    -0.473 A  
HETATM   21  H   UNL     1     -13.226  14.225  63.089  1.00  0.00     0.000 HD 
HETATM   22  C   UNL     1     -11.973  12.627  66.453  1.00  0.00    -0.425 A  
HETATM   23  O   UNL     1     -13.483  14.165  65.458  1.00  0.00    -0.710 OA 
HETATM   24  O   UNL     1     -12.557  13.560  62.984  1.00  0.00    -0.716 OA 
HETATM   25  C   UNL     1     -10.997  11.640  66.306  1.00  0.00    -0.338 A  
HETATM   26  H   UNL     1     -13.808  14.389  66.322  1.00  0.00     0.000 HD 
ENDBRANCH   6  17
TORSDOF 2
ENDMDL
MODEL       31
REMARK 921   NORMALIZED FREE ENERGY PREDICTED BY IDOCK:   -6.51 KCAL/MOL
REMARK 922        TOTAL FREE ENERGY PREDICTED BY IDOCK:   -7.46 KCAL/MOL
REMARK 923 INTER-LIGAND FREE ENERGY PREDICTED BY IDOCK:   -7.56 KCAL/MOL
REMARK 924 INTRA-LIGAND FREE ENERGY PREDICTED BY IDOCK:    0.10 KCAL/MOL
REMARK 927      BINDING AFFINITY PREDICTED BY RF-SCORE:    0.00 PKD
ROOT
HETATM    1  C   UNL     1      -8.701  10.938  67.879  1.00  0.00    -0.131 C  
HETATM    2  C   UNL     1     -10.167  11.135  68.303  1.00  0.00    -0.197 C  
HETATM    3  C   UNL     1     -10.543  10.042  69.343  1.00  0.00    -0.256 C  
HETATM    4  C   UNL     1     -10.423  12.572  68.871  1.00  0.00    -0.109 C  
HETATM    5  C   UNL     1     -11.882  12.755  69.325  1.00  0.00    -0.358 C  
HETATM    6  C   UNL     1     -10.004  13.740  67.930  1.00  0.00    -0.240 C  
ENDROOT
BRANCH   3   7
HETATM    7  C   UNL     1     -10.516   8.619  68.828  1.00  0.00    -0.209 A  
HETATM    8  C   UNL     1     -10.557   7.538  69.724  1.00  0.00    -0.245 A  
HETATM    9  C   UNL     1     -10.512   8.364  67.446  1.00  0.00    -0.354 A  
HETATM   10  C   UNL     1     -10.578   6.238  69.233  1.00  0.00    -0.273 A  
HETATM   11  H   UNL     1     -10.560   4.559  66.453  1.00  0.00     0.000 HD 
HETATM   12  O   UNL     1     -10.630   5.149  70.059  1.00  0.00    -0.285 OA 
HETATM   13  C   UNL     1     -10.525   7.057  66.962  1.00  0.00    -0.386 A  
HETATM   14  C   UNL     1     -10.555   6.002  67.861  1.00  0.00    -0.267 A  
HETATM   15  O   UNL     1     -10.575   4.720  67.389  1.00  0.00    -0.023 OA 
HETATM   16  H   UNL     1     -10.644   4.260  69.723  1.00  0.00     0.000 HD 
ENDBRANCH   3   7
BRANCH   6  17
HETATM   17  C   UNL     1     -10.799  13.860  66.648  1.00  0.00    -0.289 A  
HETATM   18  C   UNL     1     -12.078  14.007  64.171  1.00  0.00    -0.422 A  
HETATM   19  C   UNL     1     -11.519  15.149  64.735  1.00  0.00    -0.383 A  
HETATM   20  C   UNL     1     -10.894  15.087  65.976  1.00  0.00    -0.334 A  
HETATM   21  H   UNL     1     -12.012  16.353  63.172  1.00  0.00     0.000 HD 
HETATM   22  C   UNL     1     -12.052  12.798  64.846  1.00  0.00    -0.490 A  
HETATM   23  O   UNL     1     -12.647  14.069  62.932  1.00  0.00    -0.958 OA 
HETATM   24  O   UNL     1     -11.585  16.312  64.020  1.00  0.00    -0.953 OA 
HETATM   25  C   UNL     1     -11.417  12.727  66.087  1.00  0.00    -0.399 A  
HETATM   26  H   UNL     1     -13.029  13.289  62.546  1.00  0.00     0.000 HD 
ENDBRANCH   6  17
TORSDOF 2
ENDMDL
MODEL       32
REMARK 921   NORMALIZED FREE ENERGY PREDICTED BY IDOCK:   -6.48 KCAL/MOL
REMARK 922        TOTAL FREE ENERGY PREDICTED BY IDOCK:   -7.43 KCAL/MOL
REMARK 923 INTER-LIGAND FREE ENERGY PREDICTED BY IDOCK:   -6.83 KCAL/MOL
REMARK 924 INTRA-LIGAND FREE ENERGY PREDICTED BY IDOCK:   -0.59 KCAL/MOL
REMARK 927      BINDING AFFINITY PREDICTED BY RF-SCORE:    0.00 PKD
ROOT
HETATM    1  C   UNL     1     -11.892  13.052  66.528  1.00  0.00    -0.464 C  
HETATM    2  C   UNL     1     -10.614  13.289  67.351  1.00  0.00    -0.250 C  
HETATM    3  C   UNL     1      -9.413  12.624  66.621  1.00  0.00    -0.244 C  
HETATM    4  C   UNL     1     -10.353  14.813  67.601  1.00  0.00    -0.237 C  
HETATM    5  C   UNL     1      -9.056  15.049  68.396  1.00  0.00    -0.184 C  
HETATM    6  C   UNL     1     -11.532  15.588  68.259  1.00  0.00    -0.359 C  
ENDROOT
BRANCH   3   7
HETATM    7  C   UNL     1      -9.479  11.116  66.505  1.00  0.00    -0.215 A  
HETATM    8  C   UNL     1      -9.136  10.480  65.299  1.00  0.00    -0.220 A  
HETATM    9  C   UNL     1      -9.826  10.332  67.619  1.00  0.00    -0.199 A  
HETATM   10  C   UNL     1      -9.159   9.093  65.223  1.00  0.00    -0.195 A  
HETATM   11  H   UNL     1      -9.788   6.448  67.000  1.00  0.00     0.000 HD 
HETATM   12  O   UNL     1      -8.823   8.422  64.079  1.00  0.00    -0.396 OA 
HETATM   13  C   UNL     1      -9.853   8.941  67.531  1.00  0.00    -0.237 A  
HETATM   14  C   UNL     1      -9.521   8.331  66.331  1.00  0.00    -0.221 A  
HETATM   15  O   UNL     1      -9.541   6.968  66.244  1.00  0.00    -0.137 OA 
HETATM   16  H   UNL     1      -8.838   7.474  64.027  1.00  0.00     0.000 HD 
ENDBRANCH   3   7
BRANCH   6  17
HETATM   17  C   UNL     1     -11.866  15.182  69.678  1.00  0.00    -0.362 A  
HETATM   18  C   UNL     1     -12.699  14.500  72.254  1.00  0.00    -0.328 A  
HETATM   19  C   UNL     1     -12.074  15.721  72.024  1.00  0.00    -0.473 A  
HETATM   20  C   UNL     1     -11.642  16.061  70.747  1.00  0.00    -0.431 A  
HETATM   21  H   UNL     1     -12.223  16.338  73.956  1.00  0.00     0.000 HD 
HETATM   22  C   UNL     1     -12.873  13.588  71.226  1.00  0.00    -0.420 A  
HETATM   23  O   UNL     1     -13.161  14.195  73.502  1.00  0.00    -0.461 OA 
HETATM   24  O   UNL     1     -11.927  16.571  73.084  1.00  0.00    -0.516 OA 
HETATM   25  C   UNL     1     -12.451  13.928  69.939  1.00  0.00    -0.285 A  
HETATM   26  H   UNL     1     -13.587  13.361  73.660  1.00  0.00     0.000 HD 
ENDBRANCH   6  17
TORSDOF 2
ENDMDL
MODEL       33
REMARK 921   NORMALIZED FREE ENERGY PREDICTED BY IDOCK:   -6.38 KCAL/MOL
REMARK 922        TOTAL FREE ENERGY PREDICTED BY IDOCK:   -7.31 KCAL/MOL
REMARK 923 INTER-LIGAND FREE ENERGY PREDICTED BY IDOCK:   -6.67 KCAL/MOL
REMARK 924 INTRA-LIGAND FREE ENERGY PREDICTED BY IDOCK:   -0.64 KCAL/MOL
REMARK 927      BINDING AFFINITY PREDICTED BY RF-SCORE:    0.00 PKD
ROOT
HETATM    1  C   UNL     1      -8.814   9.804  69.819  1.00  0.00    -0.241 C  
HETATM    2  C   UNL     1     -10.344   9.761  69.665  1.00  0.00    -0.259 C  
HETATM    3  C   UNL     1     -10.938   8.840  70.768  1.00  0.00    -0.294 C  
HETATM    4  C   UNL     1     -10.977  11.193  69.719  1.00  0.00    -0.216 C  
HETATM    5  C   UNL     1     -12.511  11.145  69.597  1.00  0.00    -0.195 C  
HETATM    6  C   UNL     1     -10.392  12.215  68.700  1.00  0.00    -0.211 C  
ENDROOT
BRANCH   3   7
HETATM    7  C   UNL     1     -10.537   7.383  70.681  1.00  0.00    -0.234 A  
HETATM    8  C   UNL     1     -10.135   6.687  71.833  1.00  0.00    -0.196 A  
HETATM    9  C   UNL     1     -10.621   6.695  69.458  1.00  0.00    -0.281 A  
HETATM   10  C   UNL     1      -9.814   5.338  71.744  1.00  0.00    -0.170 A  
HETATM   11  H   UNL     1      -9.617   2.895  69.612  1.00  0.00     0.000 HD 
HETATM   12  O   UNL     1      -9.428   4.608  72.835  1.00  0.00    -0.129 OA 
HETATM   13  C   UNL     1     -10.291   5.343  69.377  1.00  0.00    -0.339 A  
HETATM   14  C   UNL     1      -9.886   4.674  70.522  1.00  0.00    -0.231 A  
HETATM   15  O   UNL     1      -9.568   3.348  70.446  1.00  0.00    -0.179 OA 
HETATM   16  H   UNL     1      -9.209   3.686  72.774  1.00  0.00     0.000 HD 
ENDBRANCH   3   7
BRANCH   6  17
HETATM   17  C   UNL     1     -10.658  11.907  67.243  1.00  0.00    -0.261 A  
HETATM   18  C   UNL     1     -10.984  11.490  64.501  1.00  0.00    -0.302 A  
HETATM   19  C   UNL     1     -11.835  12.356  65.181  1.00  0.00    -0.388 A  
HETATM   20  C   UNL     1     -11.689  12.557  66.549  1.00  0.00    -0.454 A  
HETATM   21  H   UNL     1     -12.889  12.875  63.521  1.00  0.00     0.000 HD 
HETATM   22  C   UNL     1     -10.000  10.789  65.178  1.00  0.00    -0.351 A  
HETATM   23  O   UNL     1     -11.106  11.336  63.150  1.00  0.00    -0.811 OA 
HETATM   24  O   UNL     1     -12.790  13.012  64.455  1.00  0.00    -0.692 OA 
HETATM   25  C   UNL     1      -9.841  10.994  66.549  1.00  0.00    -0.241 A  
HETATM   26  H   UNL     1     -10.526  10.745  62.686  1.00  0.00     0.000 HD 
ENDBRANCH   6  17
TORSDOF 2
ENDMDL
MODEL       34
REMARK 921   NORMALIZED FREE ENERGY PREDICTED BY IDOCK:   -6.36 KCAL/MOL
REMARK 922        TOTAL FREE ENERGY PREDICTED BY IDOCK:   -7.29 KCAL/MOL
REMARK 923 INTER-LIGAND FREE ENERGY PREDICTED BY IDOCK:   -6.70 KCAL/MOL
REMARK 924 INTRA-LIGAND FREE ENERGY PREDICTED BY IDOCK:   -0.60 KCAL/MOL
REMARK 927      BINDING AFFINITY PREDICTED BY RF-SCORE:    0.00 PKD
ROOT
HETATM    1  C   UNL     1     -12.245  12.993  70.123  1.00  0.00    -0.342 C  
HETATM    2  C   UNL     1     -11.475  12.435  68.914  1.00  0.00    -0.355 C  
HETATM    3  C   UNL     1     -11.723  10.903  68.820  1.00  0.00    -0.355 C  
HETATM    4  C   UNL     1     -11.873  13.158  67.583  1.00  0.00    -0.405 C  
HETATM    5  C   UNL     1     -11.124  12.576  66.370  1.00  0.00    -0.332 C  
HETATM    6  C   UNL     1     -11.732  14.709  67.603  1.00  0.00    -0.389 C  
ENDROOT
BRANCH   3   7
HETATM    7  C   UNL     1     -11.193  10.087  69.979  1.00  0.00    -0.345 A  
HETATM    8  C   UNL     1      -9.809   9.920  70.156  1.00  0.00    -0.272 A  
HETATM    9  C   UNL     1     -12.076   9.538  70.924  1.00  0.00    -0.357 A  
HETATM   10  C   UNL     1      -9.338   9.205  71.251  1.00  0.00    -0.215 A  
HETATM   11  H   UNL     1     -10.359   7.574  73.868  1.00  0.00     0.000 HD 
HETATM   12  O   UNL     1      -8.001   9.022  71.479  1.00  0.00    -0.300 OA 
HETATM   13  C   UNL     1     -11.595   8.816  72.015  1.00  0.00    -0.436 A  
HETATM   14  C   UNL     1     -10.227   8.653  72.169  1.00  0.00    -0.323 A  
HETATM   15  O   UNL     1      -9.752   7.951  73.241  1.00  0.00    -0.282 OA 
HETATM   16  H   UNL     1      -7.679   8.533  72.227  1.00  0.00     0.000 HD 
ENDBRANCH   3   7
BRANCH   6  17
HETATM   17  C   UNL     1     -10.318  15.233  67.730  1.00  0.00    -0.244 A  
HETATM   18  C   UNL     1      -7.799  16.392  68.053  1.00  0.00    -0.155 A  
HETATM   19  C   UNL     1      -8.438  16.448  66.819  1.00  0.00    -0.244 A  
HETATM   20  C   UNL     1      -9.686  15.859  66.646  1.00  0.00    -0.270 A  
HETATM   21  H   UNL     1      -6.959  17.519  65.925  1.00  0.00     0.000 HD 
HETATM   22  C   UNL     1      -8.375  15.723  69.120  1.00  0.00    -0.249 A  
HETATM   23  O   UNL     1      -6.595  17.013  68.225  1.00  0.00    -0.149 OA 
HETATM   24  O   UNL     1      -7.811  17.117  65.806  1.00  0.00    -0.449 OA 
HETATM   25  C   UNL     1      -9.633  15.139  68.956  1.00  0.00    -0.229 A  
HETATM   26  H   UNL     1      -6.158  16.974  69.068  1.00  0.00     0.000 HD 
ENDBRANCH   6  17
TORSDOF 2
ENDMDL
MODEL       35
REMARK 921   NORMALIZED FREE ENERGY PREDICTED BY IDOCK:   -6.31 KCAL/MOL
REMARK 922        TOTAL FREE ENERGY PREDICTED BY IDOCK:   -7.24 KCAL/MOL
REMARK 923 INTER-LIGAND FREE ENERGY PREDICTED BY IDOCK:   -6.63 KCAL/MOL
REMARK 924 INTRA-LIGAND FREE ENERGY PREDICTED BY IDOCK:   -0.60 KCAL/MOL
REMARK 927      BINDING AFFINITY PREDICTED BY RF-SCORE:    0.00 PKD
ROOT
HETATM    1  C   UNL     1     -12.115  13.366  70.356  1.00  0.00    -0.405 C  
HETATM    2  C   UNL     1     -11.639  12.677  69.065  1.00  0.00    -0.367 C  
HETATM    3  C   UNL     1     -12.223  11.237  69.016  1.00  0.00    -0.211 C  
HETATM    4  C   UNL     1     -12.031  13.493  67.787  1.00  0.00    -0.369 C  
HETATM    5  C   UNL     1     -11.582  12.785  66.496  1.00  0.00    -0.435 C  
HETATM    6  C   UNL     1     -11.557  14.977  67.777  1.00  0.00    -0.336 C  
ENDROOT
BRANCH   3   7
HETATM    7  C   UNL     1     -11.743  10.304  70.107  1.00  0.00    -0.364 A  
HETATM    8  C   UNL     1     -10.371  10.058  70.280  1.00  0.00    -0.301 A  
HETATM    9  C   UNL     1     -12.662   9.722  70.998  1.00  0.00    -0.392 A  
HETATM   10  C   UNL     1      -9.946   9.234  71.314  1.00  0.00    -0.271 A  
HETATM   11  H   UNL     1     -11.069   7.444  73.781  1.00  0.00     0.000 HD 
HETATM   12  O   UNL     1      -8.621   8.970  71.535  1.00  0.00    -0.303 OA 
HETATM   13  C   UNL     1     -12.226   8.891  72.029  1.00  0.00    -0.447 A  
HETATM   14  C   UNL     1     -10.869   8.651  72.178  1.00  0.00    -0.354 A  
HETATM   15  O   UNL     1     -10.439   7.842  73.192  1.00  0.00    -0.345 OA 
HETATM   16  H   UNL     1      -8.330   8.407  72.243  1.00  0.00     0.000 HD 
ENDBRANCH   3   7
BRANCH   6  17
HETATM   17  C   UNL     1     -10.058  15.180  67.722  1.00  0.00    -0.230 A  
HETATM   18  C   UNL     1      -7.280  15.356  67.504  1.00  0.00    -0.196 A  
HETATM   19  C   UNL     1      -7.858  14.853  68.665  1.00  0.00    -0.134 A  
HETATM   20  C   UNL     1      -9.241  14.777  68.788  1.00  0.00    -0.196 A  
HETATM   21  H   UNL     1      -6.078  14.471  69.572  1.00  0.00     0.000 HD 
HETATM   22  C   UNL     1      -8.069  15.820  66.465  1.00  0.00    -0.231 A  
HETATM   23  O   UNL     1      -5.922  15.383  67.376  1.00  0.00    -0.312 OA 
HETATM   24  O   UNL     1      -7.023  14.419  69.657  1.00  0.00    -0.138 OA 
HETATM   25  C   UNL     1      -9.458  15.736  66.577  1.00  0.00    -0.298 A  
HETATM   26  H   UNL     1      -5.527  15.727  66.583  1.00  0.00     0.000 HD 
ENDBRANCH   6  17
TORSDOF 2
ENDMDL
MODEL       36
REMARK 921   NORMALIZED FREE ENERGY PREDICTED BY IDOCK:   -6.27 KCAL/MOL
REMARK 922        TOTAL FREE ENERGY PREDICTED BY IDOCK:   -7.20 KCAL/MOL
REMARK 923 INTER-LIGAND FREE ENERGY PREDICTED BY IDOCK:   -6.55 KCAL/MOL
REMARK 924 INTRA-LIGAND FREE ENERGY PREDICTED BY IDOCK:   -0.64 KCAL/MOL
REMARK 927      BINDING AFFINITY PREDICTED BY RF-SCORE:    0.00 PKD
ROOT
HETATM    1  C   UNL     1     -10.999  10.650  68.346  1.00  0.00    -0.303 C  
HETATM    2  C   UNL     1      -9.703  10.398  67.555  1.00  0.00    -0.195 C  
HETATM    3  C   UNL     1      -9.209  11.744  66.953  1.00  0.00    -0.189 C  
HETATM    4  C   UNL     1      -8.597   9.732  68.441  1.00  0.00    -0.119 C  
HETATM    5  C   UNL     1      -7.291   9.512  67.656  1.00  0.00    -0.083 C  
HETATM    6  C   UNL     1      -9.022   8.414  69.153  1.00  0.00    -0.147 C  
ENDROOT
BRANCH   3   7
HETATM    7  C   UNL     1     -10.128  12.372  65.927  1.00  0.00    -0.272 A  
HETATM    8  C   UNL     1     -10.680  11.595  64.895  1.00  0.00    -0.352 A  
HETATM    9  C   UNL     1     -10.488  13.728  66.031  1.00  0.00    -0.297 A  
HETATM   10  C   UNL     1     -11.557  12.177  63.989  1.00  0.00    -0.423 A  
HETATM   11  H   UNL     1     -12.979  15.008  63.270  1.00  0.00     0.000 HD 
HETATM   12  O   UNL     1     -12.132  11.464  62.973  1.00  0.00    -0.934 OA 
HETATM   13  C   UNL     1     -11.363  14.305  65.113  1.00  0.00    -0.345 A  
HETATM   14  C   UNL     1     -11.889  13.525  64.095  1.00  0.00    -0.437 A  
HETATM   15  O   UNL     1     -12.752  14.088  63.198  1.00  0.00    -0.676 OA 
HETATM   16  H   UNL     1     -12.732  11.863  62.353  1.00  0.00     0.000 HD 
ENDBRANCH   3   7
BRANCH   6  17
HETATM   17  C   UNL     1      -9.311   7.244  68.238  1.00  0.00    -0.135 A  
HETATM   18  C   UNL     1      -9.932   4.977  66.733  1.00  0.00    -0.217 A  
HETATM   19  C   UNL     1      -8.642   5.158  67.221  1.00  0.00    -0.104 A  
HETATM   20  C   UNL     1      -8.320   6.292  67.958  1.00  0.00    -0.114 A  
HETATM   21  H   UNL     1      -7.943   3.402  66.469  1.00  0.00     0.000 HD 
HETATM   22  C   UNL     1     -10.909   5.935  66.943  1.00  0.00    -0.376 A  
HETATM   23  O   UNL     1     -10.248   3.837  66.050  1.00  0.00    -0.420 OA 
HETATM   24  O   UNL     1      -7.722   4.177  66.972  1.00  0.00    -0.090 OA 
HETATM   25  C   UNL     1     -10.596   7.071  67.691  1.00  0.00    -0.327 A  
HETATM   26  H   UNL     1     -11.129   3.714  65.717  1.00  0.00     0.000 HD 
ENDBRANCH   6  17
TORSDOF 2
ENDMDL
MODEL       37
REMARK 921   NORMALIZED FREE ENERGY PREDICTED BY IDOCK:   -6.23 KCAL/MOL
REMARK 922        TOTAL FREE ENERGY PREDICTED BY IDOCK:   -7.15 KCAL/MOL
REMARK 923 INTER-LIGAND FREE ENERGY PREDICTED BY IDOCK:   -6.61 KCAL/MOL
REMARK 924 INTRA-LIGAND FREE ENERGY PREDICTED BY IDOCK:   -0.54 KCAL/MOL
REMARK 927      BINDING AFFINITY PREDICTED BY RF-SCORE:    0.00 PKD
ROOT
HETATM    1  C   UNL     1      -8.868   9.694  69.302  1.00  0.00    -0.164 C  
HETATM    2  C   UNL     1     -10.407   9.700  69.320  1.00  0.00    -0.223 C  
HETATM    3  C   UNL     1     -10.904   8.632  70.336  1.00  0.00    -0.250 C  
HETATM    4  C   UNL     1     -10.982  11.117  69.659  1.00  0.00    -0.254 C  
HETATM    5  C   UNL     1     -12.521  11.112  69.710  1.00  0.00    -0.230 C  
HETATM    6  C   UNL     1     -10.481  12.272  68.743  1.00  0.00    -0.187 C  
ENDROOT
BRANCH   3   7
HETATM    7  C   UNL     1     -10.564   7.199  69.989  1.00  0.00    -0.248 A  
HETATM    8  C   UNL     1     -10.562   6.773  68.650  1.00  0.00    -0.263 A  
HETATM    9  C   UNL     1     -10.189   6.293  70.997  1.00  0.00    -0.234 A  
HETATM   10  C   UNL     1     -10.204   5.465  68.345  1.00  0.00    -0.163 A  
HETATM   11  H   UNL     1      -9.262   2.685  69.736  1.00  0.00     0.000 HD 
HETATM   12  O   UNL     1     -10.173   5.001  67.058  1.00  0.00    -0.204 OA 
HETATM   13  C   UNL     1      -9.839   4.981  70.682  1.00  0.00    -0.282 A  
HETATM   14  C   UNL     1      -9.852   4.576  69.357  1.00  0.00    -0.190 A  
HETATM   15  O   UNL     1      -9.503   3.292  69.046  1.00  0.00    -0.163 OA 
HETATM   16  H   UNL     1      -9.929   4.107  66.850  1.00  0.00     0.000 HD 
ENDBRANCH   3   7
BRANCH   6  17
HETATM   17  C   UNL     1     -10.918  12.191  67.296  1.00  0.00    -0.308 A  
HETATM   18  C   UNL     1     -11.548  12.183  64.576  1.00  0.00    -0.336 A  
HETATM   19  C   UNL     1     -12.220  13.037  65.444  1.00  0.00    -0.471 A  
HETATM   20  C   UNL     1     -11.923  13.036  66.803  1.00  0.00    -0.434 A  
HETATM   21  H   UNL     1     -13.354  13.884  63.984  1.00  0.00     0.000 HD 
HETATM   22  C   UNL     1     -10.597  11.295  65.051  1.00  0.00    -0.353 A  
HETATM   23  O   UNL     1     -11.814  12.225  63.238  1.00  0.00    -0.658 OA 
HETATM   24  O   UNL     1     -13.152  13.884  64.912  1.00  0.00    -0.704 OA 
HETATM   25  C   UNL     1     -10.287  11.296  66.412  1.00  0.00    -0.291 A  
HETATM   26  H   UNL     1     -11.356  11.641  62.645  1.00  0.00     0.000 HD 
ENDBRANCH   6  17
TORSDOF 2
ENDMDL
MODEL       38
REMARK 921   NORMALIZED FREE ENERGY PREDICTED BY IDOCK:   -6.22 KCAL/MOL
REMARK 922        TOTAL FREE ENERGY PREDICTED BY IDOCK:   -7.14 KCAL/MOL
REMARK 923 INTER-LIGAND FREE ENERGY PREDICTED BY IDOCK:   -6.59 KCAL/MOL
REMARK 924 INTRA-LIGAND FREE ENERGY PREDICTED BY IDOCK:   -0.55 KCAL/MOL
REMARK 927      BINDING AFFINITY PREDICTED BY RF-SCORE:    0.00 PKD
ROOT
HETATM    1  C   UNL     1     -10.752  15.515  65.623  1.00  0.00    -0.378 C  
HETATM    2  C   UNL     1     -10.841  15.159  67.118  1.00  0.00    -0.320 C  
HETATM    3  C   UNL     1     -11.129  16.454  67.929  1.00  0.00    -0.249 C  
HETATM    4  C   UNL     1     -11.925  14.063  67.395  1.00  0.00    -0.439 C  
HETATM    5  C   UNL     1     -12.035  13.733  68.894  1.00  0.00    -0.394 C  
HETATM    6  C   UNL     1     -11.768  12.752  66.569  1.00  0.00    -0.463 C  
ENDROOT
BRANCH   3   7
HETATM    7  C   UNL     1     -10.039  17.503  67.884  1.00  0.00    -0.330 A  
HETATM    8  C   UNL     1     -10.344  18.830  67.535  1.00  0.00    -0.471 A  
HETATM    9  C   UNL     1      -8.722  17.176  68.248  1.00  0.00    -0.241 A  
HETATM   10  C   UNL     1      -9.340  19.790  67.542  1.00  0.00    -0.340 A  
HETATM   11  H   UNL     1      -6.167  20.163  68.129  1.00  0.00     0.000 HD 
HETATM   12  O   UNL     1      -9.582  21.099  67.223  1.00  0.00    -0.660 OA 
HETATM   13  C   UNL     1      -7.719  18.144  68.245  1.00  0.00    -0.291 A  
HETATM   14  C   UNL     1      -8.036  19.446  67.889  1.00  0.00    -0.300 A  
HETATM   15  O   UNL     1      -7.056  20.398  67.892  1.00  0.00    -0.296 OA 
HETATM   16  H   UNL     1      -8.896  21.755  67.228  1.00  0.00     0.000 HD 
ENDBRANCH   3   7
BRANCH   6  17
HETATM   17  C   UNL     1     -10.534  11.932  66.878  1.00  0.00    -0.253 A  
HETATM   18  C   UNL     1      -8.279  10.488  67.668  1.00  0.00    -0.111 A  
HETATM   19  C   UNL     1      -8.135  11.743  67.087  1.00  0.00    -0.169 A  
HETATM   20  C   UNL     1      -9.252  12.462  66.676  1.00  0.00    -0.218 A  
HETATM   21  H   UNL     1      -6.107  11.755  67.242  1.00  0.00     0.000 HD 
HETATM   22  C   UNL     1      -9.532   9.918  67.819  1.00  0.00    -0.158 A  
HETATM   23  O   UNL     1      -7.179   9.812  68.110  1.00  0.00    -0.078 OA 
HETATM   24  O   UNL     1      -6.870  12.246  66.962  1.00  0.00    -0.125 OA 
HETATM   25  C   UNL     1     -10.659  10.638  67.418  1.00  0.00    -0.304 A  
HETATM   26  H   UNL     1      -7.277   8.954  68.507  1.00  0.00     0.000 HD 
ENDBRANCH   6  17
TORSDOF 2
ENDMDL
MODEL       39
REMARK 921   NORMALIZED FREE ENERGY PREDICTED BY IDOCK:   -6.21 KCAL/MOL
REMARK 922        TOTAL FREE ENERGY PREDICTED BY IDOCK:   -7.13 KCAL/MOL
REMARK 923 INTER-LIGAND FREE ENERGY PREDICTED BY IDOCK:   -7.02 KCAL/MOL
REMARK 924 INTRA-LIGAND FREE ENERGY PREDICTED BY IDOCK:   -0.11 KCAL/MOL
REMARK 927      BINDING AFFINITY PREDICTED BY RF-SCORE:    0.00 PKD
ROOT
HETATM    1  C   UNL     1     -11.945  12.649  67.078  1.00  0.00    -0.330 C  
HETATM    2  C   UNL     1     -10.427  12.578  67.321  1.00  0.00    -0.232 C  
HETATM    3  C   UNL     1      -9.986  13.832  68.128  1.00  0.00    -0.242 C  
HETATM    4  C   UNL     1     -10.013  11.257  68.053  1.00  0.00    -0.191 C  
HETATM    5  C   UNL     1      -8.498  11.204  68.325  1.00  0.00    -0.145 C  
HETATM    6  C   UNL     1     -10.479   9.942  67.362  1.00  0.00    -0.325 C  
ENDROOT
BRANCH   3   7
HETATM    7  C   UNL     1     -10.164  15.156  67.418  1.00  0.00    -0.235 A  
HETATM    8  C   UNL     1     -10.520  15.192  66.059  1.00  0.00    -0.330 A  
HETATM    9  C   UNL     1     -10.035  16.365  68.125  1.00  0.00    -0.242 A  
HETATM   10  C   UNL     1     -10.724  16.417  65.434  1.00  0.00    -0.296 A  
HETATM   11  H   UNL     1     -10.676  19.614  66.003  1.00  0.00     0.000 HD 
HETATM   12  O   UNL     1     -11.083  16.510  64.117  1.00  0.00    -1.280 OA 
HETATM   13  C   UNL     1     -10.235  17.588  67.488  1.00  0.00    -0.340 A  
HETATM   14  C   UNL     1     -10.575  17.605  66.144  1.00  0.00    -0.220 A  
HETATM   15  O   UNL     1     -10.777  18.803  65.519  1.00  0.00    -0.569 OA 
HETATM   16  H   UNL     1     -11.222  17.347  63.690  1.00  0.00     0.000 HD 
ENDBRANCH   3   7
BRANCH   6  17
HETATM   17  C   UNL     1      -9.852   9.658  66.014  1.00  0.00    -0.345 A  
HETATM   18  C   UNL     1      -8.505   9.242  63.604  1.00  0.00    -0.195 A  
HETATM   19  C   UNL     1      -9.389  10.308  63.733  1.00  0.00    -0.295 A  
HETATM   20  C   UNL     1     -10.076  10.513  64.925  1.00  0.00    -0.403 A  
HETATM   21  H   UNL     1      -9.065  11.010  61.852  1.00  0.00     0.000 HD 
HETATM   22  C   UNL     1      -8.317   8.348  64.645  1.00  0.00    -0.137 A  
HETATM   23  O   UNL     1      -7.802   9.078  62.446  1.00  0.00    -0.116 OA 
HETATM   24  O   UNL     1      -9.534  11.150  62.666  1.00  0.00    -0.322 OA 
HETATM   25  C   UNL     1      -8.995   8.554  65.848  1.00  0.00    -0.235 A  
HETATM   26  H   UNL     1      -7.198   8.349  62.357  1.00  0.00     0.000 HD 
ENDBRANCH   6  17
TORSDOF 2
ENDMDL
MODEL       40
REMARK 921   NORMALIZED FREE ENERGY PREDICTED BY IDOCK:   -6.21 KCAL/MOL
REMARK 922        TOTAL FREE ENERGY PREDICTED BY IDOCK:   -7.12 KCAL/MOL
REMARK 923 INTER-LIGAND FREE ENERGY PREDICTED BY IDOCK:   -7.17 KCAL/MOL
REMARK 924 INTRA-LIGAND FREE ENERGY PREDICTED BY IDOCK:    0.04 KCAL/MOL
REMARK 927      BINDING AFFINITY PREDICTED BY RF-SCORE:    0.00 PKD
ROOT
HETATM    1  C   UNL     1     -11.920  13.414  66.944  1.00  0.00    -0.437 C  
HETATM    2  C   UNL     1     -10.528  13.493  67.595  1.00  0.00    -0.239 C  
HETATM    3  C   UNL     1     -10.139  12.086  68.130  1.00  0.00    -0.200 C  
HETATM    4  C   UNL     1      -9.448  14.041  66.601  1.00  0.00    -0.300 C  
HETATM    5  C   UNL     1      -8.050  14.088  67.244  1.00  0.00    -0.174 C  
HETATM    6  C   UNL     1      -9.783  15.414  65.949  1.00  0.00    -0.392 C  
ENDROOT
BRANCH   3   7
HETATM    7  C   UNL     1     -11.015  11.551  69.243  1.00  0.00    -0.261 A  
HETATM    8  C   UNL     1     -11.808  12.424  70.006  1.00  0.00    -0.363 A  
HETATM    9  C   UNL     1     -11.089  10.168  69.486  1.00  0.00    -0.295 A  
HETATM   10  C   UNL     1     -12.640  11.911  70.993  1.00  0.00    -0.283 A  
HETATM   11  H   UNL     1     -13.544   9.112  72.371  1.00  0.00     0.000 HD 
HETATM   12  O   UNL     1     -13.443  12.714  71.758  1.00  0.00    -0.379 OA 
HETATM   13  C   UNL     1     -11.921   9.663  70.483  1.00  0.00    -0.241 A  
HETATM   14  C   UNL     1     -12.689  10.540  71.233  1.00  0.00    -0.428 A  
HETATM   15  O   UNL     1     -13.510  10.047  72.208  1.00  0.00    -0.417 OA 
HETATM   16  H   UNL     1     -14.011  12.363  72.433  1.00  0.00     0.000 HD 
ENDBRANCH   3   7
BRANCH   6  17
HETATM   17  C   UNL     1      -9.831  16.591  66.899  1.00  0.00    -0.262 A  
HETATM   18  C   UNL     1     -10.147  18.773  68.612  1.00  0.00    -0.380 A  
HETATM   19  C   UNL     1      -9.718  18.971  67.304  1.00  0.00    -0.314 A  
HETATM   20  C   UNL     1      -9.543  17.888  66.449  1.00  0.00    -0.294 A  
HETATM   21  H   UNL     1      -9.623  20.995  67.474  1.00  0.00     0.000 HD 
HETATM   22  C   UNL     1     -10.376  17.496  69.097  1.00  0.00    -0.239 A  
HETATM   23  O   UNL     1     -10.360  19.846  69.428  1.00  0.00    -0.636 OA 
HETATM   24  O   UNL     1      -9.503  20.256  66.890  1.00  0.00    -0.377 OA 
HETATM   25  C   UNL     1     -10.212  16.405  68.241  1.00  0.00    -0.255 A  
HETATM   26  H   UNL     1     -10.653  19.712  70.322  1.00  0.00     0.000 HD 
ENDBRANCH   6  17
TORSDOF 2
ENDMDL
MODEL       41
REMARK 921   NORMALIZED FREE ENERGY PREDICTED BY IDOCK:   -6.18 KCAL/MOL
REMARK 922        TOTAL FREE ENERGY PREDICTED BY IDOCK:   -7.09 KCAL/MOL
REMARK 923 INTER-LIGAND FREE ENERGY PREDICTED BY IDOCK:   -6.50 KCAL/MOL
REMARK 924 INTRA-LIGAND FREE ENERGY PREDICTED BY IDOCK:   -0.59 KCAL/MOL
REMARK 927      BINDING AFFINITY PREDICTED BY RF-SCORE:    0.00 PKD
ROOT
HETATM    1  C   UNL     1      -9.243  13.370  68.919  1.00  0.00     0.234 C  
HETATM    2  C   UNL     1     -10.621  13.016  68.331  1.00  0.00    -0.264 C  
HETATM    3  C   UNL     1     -11.529  14.277  68.379  1.00  0.00    -0.331 C  
HETATM    4  C   UNL     1     -10.508  12.452  66.874  1.00  0.00    -0.243 C  
HETATM    5  C   UNL     1     -11.890  12.130  66.276  1.00  0.00    -0.320 C  
HETATM    6  C   UNL     1      -9.555  11.232  66.707  1.00  0.00    -0.214 C  
ENDROOT
BRANCH   3   7
HETATM    7  C   UNL     1     -11.861  14.785  69.765  1.00  0.00    -0.362 A  
HETATM    8  C   UNL     1     -12.681  14.031  70.622  1.00  0.00    -0.373 A  
HETATM    9  C   UNL     1     -11.305  15.988  70.233  1.00  0.00    -0.391 A  
HETATM   10  C   UNL     1     -12.939  14.491  71.907  1.00  0.00    -0.341 A  
HETATM   11  H   UNL     1     -12.283  16.956  73.918  1.00  0.00     0.000 HD 
HETATM   12  O   UNL     1     -13.720  13.791  72.787  1.00  0.00    -0.699 OA 
HETATM   13  C   UNL     1     -11.575  16.445  71.522  1.00  0.00    -0.328 A  
HETATM   14  C   UNL     1     -12.394  15.693  72.350  1.00  0.00    -0.426 A  
HETATM   15  O   UNL     1     -12.655  16.136  73.616  1.00  0.00    -0.499 OA 
HETATM   16  H   UNL     1     -13.897  14.106  73.666  1.00  0.00     0.000 HD 
ENDBRANCH   3   7
BRANCH   6  17
HETATM   17  C   UNL     1      -9.995   9.963  67.406  1.00  0.00    -0.235 A  
HETATM   18  C   UNL     1     -10.584   7.567  68.712  1.00  0.00    -0.156 A  
HETATM   19  C   UNL     1     -10.641   7.636  67.325  1.00  0.00    -0.318 A  
HETATM   20  C   UNL     1     -10.365   8.830  66.667  1.00  0.00    -0.298 A  
HETATM   21  H   UNL     1     -11.139   5.678  67.091  1.00  0.00     0.000 HD 
HETATM   22  C   UNL     1     -10.284   8.690  69.465  1.00  0.00    -0.209 A  
HETATM   23  O   UNL     1     -10.811   6.379  69.345  1.00  0.00    -0.252 OA 
HETATM   24  O   UNL     1     -10.950   6.493  66.641  1.00  0.00    -0.293 OA 
HETATM   25  C   UNL     1      -9.995   9.889  68.811  1.00  0.00    -0.183 A  
HETATM   26  H   UNL     1     -10.773   6.332  70.293  1.00  0.00     0.000 HD 
ENDBRANCH   6  17
TORSDOF 2
ENDMDL
MODEL       42
REMARK 921   NORMALIZED FREE ENERGY PREDICTED BY IDOCK:   -6.16 KCAL/MOL
REMARK 922        TOTAL FREE ENERGY PREDICTED BY IDOCK:   -7.07 KCAL/MOL
REMARK 923 INTER-LIGAND FREE ENERGY PREDICTED BY IDOCK:   -6.46 KCAL/MOL
REMARK 924 INTRA-LIGAND FREE ENERGY PREDICTED BY IDOCK:   -0.61 KCAL/MOL
REMARK 927      BINDING AFFINITY PREDICTED BY RF-SCORE:    0.00 PKD
ROOT
HETATM    1  C   UNL     1      -8.479  10.667  68.389  1.00  0.00    -0.132 C  
HETATM    2  C   UNL     1      -9.988  10.873  68.606  1.00  0.00    -0.196 C  
HETATM    3  C   UNL     1     -10.414  10.148  69.913  1.00  0.00    -0.322 C  
HETATM    4  C   UNL     1     -10.371  12.392  68.647  1.00  0.00    -0.198 C  
HETATM    5  C   UNL     1     -11.877  12.595  68.897  1.00  0.00    -0.345 C  
HETATM    6  C   UNL     1      -9.917  13.224  67.412  1.00  0.00    -0.233 C  
ENDROOT
BRANCH   3   7
HETATM    7  C   UNL     1     -10.266   8.642  69.898  1.00  0.00    -0.206 A  
HETATM    8  C   UNL     1     -10.730   7.893  68.804  1.00  0.00    -0.082 A  
HETATM    9  C   UNL     1      -9.609   7.982  70.952  1.00  0.00    -0.179 A  
HETATM   10  C   UNL     1     -10.546   6.516  68.787  1.00  0.00    -0.243 A  
HETATM   11  H   UNL     1      -9.297   4.083  70.540  1.00  0.00     0.000 HD 
HETATM   12  O   UNL     1     -10.967   5.739  67.741  1.00  0.00    -0.252 OA 
HETATM   13  C   UNL     1      -9.435   6.600  70.928  1.00  0.00    -0.169 A  
HETATM   14  C   UNL     1      -9.908   5.875  69.845  1.00  0.00    -0.174 A  
HETATM   15  O   UNL     1      -9.733   4.520  69.817  1.00  0.00    -0.182 OA 
HETATM   16  H   UNL     1     -10.841   4.798  67.729  1.00  0.00     0.000 HD 
ENDBRANCH   3   7
BRANCH   6  17
HETATM   17  C   UNL     1     -10.581  12.860  66.102  1.00  0.00    -0.287 A  
HETATM   18  C   UNL     1     -11.925  12.027  63.801  1.00  0.00    -0.490 A  
HETATM   19  C   UNL     1     -10.646  11.553  64.071  1.00  0.00    -0.379 A  
HETATM   20  C   UNL     1      -9.963  11.975  65.206  1.00  0.00    -0.273 A  
HETATM   21  H   UNL     1     -10.570  10.360  62.425  1.00  0.00     0.000 HD 
HETATM   22  C   UNL     1     -12.529  12.950  64.638  1.00  0.00    -0.499 A  
HETATM   23  O   UNL     1     -12.604  11.570  62.708  1.00  0.00    -0.905 OA 
HETATM   24  O   UNL     1     -10.104  10.648  63.200  1.00  0.00    -0.297 OA 
HETATM   25  C   UNL     1     -11.854  13.370  65.786  1.00  0.00    -0.412 A  
HETATM   26  H   UNL     1     -13.478  11.894  62.524  1.00  0.00     0.000 HD 
ENDBRANCH   6  17
TORSDOF 2
ENDMDL
MODEL       43
REMARK 921   NORMALIZED FREE ENERGY PREDICTED BY IDOCK:   -6.16 KCAL/MOL
REMARK 922        TOTAL FREE ENERGY PREDICTED BY IDOCK:   -7.07 KCAL/MOL
REMARK 923 INTER-LIGAND FREE ENERGY PREDICTED BY IDOCK:   -6.58 KCAL/MOL
REMARK 924 INTRA-LIGAND FREE ENERGY PREDICTED BY IDOCK:   -0.49 KCAL/MOL
REMARK 927      BINDING AFFINITY PREDICTED BY RF-SCORE:    0.00 PKD
ROOT
HETATM    1  C   UNL     1     -10.260  11.449  65.619  1.00  0.00    -0.298 C  
HETATM    2  C   UNL     1     -10.744  11.690  67.060  1.00  0.00    -0.292 C  
HETATM    3  C   UNL     1     -11.838  12.794  67.047  1.00  0.00    -0.428 C  
HETATM    4  C   UNL     1     -11.272  10.374  67.726  1.00  0.00    -0.309 C  
HETATM    5  C   UNL     1     -11.786  10.624  69.156  1.00  0.00    -0.287 C  
HETATM    6  C   UNL     1     -10.273   9.180  67.718  1.00  0.00    -0.278 C  
ENDROOT
BRANCH   3   7
HETATM    7  C   UNL     1     -11.372  14.164  66.602  1.00  0.00    -0.352 A  
HETATM    8  C   UNL     1     -11.681  14.636  65.315  1.00  0.00    -0.346 A  
HETATM    9  C   UNL     1     -10.678  15.002  67.492  1.00  0.00    -0.284 A  
HETATM   10  C   UNL     1     -11.284  15.914  64.939  1.00  0.00    -0.337 A  
HETATM   11  H   UNL     1      -9.718  18.533  66.051  1.00  0.00     0.000 HD 
HETATM   12  O   UNL     1     -11.568  16.429  63.703  1.00  0.00    -1.514 OA 
HETATM   13  C   UNL     1     -10.278  16.279  67.103  1.00  0.00    -0.276 A  
HETATM   14  C   UNL     1     -10.582  16.725  65.826  1.00  0.00    -0.250 A  
HETATM   15  O   UNL     1     -10.197  17.979  65.445  1.00  0.00    -0.488 OA 
HETATM   16  H   UNL     1     -11.297  17.302  63.446  1.00  0.00     0.000 HD 
ENDBRANCH   3   7
BRANCH   6  17
HETATM   17  C   UNL     1      -9.025   9.370  68.553  1.00  0.00    -0.128 A  
HETATM   18  C   UNL     1      -6.847   9.859  70.230  1.00  0.00    -0.138 A  
HETATM   19  C   UNL     1      -6.993  10.579  69.049  1.00  0.00    -0.076 A  
HETATM   20  C   UNL     1      -8.066  10.330  68.200  1.00  0.00    -0.110 A  
HETATM   21  H   UNL     1      -5.333  11.714  69.352  1.00  0.00     0.000 HD 
HETATM   22  C   UNL     1      -7.747   8.862  70.567  1.00  0.00    -0.106 A  
HETATM   23  O   UNL     1      -5.816  10.144  71.078  1.00  0.00    -0.100 OA 
HETATM   24  O   UNL     1      -6.065  11.544  68.772  1.00  0.00    -0.047 OA 
HETATM   25  C   UNL     1      -8.833   8.615  69.726  1.00  0.00    -0.137 A  
HETATM   26  H   UNL     1      -5.716   9.652  71.885  1.00  0.00     0.000 HD 
ENDBRANCH   6  17
TORSDOF 2
ENDMDL
MODEL       44
REMARK 921   NORMALIZED FREE ENERGY PREDICTED BY IDOCK:   -6.14 KCAL/MOL
REMARK 922        TOTAL FREE ENERGY PREDICTED BY IDOCK:   -7.05 KCAL/MOL
REMARK 923 INTER-LIGAND FREE ENERGY PREDICTED BY IDOCK:   -7.17 KCAL/MOL
REMARK 924 INTRA-LIGAND FREE ENERGY PREDICTED BY IDOCK:    0.12 KCAL/MOL
REMARK 927      BINDING AFFINITY PREDICTED BY RF-SCORE:    0.00 PKD
ROOT
HETATM    1  C   UNL     1      -9.388  14.403  68.831  1.00  0.00    -0.096 C  
HETATM    2  C   UNL     1     -10.403  15.416  68.272  1.00  0.00    -0.238 C  
HETATM    3  C   UNL     1     -10.941  16.289  69.440  1.00  0.00    -0.337 C  
HETATM    4  C   UNL     1      -9.782  16.302  67.140  1.00  0.00    -0.240 C  
HETATM    5  C   UNL     1     -10.790  17.336  66.605  1.00  0.00     0.049 C  
HETATM    6  C   UNL     1      -9.145  15.515  65.957  1.00  0.00    -0.316 C  
ENDROOT
BRANCH   3   7
HETATM    7  C   UNL     1     -11.734  15.546  70.494  1.00  0.00    -0.377 A  
HETATM    8  C   UNL     1     -12.025  16.156  71.726  1.00  0.00    -0.560 A  
HETATM    9  C   UNL     1     -12.238  14.260  70.230  1.00  0.00    -0.407 A  
HETATM   10  C   UNL     1     -12.792  15.476  72.665  1.00  0.00    -0.425 A  
HETATM   11  H   UNL     1     -14.348  12.665  73.140  1.00  0.00     0.000 HD 
HETATM   12  O   UNL     1     -13.116  16.027  73.875  1.00  0.00    -0.797 OA 
HETATM   13  C   UNL     1     -13.000  13.584  71.180  1.00  0.00    -0.338 A  
HETATM   14  C   UNL     1     -13.269  14.197  72.394  1.00  0.00    -0.472 A  
HETATM   15  O   UNL     1     -14.022  13.538  73.325  1.00  0.00     0.276 OA 
HETATM   16  H   UNL     1     -13.641  15.563  74.517  1.00  0.00     0.000 HD 
ENDBRANCH   3   7
BRANCH   6  17
HETATM   17  C   UNL     1     -10.112  14.715  65.111  1.00  0.00    -0.359 A  
HETATM   18  C   UNL     1     -12.008  13.188  63.746  1.00  0.00    -0.508 A  
HETATM   19  C   UNL     1     -10.780  12.632  64.087  1.00  0.00    -0.406 A  
HETATM   20  C   UNL     1      -9.824  13.390  64.753  1.00  0.00    -0.021 A  
HETATM   21  H   UNL     1     -11.218  10.802  63.314  1.00  0.00     0.000 HD 
HETATM   22  C   UNL     1     -12.289  14.513  64.033  1.00  0.00    -0.207 A  
HETATM   23  O   UNL     1     -12.957  12.421  63.134  1.00  0.00    -0.636 OA 
HETATM   24  O   UNL     1     -10.564  11.320  63.769  1.00  0.00    -0.355 OA 
HETATM   25  C   UNL     1     -11.338  15.278  64.711  1.00  0.00    -0.396 A  
HETATM   26  H   UNL     1     -13.796  12.801  62.900  1.00  0.00     0.000 HD 
ENDBRANCH   6  17
TORSDOF 2
ENDMDL
MODEL       45
REMARK 921   NORMALIZED FREE ENERGY PREDICTED BY IDOCK:   -6.09 KCAL/MOL
REMARK 922        TOTAL FREE ENERGY PREDICTED BY IDOCK:   -7.00 KCAL/MOL
REMARK 923 INTER-LIGAND FREE ENERGY PREDICTED BY IDOCK:   -6.49 KCAL/MOL
REMARK 924 INTRA-LIGAND FREE ENERGY PREDICTED BY IDOCK:   -0.51 KCAL/MOL
REMARK 927      BINDING AFFINITY PREDICTED BY RF-SCORE:    0.00 PKD
ROOT
HETATM    1  C   UNL     1      -7.471  13.565  67.632  1.00  0.00    -0.187 C  
HETATM    2  C   UNL     1      -8.898  14.138  67.685  1.00  0.00    -0.194 C  
HETATM    3  C   UNL     1      -9.917  12.966  67.600  1.00  0.00    -0.218 C  
HETATM    4  C   UNL     1      -9.134  15.004  68.969  1.00  0.00    -0.205 C  
HETATM    5  C   UNL     1     -10.572  15.549  69.035  1.00  0.00    -0.246 C  
HETATM    6  C   UNL     1      -8.113  16.160  69.185  1.00  0.00    -0.230 C  
ENDROOT
BRANCH   3   7
HETATM    7  C   UNL     1      -9.902  12.186  66.303  1.00  0.00    -0.250 A  
HETATM    8  C   UNL     1     -10.609  12.654  65.183  1.00  0.00    -0.324 A  
HETATM    9  C   UNL     1      -9.132  11.015  66.188  1.00  0.00    -0.208 A  
HETATM   10  C   UNL     1     -10.548  11.948  63.988  1.00  0.00    -0.374 A  
HETATM   11  H   UNL     1      -9.228   9.299  62.650  1.00  0.00     0.000 HD 
HETATM   12  O   UNL     1     -11.206  12.365  62.863  1.00  0.00    -0.633 OA 
HETATM   13  C   UNL     1      -9.082  10.310  64.987  1.00  0.00    -0.244 A  
HETATM   14  C   UNL     1      -9.794  10.781  63.894  1.00  0.00    -0.332 A  
HETATM   15  O   UNL     1      -9.742  10.095  62.714  1.00  0.00    -0.260 OA 
HETATM   16  H   UNL     1     -11.164  11.883  62.046  1.00  0.00     0.000 HD 
ENDBRANCH   3   7
BRANCH   6  17
HETATM   17  C   UNL     1      -8.158  17.268  68.155  1.00  0.00    -0.229 A  
HETATM   18  C   UNL     1      -8.049  19.398  66.353  1.00  0.00    -0.318 A  
HETATM   19  C   UNL     1      -8.875  19.471  67.469  1.00  0.00    -0.307 A  
HETATM   20  C   UNL     1      -8.948  18.409  68.363  1.00  0.00    -0.336 A  
HETATM   21  H   UNL     1      -9.535  21.349  67.053  1.00  0.00     0.000 HD 
HETATM   22  C   UNL     1      -7.310  18.256  66.093  1.00  0.00    -0.298 A  
HETATM   23  O   UNL     1      -7.951  20.465  65.507  1.00  0.00    -0.499 OA 
HETATM   24  O   UNL     1      -9.584  20.624  67.663  1.00  0.00    -0.381 OA 
HETATM   25  C   UNL     1      -7.369  17.189  66.992  1.00  0.00    -0.216 A  
HETATM   26  H   UNL     1      -7.387  20.415  64.744  1.00  0.00     0.000 HD 
ENDBRANCH   6  17
TORSDOF 2
ENDMDL
MODEL       46
REMARK 921   NORMALIZED FREE ENERGY PREDICTED BY IDOCK:   -6.09 KCAL/MOL
REMARK 922        TOTAL FREE ENERGY PREDICTED BY IDOCK:   -6.99 KCAL/MOL
REMARK 923 INTER-LIGAND FREE ENERGY PREDICTED BY IDOCK:   -6.77 KCAL/MOL
REMARK 924 INTRA-LIGAND FREE ENERGY PREDICTED BY IDOCK:   -0.22 KCAL/MOL
REMARK 927      BINDING AFFINITY PREDICTED BY RF-SCORE:    0.00 PKD
ROOT
HETATM    1  C   UNL     1     -10.796  12.428  68.848  1.00  0.00    -0.239 C  
HETATM    2  C   UNL     1      -9.554  11.994  68.051  1.00  0.00    -0.199 C  
HETATM    3  C   UNL     1      -8.875  13.256  67.446  1.00  0.00    -0.204 C  
HETATM    4  C   UNL     1      -8.549  11.176  68.931  1.00  0.00    -0.092 C  
HETATM    5  C   UNL     1      -7.292  10.772  68.139  1.00  0.00    -0.088 C  
HETATM    6  C   UNL     1      -9.155   9.932  69.645  1.00  0.00    -0.245 C  
ENDROOT
BRANCH   3   7
HETATM    7  C   UNL     1      -9.700  14.010  66.426  1.00  0.00    -0.309 A  
HETATM    8  C   UNL     1     -10.379  13.318  65.409  1.00  0.00    -0.316 A  
HETATM    9  C   UNL     1      -9.844  15.406  66.519  1.00  0.00    -0.288 A  
HETATM   10  C   UNL     1     -11.168  14.022  64.507  1.00  0.00    -0.350 A  
HETATM   11  H   UNL     1     -12.145  17.032  63.776  1.00  0.00     0.000 HD 
HETATM   12  O   UNL     1     -11.860  13.398  63.505  1.00  0.00    -0.680 OA 
HETATM   13  C   UNL     1     -10.631  16.104  65.606  1.00  0.00    -0.377 A  
HETATM   14  C   UNL     1     -11.286  15.406  64.603  1.00  0.00    -0.355 A  
HETATM   15  O   UNL     1     -12.064  16.088  63.710  1.00  0.00    -0.882 OA 
HETATM   16  H   UNL     1     -12.400  13.880  62.889  1.00  0.00     0.000 HD 
ENDBRANCH   3   7
BRANCH   6  17
HETATM   17  C   UNL     1      -9.613   8.816  68.731  1.00  0.00    -0.160 A  
HETATM   18  C   UNL     1     -10.675   6.811  67.103  1.00  0.00    -0.371 A  
HETATM   19  C   UNL     1     -10.207   6.501  68.376  1.00  0.00    -0.172 A  
HETATM   20  C   UNL     1      -9.662   7.491  69.187  1.00  0.00    -0.166 A  
HETATM   21  H   UNL     1     -10.698   4.532  68.247  1.00  0.00     0.000 HD 
HETATM   22  C   UNL     1     -10.577   8.101  66.608  1.00  0.00    -0.076 A  
HETATM   23  O   UNL     1     -11.250   5.842  66.334  1.00  0.00    -0.743 OA 
HETATM   24  O   UNL     1     -10.326   5.207  68.801  1.00  0.00    -0.166 OA 
HETATM   25  C   UNL     1     -10.042   9.102  67.421  1.00  0.00    -0.289 A  
HETATM   26  H   UNL     1     -11.569   6.053  65.464  1.00  0.00     0.000 HD 
ENDBRANCH   6  17
TORSDOF 2
ENDMDL
MODEL       47
REMARK 921   NORMALIZED FREE ENERGY PREDICTED BY IDOCK:   -6.06 KCAL/MOL
REMARK 922        TOTAL FREE ENERGY PREDICTED BY IDOCK:   -6.96 KCAL/MOL
REMARK 923 INTER-LIGAND FREE ENERGY PREDICTED BY IDOCK:   -6.64 KCAL/MOL
REMARK 924 INTRA-LIGAND FREE ENERGY PREDICTED BY IDOCK:   -0.32 KCAL/MOL
REMARK 927      BINDING AFFINITY PREDICTED BY RF-SCORE:    0.00 PKD
ROOT
HETATM    1  C   UNL     1     -12.265  10.813  69.280  1.00  0.00    -0.185 C  
HETATM    2  C   UNL     1     -10.790  10.583  68.907  1.00  0.00    -0.275 C  
HETATM    3  C   UNL     1     -10.240  11.859  68.208  1.00  0.00    -0.207 C  
HETATM    4  C   UNL     1      -9.923  10.201  70.155  1.00  0.00    -0.154 C  
HETATM    5  C   UNL     1      -8.442  10.003  69.784  1.00  0.00    -0.189 C  
HETATM    6  C   UNL     1     -10.438   8.978  70.970  1.00  0.00    -0.339 C  
ENDROOT
BRANCH   3   7
HETATM    7  C   UNL     1     -10.886  12.202  66.884  1.00  0.00    -0.291 A  
HETATM    8  C   UNL     1     -10.555  11.483  65.723  1.00  0.00    -0.315 A  
HETATM    9  C   UNL     1     -11.869  13.205  66.811  1.00  0.00    -0.444 A  
HETATM   10  C   UNL     1     -11.190  11.782  64.524  1.00  0.00    -0.305 A  
HETATM   11  H   UNL     1     -13.422  13.763  63.241  1.00  0.00     0.000 HD 
HETATM   12  O   UNL     1     -10.915  11.105  63.367  1.00  0.00    -0.682 OA 
HETATM   13  C   UNL     1     -12.496  13.503  65.603  1.00  0.00    -0.528 A  
HETATM   14  C   UNL     1     -12.149  12.790  64.466  1.00  0.00    -0.414 A  
HETATM   15  O   UNL     1     -12.767  13.076  63.281  1.00  0.00    -0.663 OA 
HETATM   16  H   UNL     1     -11.350  11.310  62.547  1.00  0.00     0.000 HD 
ENDBRANCH   3   7
BRANCH   6  17
HETATM   17  C   UNL     1     -10.392   7.649  70.248  1.00  0.00    -0.214 A  
HETATM   18  C   UNL     1     -10.087   5.245  68.860  1.00  0.00    -0.184 A  
HETATM   19  C   UNL     1     -10.688   6.336  68.241  1.00  0.00    -0.288 A  
HETATM   20  C   UNL     1     -10.858   7.532  68.930  1.00  0.00    -0.063 A  
HETATM   21  H   UNL     1     -10.960   5.379  66.467  1.00  0.00     0.000 HD 
HETATM   22  C   UNL     1      -9.677   5.318  70.181  1.00  0.00    -0.262 A  
HETATM   23  O   UNL     1      -9.883   4.092  68.159  1.00  0.00    -0.107 OA 
HETATM   24  O   UNL     1     -11.076   6.196  66.938  1.00  0.00    -0.334 OA 
HETATM   25  C   UNL     1      -9.834   6.519  70.876  1.00  0.00    -0.201 A  
HETATM   26  H   UNL     1      -9.473   3.346  68.582  1.00  0.00     0.000 HD 
ENDBRANCH   6  17
TORSDOF 2
ENDMDL
MODEL       48
REMARK 921   NORMALIZED FREE ENERGY PREDICTED BY IDOCK:   -6.05 KCAL/MOL
REMARK 922        TOTAL FREE ENERGY PREDICTED BY IDOCK:   -6.95 KCAL/MOL
REMARK 923 INTER-LIGAND FREE ENERGY PREDICTED BY IDOCK:   -6.43 KCAL/MOL
REMARK 924 INTRA-LIGAND FREE ENERGY PREDICTED BY IDOCK:   -0.52 KCAL/MOL
REMARK 927      BINDING AFFINITY PREDICTED BY RF-SCORE:    0.00 PKD
ROOT
HETATM    1  C   UNL     1     -11.585  10.698  69.276  1.00  0.00    -0.346 C  
HETATM    2  C   UNL     1     -10.166  10.440  68.738  1.00  0.00    -0.201 C  
HETATM    3  C   UNL     1      -9.740  11.638  67.843  1.00  0.00    -0.181 C  
HETATM    4  C   UNL     1      -9.137  10.200  69.894  1.00  0.00    -0.110 C  
HETATM    5  C   UNL     1      -7.713   9.975  69.354  1.00  0.00    -0.129 C  
HETATM    6  C   UNL     1      -9.515   9.068  70.894  1.00  0.00    -0.331 C  
ENDROOT
BRANCH   3   7
HETATM    7  C   UNL     1     -10.560  11.833  66.586  1.00  0.00    -0.275 A  
HETATM    8  C   UNL     1     -11.575  12.803  66.542  1.00  0.00    -0.435 A  
HETATM    9  C   UNL     1     -10.275  11.087  65.429  1.00  0.00    -0.333 A  
HETATM   10  C   UNL     1     -12.288  13.000  65.366  1.00  0.00    -0.486 A  
HETATM   11  H   UNL     1     -12.520  11.924  62.310  1.00  0.00     0.000 HD 
HETATM   12  O   UNL     1     -13.278  13.939  65.264  1.00  0.00    -0.774 OA 
HETATM   13  C   UNL     1     -11.000  11.286  64.255  1.00  0.00    -0.358 A  
HETATM   14  C   UNL     1     -12.005  12.241  64.234  1.00  0.00    -0.407 A  
HETATM   15  O   UNL     1     -12.713  12.442  63.083  1.00  0.00    -0.618 OA 
HETATM   16  H   UNL     1     -13.766  14.073  64.460  1.00  0.00     0.000 HD 
ENDBRANCH   3   7
BRANCH   6  17
HETATM   17  C   UNL     1      -9.534   7.669  70.316  1.00  0.00    -0.161 A  
HETATM   18  C   UNL     1      -9.667   5.019  69.447  1.00  0.00    -0.184 A  
HETATM   19  C   UNL     1      -8.487   5.517  69.989  1.00  0.00    -0.120 A  
HETATM   20  C   UNL     1      -8.407   6.840  70.410  1.00  0.00    -0.130 A  
HETATM   21  H   UNL     1      -7.485   3.754  69.827  1.00  0.00     0.000 HD 
HETATM   22  C   UNL     1     -10.772   5.838  69.285  1.00  0.00    -0.386 A  
HETATM   23  O   UNL     1      -9.748   3.707  69.080  1.00  0.00    -0.151 OA 
HETATM   24  O   UNL     1      -7.430   4.658  70.114  1.00  0.00    -0.052 OA 
HETATM   25  C   UNL     1     -10.703   7.165  69.715  1.00  0.00    -0.257 A  
HETATM   26  H   UNL     1     -10.554   3.367  68.709  1.00  0.00     0.000 HD 
ENDBRANCH   6  17
TORSDOF 2
ENDMDL
MODEL       49
REMARK 921   NORMALIZED FREE ENERGY PREDICTED BY IDOCK:   -6.03 KCAL/MOL
REMARK 922        TOTAL FREE ENERGY PREDICTED BY IDOCK:   -6.92 KCAL/MOL
REMARK 923 INTER-LIGAND FREE ENERGY PREDICTED BY IDOCK:   -6.62 KCAL/MOL
REMARK 924 INTRA-LIGAND FREE ENERGY PREDICTED BY IDOCK:   -0.30 KCAL/MOL
REMARK 927      BINDING AFFINITY PREDICTED BY RF-SCORE:    0.00 PKD
ROOT
HETATM    1  C   UNL     1     -11.012  11.228  68.763  1.00  0.00    -0.270 C  
HETATM    2  C   UNL     1      -9.777  10.948  67.889  1.00  0.00    -0.178 C  
HETATM    3  C   UNL     1      -9.266  12.290  67.292  1.00  0.00    -0.185 C  
HETATM    4  C   UNL     1      -8.648  10.216  68.691  1.00  0.00    -0.123 C  
HETATM    5  C   UNL     1      -7.400   9.967  67.823  1.00  0.00    -0.089 C  
HETATM    6  C   UNL     1      -9.083   8.896  69.394  1.00  0.00    -0.145 C  
ENDROOT
BRANCH   3   7
HETATM    7  C   UNL     1     -10.217  12.981  66.340  1.00  0.00    -0.283 A  
HETATM    8  C   UNL     1      -9.980  14.305  65.934  1.00  0.00    -0.340 A  
HETATM    9  C   UNL     1     -11.316  12.286  65.805  1.00  0.00    -0.400 A  
HETATM   10  C   UNL     1     -10.839  14.909  65.024  1.00  0.00    -0.423 A  
HETATM   11  H   UNL     1     -13.517  14.342  63.276  1.00  0.00     0.000 HD 
HETATM   12  O   UNL     1     -10.649  16.191  64.585  1.00  0.00    -0.745 OA 
HETATM   13  C   UNL     1     -12.176  12.902  64.898  1.00  0.00    -0.504 A  
HETATM   14  C   UNL     1     -11.933  14.213  64.516  1.00  0.00    -0.458 A  
HETATM   15  O   UNL     1     -12.771  14.817  63.622  1.00  0.00    -0.713 OA 
HETATM   16  H   UNL     1     -11.236  16.604  63.963  1.00  0.00     0.000 HD 
ENDBRANCH   3   7
BRANCH   6  17
HETATM   17  C   UNL     1      -9.472   7.764  68.469  1.00  0.00    -0.148 A  
HETATM   18  C   UNL     1     -10.310   5.585  66.937  1.00  0.00    -0.265 A  
HETATM   19  C   UNL     1      -9.058   5.572  67.541  1.00  0.00    -0.107 A  
HETATM   20  C   UNL     1      -8.626   6.660  68.292  1.00  0.00    -0.119 A  
HETATM   21  H   UNL     1      -8.584   3.709  66.877  1.00  0.00     0.000 HD 
HETATM   22  C   UNL     1     -11.136   6.692  67.045  1.00  0.00    -0.395 A  
HETATM   23  O   UNL     1     -10.743   4.494  66.241  1.00  0.00    -0.435 OA 
HETATM   24  O   UNL     1      -8.289   4.452  67.390  1.00  0.00    -0.100 OA 
HETATM   25  C   UNL     1     -10.714   7.783  67.807  1.00  0.00    -0.197 A  
HETATM   26  H   UNL     1     -11.598   4.503  65.828  1.00  0.00     0.000 HD 
ENDBRANCH   6  17
TORSDOF 2
ENDMDL
MODEL       50
REMARK 921   NORMALIZED FREE ENERGY PREDICTED BY IDOCK:   -6.02 KCAL/MOL
REMARK 922        TOTAL FREE ENERGY PREDICTED BY IDOCK:   -6.92 KCAL/MOL
REMARK 923 INTER-LIGAND FREE ENERGY PREDICTED BY IDOCK:   -6.31 KCAL/MOL
REMARK 924 INTRA-LIGAND FREE ENERGY PREDICTED BY IDOCK:   -0.61 KCAL/MOL
REMARK 927      BINDING AFFINITY PREDICTED BY RF-SCORE:    0.00 PKD
ROOT
HETATM    1  C   UNL     1     -11.756  11.948  67.553  1.00  0.00    -0.335 C  
HETATM    2  C   UNL     1     -11.612  12.570  68.953  1.00  0.00    -0.364 C  
HETATM    3  C   UNL     1     -11.855  14.103  68.851  1.00  0.00    -0.382 C  
HETATM    4  C   UNL     1     -12.582  11.909  69.990  1.00  0.00     0.026 C  
HETATM    5  C   UNL     1     -12.460  12.556  71.381  1.00  0.00    -0.205 C  
HETATM    6  C   UNL     1     -12.470  10.360  70.108  1.00  0.00    -0.247 C  
ENDROOT
BRANCH   3   7
HETATM    7  C   UNL     1     -10.844  14.867  68.024  1.00  0.00    -0.263 A  
HETATM    8  C   UNL     1     -11.266  15.680  66.959  1.00  0.00    -0.127 A  
HETATM    9  C   UNL     1      -9.477  14.818  68.349  1.00  0.00    -0.213 A  
HETATM   10  C   UNL     1     -10.328  16.410  66.238  1.00  0.00    -0.329 A  
HETATM   11  H   UNL     1      -7.141  17.009  66.067  1.00  0.00     0.000 HD 
HETATM   12  O   UNL     1     -10.685  17.227  65.200  1.00  0.00    -0.687 OA 
HETATM   13  C   UNL     1      -8.543  15.548  67.616  1.00  0.00    -0.175 A  
HETATM   14  C   UNL     1      -8.976  16.337  66.562  1.00  0.00    -0.278 A  
HETATM   15  O   UNL     1      -8.063  17.058  65.846  1.00  0.00    -0.494 OA 
HETATM   16  H   UNL     1     -10.044  17.725  64.707  1.00  0.00     0.000 HD 
ENDBRANCH   3   7
BRANCH   6  17
HETATM   17  C   UNL     1     -11.160   9.844  70.664  1.00  0.00    -0.409 A  
HETATM   18  C   UNL     1      -8.775   8.703  71.560  1.00  0.00    -0.202 A  
HETATM   19  C   UNL     1      -9.932   8.590  72.324  1.00  0.00    -0.315 A  
HETATM   20  C   UNL     1     -11.120   9.169  71.893  1.00  0.00    -0.385 A  
HETATM   21  H   UNL     1      -9.049   7.479  73.781  1.00  0.00     0.000 HD 
HETATM   22  C   UNL     1      -8.777   9.420  70.375  1.00  0.00    -0.278 A  
HETATM   23  O   UNL     1      -7.625   8.091  71.970  1.00  0.00    -0.077 OA 
HETATM   24  O   UNL     1      -9.860   7.875  73.487  1.00  0.00    -0.293 OA 
HETATM   25  C   UNL     1      -9.969   9.994  69.931  1.00  0.00    -0.280 A  
HETATM   26  H   UNL     1      -6.835   8.168  71.448  1.00  0.00     0.000 HD 
ENDBRANCH   6  17
TORSDOF 2
ENDMDL
MODEL       51
REMARK 921   NORMALIZED FREE ENERGY PREDICTED BY IDOCK:   -6.00 KCAL/MOL
REMARK 922        TOTAL FREE ENERGY PREDICTED BY IDOCK:   -6.89 KCAL/MOL
REMARK 923 INTER-LIGAND FREE ENERGY PREDICTED BY IDOCK:   -6.48 KCAL/MOL
REMARK 924 INTRA-LIGAND FREE ENERGY PREDICTED BY IDOCK:   -0.41 KCAL/MOL
REMARK 927      BINDING AFFINITY PREDICTED BY RF-SCORE:    0.00 PKD
ROOT
HETATM    1  C   UNL     1     -12.286  11.345  70.042  1.00  0.00    -0.377 C  
HETATM    2  C   UNL     1     -11.103  11.095  69.090  1.00  0.00    -0.306 C  
HETATM    3  C   UNL     1     -10.737   9.584  69.126  1.00  0.00    -0.228 C  
HETATM    4  C   UNL     1     -11.417  11.569  67.631  1.00  0.00    -0.357 C  
HETATM    5  C   UNL     1     -10.244  11.287  66.673  1.00  0.00    -0.268 C  
HETATM    6  C   UNL     1     -11.869  13.054  67.500  1.00  0.00    -0.408 C  
ENDROOT
BRANCH   3   7
HETATM    7  C   UNL     1     -10.230   9.070  70.456  1.00  0.00    -0.268 A  
HETATM    8  C   UNL     1     -11.125   8.548  71.405  1.00  0.00    -0.328 A  
HETATM    9  C   UNL     1      -8.851   9.054  70.732  1.00  0.00    -0.281 A  
HETATM   10  C   UNL     1     -10.637   8.039  72.602  1.00  0.00    -0.350 A  
HETATM   11  H   UNL     1      -7.869   7.549  74.230  1.00  0.00     0.000 HD 
HETATM   12  O   UNL     1     -11.462   7.507  73.556  1.00  0.00    -0.608 OA 
HETATM   13  C   UNL     1      -8.372   8.548  71.939  1.00  0.00    -0.218 A  
HETATM   14  C   UNL     1      -9.270   8.046  72.868  1.00  0.00    -0.265 A  
HETATM   15  O   UNL     1      -8.802   7.544  74.049  1.00  0.00    -0.212 OA 
HETATM   16  H   UNL     1     -11.128   7.159  74.374  1.00  0.00     0.000 HD 
ENDBRANCH   3   7
BRANCH   6  17
HETATM   17  C   UNL     1     -10.821  14.087  67.852  1.00  0.00    -0.255 A  
HETATM   18  C   UNL     1      -9.056  16.152  68.497  1.00  0.00    -0.208 A  
HETATM   19  C   UNL     1      -9.169  15.717  67.180  1.00  0.00    -0.212 A  
HETATM   20  C   UNL     1     -10.034  14.678  66.853  1.00  0.00    -0.254 A  
HETATM   21  H   UNL     1      -7.835  17.069  66.454  1.00  0.00     0.000 HD 
HETATM   22  C   UNL     1      -9.777  15.539  69.509  1.00  0.00    -0.282 A  
HETATM   23  O   UNL     1      -8.239  17.203  68.799  1.00  0.00    -0.259 OA 
HETATM   24  O   UNL     1      -8.425  16.360  66.230  1.00  0.00    -0.299 OA 
HETATM   25  C   UNL     1     -10.655  14.503  69.186  1.00  0.00    -0.242 A  
HETATM   26  H   UNL     1      -8.162  17.500  69.698  1.00  0.00     0.000 HD 
ENDBRANCH   6  17
TORSDOF 2
ENDMDL
MODEL       52
REMARK 921   NORMALIZED FREE ENERGY PREDICTED BY IDOCK:   -5.98 KCAL/MOL
REMARK 922        TOTAL FREE ENERGY PREDICTED BY IDOCK:   -6.87 KCAL/MOL
REMARK 923 INTER-LIGAND FREE ENERGY PREDICTED BY IDOCK:   -6.27 KCAL/MOL
REMARK 924 INTRA-LIGAND FREE ENERGY PREDICTED BY IDOCK:   -0.60 KCAL/MOL
REMARK 927      BINDING AFFINITY PREDICTED BY RF-SCORE:    0.00 PKD
ROOT
HETATM    1  C   UNL     1      -8.565  10.784  69.249  1.00  0.00    -0.047 C  
HETATM    2  C   UNL     1     -10.036  10.943  68.826  1.00  0.00    -0.203 C  
HETATM    3  C   UNL     1     -10.950  10.487  69.998  1.00  0.00    -0.351 C  
HETATM    4  C   UNL     1     -10.363  12.412  68.389  1.00  0.00    -0.236 C  
HETATM    5  C   UNL     1     -11.843  12.576  67.999  1.00  0.00    -0.382 C  
HETATM    6  C   UNL     1      -9.447  12.989  67.270  1.00  0.00    -0.224 C  
ENDROOT
BRANCH   3   7
HETATM    7  C   UNL     1     -10.849   9.022  70.368  1.00  0.00    -0.284 A  
HETATM    8  C   UNL     1     -10.838   8.628  71.716  1.00  0.00    -0.395 A  
HETATM    9  C   UNL     1     -10.827   8.037  69.365  1.00  0.00    -0.104 A  
HETATM   10  C   UNL     1     -10.791   7.277  72.037  1.00  0.00    -0.233 A  
HETATM   11  H   UNL     1     -10.678   4.331  70.674  1.00  0.00     0.000 HD 
HETATM   12  O   UNL     1     -10.790   6.837  73.332  1.00  0.00    -0.383 OA 
HETATM   13  C   UNL     1     -10.772   6.684  69.696  1.00  0.00    -0.306 A  
HETATM   14  C   UNL     1     -10.751   6.314  71.032  1.00  0.00    -0.259 A  
HETATM   15  O   UNL     1     -10.704   4.988  71.359  1.00  0.00    -0.151 OA 
HETATM   16  H   UNL     1     -10.757   5.913  73.552  1.00  0.00     0.000 HD 
ENDBRANCH   3   7
BRANCH   6  17
HETATM   17  C   UNL     1      -9.570  12.320  65.919  1.00  0.00    -0.207 A  
HETATM   18  C   UNL     1      -9.996  10.993  63.499  1.00  0.00    -0.370 A  
HETATM   19  C   UNL     1      -9.166  10.433  64.464  1.00  0.00    -0.246 A  
HETATM   20  C   UNL     1      -8.936  11.094  65.666  1.00  0.00    -0.195 A  
HETATM   21  H   UNL     1      -8.772   8.759  63.379  1.00  0.00     0.000 HD 
HETATM   22  C   UNL     1     -10.581  12.232  63.701  1.00  0.00    -0.501 A  
HETATM   23  O   UNL     1     -10.252  10.314  62.343  1.00  0.00    -0.673 OA 
HETATM   24  O   UNL     1      -8.614   9.210  64.199  1.00  0.00    -0.191 OA 
HETATM   25  C   UNL     1     -10.363  12.897  64.910  1.00  0.00    -0.329 A  
HETATM   26  H   UNL     1     -10.818  10.697  61.683  1.00  0.00     0.000 HD 
ENDBRANCH   6  17
TORSDOF 2
ENDMDL
MODEL       53
REMARK 921   NORMALIZED FREE ENERGY PREDICTED BY IDOCK:   -5.97 KCAL/MOL
REMARK 922        TOTAL FREE ENERGY PREDICTED BY IDOCK:   -6.86 KCAL/MOL
REMARK 923 INTER-LIGAND FREE ENERGY PREDICTED BY IDOCK:   -6.26 KCAL/MOL
REMARK 924 INTRA-LIGAND FREE ENERGY PREDICTED BY IDOCK:   -0.60 KCAL/MOL
REMARK 927      BINDING AFFINITY PREDICTED BY RF-SCORE:    0.00 PKD
ROOT
HETATM    1  C   UNL     1     -12.156  11.381  68.509  1.00  0.00    -0.168 C  
HETATM    2  C   UNL     1     -10.985  11.616  67.539  1.00  0.00    -0.312 C  
HETATM    3  C   UNL     1     -10.242  10.270  67.309  1.00  0.00    -0.267 C  
HETATM    4  C   UNL     1     -11.464  12.238  66.183  1.00  0.00    -0.429 C  
HETATM    5  C   UNL     1     -10.295  12.441  65.202  1.00  0.00    -0.313 C  
HETATM    6  C   UNL     1     -12.288  13.553  66.313  1.00  0.00    -0.440 C  
ENDROOT
BRANCH   3   7
HETATM    7  C   UNL     1      -9.570   9.683  68.532  1.00  0.00    -0.152 A  
HETATM    8  C   UNL     1      -8.471  10.331  69.119  1.00  0.00    -0.164 A  
HETATM    9  C   UNL     1     -10.075   8.514  69.128  1.00  0.00    -0.207 A  
HETATM   10  C   UNL     1      -7.894   9.802  70.268  1.00  0.00    -0.171 A  
HETATM   11  H   UNL     1      -8.163   7.327  72.353  1.00  0.00     0.000 HD 
HETATM   12  O   UNL     1      -6.830  10.399  70.888  1.00  0.00    -0.376 OA 
HETATM   13  C   UNL     1      -9.486   7.987  70.276  1.00  0.00    -0.167 A  
HETATM   14  C   UNL     1      -8.396   8.635  70.836  1.00  0.00    -0.157 A  
HETATM   15  O   UNL     1      -7.820   8.124  71.965  1.00  0.00    -0.100 OA 
HETATM   16  H   UNL     1      -6.436  10.038  71.673  1.00  0.00     0.000 HD 
ENDBRANCH   3   7
BRANCH   6  17
HETATM   17  C   UNL     1     -11.530  14.746  66.853  1.00  0.00    -0.354 A  
HETATM   18  C   UNL     1     -10.325  17.069  67.827  1.00  0.00    -0.335 A  
HETATM   19  C   UNL     1     -10.182  16.718  66.489  1.00  0.00    -0.316 A  
HETATM   20  C   UNL     1     -10.765  15.555  65.999  1.00  0.00    -0.331 A  
HETATM   21  H   UNL     1      -9.077  18.359  66.016  1.00  0.00     0.000 HD 
HETATM   22  C   UNL     1     -11.022  16.252  68.702  1.00  0.00    -0.340 A  
HETATM   23  O   UNL     1      -9.788  18.236  68.287  1.00  0.00    -0.312 OA 
HETATM   24  O   UNL     1      -9.476  17.565  65.681  1.00  0.00    -0.498 OA 
HETATM   25  C   UNL     1     -11.620  15.088  68.215  1.00  0.00    -0.355 A  
HETATM   26  H   UNL     1      -9.886  18.476  69.202  1.00  0.00     0.000 HD 
ENDBRANCH   6  17
TORSDOF 2
ENDMDL
MODEL       54
REMARK 921   NORMALIZED FREE ENERGY PREDICTED BY IDOCK:   -5.97 KCAL/MOL
REMARK 922        TOTAL FREE ENERGY PREDICTED BY IDOCK:   -6.86 KCAL/MOL
REMARK 923 INTER-LIGAND FREE ENERGY PREDICTED BY IDOCK:   -6.25 KCAL/MOL
REMARK 924 INTRA-LIGAND FREE ENERGY PREDICTED BY IDOCK:   -0.61 KCAL/MOL
REMARK 927      BINDING AFFINITY PREDICTED BY RF-SCORE:    0.00 PKD
ROOT
HETATM    1  C   UNL     1      -8.252   9.090  68.469  1.00  0.00    -0.112 C  
HETATM    2  C   UNL     1      -9.555   8.333  68.158  1.00  0.00    -0.163 C  
HETATM    3  C   UNL     1      -9.452   7.716  66.735  1.00  0.00    -0.244 C  
HETATM    4  C   UNL     1      -9.864   7.236  69.232  1.00  0.00    -0.166 C  
HETATM    5  C   UNL     1     -11.151   6.458  68.900  1.00  0.00    -0.420 C  
HETATM    6  C   UNL     1      -9.911   7.743  70.704  1.00  0.00    -0.182 C  
ENDROOT
BRANCH   3   7
HETATM    7  C   UNL     1      -9.348   8.713  65.601  1.00  0.00    -0.173 A  
HETATM    8  C   UNL     1     -10.186   9.840  65.566  1.00  0.00    -0.114 A  
HETATM    9  C   UNL     1      -8.373   8.553  64.601  1.00  0.00    -0.156 A  
HETATM   10  C   UNL     1     -10.047  10.769  64.542  1.00  0.00    -0.350 A  
HETATM   11  H   UNL     1      -8.304  11.383  61.871  1.00  0.00     0.000 HD 
HETATM   12  O   UNL     1     -10.827  11.891  64.467  1.00  0.00    -0.287 OA 
HETATM   13  C   UNL     1      -8.245   9.486  63.574  1.00  0.00    -0.164 A  
HETATM   14  C   UNL     1      -9.087  10.588  63.551  1.00  0.00    -0.247 A  
HETATM   15  O   UNL     1      -8.959  11.507  62.548  1.00  0.00    -0.328 OA 
HETATM   16  H   UNL     1     -10.732  12.526  63.767  1.00  0.00     0.000 HD 
ENDBRANCH   3   7
BRANCH   6  17
HETATM   17  C   UNL     1     -11.038   8.699  71.027  1.00  0.00    -0.316 A  
HETATM   18  C   UNL     1     -12.987  10.544  71.796  1.00  0.00    -0.476 A  
HETATM   19  C   UNL     1     -13.066   9.226  72.231  1.00  0.00    -0.441 A  
HETATM   20  C   UNL     1     -12.108   8.297  71.840  1.00  0.00    -0.382 A  
HETATM   21  H   UNL     1     -14.747   9.525  73.335  1.00  0.00     0.000 HD 
HETATM   22  C   UNL     1     -11.976  10.948  70.940  1.00  0.00    -0.416 A  
HETATM   23  O   UNL     1     -13.906  11.458  72.223  1.00  0.00    -0.326 OA 
HETATM   24  O   UNL     1     -14.093   8.891  73.069  1.00  0.00    -0.396 OA 
HETATM   25  C   UNL     1     -11.004  10.024  70.553  1.00  0.00    -0.392 A  
HETATM   26  H   UNL     1     -13.853  12.359  71.925  1.00  0.00     0.000 HD 
ENDBRANCH   6  17
TORSDOF 2
ENDMDL
MODEL       55
REMARK 921   NORMALIZED FREE ENERGY PREDICTED BY IDOCK:   -5.93 KCAL/MOL
REMARK 922        TOTAL FREE ENERGY PREDICTED BY IDOCK:   -6.82 KCAL/MOL
REMARK 923 INTER-LIGAND FREE ENERGY PREDICTED BY IDOCK:   -6.95 KCAL/MOL
REMARK 924 INTRA-LIGAND FREE ENERGY PREDICTED BY IDOCK:    0.13 KCAL/MOL
REMARK 927      BINDING AFFINITY PREDICTED BY RF-SCORE:    0.00 PKD
ROOT
HETATM    1  C   UNL     1     -10.030   8.259  66.990  1.00  0.00    -0.325 C  
HETATM    2  C   UNL     1      -9.727   9.483  67.872  1.00  0.00    -0.171 C  
HETATM    3  C   UNL     1      -9.320   8.994  69.291  1.00  0.00    -0.150 C  
HETATM    4  C   UNL     1      -8.618  10.395  67.246  1.00  0.00    -0.126 C  
HETATM    5  C   UNL     1      -8.293  11.601  68.147  1.00  0.00    -0.154 C  
HETATM    6  C   UNL     1      -8.897  10.874  65.791  1.00  0.00    -0.202 C  
ENDROOT
BRANCH   3   7
HETATM    7  C   UNL     1     -10.402   8.267  70.061  1.00  0.00    -0.212 A  
HETATM    8  C   UNL     1     -11.150   8.939  71.043  1.00  0.00    -0.340 A  
HETATM    9  C   UNL     1     -10.710   6.928  69.762  1.00  0.00    -0.276 A  
HETATM   10  C   UNL     1     -12.168   8.269  71.709  1.00  0.00    -0.326 A  
HETATM   11  H   UNL     1     -13.646   5.381  71.872  1.00  0.00     0.000 HD 
HETATM   12  O   UNL     1     -12.936   8.879  72.664  1.00  0.00    -0.501 OA 
HETATM   13  C   UNL     1     -11.729   6.262  70.440  1.00  0.00    -0.290 A  
HETATM   14  C   UNL     1     -12.450   6.938  71.413  1.00  0.00    -0.367 A  
HETATM   15  O   UNL     1     -13.453   6.289  72.075  1.00  0.00     0.059 OA 
HETATM   16  H   UNL     1     -13.632   8.421  73.120  1.00  0.00     0.000 HD 
ENDBRANCH   3   7
BRANCH   6  17
HETATM   17  C   UNL     1     -10.076  11.809  65.629  1.00  0.00    -0.278 A  
HETATM   18  C   UNL     1     -12.357  13.413  65.494  1.00  0.00    -0.480 A  
HETATM   19  C   UNL     1     -12.177  12.379  64.582  1.00  0.00    -0.425 A  
HETATM   20  C   UNL     1     -11.037  11.585  64.632  1.00  0.00    -0.317 A  
HETATM   21  H   UNL     1     -13.945  12.702  63.629  1.00  0.00     0.000 HD 
HETATM   22  C   UNL     1     -11.391  13.693  66.446  1.00  0.00    -0.331 A  
HETATM   23  O   UNL     1     -13.502  14.156  65.465  1.00  0.00    -0.710 OA 
HETATM   24  O   UNL     1     -13.166  12.160  63.663  1.00  0.00    -0.770 OA 
HETATM   25  C   UNL     1     -10.248  12.894  66.509  1.00  0.00    -0.264 A  
HETATM   26  H   UNL     1     -13.624  14.863  66.088  1.00  0.00     0.000 HD 
ENDBRANCH   6  17
TORSDOF 2
ENDMDL
MODEL       56
REMARK 921   NORMALIZED FREE ENERGY PREDICTED BY IDOCK:   -5.92 KCAL/MOL
REMARK 922        TOTAL FREE ENERGY PREDICTED BY IDOCK:   -6.80 KCAL/MOL
REMARK 923 INTER-LIGAND FREE ENERGY PREDICTED BY IDOCK:   -6.33 KCAL/MOL
REMARK 924 INTRA-LIGAND FREE ENERGY PREDICTED BY IDOCK:   -0.48 KCAL/MOL
REMARK 927      BINDING AFFINITY PREDICTED BY RF-SCORE:    0.00 PKD
ROOT
HETATM    1  C   UNL     1      -7.845  11.716  68.283  1.00  0.00    -0.136 C  
HETATM    2  C   UNL     1      -9.165  11.126  67.759  1.00  0.00    -0.153 C  
HETATM    3  C   UNL     1      -9.661  11.984  66.561  1.00  0.00    -0.230 C  
HETATM    4  C   UNL     1      -9.014   9.620  67.354  1.00  0.00    -0.141 C  
HETATM    5  C   UNL     1     -10.329   9.042  66.799  1.00  0.00    -0.310 C  
HETATM    6  C   UNL     1      -8.448   8.689  68.467  1.00  0.00    -0.131 C  
ENDROOT
BRANCH   3   7
HETATM    7  C   UNL     1     -10.026  13.415  66.894  1.00  0.00    -0.252 A  
HETATM    8  C   UNL     1     -11.083  13.692  67.778  1.00  0.00    -0.293 A  
HETATM    9  C   UNL     1      -9.273  14.481  66.371  1.00  0.00    -0.264 A  
HETATM   10  C   UNL     1     -11.375  15.010  68.108  1.00  0.00    -0.330 A  
HETATM   11  H   UNL     1     -10.419  18.060  67.530  1.00  0.00     0.000 HD 
HETATM   12  O   UNL     1     -12.385  15.336  68.972  1.00  0.00    -0.584 OA 
HETATM   13  C   UNL     1      -9.578  15.800  66.702  1.00  0.00    -0.266 A  
HETATM   14  C   UNL     1     -10.630  16.055  67.567  1.00  0.00    -0.313 A  
HETATM   15  O   UNL     1     -10.927  17.347  67.899  1.00  0.00    -0.332 OA 
HETATM   16  H   UNL     1     -12.584  16.237  69.198  1.00  0.00     0.000 HD 
ENDBRANCH   3   7
BRANCH   6  17
HETATM   17  C   UNL     1      -9.337   8.509  69.679  1.00  0.00    -0.157 A  
HETATM   18  C   UNL     1     -10.840   7.999  71.975  1.00  0.00    -0.272 A  
HETATM   19  C   UNL     1     -11.251   7.494  70.747  1.00  0.00    -0.270 A  
HETATM   20  C   UNL     1     -10.517   7.756  69.595  1.00  0.00    -0.229 A  
HETATM   21  H   UNL     1     -12.878   6.539  71.508  1.00  0.00     0.000 HD 
HETATM   22  C   UNL     1      -9.712   8.798  72.070  1.00  0.00    -0.370 A  
HETATM   23  O   UNL     1     -11.542   7.697  73.106  1.00  0.00    -0.617 OA 
HETATM   24  O   UNL     1     -12.377   6.718  70.721  1.00  0.00    -0.377 OA 
HETATM   25  C   UNL     1      -8.964   9.056  70.920  1.00  0.00    -0.300 A  
HETATM   26  H   UNL     1     -11.261   8.042  73.946  1.00  0.00     0.000 HD 
ENDBRANCH   6  17
TORSDOF 2
ENDMDL
MODEL       57
REMARK 921   NORMALIZED FREE ENERGY PREDICTED BY IDOCK:   -5.87 KCAL/MOL
REMARK 922        TOTAL FREE ENERGY PREDICTED BY IDOCK:   -6.75 KCAL/MOL
REMARK 923 INTER-LIGAND FREE ENERGY PREDICTED BY IDOCK:   -6.28 KCAL/MOL
REMARK 924 INTRA-LIGAND FREE ENERGY PREDICTED BY IDOCK:   -0.47 KCAL/MOL
REMARK 927      BINDING AFFINITY PREDICTED BY RF-SCORE:    0.00 PKD
ROOT
HETATM    1  C   UNL     1     -11.624  10.718  67.674  1.00  0.00    -0.087 C  
HETATM    2  C   UNL     1     -10.386  11.115  68.496  1.00  0.00    -0.207 C  
HETATM    3  C   UNL     1      -9.551   9.839  68.800  1.00  0.00    -0.155 C  
HETATM    4  C   UNL     1      -9.522  12.198  67.766  1.00  0.00    -0.192 C  
HETATM    5  C   UNL     1      -8.266  12.570  68.576  1.00  0.00    -0.079 C  
HETATM    6  C   UNL     1     -10.289  13.487  67.348  1.00  0.00    -0.237 C  
ENDROOT
BRANCH   3   7
HETATM    7  C   UNL     1     -10.235   8.809  69.674  1.00  0.00    -0.210 A  
HETATM    8  C   UNL     1     -10.936   9.206  70.825  1.00  0.00    -0.332 A  
HETATM    9  C   UNL     1     -10.227   7.451  69.310  1.00  0.00    -0.199 A  
HETATM   10  C   UNL     1     -11.595   8.253  71.591  1.00  0.00    -0.284 A  
HETATM   11  H   UNL     1     -12.194   5.064  71.739  1.00  0.00     0.000 HD 
HETATM   12  O   UNL     1     -12.303   8.585  72.715  1.00  0.00    -0.517 OA 
HETATM   13  C   UNL     1     -10.885   6.501  70.089  1.00  0.00    -0.336 A  
HETATM   14  C   UNL     1     -11.563   6.909  71.227  1.00  0.00    -0.310 A  
HETATM   15  O   UNL     1     -12.215   5.980  71.988  1.00  0.00    -0.257 OA 
HETATM   16  H   UNL     1     -12.753   7.933  73.238  1.00  0.00     0.000 HD 
ENDBRANCH   3   7
BRANCH   6  17
HETATM   17  C   UNL     1     -10.800  14.339  68.490  1.00  0.00    -0.264 A  
HETATM   18  C   UNL     1     -11.545  15.865  70.706  1.00  0.00    -0.410 A  
HETATM   19  C   UNL     1     -11.993  14.555  70.580  1.00  0.00    -0.318 A  
HETATM   20  C   UNL     1     -11.640  13.793  69.471  1.00  0.00    -0.355 A  
HETATM   21  H   UNL     1     -13.004  14.565  72.345  1.00  0.00     0.000 HD 
HETATM   22  C   UNL     1     -10.768  16.446  69.718  1.00  0.00    -0.324 A  
HETATM   23  O   UNL     1     -11.859  16.588  71.820  1.00  0.00    -0.664 OA 
HETATM   24  O   UNL     1     -12.763  14.044  71.588  1.00  0.00    -0.324 OA 
HETATM   25  C   UNL     1     -10.400  15.683  68.607  1.00  0.00    -0.216 A  
HETATM   26  H   UNL     1     -11.553  17.484  71.907  1.00  0.00     0.000 HD 
ENDBRANCH   6  17
TORSDOF 2
ENDMDL
MODEL       58
REMARK 921   NORMALIZED FREE ENERGY PREDICTED BY IDOCK:   -5.86 KCAL/MOL
REMARK 922        TOTAL FREE ENERGY PREDICTED BY IDOCK:   -6.74 KCAL/MOL
REMARK 923 INTER-LIGAND FREE ENERGY PREDICTED BY IDOCK:   -6.13 KCAL/MOL
REMARK 924 INTRA-LIGAND FREE ENERGY PREDICTED BY IDOCK:   -0.61 KCAL/MOL
REMARK 927      BINDING AFFINITY PREDICTED BY RF-SCORE:    0.00 PKD
ROOT
HETATM    1  C   UNL     1     -11.911  12.106  66.175  1.00  0.00    -0.327 C  
HETATM    2  C   UNL     1     -10.563  12.369  66.868  1.00  0.00    -0.251 C  
HETATM    3  C   UNL     1      -9.590  11.201  66.541  1.00  0.00    -0.222 C  
HETATM    4  C   UNL     1      -9.951  13.750  66.455  1.00  0.00    -0.301 C  
HETATM    5  C   UNL     1      -8.586  13.995  67.125  1.00  0.00    -0.220 C  
HETATM    6  C   UNL     1     -10.882  14.979  66.672  1.00  0.00    -0.318 C  
ENDROOT
BRANCH   3   7
HETATM    7  C   UNL     1     -10.000   9.845  67.076  1.00  0.00    -0.254 A  
HETATM    8  C   UNL     1      -9.893   8.700  66.269  1.00  0.00    -0.320 A  
HETATM    9  C   UNL     1     -10.437   9.709  68.405  1.00  0.00    -0.258 A  
HETATM   10  C   UNL     1     -10.231   7.458  66.790  1.00  0.00    -0.242 A  
HETATM   11  H   UNL     1     -11.313   6.035  69.502  1.00  0.00     0.000 HD 
HETATM   12  O   UNL     1     -10.134   6.309  66.053  1.00  0.00    -0.399 OA 
HETATM   13  C   UNL     1     -10.781   8.459  68.918  1.00  0.00    -0.095 A  
HETATM   14  C   UNL     1     -10.678   7.341  68.104  1.00  0.00    -0.134 A  
HETATM   15  O   UNL     1     -11.009   6.114  68.606  1.00  0.00    -0.307 OA 
HETATM   16  H   UNL     1     -10.366   5.459  66.410  1.00  0.00     0.000 HD 
ENDBRANCH   3   7
BRANCH   6  17
HETATM   17  C   UNL     1     -11.209  15.301  68.114  1.00  0.00    -0.328 A  
HETATM   18  C   UNL     1     -11.629  15.766  70.835  1.00  0.00    -0.405 A  
HETATM   19  C   UNL     1     -12.349  14.773  70.178  1.00  0.00    -0.330 A  
HETATM   20  C   UNL     1     -12.157  14.546  68.820  1.00  0.00    -0.256 A  
HETATM   21  H   UNL     1     -13.352  14.179  71.845  1.00  0.00     0.000 HD 
HETATM   22  C   UNL     1     -10.735  16.566  70.144  1.00  0.00    -0.168 A  
HETATM   23  O   UNL     1     -11.791  15.949  72.178  1.00  0.00    -0.430 OA 
HETATM   24  O   UNL     1     -13.221  14.023  70.917  1.00  0.00    -0.286 OA 
HETATM   25  C   UNL     1     -10.529  16.336  68.783  1.00  0.00    -0.282 A  
HETATM   26  H   UNL     1     -11.300  16.627  72.627  1.00  0.00     0.000 HD 
ENDBRANCH   6  17
TORSDOF 2
ENDMDL
MODEL       59
REMARK 921   NORMALIZED FREE ENERGY PREDICTED BY IDOCK:   -5.83 KCAL/MOL
REMARK 922        TOTAL FREE ENERGY PREDICTED BY IDOCK:   -6.70 KCAL/MOL
REMARK 923 INTER-LIGAND FREE ENERGY PREDICTED BY IDOCK:   -6.27 KCAL/MOL
REMARK 924 INTRA-LIGAND FREE ENERGY PREDICTED BY IDOCK:   -0.43 KCAL/MOL
REMARK 927      BINDING AFFINITY PREDICTED BY RF-SCORE:    0.00 PKD
ROOT
HETATM    1  C   UNL     1      -8.205   9.900  67.583  1.00  0.00    -0.114 C  
HETATM    2  C   UNL     1      -9.588   9.271  67.339  1.00  0.00    -0.190 C  
HETATM    3  C   UNL     1     -10.205   9.891  66.054  1.00  0.00    -0.269 C  
HETATM    4  C   UNL     1      -9.512   7.710  67.237  1.00  0.00    -0.185 C  
HETATM    5  C   UNL     1     -10.892   7.086  66.960  1.00  0.00    -0.413 C  
HETATM    6  C   UNL     1      -8.836   6.999  68.447  1.00  0.00    -0.123 C  
ENDROOT
BRANCH   3   7
HETATM    7  C   UNL     1     -10.503  11.373  66.126  1.00  0.00    -0.303 A  
HETATM    8  C   UNL     1     -11.189  11.908  67.229  1.00  0.00    -0.376 A  
HETATM    9  C   UNL     1     -10.044  12.240  65.118  1.00  0.00    -0.284 A  
HETATM   10  C   UNL     1     -11.414  13.277  67.300  1.00  0.00    -0.338 A  
HETATM   11  H   UNL     1     -10.892  16.040  65.675  1.00  0.00     0.000 HD 
HETATM   12  O   UNL     1     -12.066  13.852  68.357  1.00  0.00    -0.410 OA 
HETATM   13  C   UNL     1     -10.281  13.611  65.195  1.00  0.00    -0.349 A  
HETATM   14  C   UNL     1     -10.969  14.120  66.286  1.00  0.00    -0.303 A  
HETATM   15  O   UNL     1     -11.197  15.464  66.367  1.00  0.00    -0.282 OA 
HETATM   16  H   UNL     1     -12.221  14.788  68.406  1.00  0.00     0.000 HD 
ENDBRANCH   3   7
BRANCH   6  17
HETATM   17  C   UNL     1      -9.581   7.103  69.761  1.00  0.00    -0.155 A  
HETATM   18  C   UNL     1     -11.069   7.472  72.094  1.00  0.00    -0.256 A  
HETATM   19  C   UNL     1      -9.786   8.000  71.995  1.00  0.00    -0.211 A  
HETATM   20  C   UNL     1      -9.032   7.807  70.842  1.00  0.00    -0.148 A  
HETATM   21  H   UNL     1      -9.828   8.860  73.837  1.00  0.00     0.000 HD 
HETATM   22  C   UNL     1     -11.606   6.718  71.064  1.00  0.00    -0.388 A  
HETATM   23  O   UNL     1     -11.818   7.707  73.211  1.00  0.00    -0.631 OA 
HETATM   24  O   UNL     1      -9.313   8.729  73.050  1.00  0.00    -0.204 OA 
HETATM   25  C   UNL     1     -10.859   6.530  69.899  1.00  0.00    -0.341 A  
HETATM   26  H   UNL     1     -12.694   7.346  73.279  1.00  0.00     0.000 HD 
ENDBRANCH   6  17
TORSDOF 2
ENDMDL
MODEL       60
REMARK 921   NORMALIZED FREE ENERGY PREDICTED BY IDOCK:   -5.69 KCAL/MOL
REMARK 922        TOTAL FREE ENERGY PREDICTED BY IDOCK:   -6.55 KCAL/MOL
REMARK 923 INTER-LIGAND FREE ENERGY PREDICTED BY IDOCK:   -6.34 KCAL/MOL
REMARK 924 INTRA-LIGAND FREE ENERGY PREDICTED BY IDOCK:   -0.21 KCAL/MOL
REMARK 927      BINDING AFFINITY PREDICTED BY RF-SCORE:    0.00 PKD
ROOT
HETATM    1  C   UNL     1      -8.066  12.047  68.754  1.00  0.00     0.007 C  
HETATM    2  C   UNL     1      -9.382  11.526  68.150  1.00  0.00    -0.185 C  
HETATM    3  C   UNL     1      -9.692  12.323  66.852  1.00  0.00    -0.217 C  
HETATM    4  C   UNL     1      -9.328   9.985  67.872  1.00  0.00    -0.151 C  
HETATM    5  C   UNL     1     -10.633   9.472  67.237  1.00  0.00    -0.317 C  
HETATM    6  C   UNL     1      -8.947   9.103  69.098  1.00  0.00    -0.144 C  
ENDROOT
BRANCH   3   7
HETATM    7  C   UNL     1      -9.958  13.800  67.045  1.00  0.00    -0.251 A  
HETATM    8  C   UNL     1      -9.343  14.748  66.211  1.00  0.00    -0.310 A  
HETATM    9  C   UNL     1     -10.869  14.236  68.024  1.00  0.00    -0.247 A  
HETATM   10  C   UNL     1      -9.633  16.097  66.373  1.00  0.00    -0.287 A  
HETATM   11  H   UNL     1     -11.410  18.129  68.181  1.00  0.00     0.000 HD 
HETATM   12  O   UNL     1      -9.073  17.062  65.581  1.00  0.00    -0.500 OA 
HETATM   13  C   UNL     1     -11.148  15.592  68.184  1.00  0.00    -0.330 A  
HETATM   14  C   UNL     1     -10.525  16.515  67.358  1.00  0.00    -0.310 A  
HETATM   15  O   UNL     1     -10.802  17.844  67.509  1.00  0.00    -0.364 OA 
HETATM   16  H   UNL     1      -9.271  17.985  65.692  1.00  0.00     0.000 HD 
ENDBRANCH   3   7
BRANCH   6  17
HETATM   17  C   UNL     1      -9.952   9.092  70.229  1.00  0.00    -0.246 A  
HETATM   18  C   UNL     1     -11.953   8.970  72.171  1.00  0.00    -0.325 A  
HETATM   19  C   UNL     1     -11.758  10.139  71.445  1.00  0.00    -0.290 A  
HETATM   20  C   UNL     1     -10.753  10.214  70.487  1.00  0.00    -0.295 A  
HETATM   21  H   UNL     1     -13.285  11.138  72.343  1.00  0.00     0.000 HD 
HETATM   22  C   UNL     1     -11.132   7.871  71.978  1.00  0.00    -0.332 A  
HETATM   23  O   UNL     1     -12.973   8.892  73.076  1.00  0.00    -0.681 OA 
HETATM   24  O   UNL     1     -12.599  11.190  71.689  1.00  0.00    -0.351 OA 
HETATM   25  C   UNL     1     -10.128   7.935  71.010  1.00  0.00    -0.212 A  
HETATM   26  H   UNL     1     -13.106   8.093  73.572  1.00  0.00     0.000 HD 
ENDBRANCH   6  17
TORSDOF 2
ENDMDL
MODEL       61
REMARK 921   NORMALIZED FREE ENERGY PREDICTED BY IDOCK:   -5.68 KCAL/MOL
REMARK 922        TOTAL FREE ENERGY PREDICTED BY IDOCK:   -6.53 KCAL/MOL
REMARK 923 INTER-LIGAND FREE ENERGY PREDICTED BY IDOCK:   -5.86 KCAL/MOL
REMARK 924 INTRA-LIGAND FREE ENERGY PREDICTED BY IDOCK:   -0.67 KCAL/MOL
REMARK 927      BINDING AFFINITY PREDICTED BY RF-SCORE:    0.00 PKD
ROOT
HETATM    1  C   UNL     1      -8.493   6.620  70.607  1.00  0.00    -0.138 C  
HETATM    2  C   UNL     1     -10.016   6.498  70.421  1.00  0.00    -0.202 C  
HETATM    3  C   UNL     1     -10.373   5.010  70.144  1.00  0.00    -0.306 C  
HETATM    4  C   UNL     1     -10.802   7.050  71.658  1.00  0.00    -0.249 C  
HETATM    5  C   UNL     1     -12.324   6.896  71.484  1.00  0.00    -0.420 C  
HETATM    6  C   UNL     1     -10.455   8.513  72.065  1.00  0.00    -0.407 C  
ENDROOT
BRANCH   3   7
HETATM    7  C   UNL     1      -9.817   4.438  68.858  1.00  0.00    -0.163 A  
HETATM    8  C   UNL     1     -10.116   5.040  67.624  1.00  0.00    -0.192 A  
HETATM    9  C   UNL     1      -8.947   3.334  68.889  1.00  0.00    -0.186 A  
HETATM   10  C   UNL     1      -9.561   4.529  66.457  1.00  0.00    -0.190 A  
HETATM   11  H   UNL     1      -7.598   2.176  65.380  1.00  0.00     0.000 HD 
HETATM   12  O   UNL     1      -9.809   5.083  65.231  1.00  0.00    -0.351 OA 
HETATM   13  C   UNL     1      -8.401   2.824  67.712  1.00  0.00    -0.094 A  
HETATM   14  C   UNL     1      -8.715   3.424  66.503  1.00  0.00    -0.126 A  
HETATM   15  O   UNL     1      -8.176   2.929  65.349  1.00  0.00    -0.089 OA 
HETATM   16  H   UNL     1      -9.430   4.733  64.433  1.00  0.00     0.000 HD 
ENDBRANCH   3   7
BRANCH   6  17
HETATM   17  C   UNL     1     -10.842   9.576  71.060  1.00  0.00    -0.423 A  
HETATM   18  C   UNL     1     -11.683  11.378  69.101  1.00  0.00    -0.342 A  
HETATM   19  C   UNL     1     -10.454  10.740  68.978  1.00  0.00    -0.215 A  
HETATM   20  C   UNL     1     -10.020   9.853  69.958  1.00  0.00    -0.302 A  
HETATM   21  H   UNL     1     -10.007  11.602  67.191  1.00  0.00     0.000 HD 
HETATM   22  C   UNL     1     -12.482  11.169  70.212  1.00  0.00    -0.354 A  
HETATM   23  O   UNL     1     -12.120  12.211  68.111  1.00  0.00    -0.447 OA 
HETATM   24  O   UNL     1      -9.710  10.996  67.860  1.00  0.00    -0.166 OA 
HETATM   25  C   UNL     1     -12.058  10.271  71.194  1.00  0.00    -0.494 A  
HETATM   26  H   UNL     1     -12.959  12.647  68.194  1.00  0.00     0.000 HD 
ENDBRANCH   6  17
TORSDOF 2
ENDMDL
MODEL       62
REMARK 921   NORMALIZED FREE ENERGY PREDICTED BY IDOCK:   -5.64 KCAL/MOL
REMARK 922        TOTAL FREE ENERGY PREDICTED BY IDOCK:   -6.49 KCAL/MOL
REMARK 923 INTER-LIGAND FREE ENERGY PREDICTED BY IDOCK:   -6.53 KCAL/MOL
REMARK 924 INTRA-LIGAND FREE ENERGY PREDICTED BY IDOCK:    0.04 KCAL/MOL
REMARK 927      BINDING AFFINITY PREDICTED BY RF-SCORE:    0.00 PKD
ROOT
HETATM    1  C   UNL     1     -10.463   7.996  66.851  1.00  0.00    -0.387 C  
HETATM    2  C   UNL     1      -9.533   9.177  67.177  1.00  0.00    -0.197 C  
HETATM    3  C   UNL     1      -8.721   8.842  68.460  1.00  0.00    -0.135 C  
HETATM    4  C   UNL     1      -8.585   9.522  65.979  1.00  0.00    -0.145 C  
HETATM    5  C   UNL     1      -7.632  10.683  66.319  1.00  0.00    -0.137 C  
HETATM    6  C   UNL     1      -9.303   9.799  64.624  1.00  0.00    -0.318 C  
ENDROOT
BRANCH   3   7
HETATM    7  C   UNL     1      -9.539   8.683  69.723  1.00  0.00    -0.171 A  
HETATM    8  C   UNL     1     -10.490   9.654  70.081  1.00  0.00    -0.321 A  
HETATM    9  C   UNL     1      -9.399   7.534  70.521  1.00  0.00    -0.160 A  
HETATM   10  C   UNL     1     -11.264   9.471  71.220  1.00  0.00    -0.382 A  
HETATM   11  H   UNL     1     -11.757   7.391  73.665  1.00  0.00     0.000 HD 
HETATM   12  O   UNL     1     -12.213  10.378  71.608  1.00  0.00    -0.355 OA 
HETATM   13  C   UNL     1     -10.175   7.363  71.666  1.00  0.00    -0.205 A  
HETATM   14  C   UNL     1     -11.102   8.336  72.009  1.00  0.00    -0.311 A  
HETATM   15  O   UNL     1     -11.868   8.166  73.127  1.00  0.00    -0.224 OA 
HETATM   16  H   UNL     1     -12.742  10.253  72.387  1.00  0.00     0.000 HD 
ENDBRANCH   3   7
BRANCH   6  17
HETATM   17  C   UNL     1     -10.171  11.038  64.589  1.00  0.00    -0.392 A  
HETATM   18  C   UNL     1     -11.596  13.433  64.421  1.00  0.00    -0.384 A  
HETATM   19  C   UNL     1     -10.944  13.091  65.601  1.00  0.00    -0.273 A  
HETATM   20  C   UNL     1     -10.245  11.893  65.698  1.00  0.00    -0.280 A  
HETATM   21  H   UNL     1     -11.472  14.798  66.572  1.00  0.00     0.000 HD 
HETATM   22  C   UNL     1     -11.589  12.574  63.335  1.00  0.00    -0.547 A  
HETATM   23  O   UNL     1     -12.239  14.632  64.322  1.00  0.00    -0.539 OA 
HETATM   24  O   UNL     1     -10.995  13.980  66.639  1.00  0.00    -0.295 OA 
HETATM   25  C   UNL     1     -10.880  11.375  63.421  1.00  0.00    -0.375 A  
HETATM   26  H   UNL     1     -12.685  14.866  63.516  1.00  0.00     0.000 HD 
ENDBRANCH   6  17
TORSDOF 2
ENDMDL
MODEL       63
REMARK 921   NORMALIZED FREE ENERGY PREDICTED BY IDOCK:   -5.64 KCAL/MOL
REMARK 922        TOTAL FREE ENERGY PREDICTED BY IDOCK:   -6.49 KCAL/MOL
REMARK 923 INTER-LIGAND FREE ENERGY PREDICTED BY IDOCK:   -5.94 KCAL/MOL
REMARK 924 INTRA-LIGAND FREE ENERGY PREDICTED BY IDOCK:   -0.54 KCAL/MOL
REMARK 927      BINDING AFFINITY PREDICTED BY RF-SCORE:    0.00 PKD
ROOT
HETATM    1  C   UNL     1      -7.672   8.971  68.457  1.00  0.00    -0.097 C  
HETATM    2  C   UNL     1      -8.931   8.132  68.179  1.00  0.00    -0.135 C  
HETATM    3  C   UNL     1      -8.912   7.669  66.694  1.00  0.00    -0.181 C  
HETATM    4  C   UNL     1      -9.047   6.910  69.153  1.00  0.00    -0.136 C  
HETATM    5  C   UNL     1     -10.290   6.054  68.851  1.00  0.00    -0.273 C  
HETATM    6  C   UNL     1      -8.997   7.264  70.668  1.00  0.00    -0.156 C  
ENDROOT
BRANCH   3   7
HETATM    7  C   UNL     1      -8.998   8.779  65.668  1.00  0.00    -0.248 A  
HETATM    8  C   UNL     1      -8.119   8.803  64.572  1.00  0.00    -0.156 A  
HETATM    9  C   UNL     1      -9.997   9.763  65.768  1.00  0.00    -0.349 A  
HETATM   10  C   UNL     1      -8.241   9.803  63.616  1.00  0.00    -0.158 A  
HETATM   11  H   UNL     1     -10.006  12.427  62.875  1.00  0.00     0.000 HD 
HETATM   12  O   UNL     1      -7.421   9.867  62.522  1.00  0.00    -0.112 OA 
HETATM   13  C   UNL     1     -10.107  10.767  64.807  1.00  0.00    -0.396 A  
HETATM   14  C   UNL     1      -9.225  10.781  63.738  1.00  0.00    -0.244 A  
HETATM   15  O   UNL     1      -9.335  11.760  62.791  1.00  0.00    -0.351 OA 
HETATM   16  H   UNL     1      -7.504  10.551  61.868  1.00  0.00     0.000 HD 
ENDBRANCH   3   7
BRANCH   6  17
HETATM   17  C   UNL     1     -10.164   8.076  71.186  1.00  0.00    -0.225 A  
HETATM   18  C   UNL     1     -12.451   9.461  71.990  1.00  0.00    -0.365 A  
HETATM   19  C   UNL     1     -11.574  10.035  71.076  1.00  0.00    -0.393 A  
HETATM   20  C   UNL     1     -10.425   9.359  70.682  1.00  0.00    -0.354 A  
HETATM   21  H   UNL     1     -12.681  11.724  70.836  1.00  0.00     0.000 HD 
HETATM   22  C   UNL     1     -12.181   8.223  72.549  1.00  0.00    -0.367 A  
HETATM   23  O   UNL     1     -13.600  10.114  72.334  1.00  0.00    -0.617 OA 
HETATM   24  O   UNL     1     -11.896  11.263  70.567  1.00  0.00    -0.338 OA 
HETATM   25  C   UNL     1     -11.035   7.534  72.150  1.00  0.00    -0.293 A  
HETATM   26  H   UNL     1     -14.199   9.722  72.958  1.00  0.00     0.000 HD 
ENDBRANCH   6  17
TORSDOF 2
ENDMDL
MODEL       64
REMARK 921   NORMALIZED FREE ENERGY PREDICTED BY IDOCK:   -5.63 KCAL/MOL
REMARK 922        TOTAL FREE ENERGY PREDICTED BY IDOCK:   -6.48 KCAL/MOL
REMARK 923 INTER-LIGAND FREE ENERGY PREDICTED BY IDOCK:   -6.32 KCAL/MOL
REMARK 924 INTRA-LIGAND FREE ENERGY PREDICTED BY IDOCK:   -0.16 KCAL/MOL
REMARK 927      BINDING AFFINITY PREDICTED BY RF-SCORE:    0.00 PKD
ROOT
HETATM    1  C   UNL     1     -10.354   8.357  67.102  1.00  0.00    -0.381 C  
HETATM    2  C   UNL     1      -9.616   8.203  68.443  1.00  0.00    -0.155 C  
HETATM    3  C   UNL     1      -8.333   7.353  68.218  1.00  0.00    -0.125 C  
HETATM    4  C   UNL     1      -9.272   9.590  69.086  1.00  0.00    -0.163 C  
HETATM    5  C   UNL     1      -8.504   9.432  70.411  1.00  0.00    -0.247 C  
HETATM    6  C   UNL     1     -10.485  10.547  69.281  1.00  0.00    -0.258 C  
ENDROOT
BRANCH   3   7
HETATM    7  C   UNL     1      -8.570   5.923  67.783  1.00  0.00    -0.105 A  
HETATM    8  C   UNL     1      -8.000   5.437  66.594  1.00  0.00    -0.105 A  
HETATM    9  C   UNL     1      -9.314   5.047  68.594  1.00  0.00    -0.173 A  
HETATM   10  C   UNL     1      -8.191   4.109  66.233  1.00  0.00    -0.105 A  
HETATM   11  H   UNL     1      -9.641   1.376  67.222  1.00  0.00     0.000 HD 
HETATM   12  O   UNL     1      -7.649   3.581  65.093  1.00  0.00    -0.075 OA 
HETATM   13  C   UNL     1      -9.506   3.719  68.220  1.00  0.00    -0.215 A  
HETATM   14  C   UNL     1      -8.945   3.260  67.038  1.00  0.00    -0.159 A  
HETATM   15  O   UNL     1      -9.127   1.956  66.672  1.00  0.00    -0.115 OA 
HETATM   16  H   UNL     1      -7.780   2.673  64.846  1.00  0.00     0.000 HD 
ENDBRANCH   3   7
BRANCH   6  17
HETATM   17  C   UNL     1     -11.523  10.087  70.281  1.00  0.00    -0.372 A  
HETATM   18  C   UNL     1     -13.287   9.287  72.292  1.00  0.00    -0.477 A  
HETATM   19  C   UNL     1     -12.527   8.340  71.613  1.00  0.00    -0.320 A  
HETATM   20  C   UNL     1     -11.658   8.728  70.600  1.00  0.00    -0.236 A  
HETATM   21  H   UNL     1     -13.242   6.768  72.688  1.00  0.00     0.000 HD 
HETATM   22  C   UNL     1     -13.217  10.627  71.950  1.00  0.00    -0.528 A  
HETATM   23  O   UNL     1     -14.101   8.900  73.316  1.00  0.00    -1.211 OA 
HETATM   24  O   UNL     1     -12.648   7.033  71.995  1.00  0.00    -0.295 OA 
HETATM   25  C   UNL     1     -12.339  11.026  70.940  1.00  0.00    -0.503 A  
HETATM   26  H   UNL     1     -14.621   9.547  73.780  1.00  0.00     0.000 HD 
ENDBRANCH   6  17
TORSDOF 2
ENDMDL
MODEL       65
REMARK 921   NORMALIZED FREE ENERGY PREDICTED BY IDOCK:   -5.62 KCAL/MOL
REMARK 922        TOTAL FREE ENERGY PREDICTED BY IDOCK:   -6.47 KCAL/MOL
REMARK 923 INTER-LIGAND FREE ENERGY PREDICTED BY IDOCK:   -5.84 KCAL/MOL
REMARK 924 INTRA-LIGAND FREE ENERGY PREDICTED BY IDOCK:   -0.62 KCAL/MOL
REMARK 927      BINDING AFFINITY PREDICTED BY RF-SCORE:    0.00 PKD
ROOT
HETATM    1  C   UNL     1     -11.037  14.206  66.769  1.00  0.00    -0.314 C  
HETATM    2  C   UNL     1     -11.057  14.325  68.303  1.00  0.00    -0.276 C  
HETATM    3  C   UNL     1     -11.442  15.781  68.692  1.00  0.00    -0.389 C  
HETATM    4  C   UNL     1     -12.029  13.286  68.958  1.00  0.00    -0.336 C  
HETATM    5  C   UNL     1     -12.072  13.430  70.490  1.00  0.00    -0.399 C  
HETATM    6  C   UNL     1     -11.773  11.801  68.566  1.00  0.00    -0.390 C  
ENDROOT
BRANCH   3   7
HETATM    7  C   UNL     1     -10.454  16.847  68.272  1.00  0.00    -0.352 A  
HETATM    8  C   UNL     1      -9.116  16.786  68.699  1.00  0.00    -0.254 A  
HETATM    9  C   UNL     1     -10.849  17.878  67.401  1.00  0.00    -0.218 A  
HETATM   10  C   UNL     1      -8.213  17.749  68.267  1.00  0.00    -0.285 A  
HETATM   11  H   UNL     1      -8.006  20.414  66.422  1.00  0.00     0.000 HD 
HETATM   12  O   UNL     1      -6.896  17.730  68.642  1.00  0.00    -0.222 OA 
HETATM   13  C   UNL     1      -9.936  18.844  66.979  1.00  0.00    -0.389 A  
HETATM   14  C   UNL     1      -8.623  18.773  67.419  1.00  0.00    -0.273 A  
HETATM   15  O   UNL     1      -7.726  19.715  67.001  1.00  0.00    -0.248 OA 
HETATM   16  H   UNL     1      -6.278  18.389  68.347  1.00  0.00     0.000 HD 
ENDBRANCH   3   7
BRANCH   6  17
HETATM   17  C   UNL     1     -10.463  11.217  69.049  1.00  0.00    -0.221 A  
HETATM   18  C   UNL     1      -8.049  10.005  69.754  1.00  0.00    -0.177 A  
HETATM   19  C   UNL     1      -9.240   9.569  70.324  1.00  0.00    -0.258 A  
HETATM   20  C   UNL     1     -10.445  10.178  69.991  1.00  0.00    -0.325 A  
HETATM   21  H   UNL     1      -8.360   8.101  71.422  1.00  0.00     0.000 HD 
HETATM   22  C   UNL     1      -8.035  11.071  68.870  1.00  0.00    -0.138 A  
HETATM   23  O   UNL     1      -6.878   9.369  70.052  1.00  0.00    -0.052 OA 
HETATM   24  O   UNL     1      -9.183   8.516  71.195  1.00  0.00    -0.164 OA 
HETATM   25  C   UNL     1      -9.243  11.680  68.522  1.00  0.00    -0.163 A  
HETATM   26  H   UNL     1      -6.064   9.667  69.663  1.00  0.00     0.000 HD 
ENDBRANCH   6  17
TORSDOF 2
ENDMDL
MODEL       66
REMARK 921   NORMALIZED FREE ENERGY PREDICTED BY IDOCK:   -5.61 KCAL/MOL
REMARK 922        TOTAL FREE ENERGY PREDICTED BY IDOCK:   -6.46 KCAL/MOL
REMARK 923 INTER-LIGAND FREE ENERGY PREDICTED BY IDOCK:   -6.02 KCAL/MOL
REMARK 924 INTRA-LIGAND FREE ENERGY PREDICTED BY IDOCK:   -0.44 KCAL/MOL
REMARK 927      BINDING AFFINITY PREDICTED BY RF-SCORE:    0.00 PKD
ROOT
HETATM    1  C   UNL     1      -9.894   8.798  71.620  1.00  0.00    -0.378 C  
HETATM    2  C   UNL     1     -11.303   8.586  71.038  1.00  0.00    -0.313 C  
HETATM    3  C   UNL     1     -11.902   7.279  71.630  1.00  0.00    -0.330 C  
HETATM    4  C   UNL     1     -12.238   9.813  71.308  1.00  0.00    -0.465 C  
HETATM    5  C   UNL     1     -13.656   9.585  70.754  1.00  0.00     0.068 C  
HETATM    6  C   UNL     1     -11.687  11.186  70.819  1.00  0.00    -0.215 C  
ENDROOT
BRANCH   3   7
HETATM    7  C   UNL     1     -11.175   6.005  71.258  1.00  0.00    -0.323 A  
HETATM    8  C   UNL     1     -10.830   5.748  69.921  1.00  0.00    -0.417 A  
HETATM    9  C   UNL     1     -10.785   5.093  72.255  1.00  0.00    -0.266 A  
HETATM   10  C   UNL     1     -10.124   4.594  69.603  1.00  0.00    -0.162 A  
HETATM   11  H   UNL     1      -8.816   1.946  70.955  1.00  0.00     0.000 HD 
HETATM   12  O   UNL     1      -9.751   4.300  68.320  1.00  0.00    -0.151 OA 
HETATM   13  C   UNL     1     -10.082   3.935  71.926  1.00  0.00    -0.204 A  
HETATM   14  C   UNL     1      -9.759   3.693  70.599  1.00  0.00    -0.145 A  
HETATM   15  O   UNL     1      -9.065   2.561  70.275  1.00  0.00    -0.088 OA 
HETATM   16  H   UNL     1      -9.268   3.511  68.102  1.00  0.00     0.000 HD 
ENDBRANCH   3   7
BRANCH   6  17
HETATM   17  C   UNL     1     -11.549  11.334  69.320  1.00  0.00    -0.390 A  
HETATM   18  C   UNL     1     -11.079  11.687  66.591  1.00  0.00    -0.307 A  
HETATM   19  C   UNL     1     -11.762  12.661  67.311  1.00  0.00    -0.370 A  
HETATM   20  C   UNL     1     -12.014  12.486  68.668  1.00  0.00    -0.268 A  
HETATM   21  H   UNL     1     -11.975  13.911  65.722  1.00  0.00     0.000 HD 
HETATM   22  C   UNL     1     -10.666  10.514  67.200  1.00  0.00    -0.323 A  
HETATM   23  O   UNL     1     -10.796  11.890  65.271  1.00  0.00    -0.282 OA 
HETATM   24  O   UNL     1     -12.148  13.792  66.648  1.00  0.00    -0.411 OA 
HETATM   25  C   UNL     1     -10.906  10.336  68.564  1.00  0.00    -0.281 A  
HETATM   26  H   UNL     1     -10.329  11.225  64.778  1.00  0.00     0.000 HD 
ENDBRANCH   6  17
TORSDOF 2
ENDMDL
MODEL       67
REMARK 921   NORMALIZED FREE ENERGY PREDICTED BY IDOCK:   -5.61 KCAL/MOL
REMARK 922        TOTAL FREE ENERGY PREDICTED BY IDOCK:   -6.46 KCAL/MOL
REMARK 923 INTER-LIGAND FREE ENERGY PREDICTED BY IDOCK:   -5.89 KCAL/MOL
REMARK 924 INTRA-LIGAND FREE ENERGY PREDICTED BY IDOCK:   -0.57 KCAL/MOL
REMARK 927      BINDING AFFINITY PREDICTED BY RF-SCORE:    0.00 PKD
ROOT
HETATM    1  C   UNL     1      -7.790  10.883  66.017  1.00  0.00    -0.121 C  
HETATM    2  C   UNL     1      -8.835   9.766  66.185  1.00  0.00    -0.162 C  
HETATM    3  C   UNL     1      -9.886   9.883  65.045  1.00  0.00    -0.323 C  
HETATM    4  C   UNL     1      -8.176   8.346  66.206  1.00  0.00    -0.111 C  
HETATM    5  C   UNL     1      -9.227   7.229  66.341  1.00  0.00    -0.201 C  
HETATM    6  C   UNL     1      -7.052   8.153  67.267  1.00  0.00    -0.079 C  
ENDROOT
BRANCH   3   7
HETATM    7  C   UNL     1     -10.719  11.147  65.057  1.00  0.00    -0.301 A  
HETATM    8  C   UNL     1     -11.130  11.739  63.851  1.00  0.00    -0.482 A  
HETATM    9  C   UNL     1     -11.141  11.708  66.275  1.00  0.00    -0.345 A  
HETATM   10  C   UNL     1     -11.932  12.873  63.881  1.00  0.00    -0.480 A  
HETATM   11  H   UNL     1     -13.386  14.920  65.941  1.00  0.00     0.000 HD 
HETATM   12  O   UNL     1     -12.372  13.483  62.737  1.00  0.00    -0.855 OA 
HETATM   13  C   UNL     1     -11.940  12.850  66.295  1.00  0.00    -0.472 A  
HETATM   14  C   UNL     1     -12.328  13.427  65.095  1.00  0.00    -0.456 A  
HETATM   15  O   UNL     1     -13.116  14.542  65.112  1.00  0.00    -0.538 OA 
HETATM   16  H   UNL     1     -12.920  14.258  62.757  1.00  0.00     0.000 HD 
ENDBRANCH   3   7
BRANCH   6  17
HETATM   17  C   UNL     1      -7.502   8.213  68.711  1.00  0.00    -0.090 A  
HETATM   18  C   UNL     1      -8.111   8.352  71.432  1.00  0.00    -0.133 A  
HETATM   19  C   UNL     1      -7.994   7.115  70.806  1.00  0.00    -0.100 A  
HETATM   20  C   UNL     1      -7.707   7.038  69.448  1.00  0.00    -0.108 A  
HETATM   21  H   UNL     1      -8.341   6.048  72.502  1.00  0.00     0.000 HD 
HETATM   22  C   UNL     1      -7.977   9.526  70.710  1.00  0.00    -0.090 A  
HETATM   23  O   UNL     1      -8.347   8.416  72.775  1.00  0.00    -0.250 OA 
HETATM   24  O   UNL     1      -8.145   5.995  71.574  1.00  0.00    -0.112 OA 
HETATM   25  C   UNL     1      -7.678   9.456  69.348  1.00  0.00    -0.085 A  
HETATM   26  H   UNL     1      -8.428   9.260  73.202  1.00  0.00     0.000 HD 
ENDBRANCH   6  17
TORSDOF 2
ENDMDL
MODEL       68
REMARK 921   NORMALIZED FREE ENERGY PREDICTED BY IDOCK:   -5.61 KCAL/MOL
REMARK 922        TOTAL FREE ENERGY PREDICTED BY IDOCK:   -6.45 KCAL/MOL
REMARK 923 INTER-LIGAND FREE ENERGY PREDICTED BY IDOCK:   -5.86 KCAL/MOL
REMARK 924 INTRA-LIGAND FREE ENERGY PREDICTED BY IDOCK:   -0.59 KCAL/MOL
REMARK 927      BINDING AFFINITY PREDICTED BY RF-SCORE:    0.00 PKD
ROOT
HETATM    1  C   UNL     1     -10.367  16.684  66.224  1.00  0.00    -0.323 C  
HETATM    2  C   UNL     1     -10.423  16.474  67.747  1.00  0.00    -0.308 C  
HETATM    3  C   UNL     1     -10.356  17.860  68.450  1.00  0.00    -0.380 C  
HETATM    4  C   UNL     1     -11.700  15.678  68.182  1.00  0.00    -0.209 C  
HETATM    5  C   UNL     1     -11.770  15.499  69.710  1.00  0.00    -0.362 C  
HETATM    6  C   UNL     1     -11.898  14.306  67.473  1.00  0.00    -0.429 C  
ENDROOT
BRANCH   3   7
HETATM    7  C   UNL     1      -9.067  18.628  68.250  1.00  0.00    -0.347 A  
HETATM    8  C   UNL     1      -7.843  18.085  68.675  1.00  0.00    -0.298 A  
HETATM    9  C   UNL     1      -9.073  19.865  67.583  1.00  0.00    -0.431 A  
HETATM   10  C   UNL     1      -6.664  18.783  68.443  1.00  0.00    -0.248 A  
HETATM   11  H   UNL     1      -5.541  21.535  67.133  1.00  0.00     0.000 HD 
HETATM   12  O   UNL     1      -5.444  18.296  68.825  1.00  0.00    -0.179 OA 
HETATM   13  C   UNL     1      -7.887  20.562  67.361  1.00  0.00    -0.355 A  
HETATM   14  C   UNL     1      -6.689  20.016  67.797  1.00  0.00    -0.250 A  
HETATM   15  O   UNL     1      -5.524  20.694  67.574  1.00  0.00    -0.177 OA 
HETATM   16  H   UNL     1      -4.638  18.774  68.667  1.00  0.00     0.000 HD 
ENDBRANCH   3   7
BRANCH   6  17
HETATM   17  C   UNL     1     -10.858  13.253  67.790  1.00  0.00    -0.268 A  
HETATM   18  C   UNL     1      -8.917  11.410  68.583  1.00  0.00    -0.131 A  
HETATM   19  C   UNL     1      -8.557  12.515  67.820  1.00  0.00    -0.178 A  
HETATM   20  C   UNL     1      -9.520  13.430  67.407  1.00  0.00    -0.222 A  
HETATM   21  H   UNL     1      -6.577  12.054  67.800  1.00  0.00     0.000 HD 
HETATM   22  C   UNL     1     -10.241  11.181  68.918  1.00  0.00    -0.209 A  
HETATM   23  O   UNL     1      -7.957  10.543  69.021  1.00  0.00    -0.116 OA 
HETATM   24  O   UNL     1      -7.234  12.678  67.518  1.00  0.00    -0.131 OA 
HETATM   25  C   UNL     1     -11.212  12.101  68.516  1.00  0.00    -0.307 A  
HETATM   26  H   UNL     1      -8.203   9.788  69.542  1.00  0.00     0.000 HD 
ENDBRANCH   6  17
TORSDOF 2
ENDMDL
MODEL       69
REMARK 921   NORMALIZED FREE ENERGY PREDICTED BY IDOCK:   -5.56 KCAL/MOL
REMARK 922        TOTAL FREE ENERGY PREDICTED BY IDOCK:   -6.40 KCAL/MOL
REMARK 923 INTER-LIGAND FREE ENERGY PREDICTED BY IDOCK:   -5.76 KCAL/MOL
REMARK 924 INTRA-LIGAND FREE ENERGY PREDICTED BY IDOCK:   -0.64 KCAL/MOL
REMARK 927      BINDING AFFINITY PREDICTED BY RF-SCORE:    0.00 PKD
ROOT
HETATM    1  C   UNL     1     -11.832  11.819  68.036  1.00  0.00    -0.304 C  
HETATM    2  C   UNL     1     -10.897  12.125  66.852  1.00  0.00    -0.291 C  
HETATM    3  C   UNL     1     -10.478  10.786  66.181  1.00  0.00    -0.278 C  
HETATM    4  C   UNL     1     -11.561  13.096  65.818  1.00  0.00    -0.383 C  
HETATM    5  C   UNL     1     -10.636  13.373  64.618  1.00  0.00    -0.431 C  
HETATM    6  C   UNL     1     -12.086  14.437  66.410  1.00  0.00    -0.390 C  
ENDROOT
BRANCH   3   7
HETATM    7  C   UNL     1      -9.654   9.856  67.046  1.00  0.00    -0.218 A  
HETATM    8  C   UNL     1     -10.103   8.553  67.317  1.00  0.00    -0.317 A  
HETATM    9  C   UNL     1      -8.403  10.266  67.538  1.00  0.00    -0.114 A  
HETATM   10  C   UNL     1      -9.314   7.698  68.076  1.00  0.00    -0.140 A  
HETATM   11  H   UNL     1      -6.477   7.566  69.652  1.00  0.00     0.000 HD 
HETATM   12  O   UNL     1      -9.697   6.415  68.360  1.00  0.00    -0.130 OA 
HETATM   13  C   UNL     1      -7.620   9.404  68.304  1.00  0.00    -0.082 A  
HETATM   14  C   UNL     1      -8.084   8.125  68.570  1.00  0.00    -0.124 A  
HETATM   15  O   UNL     1      -7.316   7.275  69.315  1.00  0.00    -0.082 OA 
HETATM   16  H   UNL     1      -9.157   5.830  68.878  1.00  0.00     0.000 HD 
ENDBRANCH   3   7
BRANCH   6  17
HETATM   17  C   UNL     1     -11.023  15.372  66.946  1.00  0.00    -0.294 A  
HETATM   18  C   UNL     1      -9.234  17.237  67.999  1.00  0.00    -0.256 A  
HETATM   19  C   UNL     1      -9.511  17.230  66.637  1.00  0.00    -0.265 A  
HETATM   20  C   UNL     1     -10.389  16.294  66.101  1.00  0.00    -0.352 A  
HETATM   21  H   UNL     1      -8.314  18.822  66.226  1.00  0.00     0.000 HD 
HETATM   22  C   UNL     1      -9.800  16.295  68.842  1.00  0.00    -0.246 A  
HETATM   23  O   UNL     1      -8.407  18.190  68.522  1.00  0.00    -0.299 OA 
HETATM   24  O   UNL     1      -8.914  18.183  65.859  1.00  0.00    -0.503 OA 
HETATM   25  C   UNL     1     -10.691  15.359  68.313  1.00  0.00    -0.260 A  
HETATM   26  H   UNL     1      -8.217  18.195  69.453  1.00  0.00     0.000 HD 
ENDBRANCH   6  17
TORSDOF 2
ENDMDL
MODEL       70
REMARK 921   NORMALIZED FREE ENERGY PREDICTED BY IDOCK:   -5.53 KCAL/MOL
REMARK 922        TOTAL FREE ENERGY PREDICTED BY IDOCK:   -6.37 KCAL/MOL
REMARK 923 INTER-LIGAND FREE ENERGY PREDICTED BY IDOCK:   -6.67 KCAL/MOL
REMARK 924 INTRA-LIGAND FREE ENERGY PREDICTED BY IDOCK:    0.30 KCAL/MOL
REMARK 927      BINDING AFFINITY PREDICTED BY RF-SCORE:    0.00 PKD
ROOT
HETATM    1  C   UNL     1     -11.991  12.544  66.788  1.00  0.00    -0.327 C  
HETATM    2  C   UNL     1     -10.688  12.906  67.523  1.00  0.00    -0.241 C  
HETATM    3  C   UNL     1     -10.162  11.646  68.268  1.00  0.00    -0.206 C  
HETATM    4  C   UNL     1      -9.606  13.482  66.547  1.00  0.00    -0.284 C  
HETATM    5  C   UNL     1      -8.293  13.812  67.280  1.00  0.00    -0.186 C  
HETATM    6  C   UNL     1     -10.065  14.702  65.696  1.00  0.00    -0.389 C  
ENDROOT
BRANCH   3   7
HETATM    7  C   UNL     1     -11.054  11.126  69.374  1.00  0.00    -0.314 A  
HETATM    8  C   UNL     1     -10.756   9.913  70.017  1.00  0.00    -0.338 A  
HETATM    9  C   UNL     1     -12.158  11.880  69.810  1.00  0.00    -0.321 A  
HETATM   10  C   UNL     1     -11.560   9.473  71.061  1.00  0.00    -0.344 A  
HETATM   11  H   UNL     1     -14.194  10.292  72.777  1.00  0.00     0.000 HD 
HETATM   12  O   UNL     1     -11.309   8.306  71.731  1.00  0.00    -0.258 OA 
HETATM   13  C   UNL     1     -12.963  11.427  70.854  1.00  0.00    -0.210 A  
HETATM   14  C   UNL     1     -12.659  10.223  71.470  1.00  0.00    -0.440 A  
HETATM   15  O   UNL     1     -13.444   9.780  72.498  1.00  0.00    -0.354 OA 
HETATM   16  H   UNL     1     -11.859   8.005  72.444  1.00  0.00     0.000 HD 
ENDBRANCH   3   7
BRANCH   6  17
HETATM   17  C   UNL     1     -10.361  15.965  66.475  1.00  0.00    -0.304 A  
HETATM   18  C   UNL     1     -10.678  18.325  67.933  1.00  0.00    -0.311 A  
HETATM   19  C   UNL     1     -10.761  17.094  68.574  1.00  0.00    -0.326 A  
HETATM   20  C   UNL     1     -10.620  15.913  67.853  1.00  0.00    -0.300 A  
HETATM   21  H   UNL     1     -11.054  17.897  70.419  1.00  0.00     0.000 HD 
HETATM   22  C   UNL     1     -10.486  18.399  66.564  1.00  0.00    -0.411 A  
HETATM   23  O   UNL     1     -10.771  19.478  68.658  1.00  0.00    -0.412 OA 
HETATM   24  O   UNL     1     -10.958  17.091  69.927  1.00  0.00    -0.111 OA 
HETATM   25  C   UNL     1     -10.333  17.218  65.835  1.00  0.00    -0.287 A  
HETATM   26  H   UNL     1     -10.714  20.319  68.221  1.00  0.00     0.000 HD 
ENDBRANCH   6  17
TORSDOF 2
ENDMDL
MODEL       71
REMARK 921   NORMALIZED FREE ENERGY PREDICTED BY IDOCK:   -5.48 KCAL/MOL
REMARK 922        TOTAL FREE ENERGY PREDICTED BY IDOCK:   -6.31 KCAL/MOL
REMARK 923 INTER-LIGAND FREE ENERGY PREDICTED BY IDOCK:   -5.91 KCAL/MOL
REMARK 924 INTRA-LIGAND FREE ENERGY PREDICTED BY IDOCK:   -0.40 KCAL/MOL
REMARK 927      BINDING AFFINITY PREDICTED BY RF-SCORE:    0.00 PKD
ROOT
HETATM    1  C   UNL     1     -10.490  15.654  65.308  1.00  0.00    -0.439 C  
HETATM    2  C   UNL     1     -10.299  15.591  66.834  1.00  0.00    -0.290 C  
HETATM    3  C   UNL     1     -10.055  17.030  67.371  1.00  0.00    -0.291 C  
HETATM    4  C   UNL     1     -11.518  14.917  67.549  1.00  0.00    -0.361 C  
HETATM    5  C   UNL     1     -11.339  14.886  69.078  1.00  0.00    -0.310 C  
HETATM    6  C   UNL     1     -11.892  13.499  67.025  1.00  0.00    -0.447 C  
ENDROOT
BRANCH   3   7
HETATM    7  C   UNL     1      -8.785  17.697  66.887  1.00  0.00    -0.262 A  
HETATM    8  C   UNL     1      -7.560  17.009  66.928  1.00  0.00    -0.244 A  
HETATM    9  C   UNL     1      -8.827  18.990  66.336  1.00  0.00    -0.326 A  
HETATM   10  C   UNL     1      -6.413  17.620  66.439  1.00  0.00    -0.237 A  
HETATM   11  H   UNL     1      -5.371  20.378  65.074  1.00  0.00     0.000 HD 
HETATM   12  O   UNL     1      -5.197  16.993  66.443  1.00  0.00    -0.320 OA 
HETATM   13  C   UNL     1      -7.670  19.597  65.854  1.00  0.00    -0.307 A  
HETATM   14  C   UNL     1      -6.468  18.908  65.912  1.00  0.00    -0.230 A  
HETATM   15  O   UNL     1      -5.333  19.499  65.434  1.00  0.00    -0.156 OA 
HETATM   16  H   UNL     1      -4.412  17.410  66.108  1.00  0.00     0.000 HD 
ENDBRANCH   3   7
BRANCH   6  17
HETATM   17  C   UNL     1     -10.861  12.420  67.274  1.00  0.00    -0.279 A  
HETATM   18  C   UNL     1      -8.966  10.383  67.508  1.00  0.00    -0.135 A  
HETATM   19  C   UNL     1     -10.302  10.130  67.802  1.00  0.00    -0.210 A  
HETATM   20  C   UNL     1     -11.249  11.143  67.703  1.00  0.00    -0.364 A  
HETATM   21  H   UNL     1      -9.998   8.164  68.229  1.00  0.00     0.000 HD 
HETATM   22  C   UNL     1      -8.550  11.653  67.144  1.00  0.00    -0.164 A  
HETATM   23  O   UNL     1      -8.052   9.370  67.563  1.00  0.00    -0.108 OA 
HETATM   24  O   UNL     1     -10.645   8.856  68.161  1.00  0.00    -0.214 OA 
HETATM   25  C   UNL     1      -9.497  12.672  67.033  1.00  0.00    -0.220 A  
HETATM   26  H   UNL     1      -7.140   9.543  67.363  1.00  0.00     0.000 HD 
ENDBRANCH   6  17
TORSDOF 2
ENDMDL
MODEL       72
REMARK 921   NORMALIZED FREE ENERGY PREDICTED BY IDOCK:   -5.46 KCAL/MOL
REMARK 922        TOTAL FREE ENERGY PREDICTED BY IDOCK:   -6.29 KCAL/MOL
REMARK 923 INTER-LIGAND FREE ENERGY PREDICTED BY IDOCK:   -5.71 KCAL/MOL
REMARK 924 INTRA-LIGAND FREE ENERGY PREDICTED BY IDOCK:   -0.58 KCAL/MOL
REMARK 927      BINDING AFFINITY PREDICTED BY RF-SCORE:    0.00 PKD
ROOT
HETATM    1  C   UNL     1     -12.588   7.159  71.263  1.00  0.00    -0.421 C  
HETATM    2  C   UNL     1     -11.188   7.572  71.750  1.00  0.00    -0.281 C  
HETATM    3  C   UNL     1     -11.121   9.123  71.836  1.00  0.00    -0.385 C  
HETATM    4  C   UNL     1     -10.828   6.911  73.124  1.00  0.00    -0.328 C  
HETATM    5  C   UNL     1      -9.441   7.353  73.626  1.00  0.00    -0.321 C  
HETATM    6  C   UNL     1     -10.942   5.358  73.162  1.00  0.00    -0.353 C  
ENDROOT
BRANCH   3   7
HETATM    7  C   UNL     1     -11.261   9.853  70.518  1.00  0.00    -0.399 A  
HETATM    8  C   UNL     1     -10.639   9.355  69.360  1.00  0.00    -0.235 A  
HETATM    9  C   UNL     1     -12.063  11.003  70.424  1.00  0.00    -0.463 A  
HETATM   10  C   UNL     1     -10.815  10.013  68.149  1.00  0.00    -0.255 A  
HETATM   11  H   UNL     1     -12.300  12.583  66.830  1.00  0.00     0.000 HD 
HETATM   12  O   UNL     1     -10.243   9.566  66.989  1.00  0.00    -0.224 OA 
HETATM   13  C   UNL     1     -12.228  11.660  69.206  1.00  0.00    -0.228 A  
HETATM   14  C   UNL     1     -11.599  11.161  68.076  1.00  0.00    -0.263 A  
HETATM   15  O   UNL     1     -11.764  11.800  66.880  1.00  0.00    -0.557 OA 
HETATM   16  H   UNL     1     -10.363  10.015  66.161  1.00  0.00     0.000 HD 
ENDBRANCH   3   7
BRANCH   6  17
HETATM   17  C   UNL     1      -9.956   4.612  72.289  1.00  0.00    -0.235 A  
HETATM   18  C   UNL     1      -8.284   3.057  70.682  1.00  0.00    -0.052 A  
HETATM   19  C   UNL     1      -8.052   3.144  72.051  1.00  0.00    -0.062 A  
HETATM   20  C   UNL     1      -8.871   3.929  72.856  1.00  0.00    -0.106 A  
HETATM   21  H   UNL     1      -6.459   1.880  72.020  1.00  0.00     0.000 HD 
HETATM   22  C   UNL     1      -9.311   3.775  70.092  1.00  0.00    -0.244 A  
HETATM   23  O   UNL     1      -7.504   2.248  69.909  1.00  0.00    -0.043 OA 
HETATM   24  O   UNL     1      -7.018   2.416  72.570  1.00  0.00    -0.022 OA 
HETATM   25  C   UNL     1     -10.143   4.556  70.895  1.00  0.00    -0.228 A  
HETATM   26  H   UNL     1      -7.661   2.189  68.974  1.00  0.00     0.000 HD 
ENDBRANCH   6  17
TORSDOF 2
ENDMDL
MODEL       73
REMARK 921   NORMALIZED FREE ENERGY PREDICTED BY IDOCK:   -5.44 KCAL/MOL
REMARK 922        TOTAL FREE ENERGY PREDICTED BY IDOCK:   -6.27 KCAL/MOL
REMARK 923 INTER-LIGAND FREE ENERGY PREDICTED BY IDOCK:   -5.80 KCAL/MOL
REMARK 924 INTRA-LIGAND FREE ENERGY PREDICTED BY IDOCK:   -0.47 KCAL/MOL
REMARK 927      BINDING AFFINITY PREDICTED BY RF-SCORE:    0.00 PKD
ROOT
HETATM    1  C   UNL     1     -11.339  11.807  67.119  1.00  0.00    -0.387 C  
HETATM    2  C   UNL     1     -11.392  12.377  68.548  1.00  0.00    -0.336 C  
HETATM    3  C   UNL     1     -11.784  13.880  68.478  1.00  0.00    -0.390 C  
HETATM    4  C   UNL     1     -12.379  11.575  69.462  1.00  0.00    -0.190 C  
HETATM    5  C   UNL     1     -12.454  12.167  70.881  1.00  0.00    -0.374 C  
HETATM    6  C   UNL     1     -12.115  10.042  69.536  1.00  0.00     0.179 C  
ENDROOT
BRANCH   3   7
HETATM    7  C   UNL     1     -10.787  14.779  67.779  1.00  0.00    -0.278 A  
HETATM    8  C   UNL     1      -9.642  15.231  68.455  1.00  0.00    -0.211 A  
HETATM    9  C   UNL     1     -10.966  15.124  66.428  1.00  0.00    -0.329 A  
HETATM   10  C   UNL     1      -8.714  16.019  67.785  1.00  0.00    -0.167 A  
HETATM   11  H   UNL     1      -8.132  17.378  64.893  1.00  0.00     0.000 HD 
HETATM   12  O   UNL     1      -7.576  16.477  68.392  1.00  0.00    -0.172 OA 
HETATM   13  C   UNL     1     -10.034  15.921  65.766  1.00  0.00    -0.391 A  
HETATM   14  C   UNL     1      -8.914  16.366  66.452  1.00  0.00    -0.305 A  
HETATM   15  O   UNL     1      -7.996  17.142  65.803  1.00  0.00    -0.476 OA 
HETATM   16  H   UNL     1      -6.941  17.016  67.934  1.00  0.00     0.000 HD 
ENDBRANCH   3   7
BRANCH   6  17
HETATM   17  C   UNL     1     -10.815   9.636  70.197  1.00  0.00    -0.325 A  
HETATM   18  C   UNL     1      -8.434   9.080  71.544  1.00  0.00    -0.022 A  
HETATM   19  C   UNL     1      -8.402   9.688  70.294  1.00  0.00    -0.186 A  
HETATM   20  C   UNL     1      -9.582   9.954  69.609  1.00  0.00    -0.249 A  
HETATM   21  H   UNL     1      -6.375   9.851  70.251  1.00  0.00     0.000 HD 
HETATM   22  C   UNL     1      -9.637   8.699  72.115  1.00  0.00    -0.378 A  
HETATM   23  O   UNL     1      -7.272   8.866  72.227  1.00  0.00    -0.319 OA 
HETATM   24  O   UNL     1      -7.181  10.033  69.783  1.00  0.00    -0.092 OA 
HETATM   25  C   UNL     1     -10.827   8.973  71.438  1.00  0.00    -0.400 A  
HETATM   26  H   UNL     1      -7.293   8.450  73.081  1.00  0.00     0.000 HD 
ENDBRANCH   6  17
TORSDOF 2
ENDMDL
MODEL       74
REMARK 921   NORMALIZED FREE ENERGY PREDICTED BY IDOCK:   -5.43 KCAL/MOL
REMARK 922        TOTAL FREE ENERGY PREDICTED BY IDOCK:   -6.26 KCAL/MOL
REMARK 923 INTER-LIGAND FREE ENERGY PREDICTED BY IDOCK:   -5.61 KCAL/MOL
REMARK 924 INTRA-LIGAND FREE ENERGY PREDICTED BY IDOCK:   -0.65 KCAL/MOL
REMARK 927      BINDING AFFINITY PREDICTED BY RF-SCORE:    0.00 PKD
ROOT
HETATM    1  C   UNL     1     -11.014  10.308  67.012  1.00  0.00    -0.189 C  
HETATM    2  C   UNL     1     -10.134  10.811  65.854  1.00  0.00    -0.314 C  
HETATM    3  C   UNL     1      -9.142   9.686  65.447  1.00  0.00    -0.265 C  
HETATM    4  C   UNL     1     -10.992  11.282  64.631  1.00  0.00    -0.281 C  
HETATM    5  C   UNL     1     -10.109  11.754  63.461  1.00  0.00    -0.463 C  
HETATM    6  C   UNL     1     -12.072  12.357  64.953  1.00  0.00    -0.470 C  
ENDROOT
BRANCH   3   7
HETATM    7  C   UNL     1      -8.134   9.295  66.506  1.00  0.00    -0.104 A  
HETATM    8  C   UNL     1      -7.291  10.263  67.077  1.00  0.00    -0.092 A  
HETATM    9  C   UNL     1      -8.071   7.971  66.974  1.00  0.00    -0.116 A  
HETATM   10  C   UNL     1      -6.402   9.896  68.080  1.00  0.00    -0.055 A  
HETATM   11  H   UNL     1      -5.421   7.326  69.807  1.00  0.00     0.000 HD 
HETATM   12  O   UNL     1      -5.567  10.800  68.679  1.00  0.00    -0.041 OA 
HETATM   13  C   UNL     1      -7.172   7.610  67.975  1.00  0.00    -0.097 A  
HETATM   14  C   UNL     1      -6.341   8.576  68.520  1.00  0.00    -0.054 A  
HETATM   15  O   UNL     1      -5.462   8.226  69.506  1.00  0.00    -0.029 OA 
HETATM   16  H   UNL     1      -4.960  10.548  69.364  1.00  0.00     0.000 HD 
ENDBRANCH   3   7
BRANCH   6  17
HETATM   17  C   UNL     1     -11.539  13.705  65.386  1.00  0.00    -0.334 A  
HETATM   18  C   UNL     1     -10.756  16.225  66.298  1.00  0.00    -0.185 A  
HETATM   19  C   UNL     1     -11.287  16.080  65.022  1.00  0.00    -0.156 A  
HETATM   20  C   UNL     1     -11.666  14.827  64.554  1.00  0.00    -0.398 A  
HETATM   21  H   UNL     1     -11.187  18.064  64.585  1.00  0.00     0.000 HD 
HETATM   22  C   UNL     1     -10.562  15.122  67.114  1.00  0.00    -0.295 A  
HETATM   23  O   UNL     1     -10.431  17.466  66.765  1.00  0.00    -0.310 OA 
HETATM   24  O   UNL     1     -11.445  17.208  64.265  1.00  0.00    -1.062 OA 
HETATM   25  C   UNL     1     -10.950  13.862  66.655  1.00  0.00    -0.302 A  
HETATM   26  H   UNL     1     -10.068  17.565  67.637  1.00  0.00     0.000 HD 
ENDBRANCH   6  17
TORSDOF 2
ENDMDL
MODEL       75
REMARK 921   NORMALIZED FREE ENERGY PREDICTED BY IDOCK:   -5.41 KCAL/MOL
REMARK 922        TOTAL FREE ENERGY PREDICTED BY IDOCK:   -6.23 KCAL/MOL
REMARK 923 INTER-LIGAND FREE ENERGY PREDICTED BY IDOCK:   -5.69 KCAL/MOL
REMARK 924 INTRA-LIGAND FREE ENERGY PREDICTED BY IDOCK:   -0.54 KCAL/MOL
REMARK 927      BINDING AFFINITY PREDICTED BY RF-SCORE:    0.00 PKD
ROOT
HETATM    1  C   UNL     1      -7.703   6.502  69.202  1.00  0.00    -0.102 C  
HETATM    2  C   UNL     1      -8.956   5.776  69.721  1.00  0.00    -0.137 C  
HETATM    3  C   UNL     1      -8.962   4.321  69.172  1.00  0.00    -0.157 C  
HETATM    4  C   UNL     1      -9.035   5.793  71.285  1.00  0.00    -0.147 C  
HETATM    5  C   UNL     1     -10.273   5.037  71.803  1.00  0.00    -0.272 C  
HETATM    6  C   UNL     1      -8.959   7.205  71.938  1.00  0.00    -0.135 C  
ENDROOT
BRANCH   3   7
HETATM    7  C   UNL     1      -9.083   4.196  67.668  1.00  0.00    -0.164 A  
HETATM    8  C   UNL     1     -10.316   4.423  67.033  1.00  0.00     0.091 A  
HETATM    9  C   UNL     1      -7.952   3.909  66.885  1.00  0.00    -0.096 A  
HETATM   10  C   UNL     1     -10.400   4.348  65.649  1.00  0.00    -0.225 A  
HETATM   11  H   UNL     1      -8.599   3.768  63.008  1.00  0.00     0.000 HD 
HETATM   12  O   UNL     1     -11.571   4.572  64.978  1.00  0.00    -1.101 OA 
HETATM   13  C   UNL     1      -8.047   3.829  65.497  1.00  0.00    -0.097 A  
HETATM   14  C   UNL     1      -9.273   4.046  64.888  1.00  0.00    -0.152 A  
HETATM   15  O   UNL     1      -9.368   3.974  63.527  1.00  0.00    -0.131 OA 
HETATM   16  H   UNL     1     -11.629   4.521  64.031  1.00  0.00     0.000 HD 
ENDBRANCH   3   7
BRANCH   6  17
HETATM   17  C   UNL     1     -10.126   8.122  71.644  1.00  0.00    -0.259 A  
HETATM   18  C   UNL     1     -12.177   9.971  71.235  1.00  0.00    -0.402 A  
HETATM   19  C   UNL     1     -12.318   8.974  72.195  1.00  0.00    -0.372 A  
HETATM   20  C   UNL     1     -11.308   8.039  72.394  1.00  0.00    -0.443 A  
HETATM   21  H   UNL     1     -14.153   9.605  72.806  1.00  0.00     0.000 HD 
HETATM   22  C   UNL     1     -11.045  10.032  70.439  1.00  0.00    -0.393 A  
HETATM   23  O   UNL     1     -13.155  10.911  71.080  1.00  0.00    -0.355 OA 
HETATM   24  O   UNL     1     -13.463   8.966  72.942  1.00  0.00    -0.337 OA 
HETATM   25  C   UNL     1     -10.022   9.104  70.641  1.00  0.00    -0.307 A  
HETATM   26  H   UNL     1     -13.058  11.592  70.425  1.00  0.00     0.000 HD 
ENDBRANCH   6  17
TORSDOF 2
ENDMDL
MODEL       76
REMARK 921   NORMALIZED FREE ENERGY PREDICTED BY IDOCK:   -5.40 KCAL/MOL
REMARK 922        TOTAL FREE ENERGY PREDICTED BY IDOCK:   -6.23 KCAL/MOL
REMARK 923 INTER-LIGAND FREE ENERGY PREDICTED BY IDOCK:   -5.57 KCAL/MOL
REMARK 924 INTRA-LIGAND FREE ENERGY PREDICTED BY IDOCK:   -0.65 KCAL/MOL
REMARK 927      BINDING AFFINITY PREDICTED BY RF-SCORE:    0.00 PKD
ROOT
HETATM    1  C   UNL     1     -11.112  14.898  69.303  1.00  0.00    -0.284 C  
HETATM    2  C   UNL     1     -10.573  14.661  67.881  1.00  0.00    -0.244 C  
HETATM    3  C   UNL     1     -11.061  13.272  67.381  1.00  0.00    -0.300 C  
HETATM    4  C   UNL     1     -11.001  15.802  66.896  1.00  0.00    -0.207 C  
HETATM    5  C   UNL     1     -10.488  15.545  65.467  1.00  0.00    -0.407 C  
HETATM    6  C   UNL     1     -10.624  17.243  67.348  1.00  0.00    -0.303 C  
ENDROOT
BRANCH   3   7
HETATM    7  C   UNL     1     -10.536  12.082  68.156  1.00  0.00    -0.233 A  
HETATM    8  C   UNL     1     -11.423  11.225  68.828  1.00  0.00    -0.359 A  
HETATM    9  C   UNL     1      -9.161  11.789  68.162  1.00  0.00    -0.186 A  
HETATM   10  C   UNL     1     -10.928  10.112  69.497  1.00  0.00    -0.256 A  
HETATM   11  H   UNL     1      -8.154   8.565  70.177  1.00  0.00     0.000 HD 
HETATM   12  O   UNL     1     -11.747   9.237  70.158  1.00  0.00    -0.455 OA 
HETATM   13  C   UNL     1      -8.673  10.674  68.842  1.00  0.00    -0.163 A  
HETATM   14  C   UNL     1      -9.562   9.844  69.508  1.00  0.00    -0.225 A  
HETATM   15  O   UNL     1      -9.086   8.747  70.170  1.00  0.00    -0.153 OA 
HETATM   16  H   UNL     1     -11.409   8.476  70.615  1.00  0.00     0.000 HD 
ENDBRANCH   3   7
BRANCH   6  17
HETATM   17  C   UNL     1      -9.142  17.541  67.407  1.00  0.00    -0.237 A  
HETATM   18  C   UNL     1      -6.460  18.287  67.622  1.00  0.00    -0.191 A  
HETATM   19  C   UNL     1      -7.157  18.525  66.442  1.00  0.00    -0.235 A  
HETATM   20  C   UNL     1      -8.488  18.142  66.321  1.00  0.00    -0.213 A  
HETATM   21  H   UNL     1      -5.588  19.425  65.513  1.00  0.00     0.000 HD 
HETATM   22  C   UNL     1      -7.067  17.637  68.684  1.00  0.00    -0.245 A  
HETATM   23  O   UNL     1      -5.168  18.708  67.747  1.00  0.00    -0.163 OA 
HETATM   24  O   UNL     1      -6.497  19.164  65.430  1.00  0.00    -0.248 OA 
HETATM   25  C   UNL     1      -8.407  17.260  68.573  1.00  0.00    -0.267 A  
HETATM   26  H   UNL     1      -4.691  18.546  68.553  1.00  0.00     0.000 HD 
ENDBRANCH   6  17
TORSDOF 2
ENDMDL
MODEL       77
REMARK 921   NORMALIZED FREE ENERGY PREDICTED BY IDOCK:   -5.36 KCAL/MOL
REMARK 922        TOTAL FREE ENERGY PREDICTED BY IDOCK:   -6.18 KCAL/MOL
REMARK 923 INTER-LIGAND FREE ENERGY PREDICTED BY IDOCK:   -5.60 KCAL/MOL
REMARK 924 INTRA-LIGAND FREE ENERGY PREDICTED BY IDOCK:   -0.59 KCAL/MOL
REMARK 927      BINDING AFFINITY PREDICTED BY RF-SCORE:    0.00 PKD
ROOT
HETATM    1  C   UNL     1     -11.430  14.787  69.249  1.00  0.00    -0.322 C  
HETATM    2  C   UNL     1     -10.838  14.392  67.885  1.00  0.00    -0.256 C  
HETATM    3  C   UNL     1     -11.387  12.994  67.482  1.00  0.00    -0.346 C  
HETATM    4  C   UNL     1     -11.145  15.462  66.782  1.00  0.00    -0.244 C  
HETATM    5  C   UNL     1     -10.580  15.048  65.411  1.00  0.00    -0.398 C  
HETATM    6  C   UNL     1     -10.702  16.914  67.127  1.00  0.00    -0.180 C  
ENDROOT
BRANCH   3   7
HETATM    7  C   UNL     1     -10.977  11.851  68.386  1.00  0.00    -0.273 A  
HETATM    8  C   UNL     1      -9.658  11.367  68.366  1.00  0.00    -0.197 A  
HETATM    9  C   UNL     1     -11.895  11.301  69.297  1.00  0.00    -0.423 A  
HETATM   10  C   UNL     1      -9.287  10.348  69.233  1.00  0.00    -0.187 A  
HETATM   11  H   UNL     1     -10.468   8.426  71.570  1.00  0.00     0.000 HD 
HETATM   12  O   UNL     1      -8.013   9.847  69.265  1.00  0.00    -0.099 OA 
HETATM   13  C   UNL     1     -11.515  10.273  70.158  1.00  0.00    -0.383 A  
HETATM   14  C   UNL     1     -10.212   9.801  70.118  1.00  0.00    -0.275 A  
HETATM   15  O   UNL     1      -9.836   8.798  70.966  1.00  0.00    -0.192 OA 
HETATM   16  H   UNL     1      -7.759   9.150  69.858  1.00  0.00     0.000 HD 
ENDBRANCH   3   7
BRANCH   6  17
HETATM   17  C   UNL     1      -9.208  17.129  67.240  1.00  0.00    -0.232 A  
HETATM   18  C   UNL     1      -6.498  17.744  67.509  1.00  0.00    -0.163 A  
HETATM   19  C   UNL     1      -7.096  17.767  66.254  1.00  0.00    -0.294 A  
HETATM   20  C   UNL     1      -8.442  17.447  66.109  1.00  0.00    -0.198 A  
HETATM   21  H   UNL     1      -5.408  18.356  65.286  1.00  0.00     0.000 HD 
HETATM   22  C   UNL     1      -7.220  17.371  68.631  1.00  0.00    -0.237 A  
HETATM   23  O   UNL     1      -5.189  18.106  67.646  1.00  0.00    -0.140 OA 
HETATM   24  O   UNL     1      -6.326  18.138  65.186  1.00  0.00    -0.298 OA 
HETATM   25  C   UNL     1      -8.573  17.059  68.494  1.00  0.00    -0.257 A  
HETATM   26  H   UNL     1      -4.779  18.090  68.503  1.00  0.00     0.000 HD 
ENDBRANCH   6  17
TORSDOF 2
ENDMDL
MODEL       78
REMARK 921   NORMALIZED FREE ENERGY PREDICTED BY IDOCK:   -5.35 KCAL/MOL
REMARK 922        TOTAL FREE ENERGY PREDICTED BY IDOCK:   -6.16 KCAL/MOL
REMARK 923 INTER-LIGAND FREE ENERGY PREDICTED BY IDOCK:   -6.89 KCAL/MOL
REMARK 924 INTRA-LIGAND FREE ENERGY PREDICTED BY IDOCK:    0.73 KCAL/MOL
REMARK 927      BINDING AFFINITY PREDICTED BY RF-SCORE:    0.00 PKD
ROOT
HETATM    1  C   UNL     1     -11.840  16.309  69.051  1.00  0.00    -0.072 C  
HETATM    2  C   UNL     1     -10.832  15.752  68.030  1.00  0.00    -0.309 C  
HETATM    3  C   UNL     1     -11.427  14.470  67.382  1.00  0.00    -0.385 C  
HETATM    4  C   UNL     1     -10.452  16.814  66.943  1.00  0.00    -0.269 C  
HETATM    5  C   UNL     1      -9.470  16.243  65.904  1.00  0.00    -0.318 C  
HETATM    6  C   UNL     1      -9.918  18.167  67.497  1.00  0.00    -0.338 C  
ENDROOT
BRANCH   3   7
HETATM    7  C   UNL     1     -11.647  13.307  68.326  1.00  0.00    -0.369 A  
HETATM    8  C   UNL     1     -11.497  11.986  67.874  1.00  0.00    -0.396 A  
HETATM    9  C   UNL     1     -11.944  13.539  69.680  1.00  0.00    -0.397 A  
HETATM   10  C   UNL     1     -11.659  10.932  68.765  1.00  0.00    -0.309 A  
HETATM   11  H   UNL     1     -12.340  10.300  71.877  1.00  0.00     0.000 HD 
HETATM   12  O   UNL     1     -11.513   9.626  68.381  1.00  0.00    -0.498 OA 
HETATM   13  C   UNL     1     -12.112  12.475  70.565  1.00  0.00    -0.361 A  
HETATM   14  C   UNL     1     -11.970  11.177  70.099  1.00  0.00    -0.365 A  
HETATM   15  O   UNL     1     -12.127  10.133  70.966  1.00  0.00    -0.317 OA 
HETATM   16  H   UNL     1     -11.623   8.906  68.990  1.00  0.00     0.000 HD 
ENDBRANCH   3   7
BRANCH   6  17
HETATM   17  C   UNL     1      -8.589  18.096  68.217  1.00  0.00    -0.298 A  
HETATM   18  C   UNL     1      -6.254  17.925  69.738  1.00  0.00    -0.172 A  
HETATM   19  C   UNL     1      -6.804  19.168  69.444  1.00  0.00    -0.264 A  
HETATM   20  C   UNL     1      -7.958  19.263  68.673  1.00  0.00    -0.405 A  
HETATM   21  H   UNL     1      -5.400  20.210  70.483  1.00  0.00     0.000 HD 
HETATM   22  C   UNL     1      -6.824  16.763  69.244  1.00  0.00    -0.225 A  
HETATM   23  O   UNL     1      -5.148  17.840  70.534  1.00  0.00    -0.230 OA 
HETATM   24  O   UNL     1      -6.188  20.275  69.956  1.00  0.00    -0.352 OA 
HETATM   25  C   UNL     1      -7.988  16.851  68.479  1.00  0.00    -0.242 A  
HETATM   26  H   UNL     1      -4.772  16.992  70.734  1.00  0.00     0.000 HD 
ENDBRANCH   6  17
TORSDOF 2
ENDMDL
MODEL       79
REMARK 921   NORMALIZED FREE ENERGY PREDICTED BY IDOCK:   -5.34 KCAL/MOL
REMARK 922        TOTAL FREE ENERGY PREDICTED BY IDOCK:   -6.16 KCAL/MOL
REMARK 923 INTER-LIGAND FREE ENERGY PREDICTED BY IDOCK:   -5.73 KCAL/MOL
REMARK 924 INTRA-LIGAND FREE ENERGY PREDICTED BY IDOCK:   -0.42 KCAL/MOL
REMARK 927      BINDING AFFINITY PREDICTED BY RF-SCORE:    0.00 PKD
ROOT
HETATM    1  C   UNL     1     -11.659   9.480  70.383  1.00  0.00    -0.268 C  
HETATM    2  C   UNL     1     -10.251   9.361  69.773  1.00  0.00    -0.238 C  
HETATM    3  C   UNL     1      -9.742  10.781  69.398  1.00  0.00    -0.088 C  
HETATM    4  C   UNL     1      -9.254   8.636  70.739  1.00  0.00    -0.223 C  
HETATM    5  C   UNL     1      -7.839   8.548  70.139  1.00  0.00    -0.099 C  
HETATM    6  C   UNL     1      -9.713   7.233  71.234  1.00  0.00    -0.168 C  
ENDROOT
BRANCH   3   7
HETATM    7  C   UNL     1     -10.532  11.491  68.320  1.00  0.00    -0.219 A  
HETATM    8  C   UNL     1     -11.086  12.759  68.562  1.00  0.00    -0.300 A  
HETATM    9  C   UNL     1     -10.668  10.916  67.044  1.00  0.00    -0.323 A  
HETATM   10  C   UNL     1     -11.770  13.415  67.547  1.00  0.00    -0.366 A  
HETATM   11  H   UNL     1     -12.682  13.077  64.448  1.00  0.00     0.000 HD 
HETATM   12  O   UNL     1     -12.320  14.656  67.724  1.00  0.00    -0.602 OA 
HETATM   13  C   UNL     1     -11.362  11.579  66.034  1.00  0.00    -0.184 A  
HETATM   14  C   UNL     1     -11.911  12.825  66.294  1.00  0.00    -0.395 A  
HETATM   15  O   UNL     1     -12.586  13.480  65.303  1.00  0.00    -0.477 OA 
HETATM   16  H   UNL     1     -12.787  15.105  67.030  1.00  0.00     0.000 HD 
ENDBRANCH   3   7
BRANCH   6  17
HETATM   17  C   UNL     1      -9.808   6.165  70.166  1.00  0.00    -0.209 A  
HETATM   18  C   UNL     1      -9.776   4.262  68.123  1.00  0.00    -0.102 A  
HETATM   19  C   UNL     1     -10.439   5.471  67.939  1.00  0.00    -0.178 A  
HETATM   20  C   UNL     1     -10.473   6.418  68.957  1.00  0.00    -0.267 A  
HETATM   21  H   UNL     1     -11.001   5.052  66.030  1.00  0.00     0.000 HD 
HETATM   22  C   UNL     1      -9.167   3.965  69.331  1.00  0.00    -0.221 A  
HETATM   23  O   UNL     1      -9.708   3.360  67.101  1.00  0.00    -0.355 OA 
HETATM   24  O   UNL     1     -11.025   5.699  66.725  1.00  0.00    -0.259 OA 
HETATM   25  C   UNL     1      -9.189   4.915  70.354  1.00  0.00    -0.189 A  
HETATM   26  H   UNL     1      -9.256   2.534  67.226  1.00  0.00     0.000 HD 
ENDBRANCH   6  17
TORSDOF 2
ENDMDL
MODEL       80
REMARK 921   NORMALIZED FREE ENERGY PREDICTED BY IDOCK:   -5.34 KCAL/MOL
REMARK 922        TOTAL FREE ENERGY PREDICTED BY IDOCK:   -6.15 KCAL/MOL
REMARK 923 INTER-LIGAND FREE ENERGY PREDICTED BY IDOCK:   -5.57 KCAL/MOL
REMARK 924 INTRA-LIGAND FREE ENERGY PREDICTED BY IDOCK:   -0.58 KCAL/MOL
REMARK 927      BINDING AFFINITY PREDICTED BY RF-SCORE:    0.00 PKD
ROOT
HETATM    1  C   UNL     1      -8.260  12.694  67.708  1.00  0.00    -0.171 C  
HETATM    2  C   UNL     1      -9.616  12.256  67.126  1.00  0.00    -0.200 C  
HETATM    3  C   UNL     1     -10.505  13.514  66.914  1.00  0.00    -0.271 C  
HETATM    4  C   UNL     1      -9.447  11.448  65.795  1.00  0.00    -0.256 C  
HETATM    5  C   UNL     1     -10.806  11.040  65.198  1.00  0.00    -0.183 C  
HETATM    6  C   UNL     1      -8.508  10.209  65.886  1.00  0.00    -0.146 C  
ENDROOT
BRANCH   3   7
HETATM    7  C   UNL     1     -10.890  14.256  68.175  1.00  0.00    -0.253 A  
HETATM    8  C   UNL     1     -10.572  15.617  68.325  1.00  0.00    -0.262 A  
HETATM    9  C   UNL     1     -11.622  13.609  69.186  1.00  0.00    -0.356 A  
HETATM   10  C   UNL     1     -10.973  16.295  69.469  1.00  0.00    -0.339 A  
HETATM   11  H   UNL     1     -12.556  15.861  72.272  1.00  0.00     0.000 HD 
HETATM   12  O   UNL     1     -10.701  17.622  69.661  1.00  0.00    -0.298 OA 
HETATM   13  C   UNL     1     -12.014  14.295  70.334  1.00  0.00    -0.402 A  
HETATM   14  C   UNL     1     -11.683  15.635  70.469  1.00  0.00    -0.366 A  
HETATM   15  O   UNL     1     -12.071  16.311  71.590  1.00  0.00    -0.444 OA 
HETATM   16  H   UNL     1     -10.975  18.086  70.444  1.00  0.00     0.000 HD 
ENDBRANCH   3   7
BRANCH   6  17
HETATM   17  C   UNL     1      -9.000   9.084  66.771  1.00  0.00    -0.160 A  
HETATM   18  C   UNL     1     -10.079   7.148  68.468  1.00  0.00    -0.168 A  
HETATM   19  C   UNL     1      -9.024   7.944  68.901  1.00  0.00    -0.141 A  
HETATM   20  C   UNL     1      -8.470   8.900  68.056  1.00  0.00    -0.126 A  
HETATM   21  H   UNL     1      -8.956   7.117  70.757  1.00  0.00     0.000 HD 
HETATM   22  C   UNL     1     -10.574   7.268  67.180  1.00  0.00    -0.416 A  
HETATM   23  O   UNL     1     -10.645   6.245  69.320  1.00  0.00    -0.215 OA 
HETATM   24  O   UNL     1      -8.577   7.770  70.181  1.00  0.00    -0.135 OA 
HETATM   25  C   UNL     1     -10.031   8.233  66.331  1.00  0.00    -0.264 A  
HETATM   26  H   UNL     1     -11.365   5.700  69.024  1.00  0.00     0.000 HD 
ENDBRANCH   6  17
TORSDOF 2
ENDMDL
MODEL       81
REMARK 921   NORMALIZED FREE ENERGY PREDICTED BY IDOCK:   -5.32 KCAL/MOL
REMARK 922        TOTAL FREE ENERGY PREDICTED BY IDOCK:   -6.13 KCAL/MOL
REMARK 923 INTER-LIGAND FREE ENERGY PREDICTED BY IDOCK:   -5.93 KCAL/MOL
REMARK 924 INTRA-LIGAND FREE ENERGY PREDICTED BY IDOCK:   -0.20 KCAL/MOL
REMARK 927      BINDING AFFINITY PREDICTED BY RF-SCORE:    0.00 PKD
ROOT
HETATM    1  C   UNL     1      -9.588  12.563  68.650  1.00  0.00    -0.029 C  
HETATM    2  C   UNL     1     -10.900  12.312  67.888  1.00  0.00    -0.252 C  
HETATM    3  C   UNL     1     -12.077  12.281  68.904  1.00  0.00    -0.177 C  
HETATM    4  C   UNL     1     -11.142  13.384  66.771  1.00  0.00    -0.308 C  
HETATM    5  C   UNL     1     -12.472  13.151  66.032  1.00  0.00    -0.330 C  
HETATM    6  C   UNL     1      -9.981  13.546  65.746  1.00  0.00    -0.266 C  
ENDROOT
BRANCH   3   7
HETATM    7  C   UNL     1     -12.037  11.151  69.909  1.00  0.00    -0.418 A  
HETATM    8  C   UNL     1     -11.195  10.045  69.703  1.00  0.00    -0.285 A  
HETATM    9  C   UNL     1     -12.796  11.223  71.090  1.00  0.00    -0.452 A  
HETATM   10  C   UNL     1     -11.137   9.038  70.658  1.00  0.00    -0.265 A  
HETATM   11  H   UNL     1     -12.370   8.173  73.536  1.00  0.00     0.000 HD 
HETATM   12  O   UNL     1     -10.326   7.945  70.514  1.00  0.00    -0.201 OA 
HETATM   13  C   UNL     1     -12.737  10.205  72.040  1.00  0.00    -0.421 A  
HETATM   14  C   UNL     1     -11.908   9.116  71.815  1.00  0.00    -0.383 A  
HETATM   15  O   UNL     1     -11.843   8.120  72.747  1.00  0.00    -0.389 OA 
HETATM   16  H   UNL     1     -10.286   7.257  71.167  1.00  0.00     0.000 HD 
ENDBRANCH   3   7
BRANCH   6  17
HETATM   17  C   UNL     1      -9.727  12.348  64.856  1.00  0.00    -0.019 A  
HETATM   18  C   UNL     1      -9.485  10.095  63.226  1.00  0.00    -0.257 A  
HETATM   19  C   UNL     1      -9.214  10.003  64.587  1.00  0.00    -0.258 A  
HETATM   20  C   UNL     1      -9.316  11.124  65.403  1.00  0.00    -0.243 A  
HETATM   21  H   UNL     1      -8.802   8.012  64.530  1.00  0.00     0.000 HD 
HETATM   22  C   UNL     1      -9.830  11.308  62.653  1.00  0.00    -0.130 A  
HETATM   23  O   UNL     1      -9.426   8.979  62.443  1.00  0.00    -0.529 OA 
HETATM   24  O   UNL     1      -8.872   8.777  65.088  1.00  0.00    -0.186 OA 
HETATM   25  C   UNL     1      -9.946  12.435  63.469  1.00  0.00    -0.137 A  
HETATM   26  H   UNL     1      -9.611   9.041  61.513  1.00  0.00     0.000 HD 
ENDBRANCH   6  17
TORSDOF 2
ENDMDL
MODEL       82
REMARK 921   NORMALIZED FREE ENERGY PREDICTED BY IDOCK:   -5.31 KCAL/MOL
REMARK 922        TOTAL FREE ENERGY PREDICTED BY IDOCK:   -6.12 KCAL/MOL
REMARK 923 INTER-LIGAND FREE ENERGY PREDICTED BY IDOCK:   -5.50 KCAL/MOL
REMARK 924 INTRA-LIGAND FREE ENERGY PREDICTED BY IDOCK:   -0.62 KCAL/MOL
REMARK 927      BINDING AFFINITY PREDICTED BY RF-SCORE:    0.00 PKD
ROOT
HETATM    1  C   UNL     1     -10.878  13.316  68.598  1.00  0.00    -0.285 C  
HETATM    2  C   UNL     1     -10.379  13.865  67.250  1.00  0.00    -0.257 C  
HETATM    3  C   UNL     1     -10.657  12.811  66.141  1.00  0.00    -0.286 C  
HETATM    4  C   UNL     1     -11.036  15.243  66.901  1.00  0.00    -0.288 C  
HETATM    5  C   UNL     1     -10.560  15.774  65.536  1.00  0.00    -0.424 C  
HETATM    6  C   UNL     1     -10.879  16.347  67.988  1.00  0.00    -0.342 C  
ENDROOT
BRANCH   3   7
HETATM    7  C   UNL     1      -9.907  11.504  66.285  1.00  0.00    -0.245 A  
HETATM    8  C   UNL     1     -10.604  10.285  66.331  1.00  0.00    -0.177 A  
HETATM    9  C   UNL     1      -8.502  11.491  66.314  1.00  0.00    -0.108 A  
HETATM   10  C   UNL     1      -9.898   9.092  66.418  1.00  0.00    -0.280 A  
HETATM   11  H   UNL     1      -6.872   7.922  66.579  1.00  0.00     0.000 HD 
HETATM   12  O   UNL     1     -10.525   7.877  66.453  1.00  0.00    -0.464 OA 
HETATM   13  C   UNL     1      -7.801  10.290  66.408  1.00  0.00    -0.119 A  
HETATM   14  C   UNL     1      -8.506   9.098  66.463  1.00  0.00    -0.123 A  
HETATM   15  O   UNL     1      -7.822   7.918  66.549  1.00  0.00    -0.094 OA 
HETATM   16  H   UNL     1     -10.042   7.061  66.513  1.00  0.00     0.000 HD 
ENDBRANCH   3   7
BRANCH   6  17
HETATM   17  C   UNL     1      -9.464  16.826  68.229  1.00  0.00    -0.240 A  
HETATM   18  C   UNL     1      -6.916  17.758  68.889  1.00  0.00    -0.250 A  
HETATM   19  C   UNL     1      -7.821  18.598  68.249  1.00  0.00    -0.307 A  
HETATM   20  C   UNL     1      -9.086  18.137  67.902  1.00  0.00    -0.270 A  
HETATM   21  H   UNL     1      -6.567  20.199  68.239  1.00  0.00     0.000 HD 
HETATM   22  C   UNL     1      -7.245  16.441  69.163  1.00  0.00    -0.222 A  
HETATM   23  O   UNL     1      -5.694  18.234  69.267  1.00  0.00    -0.207 OA 
HETATM   24  O   UNL     1      -7.431  19.885  68.001  1.00  0.00    -0.288 OA 
HETATM   25  C   UNL     1      -8.517  15.975  68.828  1.00  0.00    -0.228 A  
HETATM   26  H   UNL     1      -5.076  17.661  69.704  1.00  0.00     0.000 HD 
ENDBRANCH   6  17
TORSDOF 2
ENDMDL
MODEL       83
REMARK 921   NORMALIZED FREE ENERGY PREDICTED BY IDOCK:   -5.31 KCAL/MOL
REMARK 922        TOTAL FREE ENERGY PREDICTED BY IDOCK:   -6.12 KCAL/MOL
REMARK 923 INTER-LIGAND FREE ENERGY PREDICTED BY IDOCK:   -5.82 KCAL/MOL
REMARK 924 INTRA-LIGAND FREE ENERGY PREDICTED BY IDOCK:   -0.30 KCAL/MOL
REMARK 927      BINDING AFFINITY PREDICTED BY RF-SCORE:    0.00 PKD
ROOT
HETATM    1  C   UNL     1      -7.629  10.661  65.709  1.00  0.00    -0.120 C  
HETATM    2  C   UNL     1      -8.395  10.910  67.020  1.00  0.00    -0.132 C  
HETATM    3  C   UNL     1      -9.871  10.457  66.836  1.00  0.00    -0.236 C  
HETATM    4  C   UNL     1      -7.725  10.186  68.236  1.00  0.00    -0.088 C  
HETATM    5  C   UNL     1      -8.513  10.410  69.540  1.00  0.00    -0.115 C  
HETATM    6  C   UNL     1      -6.220  10.516  68.457  1.00  0.00    -0.046 C  
ENDROOT
BRANCH   3   7
HETATM    7  C   UNL     1     -10.667  11.237  65.812  1.00  0.00    -0.284 A  
HETATM    8  C   UNL     1     -11.540  12.260  66.219  1.00  0.00    -0.446 A  
HETATM    9  C   UNL     1     -10.498  10.986  64.440  1.00  0.00    -0.422 A  
HETATM   10  C   UNL     1     -12.229  12.996  65.263  1.00  0.00    -0.466 A  
HETATM   11  H   UNL     1     -12.633  13.268  62.052  1.00  0.00     0.000 HD 
HETATM   12  O   UNL     1     -13.082  14.011  65.603  1.00  0.00    -0.639 OA 
HETATM   13  C   UNL     1     -11.199  11.725  63.488  1.00  0.00    -0.494 A  
HETATM   14  C   UNL     1     -12.063  12.724  63.908  1.00  0.00    -0.486 A  
HETATM   15  O   UNL     1     -12.747  13.454  62.977  1.00  0.00    -0.631 OA 
HETATM   16  H   UNL     1     -13.553  14.514  64.949  1.00  0.00     0.000 HD 
ENDBRANCH   3   7
BRANCH   6  17
HETATM   17  C   UNL     1      -5.918  11.945  68.853  1.00  0.00    -0.055 A  
HETATM   18  C   UNL     1      -5.589  14.612  69.611  1.00  0.00    -0.095 A  
HETATM   19  C   UNL     1      -5.609  14.268  68.264  1.00  0.00    -0.118 A  
HETATM   20  C   UNL     1      -5.757  12.940  67.878  1.00  0.00    -0.121 A  
HETATM   21  H   UNL     1      -5.405  16.183  67.610  1.00  0.00     0.000 HD 
HETATM   22  C   UNL     1      -5.682  13.638  70.592  1.00  0.00    -0.187 A  
HETATM   23  O   UNL     1      -5.491  15.923  69.978  1.00  0.00    -0.134 OA 
HETATM   24  O   UNL     1      -5.506  15.276  67.346  1.00  0.00    -0.338 OA 
HETATM   25  C   UNL     1      -5.842  12.305  70.212  1.00  0.00    -0.166 A  
HETATM   26  H   UNL     1      -5.477  16.158  70.898  1.00  0.00     0.000 HD 
ENDBRANCH   6  17
TORSDOF 2
ENDMDL
MODEL       84
REMARK 921   NORMALIZED FREE ENERGY PREDICTED BY IDOCK:   -5.29 KCAL/MOL
REMARK 922        TOTAL FREE ENERGY PREDICTED BY IDOCK:   -6.10 KCAL/MOL
REMARK 923 INTER-LIGAND FREE ENERGY PREDICTED BY IDOCK:   -6.19 KCAL/MOL
REMARK 924 INTRA-LIGAND FREE ENERGY PREDICTED BY IDOCK:    0.10 KCAL/MOL
REMARK 927      BINDING AFFINITY PREDICTED BY RF-SCORE:    0.00 PKD
ROOT
HETATM    1  C   UNL     1     -11.729  13.564  68.595  1.00  0.00    -0.389 C  
HETATM    2  C   UNL     1     -10.947  14.003  67.344  1.00  0.00    -0.302 C  
HETATM    3  C   UNL     1     -11.324  13.069  66.159  1.00  0.00    -0.349 C  
HETATM    4  C   UNL     1     -11.208  15.505  66.988  1.00  0.00    -0.177 C  
HETATM    5  C   UNL     1     -10.451  15.932  65.717  1.00  0.00    -0.386 C  
HETATM    6  C   UNL     1     -10.934  16.517  68.140  1.00  0.00    -0.336 C  
ENDROOT
BRANCH   3   7
HETATM    7  C   UNL     1     -10.929  11.617  66.326  1.00  0.00    -0.338 A  
HETATM    8  C   UNL     1     -10.197  10.959  65.323  1.00  0.00    -0.351 A  
HETATM    9  C   UNL     1     -11.239  10.928  67.512  1.00  0.00    -0.364 A  
HETATM   10  C   UNL     1      -9.805   9.640  65.512  1.00  0.00    -0.281 A  
HETATM   11  H   UNL     1      -9.968   7.209  67.661  1.00  0.00     0.000 HD 
HETATM   12  O   UNL     1      -9.080   8.956  64.575  1.00  0.00    -0.434 OA 
HETATM   13  C   UNL     1     -10.847   9.603  67.690  1.00  0.00    -0.276 A  
HETATM   14  C   UNL     1     -10.134   8.966  66.685  1.00  0.00    -0.287 A  
HETATM   15  O   UNL     1      -9.743   7.669  66.860  1.00  0.00    -0.181 OA 
HETATM   16  H   UNL     1      -8.812   8.054  64.704  1.00  0.00     0.000 HD 
ENDBRANCH   3   7
BRANCH   6  17
HETATM   17  C   UNL     1      -9.488  16.636  68.570  1.00  0.00    -0.239 A  
HETATM   18  C   UNL     1      -6.761  16.777  69.154  1.00  0.00    -0.223 A  
HETATM   19  C   UNL     1      -7.505  15.675  69.562  1.00  0.00    -0.192 A  
HETATM   20  C   UNL     1      -8.866  15.604  69.289  1.00  0.00    -0.264 A  
HETATM   21  H   UNL     1      -5.917  14.716  70.396  1.00  0.00     0.000 HD 
HETATM   22  C   UNL     1      -7.367  17.837  68.500  1.00  0.00    -0.266 A  
HETATM   23  O   UNL     1      -5.417  16.816  69.387  1.00  0.00    -0.136 OA 
HETATM   24  O   UNL     1      -6.847  14.667  70.210  1.00  0.00    -0.143 OA 
HETATM   25  C   UNL     1      -8.731  17.767  68.213  1.00  0.00    -0.277 A  
HETATM   26  H   UNL     1      -4.908  17.569  69.109  1.00  0.00     0.000 HD 
ENDBRANCH   6  17
TORSDOF 2
ENDMDL
MODEL       85
REMARK 921   NORMALIZED FREE ENERGY PREDICTED BY IDOCK:   -5.28 KCAL/MOL
REMARK 922        TOTAL FREE ENERGY PREDICTED BY IDOCK:   -6.09 KCAL/MOL
REMARK 923 INTER-LIGAND FREE ENERGY PREDICTED BY IDOCK:   -6.38 KCAL/MOL
REMARK 924 INTRA-LIGAND FREE ENERGY PREDICTED BY IDOCK:    0.28 KCAL/MOL
REMARK 927      BINDING AFFINITY PREDICTED BY RF-SCORE:    0.00 PKD
ROOT
HETATM    1  C   UNL     1      -8.096  11.024  66.504  1.00  0.00    -0.161 C  
HETATM    2  C   UNL     1      -9.167   9.920  66.474  1.00  0.00    -0.190 C  
HETATM    3  C   UNL     1      -9.954  10.016  65.137  1.00  0.00    -0.350 C  
HETATM    4  C   UNL     1      -8.543   8.495  66.665  1.00  0.00    -0.122 C  
HETATM    5  C   UNL     1      -9.613   7.390  66.601  1.00  0.00    -0.251 C  
HETATM    6  C   UNL     1      -7.668   8.321  67.941  1.00  0.00    -0.103 C  
ENDROOT
BRANCH   3   7
HETATM    7  C   UNL     1     -10.757  11.285  64.946  1.00  0.00    -0.337 A  
HETATM    8  C   UNL     1     -11.204  12.017  66.058  1.00  0.00    -0.385 A  
HETATM    9  C   UNL     1     -11.011  11.777  63.654  1.00  0.00    -0.513 A  
HETATM   10  C   UNL     1     -11.901  13.204  65.865  1.00  0.00    -0.406 A  
HETATM   11  H   UNL     1     -13.023  15.154  63.522  1.00  0.00     0.000 HD 
HETATM   12  O   UNL     1     -12.349  13.962  66.912  1.00  0.00    -0.445 OA 
HETATM   13  C   UNL     1     -11.717  12.965  63.469  1.00  0.00    -0.576 A  
HETATM   14  C   UNL     1     -12.160  13.669  64.579  1.00  0.00    -0.419 A  
HETATM   15  O   UNL     1     -12.847  14.836  64.400  1.00  0.00    -0.534 OA 
HETATM   16  H   UNL     1     -12.826  14.774  66.780  1.00  0.00     0.000 HD 
ENDBRANCH   3   7
BRANCH   6  17
HETATM   17  C   UNL     1      -8.410   8.420  69.257  1.00  0.00    -0.121 A  
HETATM   18  C   UNL     1      -9.730   8.378  71.716  1.00  0.00    -0.237 A  
HETATM   19  C   UNL     1     -10.453   8.248  70.535  1.00  0.00    -0.210 A  
HETATM   20  C   UNL     1      -9.805   8.284  69.305  1.00  0.00    -0.186 A  
HETATM   21  H   UNL     1     -12.246   8.037  71.471  1.00  0.00     0.000 HD 
HETATM   22  C   UNL     1      -8.360   8.578  71.689  1.00  0.00    -0.218 A  
HETATM   23  O   UNL     1     -10.370   8.296  72.919  1.00  0.00    -0.302 OA 
HETATM   24  O   UNL     1     -11.804   8.061  70.631  1.00  0.00    -0.223 OA 
HETATM   25  C   UNL     1      -7.701   8.603  70.459  1.00  0.00    -0.086 A  
HETATM   26  H   UNL     1      -9.877   8.385  73.726  1.00  0.00     0.000 HD 
ENDBRANCH   6  17
TORSDOF 2
ENDMDL
MODEL       86
REMARK 921   NORMALIZED FREE ENERGY PREDICTED BY IDOCK:   -5.28 KCAL/MOL
REMARK 922        TOTAL FREE ENERGY PREDICTED BY IDOCK:   -6.09 KCAL/MOL
REMARK 923 INTER-LIGAND FREE ENERGY PREDICTED BY IDOCK:   -5.50 KCAL/MOL
REMARK 924 INTRA-LIGAND FREE ENERGY PREDICTED BY IDOCK:   -0.59 KCAL/MOL
REMARK 927      BINDING AFFINITY PREDICTED BY RF-SCORE:    0.00 PKD
ROOT
HETATM    1  C   UNL     1      -7.176   7.788  65.736  1.00  0.00    -0.068 C  
HETATM    2  C   UNL     1      -8.472   7.858  66.562  1.00  0.00    -0.134 C  
HETATM    3  C   UNL     1      -8.612   6.551  67.393  1.00  0.00    -0.118 C  
HETATM    4  C   UNL     1      -8.510   9.124  67.484  1.00  0.00    -0.116 C  
HETATM    5  C   UNL     1      -9.792   9.174  68.334  1.00  0.00    -0.181 C  
HETATM    6  C   UNL     1      -8.299  10.483  66.752  1.00  0.00    -0.128 C  
ENDROOT
BRANCH   3   7
HETATM    7  C   UNL     1      -8.782   5.283  66.585  1.00  0.00    -0.113 A  
HETATM    8  C   UNL     1      -9.984   5.030  65.903  1.00  0.00    -0.189 A  
HETATM    9  C   UNL     1      -7.717   4.373  66.459  1.00  0.00    -0.094 A  
HETATM   10  C   UNL     1     -10.106   3.883  65.130  1.00  0.00    -0.141 A  
HETATM   11  H   UNL     1      -8.460   1.243  64.196  1.00  0.00     0.000 HD 
HETATM   12  O   UNL     1     -11.250   3.593  64.435  1.00  0.00    -0.642 OA 
HETATM   13  C   UNL     1      -7.852   3.221  65.686  1.00  0.00    -0.085 A  
HETATM   14  C   UNL     1      -9.049   2.983  65.028  1.00  0.00    -0.146 A  
HETATM   15  O   UNL     1      -9.181   1.857  64.265  1.00  0.00    -0.114 OA 
HETATM   16  H   UNL     1     -11.334   2.808  63.906  1.00  0.00     0.000 HD 
ENDBRANCH   3   7
BRANCH   6  17
HETATM   17  C   UNL     1      -9.394  10.876  65.784  1.00  0.00    -0.232 A  
HETATM   18  C   UNL     1     -11.286  11.789  63.946  1.00  0.00    -0.411 A  
HETATM   19  C   UNL     1     -11.452  12.047  65.303  1.00  0.00    -0.302 A  
HETATM   20  C   UNL     1     -10.522  11.582  66.226  1.00  0.00    -0.294 A  
HETATM   21  H   UNL     1     -13.171  13.104  65.052  1.00  0.00     0.000 HD 
HETATM   22  C   UNL     1     -10.214  11.039  63.493  1.00  0.00    -0.424 A  
HETATM   23  O   UNL     1     -12.180  12.290  63.044  1.00  0.00    -0.687 OA 
HETATM   24  O   UNL     1     -12.536  12.787  65.684  1.00  0.00    -0.596 OA 
HETATM   25  C   UNL     1      -9.270  10.579  64.414  1.00  0.00    -0.281 A  
HETATM   26  H   UNL     1     -12.068  12.113  62.117  1.00  0.00     0.000 HD 
ENDBRANCH   6  17
TORSDOF 2
ENDMDL
MODEL       87
REMARK 921   NORMALIZED FREE ENERGY PREDICTED BY IDOCK:   -5.27 KCAL/MOL
REMARK 922        TOTAL FREE ENERGY PREDICTED BY IDOCK:   -6.08 KCAL/MOL
REMARK 923 INTER-LIGAND FREE ENERGY PREDICTED BY IDOCK:   -5.89 KCAL/MOL
REMARK 924 INTRA-LIGAND FREE ENERGY PREDICTED BY IDOCK:   -0.20 KCAL/MOL
REMARK 927      BINDING AFFINITY PREDICTED BY RF-SCORE:    0.00 PKD
ROOT
HETATM    1  C   UNL     1      -8.614  10.984  68.896  1.00  0.00    -0.122 C  
HETATM    2  C   UNL     1      -9.663  10.814  67.783  1.00  0.00    -0.179 C  
HETATM    3  C   UNL     1     -10.605  12.050  67.784  1.00  0.00    -0.234 C  
HETATM    4  C   UNL     1      -8.998  10.607  66.379  1.00  0.00    -0.176 C  
HETATM    5  C   UNL     1     -10.050  10.471  65.263  1.00  0.00    -0.369 C  
HETATM    6  C   UNL     1      -7.975   9.437  66.296  1.00  0.00    -0.111 C  
ENDROOT
BRANCH   3   7
HETATM    7  C   UNL     1     -11.445  12.225  69.032  1.00  0.00    -0.349 A  
HETATM    8  C   UNL     1     -11.940  11.104  69.718  1.00  0.00    -0.428 A  
HETATM    9  C   UNL     1     -11.688  13.509  69.550  1.00  0.00    -0.382 A  
HETATM   10  C   UNL     1     -12.671  11.281  70.887  1.00  0.00    -0.318 A  
HETATM   11  H   UNL     1     -13.806  13.596  72.863  1.00  0.00     0.000 HD 
HETATM   12  O   UNL     1     -13.166  10.225  71.602  1.00  0.00    -0.395 OA 
HETATM   13  C   UNL     1     -12.428  13.677  70.719  1.00  0.00    -0.432 A  
HETATM   14  C   UNL     1     -12.917  12.560  71.378  1.00  0.00    -0.251 A  
HETATM   15  O   UNL     1     -13.638  12.723  72.527  1.00  0.00    -0.538 OA 
HETATM   16  H   UNL     1     -13.666  10.346  72.401  1.00  0.00     0.000 HD 
ENDBRANCH   3   7
BRANCH   6  17
HETATM   17  C   UNL     1      -8.556   8.051  66.476  1.00  0.00    -0.148 A  
HETATM   18  C   UNL     1      -9.768   5.541  66.631  1.00  0.00    -0.159 A  
HETATM   19  C   UNL     1     -10.183   6.568  67.471  1.00  0.00    -0.176 A  
HETATM   20  C   UNL     1      -9.574   7.817  67.411  1.00  0.00    -0.192 A  
HETATM   21  H   UNL     1     -11.634   5.459  68.368  1.00  0.00     0.000 HD 
HETATM   22  C   UNL     1      -8.721   5.731  65.744  1.00  0.00    -0.152 A  
HETATM   23  O   UNL     1     -10.404   4.333  66.665  1.00  0.00    -0.317 OA 
HETATM   24  O   UNL     1     -11.218   6.312  68.327  1.00  0.00    -0.328 OA 
HETATM   25  C   UNL     1      -8.112   6.985  65.671  1.00  0.00    -0.129 A  
HETATM   26  H   UNL     1     -10.120   3.631  66.091  1.00  0.00     0.000 HD 
ENDBRANCH   6  17
TORSDOF 2
ENDMDL
MODEL       88
REMARK 921   NORMALIZED FREE ENERGY PREDICTED BY IDOCK:   -5.26 KCAL/MOL
REMARK 922        TOTAL FREE ENERGY PREDICTED BY IDOCK:   -6.07 KCAL/MOL
REMARK 923 INTER-LIGAND FREE ENERGY PREDICTED BY IDOCK:   -5.48 KCAL/MOL
REMARK 924 INTRA-LIGAND FREE ENERGY PREDICTED BY IDOCK:   -0.59 KCAL/MOL
REMARK 927      BINDING AFFINITY PREDICTED BY RF-SCORE:    0.00 PKD
ROOT
HETATM    1  C   UNL     1      -7.832   6.020  70.029  1.00  0.00    -0.105 C  
HETATM    2  C   UNL     1      -9.180   5.449  70.503  1.00  0.00    -0.183 C  
HETATM    3  C   UNL     1      -9.298   3.972  70.030  1.00  0.00    -0.242 C  
HETATM    4  C   UNL     1      -9.349   5.562  72.056  1.00  0.00    -0.164 C  
HETATM    5  C   UNL     1     -10.685   4.960  72.531  1.00  0.00    -0.258 C  
HETATM    6  C   UNL     1      -9.171   6.995  72.639  1.00  0.00    -0.154 C  
ENDROOT
BRANCH   3   7
HETATM    7  C   UNL     1      -9.342   3.773  68.530  1.00  0.00    -0.227 A  
HETATM    8  C   UNL     1     -10.155   4.592  67.728  1.00  0.00    -0.097 A  
HETATM    9  C   UNL     1      -8.526   2.807  67.917  1.00  0.00    -0.103 A  
HETATM   10  C   UNL     1     -10.149   4.425  66.348  1.00  0.00    -0.209 A  
HETATM   11  H   UNL     1      -8.804   2.632  63.998  1.00  0.00     0.000 HD 
HETATM   12  O   UNL     1     -10.911   5.203  65.519  1.00  0.00    -0.663 OA 
HETATM   13  C   UNL     1      -8.533   2.642  66.533  1.00  0.00    -0.104 A  
HETATM   14  C   UNL     1      -9.348   3.452  65.758  1.00  0.00    -0.144 A  
HETATM   15  O   UNL     1      -9.351   3.296  64.400  1.00  0.00    -0.127 OA 
HETATM   16  H   UNL     1     -10.908   5.089  64.576  1.00  0.00     0.000 HD 
ENDBRANCH   3   7
BRANCH   6  17
HETATM   17  C   UNL     1     -10.222   8.002  72.224  1.00  0.00    -0.325 A  
HETATM   18  C   UNL     1     -12.255   9.693  71.328  1.00  0.00    -0.363 A  
HETATM   19  C   UNL     1     -11.007   9.718  70.715  1.00  0.00    -0.336 A  
HETATM   20  C   UNL     1      -9.984   8.891  71.165  1.00  0.00    -0.342 A  
HETATM   21  H   UNL     1     -11.535  11.124  69.343  1.00  0.00     0.000 HD 
HETATM   22  C   UNL     1     -12.492   8.870  72.416  1.00  0.00    -0.405 A  
HETATM   23  O   UNL     1     -13.265  10.476  70.849  1.00  0.00    -0.353 OA 
HETATM   24  O   UNL     1     -10.836  10.559  69.650  1.00  0.00    -0.240 OA 
HETATM   25  C   UNL     1     -11.474   8.028  72.866  1.00  0.00    -0.329 A  
HETATM   26  H   UNL     1     -14.118  10.459  71.268  1.00  0.00     0.000 HD 
ENDBRANCH   6  17
TORSDOF 2
ENDMDL
MODEL       89
REMARK 921   NORMALIZED FREE ENERGY PREDICTED BY IDOCK:   -5.25 KCAL/MOL
REMARK 922        TOTAL FREE ENERGY PREDICTED BY IDOCK:   -6.06 KCAL/MOL
REMARK 923 INTER-LIGAND FREE ENERGY PREDICTED BY IDOCK:   -5.39 KCAL/MOL
REMARK 924 INTRA-LIGAND FREE ENERGY PREDICTED BY IDOCK:   -0.67 KCAL/MOL
REMARK 927      BINDING AFFINITY PREDICTED BY RF-SCORE:    0.00 PKD
ROOT
HETATM    1  C   UNL     1     -10.624   9.214  66.936  1.00  0.00    -0.237 C  
HETATM    2  C   UNL     1      -9.548   9.831  67.847  1.00  0.00    -0.158 C  
HETATM    3  C   UNL     1      -8.884   8.699  68.682  1.00  0.00    -0.142 C  
HETATM    4  C   UNL     1      -8.480  10.635  67.030  1.00  0.00    -0.129 C  
HETATM    5  C   UNL     1      -7.387  11.223  67.941  1.00  0.00    -0.092 C  
HETATM    6  C   UNL     1      -9.055  11.743  66.100  1.00  0.00    -0.189 C  
ENDROOT
BRANCH   3   7
HETATM    7  C   UNL     1      -9.800   7.988  69.655  1.00  0.00    -0.184 A  
HETATM    8  C   UNL     1     -10.568   8.722  70.575  1.00  0.00    -0.252 A  
HETATM    9  C   UNL     1      -9.938   6.590  69.609  1.00  0.00    -0.186 A  
HETATM   10  C   UNL     1     -11.437   8.056  71.430  1.00  0.00    -0.258 A  
HETATM   11  H   UNL     1     -12.483   5.078  72.199  1.00  0.00     0.000 HD 
HETATM   12  O   UNL     1     -12.217   8.721  72.337  1.00  0.00    -0.370 OA 
HETATM   13  C   UNL     1     -10.807   5.930  70.476  1.00  0.00    -0.366 A  
HETATM   14  C   UNL     1     -11.549   6.669  71.384  1.00  0.00    -0.313 A  
HETATM   15  O   UNL     1     -12.406   6.025  72.231  1.00  0.00    -0.252 OA 
HETATM   16  H   UNL     1     -12.811   8.266  72.922  1.00  0.00     0.000 HD 
ENDBRANCH   3   7
BRANCH   6  17
HETATM   17  C   UNL     1      -9.720  12.905  66.806  1.00  0.00    -0.246 A  
HETATM   18  C   UNL     1     -11.042  15.105  67.906  1.00  0.00    -0.321 A  
HETATM   19  C   UNL     1      -9.710  15.214  67.519  1.00  0.00    -0.205 A  
HETATM   20  C   UNL     1      -9.040  14.119  66.985  1.00  0.00    -0.255 A  
HETATM   21  H   UNL     1      -9.561  17.178  68.024  1.00  0.00     0.000 HD 
HETATM   22  C   UNL     1     -11.714  13.898  67.797  1.00  0.00    -0.401 A  
HETATM   23  O   UNL     1     -11.704  16.198  68.385  1.00  0.00    -0.320 OA 
HETATM   24  O   UNL     1      -9.103  16.431  67.659  1.00  0.00    -0.197 OA 
HETATM   25  C   UNL     1     -11.050  12.798  67.252  1.00  0.00    -0.314 A  
HETATM   26  H   UNL     1     -12.613  16.123  68.650  1.00  0.00     0.000 HD 
ENDBRANCH   6  17
TORSDOF 2
ENDMDL
MODEL       90
REMARK 921   NORMALIZED FREE ENERGY PREDICTED BY IDOCK:   -5.24 KCAL/MOL
REMARK 922        TOTAL FREE ENERGY PREDICTED BY IDOCK:   -6.05 KCAL/MOL
REMARK 923 INTER-LIGAND FREE ENERGY PREDICTED BY IDOCK:   -5.48 KCAL/MOL
REMARK 924 INTRA-LIGAND FREE ENERGY PREDICTED BY IDOCK:   -0.57 KCAL/MOL
REMARK 927      BINDING AFFINITY PREDICTED BY RF-SCORE:    0.00 PKD
ROOT
HETATM    1  C   UNL     1      -8.481   6.484  70.494  1.00  0.00    -0.138 C  
HETATM    2  C   UNL     1     -10.011   6.329  70.440  1.00  0.00    -0.214 C  
HETATM    3  C   UNL     1     -10.357   4.849  70.111  1.00  0.00    -0.253 C  
HETATM    4  C   UNL     1     -10.693   6.789  71.773  1.00  0.00    -0.250 C  
HETATM    5  C   UNL     1     -12.221   6.601  71.729  1.00  0.00    -0.400 C  
HETATM    6  C   UNL     1     -10.345   8.236  72.230  1.00  0.00    -0.386 C  
ENDROOT
BRANCH   3   7
HETATM    7  C   UNL     1      -9.909   4.365  68.749  1.00  0.00    -0.149 A  
HETATM    8  C   UNL     1      -9.977   5.217  67.634  1.00  0.00    -0.202 A  
HETATM    9  C   UNL     1      -9.365   3.078  68.596  1.00  0.00    -0.237 A  
HETATM   10  C   UNL     1      -9.520   4.772  66.400  1.00  0.00    -0.158 A  
HETATM   11  H   UNL     1      -8.198   2.185  64.948  1.00  0.00     0.000 HD 
HETATM   12  O   UNL     1      -9.551   5.564  65.284  1.00  0.00    -0.365 OA 
HETATM   13  C   UNL     1      -8.916   2.637  67.352  1.00  0.00    -0.187 A  
HETATM   14  C   UNL     1      -8.999   3.488  66.261  1.00  0.00    -0.144 A  
HETATM   15  O   UNL     1      -8.553   3.061  65.042  1.00  0.00    -0.095 OA 
HETATM   16  H   UNL     1      -9.238   5.259  64.440  1.00  0.00     0.000 HD 
ENDBRANCH   3   7
BRANCH   6  17
HETATM   17  C   UNL     1     -10.847   9.342  71.328  1.00  0.00    -0.431 A  
HETATM   18  C   UNL     1     -11.621  11.522  69.765  1.00  0.00    -0.326 A  
HETATM   19  C   UNL     1     -12.352  11.183  70.899  1.00  0.00    -0.399 A  
HETATM   20  C   UNL     1     -11.983  10.090  71.674  1.00  0.00    -0.369 A  
HETATM   21  H   UNL     1     -13.669  12.720  70.701  1.00  0.00     0.000 HD 
HETATM   22  C   UNL     1     -10.535  10.760  69.369  1.00  0.00    -0.229 A  
HETATM   23  O   UNL     1     -11.965  12.625  69.038  1.00  0.00    -0.290 OA 
HETATM   24  O   UNL     1     -13.417  11.973  71.231  1.00  0.00     0.054 OA 
HETATM   25  C   UNL     1     -10.152   9.667  70.148  1.00  0.00    -0.311 A  
HETATM   26  H   UNL     1     -11.466  12.857  68.263  1.00  0.00     0.000 HD 
ENDBRANCH   6  17
TORSDOF 2
ENDMDL
MODEL       91
REMARK 921   NORMALIZED FREE ENERGY PREDICTED BY IDOCK:   -5.24 KCAL/MOL
REMARK 922        TOTAL FREE ENERGY PREDICTED BY IDOCK:   -6.05 KCAL/MOL
REMARK 923 INTER-LIGAND FREE ENERGY PREDICTED BY IDOCK:   -5.51 KCAL/MOL
REMARK 924 INTRA-LIGAND FREE ENERGY PREDICTED BY IDOCK:   -0.54 KCAL/MOL
REMARK 927      BINDING AFFINITY PREDICTED BY RF-SCORE:    0.00 PKD
ROOT
HETATM    1  C   UNL     1     -10.314  10.019  67.410  1.00  0.00    -0.292 C  
HETATM    2  C   UNL     1      -9.341  10.451  68.521  1.00  0.00    -0.160 C  
HETATM    3  C   UNL     1      -9.300   9.345  69.614  1.00  0.00    -0.199 C  
HETATM    4  C   UNL     1      -7.909  10.750  67.962  1.00  0.00    -0.106 C  
HETATM    5  C   UNL     1      -6.930  11.150  69.082  1.00  0.00    -0.108 C  
HETATM    6  C   UNL     1      -7.854  11.792  66.806  1.00  0.00    -0.103 C  
ENDROOT
BRANCH   3   7
HETATM    7  C   UNL     1     -10.600   9.117  70.355  1.00  0.00    -0.275 A  
HETATM    8  C   UNL     1     -11.351  10.207  70.825  1.00  0.00    -0.436 A  
HETATM    9  C   UNL     1     -11.099   7.814  70.530  1.00  0.00    -0.265 A  
HETATM   10  C   UNL     1     -12.564   9.981  71.465  1.00  0.00    -0.425 A  
HETATM   11  H   UNL     1     -14.553   7.588  72.398  1.00  0.00     0.000 HD 
HETATM   12  O   UNL     1     -13.342  11.006  71.931  1.00  0.00    -0.422 OA 
HETATM   13  C   UNL     1     -12.313   7.597  71.178  1.00  0.00    -0.293 A  
HETATM   14  C   UNL     1     -13.036   8.684  71.645  1.00  0.00    -0.346 A  
HETATM   15  O   UNL     1     -14.230   8.473  72.275  1.00  0.00    -0.417 OA 
HETATM   16  H   UNL     1     -14.171  10.851  72.368  1.00  0.00     0.000 HD 
ENDBRANCH   3   7
BRANCH   6  17
HETATM   17  C   UNL     1      -8.248  13.204  67.183  1.00  0.00    -0.127 A  
HETATM   18  C   UNL     1      -9.044  15.724  68.082  1.00  0.00    -0.185 A  
HETATM   19  C   UNL     1      -9.892  14.972  67.277  1.00  0.00    -0.228 A  
HETATM   20  C   UNL     1      -9.497  13.722  66.812  1.00  0.00    -0.281 A  
HETATM   21  H   UNL     1     -11.392  16.345  67.304  1.00  0.00     0.000 HD 
HETATM   22  C   UNL     1      -7.780  15.260  68.408  1.00  0.00    -0.124 A  
HETATM   23  O   UNL     1      -9.459  16.929  68.571  1.00  0.00    -0.248 OA 
HETATM   24  O   UNL     1     -11.123  15.491  66.986  1.00  0.00    -0.312 OA 
HETATM   25  C   UNL     1      -7.381  14.001  67.954  1.00  0.00    -0.162 A  
HETATM   26  H   UNL     1      -8.880  17.443  69.121  1.00  0.00     0.000 HD 
ENDBRANCH   6  17
TORSDOF 2
ENDMDL
MODEL       92
REMARK 921   NORMALIZED FREE ENERGY PREDICTED BY IDOCK:   -5.22 KCAL/MOL
REMARK 922        TOTAL FREE ENERGY PREDICTED BY IDOCK:   -6.03 KCAL/MOL
REMARK 923 INTER-LIGAND FREE ENERGY PREDICTED BY IDOCK:   -5.45 KCAL/MOL
REMARK 924 INTRA-LIGAND FREE ENERGY PREDICTED BY IDOCK:   -0.57 KCAL/MOL
REMARK 927      BINDING AFFINITY PREDICTED BY RF-SCORE:    0.00 PKD
ROOT
HETATM    1  C   UNL     1     -11.245  10.718  67.344  1.00  0.00    -0.315 C  
HETATM    2  C   UNL     1     -10.601  11.204  66.034  1.00  0.00    -0.298 C  
HETATM    3  C   UNL     1      -9.778  10.040  65.413  1.00  0.00    -0.368 C  
HETATM    4  C   UNL     1     -11.667  11.748  65.024  1.00  0.00    -0.174 C  
HETATM    5  C   UNL     1     -11.023  12.203  63.701  1.00  0.00    -0.527 C  
HETATM    6  C   UNL     1     -12.596  12.868  65.580  1.00  0.00    -0.359 C  
ENDROOT
BRANCH   3   7
HETATM    7  C   UNL     1      -8.594   9.572  66.231  1.00  0.00    -0.141 A  
HETATM    8  C   UNL     1      -8.503   8.234  66.650  1.00  0.00    -0.124 A  
HETATM    9  C   UNL     1      -7.544  10.458  66.531  1.00  0.00    -0.118 A  
HETATM   10  C   UNL     1      -7.388   7.812  67.362  1.00  0.00    -0.092 A  
HETATM   11  H   UNL     1      -4.573   8.888  68.575  1.00  0.00     0.000 HD 
HETATM   12  O   UNL     1      -7.241   6.518  67.783  1.00  0.00    -0.085 OA 
HETATM   13  C   UNL     1      -6.432  10.026  67.253  1.00  0.00    -0.068 A  
HETATM   14  C   UNL     1      -6.364   8.705  67.666  1.00  0.00    -0.053 A  
HETATM   15  O   UNL     1      -5.272   8.278  68.368  1.00  0.00    -0.031 OA 
HETATM   16  H   UNL     1      -6.479   6.229  68.271  1.00  0.00     0.000 HD 
ENDBRANCH   3   7
BRANCH   6  17
HETATM   17  C   UNL     1     -11.911  14.176  65.910  1.00  0.00    -0.420 A  
HETATM   18  C   UNL     1     -10.447  16.485  66.478  1.00  0.00    -0.270 A  
HETATM   19  C   UNL     1     -10.876  15.660  67.512  1.00  0.00    -0.316 A  
HETATM   20  C   UNL     1     -11.619  14.517  67.239  1.00  0.00    -0.405 A  
HETATM   21  H   UNL     1     -10.013  16.781  68.973  1.00  0.00     0.000 HD 
HETATM   22  C   UNL     1     -10.779  16.202  65.163  1.00  0.00    -0.391 A  
HETATM   23  O   UNL     1      -9.679  17.579  66.753  1.00  0.00    -0.271 OA 
HETATM   24  O   UNL     1     -10.521  16.000  68.788  1.00  0.00    -0.226 OA 
HETATM   25  C   UNL     1     -11.515  15.050  64.881  1.00  0.00    -0.399 A  
HETATM   26  H   UNL     1      -9.386  18.143  66.046  1.00  0.00     0.000 HD 
ENDBRANCH   6  17
TORSDOF 2
ENDMDL
MODEL       93
REMARK 921   NORMALIZED FREE ENERGY PREDICTED BY IDOCK:   -5.21 KCAL/MOL
REMARK 922        TOTAL FREE ENERGY PREDICTED BY IDOCK:   -6.01 KCAL/MOL
REMARK 923 INTER-LIGAND FREE ENERGY PREDICTED BY IDOCK:   -5.70 KCAL/MOL
REMARK 924 INTRA-LIGAND FREE ENERGY PREDICTED BY IDOCK:   -0.31 KCAL/MOL
REMARK 927      BINDING AFFINITY PREDICTED BY RF-SCORE:    0.00 PKD
ROOT
HETATM    1  C   UNL     1     -10.458   7.784  67.015  1.00  0.00    -0.419 C  
HETATM    2  C   UNL     1      -9.446   8.797  67.580  1.00  0.00    -0.173 C  
HETATM    3  C   UNL     1      -8.419   8.041  68.470  1.00  0.00    -0.128 C  
HETATM    4  C   UNL     1      -8.729   9.602  66.444  1.00  0.00    -0.148 C  
HETATM    5  C   UNL     1      -7.693  10.591  67.010  1.00  0.00    -0.110 C  
HETATM    6  C   UNL     1      -9.678  10.333  65.449  1.00  0.00    -0.340 C  
ENDROOT
BRANCH   3   7
HETATM    7  C   UNL     1      -8.991   7.390  69.711  1.00  0.00    -0.141 A  
HETATM    8  C   UNL     1      -9.439   8.177  70.785  1.00  0.00    -0.180 A  
HETATM    9  C   UNL     1      -9.136   5.993  69.778  1.00  0.00    -0.145 A  
HETATM   10  C   UNL     1     -10.003   7.565  71.898  1.00  0.00    -0.171 A  
HETATM   11  H   UNL     1     -10.760   4.643  73.095  1.00  0.00     0.000 HD 
HETATM   12  O   UNL     1     -10.466   8.284  72.966  1.00  0.00    -0.271 OA 
HETATM   13  C   UNL     1      -9.696   5.388  70.901  1.00  0.00    -0.237 A  
HETATM   14  C   UNL     1     -10.123   6.179  71.956  1.00  0.00    -0.181 A  
HETATM   15  O   UNL     1     -10.678   5.588  73.056  1.00  0.00    -0.218 OA 
HETATM   16  H   UNL     1     -10.851   7.865  73.727  1.00  0.00     0.000 HD 
ENDBRANCH   3   7
BRANCH   6  17
HETATM   17  C   UNL     1     -10.498  11.460  66.041  1.00  0.00    -0.305 A  
HETATM   18  C   UNL     1     -11.812  13.630  67.206  1.00  0.00    -0.391 A  
HETATM   19  C   UNL     1     -11.720  12.422  67.890  1.00  0.00    -0.360 A  
HETATM   20  C   UNL     1     -11.081  11.331  67.310  1.00  0.00    -0.367 A  
HETATM   21  H   UNL     1     -12.689  13.104  69.543  1.00  0.00     0.000 HD 
HETATM   22  C   UNL     1     -11.299  13.760  65.926  1.00  0.00    -0.311 A  
HETATM   23  O   UNL     1     -12.400  14.707  67.803  1.00  0.00    -0.602 OA 
HETATM   24  O   UNL     1     -12.253  12.359  69.147  1.00  0.00    -0.191 OA 
HETATM   25  C   UNL     1     -10.647  12.672  65.342  1.00  0.00    -0.307 A  
HETATM   26  H   UNL     1     -12.463  15.532  67.336  1.00  0.00     0.000 HD 
ENDBRANCH   6  17
TORSDOF 2
ENDMDL
MODEL       94
REMARK 921   NORMALIZED FREE ENERGY PREDICTED BY IDOCK:   -5.18 KCAL/MOL
REMARK 922        TOTAL FREE ENERGY PREDICTED BY IDOCK:   -5.97 KCAL/MOL
REMARK 923 INTER-LIGAND FREE ENERGY PREDICTED BY IDOCK:   -5.55 KCAL/MOL
REMARK 924 INTRA-LIGAND FREE ENERGY PREDICTED BY IDOCK:   -0.42 KCAL/MOL
REMARK 927      BINDING AFFINITY PREDICTED BY RF-SCORE:    0.00 PKD
ROOT
HETATM    1  C   UNL     1      -8.950  10.858  65.756  1.00  0.00    -0.208 C  
HETATM    2  C   UNL     1      -9.652  11.112  67.101  1.00  0.00    -0.192 C  
HETATM    3  C   UNL     1     -11.161  11.383  66.840  1.00  0.00    -0.356 C  
HETATM    4  C   UNL     1      -9.453   9.921  68.099  1.00  0.00    -0.149 C  
HETATM    5  C   UNL     1     -10.184  10.164  69.432  1.00  0.00    -0.246 C  
HETATM    6  C   UNL     1      -7.972   9.522  68.367  1.00  0.00    -0.093 C  
ENDROOT
BRANCH   3   7
HETATM    7  C   UNL     1     -11.468  12.633  66.044  1.00  0.00    -0.414 A  
HETATM    8  C   UNL     1     -10.931  13.872  66.431  1.00  0.00    -0.303 A  
HETATM    9  C   UNL     1     -12.244  12.558  64.874  1.00  0.00    -0.534 A  
HETATM   10  C   UNL     1     -11.187  15.002  65.664  1.00  0.00    -0.327 A  
HETATM   11  H   UNL     1     -12.752  15.971  62.988  1.00  0.00     0.000 HD 
HETATM   12  O   UNL     1     -10.680  16.231  65.988  1.00  0.00    -0.295 OA 
HETATM   13  C   UNL     1     -12.501  13.697  64.114  1.00  0.00    -0.292 A  
HETATM   14  C   UNL     1     -11.972  14.914  64.517  1.00  0.00    -0.410 A  
HETATM   15  O   UNL     1     -12.217  16.031  63.770  1.00  0.00    -0.895 OA 
HETATM   16  H   UNL     1     -10.854  17.003  65.463  1.00  0.00     0.000 HD 
ENDBRANCH   3   7
BRANCH   6  17
HETATM   17  C   UNL     1      -7.137  10.560  69.085  1.00  0.00    -0.089 A  
HETATM   18  C   UNL     1      -5.771  12.494  70.563  1.00  0.00    -0.170 A  
HETATM   19  C   UNL     1      -6.482  12.860  69.425  1.00  0.00    -0.091 A  
HETATM   20  C   UNL     1      -7.152  11.901  68.675  1.00  0.00    -0.102 A  
HETATM   21  H   UNL     1      -6.058  14.841  69.607  1.00  0.00     0.000 HD 
HETATM   22  C   UNL     1      -5.689  11.167  70.951  1.00  0.00    -0.041 A  
HETATM   23  O   UNL     1      -5.155  13.450  71.318  1.00  0.00    -0.128 OA 
HETATM   24  O   UNL     1      -6.516  14.186  69.094  1.00  0.00    -0.099 OA 
HETATM   25  C   UNL     1      -6.369  10.200  70.208  1.00  0.00    -0.117 A  
HETATM   26  H   UNL     1      -4.669  13.200  72.095  1.00  0.00     0.000 HD 
ENDBRANCH   6  17
TORSDOF 2
ENDMDL
MODEL       95
REMARK 921   NORMALIZED FREE ENERGY PREDICTED BY IDOCK:   -5.15 KCAL/MOL
REMARK 922        TOTAL FREE ENERGY PREDICTED BY IDOCK:   -5.95 KCAL/MOL
REMARK 923 INTER-LIGAND FREE ENERGY PREDICTED BY IDOCK:   -5.31 KCAL/MOL
REMARK 924 INTRA-LIGAND FREE ENERGY PREDICTED BY IDOCK:   -0.64 KCAL/MOL
REMARK 927      BINDING AFFINITY PREDICTED BY RF-SCORE:    0.00 PKD
ROOT
HETATM    1  C   UNL     1      -7.596   5.838  71.302  1.00  0.00    -0.104 C  
HETATM    2  C   UNL     1      -9.005   5.293  71.595  1.00  0.00    -0.148 C  
HETATM    3  C   UNL     1      -8.977   3.742  71.494  1.00  0.00    -0.158 C  
HETATM    4  C   UNL     1      -9.535   5.762  72.992  1.00  0.00    -0.153 C  
HETATM    5  C   UNL     1     -10.930   5.188  73.296  1.00  0.00    -0.375 C  
HETATM    6  C   UNL     1      -9.528   7.303  73.220  1.00  0.00    -0.240 C  
ENDROOT
BRANCH   3   7
HETATM    7  C   UNL     1      -8.666   3.186  70.121  1.00  0.00    -0.127 A  
HETATM    8  C   UNL     1      -9.460   3.534  69.016  1.00  0.00    -0.213 A  
HETATM    9  C   UNL     1      -7.543   2.362  69.926  1.00  0.00    -0.043 A  
HETATM   10  C   UNL     1      -9.134   3.051  67.755  1.00  0.00    -0.181 A  
HETATM   11  H   UNL     1      -6.963   1.187  66.218  1.00  0.00     0.000 HD 
HETATM   12  O   UNL     1      -9.865   3.368  66.643  1.00  0.00    -0.411 OA 
HETATM   13  C   UNL     1      -7.228   1.876  68.658  1.00  0.00    -0.043 A  
HETATM   14  C   UNL     1      -8.029   2.222  67.581  1.00  0.00    -0.064 A  
HETATM   15  O   UNL     1      -7.718   1.752  66.336  1.00  0.00    -0.064 OA 
HETATM   16  H   UNL     1      -9.642   3.037  65.781  1.00  0.00     0.000 HD 
ENDBRANCH   3   7
BRANCH   6  17
HETATM   17  C   UNL     1     -10.474   8.094  72.343  1.00  0.00    -0.389 A  
HETATM   18  C   UNL     1     -12.144   9.745  70.832  1.00  0.00    -0.321 A  
HETATM   19  C   UNL     1     -12.641   9.091  71.954  1.00  0.00    -0.382 A  
HETATM   20  C   UNL     1     -11.820   8.254  72.703  1.00  0.00    -0.382 A  
HETATM   21  H   UNL     1     -14.503   9.892  71.790  1.00  0.00     0.000 HD 
HETATM   22  C   UNL     1     -10.835   9.551  70.421  1.00  0.00    -0.338 A  
HETATM   23  O   UNL     1     -12.944  10.599  70.131  1.00  0.00    -0.414 OA 
HETATM   24  O   UNL     1     -13.943   9.320  72.302  1.00  0.00    -0.440 OA 
HETATM   25  C   UNL     1     -10.003   8.721  71.175  1.00  0.00    -0.317 A  
HETATM   26  H   UNL     1     -12.605  11.046  69.364  1.00  0.00     0.000 HD 
ENDBRANCH   6  17
TORSDOF 2
ENDMDL
MODEL       96
REMARK 921   NORMALIZED FREE ENERGY PREDICTED BY IDOCK:   -5.12 KCAL/MOL
REMARK 922        TOTAL FREE ENERGY PREDICTED BY IDOCK:   -5.91 KCAL/MOL
REMARK 923 INTER-LIGAND FREE ENERGY PREDICTED BY IDOCK:   -5.70 KCAL/MOL
REMARK 924 INTRA-LIGAND FREE ENERGY PREDICTED BY IDOCK:   -0.21 KCAL/MOL
REMARK 927      BINDING AFFINITY PREDICTED BY RF-SCORE:    0.00 PKD
ROOT
HETATM    1  C   UNL     1      -9.268  14.321  68.778  1.00  0.00    -0.112 C  
HETATM    2  C   UNL     1     -10.237  15.239  68.012  1.00  0.00    -0.230 C  
HETATM    3  C   UNL     1     -10.675  16.402  68.946  1.00  0.00    -0.319 C  
HETATM    4  C   UNL     1      -9.604  15.783  66.687  1.00  0.00    -0.266 C  
HETATM    5  C   UNL     1     -10.563  16.727  65.940  1.00  0.00    -0.255 C  
HETATM    6  C   UNL     1      -9.062  14.692  65.715  1.00  0.00     0.281 C  
ENDROOT
BRANCH   3   7
HETATM    7  C   UNL     1     -11.473  15.991  70.165  1.00  0.00    -0.350 A  
HETATM    8  C   UNL     1     -12.329  14.879  70.112  1.00  0.00    -0.376 A  
HETATM    9  C   UNL     1     -11.321  16.682  71.380  1.00  0.00     0.139 A  
HETATM   10  C   UNL     1     -13.020  14.488  71.252  1.00  0.00    -0.333 A  
HETATM   11  H   UNL     1     -13.455  15.282  74.372  1.00  0.00     0.000 HD 
HETATM   12  O   UNL     1     -13.857  13.405  71.261  1.00  0.00     0.026 OA 
HETATM   13  C   UNL     1     -12.024  16.287  72.517  1.00  0.00    -0.648 A  
HETATM   14  C   UNL     1     -12.872  15.193  72.444  1.00  0.00    -0.356 A  
HETATM   15  O   UNL     1     -13.557  14.800  73.559  1.00  0.00    -0.291 OA 
HETATM   16  H   UNL     1     -14.329  13.138  72.040  1.00  0.00     0.000 HD 
ENDBRANCH   3   7
BRANCH   6  17
HETATM   17  C   UNL     1     -10.109  13.784  65.108  1.00  0.00    -0.314 A  
HETATM   18  C   UNL     1     -11.890  12.062  63.820  1.00  0.00    -0.484 A  
HETATM   19  C   UNL     1     -11.978  13.434  63.616  1.00  0.00    -0.446 A  
HETATM   20  C   UNL     1     -11.105  14.301  64.266  1.00  0.00    -0.105 A  
HETATM   21  H   UNL     1     -13.522  13.298  62.300  1.00  0.00     0.000 HD 
HETATM   22  C   UNL     1     -10.956  11.534  64.697  1.00  0.00    -0.353 A  
HETATM   23  O   UNL     1     -12.720  11.217  63.142  1.00  0.00    -0.699 OA 
HETATM   24  O   UNL     1     -12.926  13.890  62.744  1.00  0.00     0.081 OA 
HETATM   25  C   UNL     1     -10.069  12.397  65.344  1.00  0.00    -0.289 A  
HETATM   26  H   UNL     1     -12.661  10.280  63.281  1.00  0.00     0.000 HD 
ENDBRANCH   6  17
TORSDOF 2
ENDMDL
MODEL       97
REMARK 921   NORMALIZED FREE ENERGY PREDICTED BY IDOCK:   -5.11 KCAL/MOL
REMARK 922        TOTAL FREE ENERGY PREDICTED BY IDOCK:   -5.90 KCAL/MOL
REMARK 923 INTER-LIGAND FREE ENERGY PREDICTED BY IDOCK:   -5.26 KCAL/MOL
REMARK 924 INTRA-LIGAND FREE ENERGY PREDICTED BY IDOCK:   -0.64 KCAL/MOL
REMARK 927      BINDING AFFINITY PREDICTED BY RF-SCORE:    0.00 PKD
ROOT
HETATM    1  C   UNL     1      -8.279  10.742  69.182  1.00  0.00    -0.124 C  
HETATM    2  C   UNL     1      -9.606  10.013  68.905  1.00  0.00    -0.181 C  
HETATM    3  C   UNL     1     -10.423  10.830  67.865  1.00  0.00    -0.233 C  
HETATM    4  C   UNL     1      -9.374   8.543  68.417  1.00  0.00    -0.137 C  
HETATM    5  C   UNL     1     -10.702   7.827  68.109  1.00  0.00    -0.112 C  
HETATM    6  C   UNL     1      -8.498   7.663  69.357  1.00  0.00    -0.132 C  
ENDROOT
BRANCH   3   7
HETATM    7  C   UNL     1     -10.868  12.203  68.323  1.00  0.00    -0.256 A  
HETATM    8  C   UNL     1     -10.504  13.348  67.594  1.00  0.00    -0.242 A  
HETATM    9  C   UNL     1     -11.699  12.342  69.448  1.00  0.00    -0.384 A  
HETATM   10  C   UNL     1     -10.958  14.596  68.003  1.00  0.00    -0.267 A  
HETATM   11  H   UNL     1     -12.759  16.034  70.291  1.00  0.00     0.000 HD 
HETATM   12  O   UNL     1     -10.645  15.742  67.324  1.00  0.00    -0.303 OA 
HETATM   13  C   UNL     1     -12.144  13.599  69.855  1.00  0.00    -0.406 A  
HETATM   14  C   UNL     1     -11.767  14.718  69.130  1.00  0.00    -0.313 A  
HETATM   15  O   UNL     1     -12.207  15.951  69.523  1.00  0.00    -0.294 OA 
HETATM   16  H   UNL     1     -10.956  16.595  67.603  1.00  0.00     0.000 HD 
ENDBRANCH   3   7
BRANCH   6  17
HETATM   17  C   UNL     1      -9.099   7.359  70.711  1.00  0.00    -0.151 A  
HETATM   18  C   UNL     1      -9.995   6.760  73.287  1.00  0.00    -0.203 A  
HETATM   19  C   UNL     1     -10.010   5.781  72.299  1.00  0.00    -0.170 A  
HETATM   20  C   UNL     1      -9.580   6.075  71.010  1.00  0.00    -0.197 A  
HETATM   21  H   UNL     1     -10.726   4.329  73.529  1.00  0.00     0.000 HD 
HETATM   22  C   UNL     1      -9.584   8.051  72.999  1.00  0.00    -0.347 A  
HETATM   23  O   UNL     1     -10.374   6.448  74.561  1.00  0.00    -0.329 OA 
HETATM   24  O   UNL     1     -10.433   4.529  72.649  1.00  0.00    -0.190 OA 
HETATM   25  C   UNL     1      -9.142   8.351  71.709  1.00  0.00    -0.283 A  
HETATM   26  H   UNL     1     -10.364   7.117  75.236  1.00  0.00     0.000 HD 
ENDBRANCH   6  17
TORSDOF 2
ENDMDL
MODEL       98
REMARK 921   NORMALIZED FREE ENERGY PREDICTED BY IDOCK:   -5.10 KCAL/MOL
REMARK 922        TOTAL FREE ENERGY PREDICTED BY IDOCK:   -5.89 KCAL/MOL
REMARK 923 INTER-LIGAND FREE ENERGY PREDICTED BY IDOCK:   -5.67 KCAL/MOL
REMARK 924 INTRA-LIGAND FREE ENERGY PREDICTED BY IDOCK:   -0.22 KCAL/MOL
REMARK 927      BINDING AFFINITY PREDICTED BY RF-SCORE:    0.00 PKD
ROOT
HETATM    1  C   UNL     1      -9.382  13.780  68.369  1.00  0.00    -0.190 C  
HETATM    2  C   UNL     1     -10.258  12.515  68.385  1.00  0.00    -0.230 C  
HETATM    3  C   UNL     1     -11.735  12.927  68.647  1.00  0.00    -0.359 C  
HETATM    4  C   UNL     1     -10.125  11.695  67.057  1.00  0.00    -0.234 C  
HETATM    5  C   UNL     1     -11.028  10.448  67.062  1.00  0.00    -0.222 C  
HETATM    6  C   UNL     1      -8.670  11.301  66.665  1.00  0.00    -0.174 C  
ENDROOT
BRANCH   3   7
HETATM    7  C   UNL     1     -12.003  13.554  69.998  1.00  0.00    -0.410 A  
HETATM    8  C   UNL     1     -11.670  14.898  70.237  1.00  0.00    -0.352 A  
HETATM    9  C   UNL     1     -12.644  12.817  71.009  1.00  0.00    -0.362 A  
HETATM   10  C   UNL     1     -11.965  15.471  71.468  1.00  0.00    -0.398 A  
HETATM   11  H   UNL     1     -13.291  14.784  74.353  1.00  0.00     0.000 HD 
HETATM   12  O   UNL     1     -11.674  16.778  71.750  1.00  0.00    -0.601 OA 
HETATM   13  C   UNL     1     -12.929  13.397  72.244  1.00  0.00    -0.393 A  
HETATM   14  C   UNL     1     -12.584  14.722  72.465  1.00  0.00    -0.349 A  
HETATM   15  O   UNL     1     -12.868  15.295  73.672  1.00  0.00    -0.505 OA 
HETATM   16  H   UNL     1     -11.875  17.169  72.592  1.00  0.00     0.000 HD 
ENDBRANCH   3   7
BRANCH   6  17
HETATM   17  C   UNL     1      -7.985  10.328  67.601  1.00  0.00    -0.102 A  
HETATM   18  C   UNL     1      -6.931   8.478  69.406  1.00  0.00    -0.049 A  
HETATM   19  C   UNL     1      -6.961   9.830  69.732  1.00  0.00    -0.087 A  
HETATM   20  C   UNL     1      -7.470  10.760  68.832  1.00  0.00    -0.116 A  
HETATM   21  H   UNL     1      -6.154   9.564  71.579  1.00  0.00     0.000 HD 
HETATM   22  C   UNL     1      -7.375   8.037  68.171  1.00  0.00    -0.096 A  
HETATM   23  O   UNL     1      -6.473   7.568  70.315  1.00  0.00    -0.037 OA 
HETATM   24  O   UNL     1      -6.501  10.199  70.965  1.00  0.00    -0.312 OA 
HETATM   25  C   UNL     1      -7.898   8.964  67.267  1.00  0.00    -0.096 A  
HETATM   26  H   UNL     1      -6.452   6.645  70.093  1.00  0.00     0.000 HD 
ENDBRANCH   6  17
TORSDOF 2
ENDMDL
MODEL       99
REMARK 921   NORMALIZED FREE ENERGY PREDICTED BY IDOCK:   -5.10 KCAL/MOL
REMARK 922        TOTAL FREE ENERGY PREDICTED BY IDOCK:   -5.89 KCAL/MOL
REMARK 923 INTER-LIGAND FREE ENERGY PREDICTED BY IDOCK:   -5.54 KCAL/MOL
REMARK 924 INTRA-LIGAND FREE ENERGY PREDICTED BY IDOCK:   -0.36 KCAL/MOL
REMARK 927      BINDING AFFINITY PREDICTED BY RF-SCORE:    0.00 PKD
ROOT
HETATM    1  C   UNL     1      -9.595  14.766  69.004  1.00  0.00    -0.178 C  
HETATM    2  C   UNL     1     -10.102  15.640  67.844  1.00  0.00    -0.225 C  
HETATM    3  C   UNL     1     -11.255  14.893  67.115  1.00  0.00    -0.345 C  
HETATM    4  C   UNL     1     -10.563  17.054  68.336  1.00  0.00    -0.375 C  
HETATM    5  C   UNL     1     -11.101  17.915  67.178  1.00  0.00     0.189 C  
HETATM    6  C   UNL     1      -9.500  17.853  69.147  1.00  0.00    -0.003 C  
ENDROOT
BRANCH   3   7
HETATM    7  C   UNL     1     -10.862  13.601  66.432  1.00  0.00    -0.290 A  
HETATM    8  C   UNL     1     -10.412  13.609  65.102  1.00  0.00    -0.388 A  
HETATM    9  C   UNL     1     -10.885  12.387  67.141  1.00  0.00    -0.280 A  
HETATM   10  C   UNL     1     -10.012  12.419  64.505  1.00  0.00    -0.175 A  
HETATM   11  H   UNL     1      -9.694   9.243  65.102  1.00  0.00     0.000 HD 
HETATM   12  O   UNL     1      -9.554  12.371  63.216  1.00  0.00    -0.620 OA 
HETATM   13  C   UNL     1     -10.489  11.198  66.532  1.00  0.00    -0.305 A  
HETATM   14  C   UNL     1     -10.058  11.223  65.214  1.00  0.00    -0.267 A  
HETATM   15  O   UNL     1      -9.663  10.059  64.617  1.00  0.00    -0.310 OA 
HETATM   16  H   UNL     1      -9.281  11.558  62.808  1.00  0.00     0.000 HD 
ENDBRANCH   3   7
BRANCH   6  17
HETATM   17  C   UNL     1      -8.271  18.274  68.371  1.00  0.00    -0.326 A  
HETATM   18  C   UNL     1      -6.137  19.061  66.752  1.00  0.00    -0.169 A  
HETATM   19  C   UNL     1      -6.333  17.715  67.041  1.00  0.00    -0.161 A  
HETATM   20  C   UNL     1      -7.384  17.315  67.859  1.00  0.00    -0.189 A  
HETATM   21  H   UNL     1      -4.761  17.084  65.915  1.00  0.00     0.000 HD 
HETATM   22  C   UNL     1      -6.963  20.030  67.299  1.00  0.00    -0.267 A  
HETATM   23  O   UNL     1      -5.131  19.438  65.910  1.00  0.00    -0.152 OA 
HETATM   24  O   UNL     1      -5.478  16.811  66.474  1.00  0.00    -0.346 OA 
HETATM   25  C   UNL     1      -8.026  19.635  68.112  1.00  0.00    -0.353 A  
HETATM   26  H   UNL     1      -4.997  20.358  65.713  1.00  0.00     0.000 HD 
ENDBRANCH   6  17
TORSDOF 2
ENDMDL
MODEL      100
REMARK 921   NORMALIZED FREE ENERGY PREDICTED BY IDOCK:   -5.10 KCAL/MOL
REMARK 922        TOTAL FREE ENERGY PREDICTED BY IDOCK:   -5.89 KCAL/MOL
REMARK 923 INTER-LIGAND FREE ENERGY PREDICTED BY IDOCK:   -5.53 KCAL/MOL
REMARK 924 INTRA-LIGAND FREE ENERGY PREDICTED BY IDOCK:   -0.36 KCAL/MOL
REMARK 927      BINDING AFFINITY PREDICTED BY RF-SCORE:    0.00 PKD
ROOT
HETATM    1  C   UNL     1     -10.400   5.101  70.719  1.00  0.00    -0.294 C  
HETATM    2  C   UNL     1      -9.211   5.986  70.307  1.00  0.00    -0.166 C  
HETATM    3  C   UNL     1      -9.041   7.123  71.355  1.00  0.00    -0.143 C  
HETATM    4  C   UNL     1      -7.891   5.157  70.150  1.00  0.00    -0.078 C  
HETATM    5  C   UNL     1      -6.696   6.051  69.771  1.00  0.00    -0.052 C  
HETATM    6  C   UNL     1      -7.982   3.945  69.177  1.00  0.00    -0.058 C  
ENDROOT
BRANCH   3   7
HETATM    7  C   UNL     1     -10.192   8.102  71.442  1.00  0.00    -0.248 A  
HETATM    8  C   UNL     1     -11.244   7.884  72.347  1.00  0.00    -0.409 A  
HETATM    9  C   UNL     1     -10.191   9.271  70.661  1.00  0.00    -0.335 A  
HETATM   10  C   UNL     1     -12.269   8.816  72.446  1.00  0.00    -0.326 A  
HETATM   11  H   UNL     1     -13.272  11.651  71.217  1.00  0.00     0.000 HD 
HETATM   12  O   UNL     1     -13.312   8.661  73.319  1.00  0.00    -0.803 OA 
HETATM   13  C   UNL     1     -11.227  10.197  70.762  1.00  0.00    -0.414 A  
HETATM   14  C   UNL     1     -12.262   9.961  71.653  1.00  0.00    -0.395 A  
HETATM   15  O   UNL     1     -13.277  10.870  71.759  1.00  0.00    -0.444 OA 
HETATM   16  H   UNL     1     -14.013   9.298  73.387  1.00  0.00     0.000 HD 
ENDBRANCH   3   7
BRANCH   6  17
HETATM   17  C   UNL     1      -8.203   4.294  67.721  1.00  0.00    -0.095 A  
HETATM   18  C   UNL     1      -8.626   5.159  65.101  1.00  0.00    -0.150 A  
HETATM   19  C   UNL     1      -9.689   4.671  65.854  1.00  0.00    -0.200 A  
HETATM   20  C   UNL     1      -9.484   4.224  67.154  1.00  0.00    -0.204 A  
HETATM   21  H   UNL     1     -11.069   4.980  64.393  1.00  0.00     0.000 HD 
HETATM   22  C   UNL     1      -7.341   5.177  65.619  1.00  0.00    -0.073 A  
HETATM   23  O   UNL     1      -8.846   5.639  63.842  1.00  0.00    -0.346 OA 
HETATM   24  O   UNL     1     -10.930   4.674  65.281  1.00  0.00    -0.220 OA 
HETATM   25  C   UNL     1      -7.130   4.740  66.927  1.00  0.00    -0.075 A  
HETATM   26  H   UNL     1      -8.120   5.972  63.328  1.00  0.00     0.000 HD 
ENDBRANCH   6  17
TORSDOF 2
ENDMDL
MODEL      101
REMARK 921   NORMALIZED FREE ENERGY PREDICTED BY IDOCK:   -5.08 KCAL/MOL
REMARK 922        TOTAL FREE ENERGY PREDICTED BY IDOCK:   -5.87 KCAL/MOL
REMARK 923 INTER-LIGAND FREE ENERGY PREDICTED BY IDOCK:   -5.42 KCAL/MOL
REMARK 924 INTRA-LIGAND FREE ENERGY PREDICTED BY IDOCK:   -0.45 KCAL/MOL
REMARK 927      BINDING AFFINITY PREDICTED BY RF-SCORE:    0.00 PKD
ROOT
HETATM    1  C   UNL     1      -8.608  11.213  68.900  1.00  0.00    -0.092 C  
HETATM    2  C   UNL     1      -9.711  10.914  67.869  1.00  0.00    -0.178 C  
HETATM    3  C   UNL     1     -10.676  12.131  67.795  1.00  0.00    -0.241 C  
HETATM    4  C   UNL     1      -9.118  10.573  66.460  1.00  0.00    -0.175 C  
HETATM    5  C   UNL     1     -10.225  10.307  65.423  1.00  0.00    -0.312 C  
HETATM    6  C   UNL     1      -8.078   9.415  66.441  1.00  0.00    -0.108 C  
ENDROOT
BRANCH   3   7
HETATM    7  C   UNL     1     -11.451  12.422  69.062  1.00  0.00    -0.352 A  
HETATM    8  C   UNL     1     -11.805  13.742  69.392  1.00  0.00    -0.392 A  
HETATM    9  C   UNL     1     -11.878  11.371  69.892  1.00  0.00    -0.435 A  
HETATM   10  C   UNL     1     -12.555  13.986  70.536  1.00  0.00    -0.329 A  
HETATM   11  H   UNL     1     -13.965  12.471  73.038  1.00  0.00     0.000 HD 
HETATM   12  O   UNL     1     -12.937  15.250  70.898  1.00  0.00    -0.410 OA 
HETATM   13  C   UNL     1     -12.624  11.627  71.041  1.00  0.00    -0.431 A  
HETATM   14  C   UNL     1     -12.955  12.935  71.356  1.00  0.00    -0.270 A  
HETATM   15  O   UNL     1     -13.692  13.188  72.479  1.00  0.00    -0.610 OA 
HETATM   16  H   UNL     1     -13.450  15.417  71.680  1.00  0.00     0.000 HD 
ENDBRANCH   3   7
BRANCH   6  17
HETATM   17  C   UNL     1      -8.621   8.047  66.794  1.00  0.00    -0.133 A  
HETATM   18  C   UNL     1      -9.423   5.482  67.552  1.00  0.00    -0.117 A  
HETATM   19  C   UNL     1      -8.907   5.704  66.280  1.00  0.00    -0.137 A  
HETATM   20  C   UNL     1      -8.520   6.981  65.888  1.00  0.00    -0.151 A  
HETATM   21  H   UNL     1      -9.038   3.754  65.717  1.00  0.00     0.000 HD 
HETATM   22  C   UNL     1      -9.592   6.532  68.440  1.00  0.00    -0.122 A  
HETATM   23  O   UNL     1      -9.757   4.217  67.942  1.00  0.00    -0.161 OA 
HETATM   24  O   UNL     1      -8.774   4.625  65.449  1.00  0.00    -0.124 OA 
HETATM   25  C   UNL     1      -9.195   7.815  68.058  1.00  0.00    -0.140 A  
HETATM   26  H   UNL     1     -10.109   4.066  68.811  1.00  0.00     0.000 HD 
ENDBRANCH   6  17
TORSDOF 2
ENDMDL
MODEL      102
REMARK 921   NORMALIZED FREE ENERGY PREDICTED BY IDOCK:   -5.07 KCAL/MOL
REMARK 922        TOTAL FREE ENERGY PREDICTED BY IDOCK:   -5.85 KCAL/MOL
REMARK 923 INTER-LIGAND FREE ENERGY PREDICTED BY IDOCK:   -5.42 KCAL/MOL
REMARK 924 INTRA-LIGAND FREE ENERGY PREDICTED BY IDOCK:   -0.43 KCAL/MOL
REMARK 927      BINDING AFFINITY PREDICTED BY RF-SCORE:    0.00 PKD
ROOT
HETATM    1  C   UNL     1     -11.571  12.676  69.401  1.00  0.00    -0.369 C  
HETATM    2  C   UNL     1     -11.106  12.971  67.965  1.00  0.00    -0.288 C  
HETATM    3  C   UNL     1     -11.168  11.658  67.134  1.00  0.00    -0.371 C  
HETATM    4  C   UNL     1     -11.953  14.106  67.296  1.00  0.00    -0.449 C  
HETATM    5  C   UNL     1     -11.506  14.376  65.848  1.00  0.00    -0.341 C  
HETATM    6  C   UNL     1     -12.016  15.442  68.094  1.00  0.00    -0.052 C  
ENDROOT
BRANCH   3   7
HETATM    7  C   UNL     1     -10.232  10.558  67.586  1.00  0.00    -0.234 A  
HETATM    8  C   UNL     1      -8.940  10.868  68.043  1.00  0.00    -0.145 A  
HETATM    9  C   UNL     1     -10.665   9.221  67.610  1.00  0.00    -0.276 A  
HETATM   10  C   UNL     1      -8.109   9.851  68.497  1.00  0.00    -0.101 A  
HETATM   11  H   UNL     1      -8.019   6.636  68.947  1.00  0.00     0.000 HD 
HETATM   12  O   UNL     1      -6.846  10.098  68.964  1.00  0.00    -0.052 OA 
HETATM   13  C   UNL     1      -9.821   8.207  68.061  1.00  0.00    -0.200 A  
HETATM   14  C   UNL     1      -8.546   8.530  68.498  1.00  0.00    -0.138 A  
HETATM   15  O   UNL     1      -7.720   7.538  68.946  1.00  0.00    -0.109 OA 
HETATM   16  H   UNL     1      -6.278   9.403  69.274  1.00  0.00     0.000 HD 
ENDBRANCH   3   7
BRANCH   6  17
HETATM   17  C   UNL     1     -10.705  16.186  68.223  1.00  0.00    -0.307 A  
HETATM   18  C   UNL     1      -8.342  17.601  68.680  1.00  0.00    -0.267 A  
HETATM   19  C   UNL     1      -9.427  18.232  68.081  1.00  0.00    -0.303 A  
HETATM   20  C   UNL     1     -10.602  17.530  67.836  1.00  0.00    -0.390 A  
HETATM   21  H   UNL     1      -8.500  20.037  67.940  1.00  0.00     0.000 HD 
HETATM   22  C   UNL     1      -8.399  16.258  69.012  1.00  0.00    -0.239 A  
HETATM   23  O   UNL     1      -7.210  18.311  68.959  1.00  0.00    -0.277 OA 
HETATM   24  O   UNL     1      -9.303  19.558  67.772  1.00  0.00    -0.307 OA 
HETATM   25  C   UNL     1      -9.579  15.550  68.778  1.00  0.00    -0.208 A  
HETATM   26  H   UNL     1      -6.468  17.881  69.368  1.00  0.00     0.000 HD 
ENDBRANCH   6  17
TORSDOF 2
ENDMDL
MODEL      103
REMARK 921   NORMALIZED FREE ENERGY PREDICTED BY IDOCK:   -5.00 KCAL/MOL
REMARK 922        TOTAL FREE ENERGY PREDICTED BY IDOCK:   -5.78 KCAL/MOL
REMARK 923 INTER-LIGAND FREE ENERGY PREDICTED BY IDOCK:   -5.87 KCAL/MOL
REMARK 924 INTRA-LIGAND FREE ENERGY PREDICTED BY IDOCK:    0.09 KCAL/MOL
REMARK 927      BINDING AFFINITY PREDICTED BY RF-SCORE:    0.00 PKD
ROOT
HETATM    1  C   UNL     1     -10.558  15.768  66.268  1.00  0.00    -0.313 C  
HETATM    2  C   UNL     1     -10.476  14.832  67.487  1.00  0.00    -0.245 C  
HETATM    3  C   UNL     1     -10.240  15.687  68.764  1.00  0.00    -0.215 C  
HETATM    4  C   UNL     1     -11.757  13.942  67.628  1.00  0.00    -0.403 C  
HETATM    5  C   UNL     1     -11.687  13.031  68.867  1.00  0.00    -0.371 C  
HETATM    6  C   UNL     1     -12.124  13.103  66.368  1.00  0.00    -0.447 C  
ENDROOT
BRANCH   3   7
HETATM    7  C   UNL     1      -8.925  16.436  68.809  1.00  0.00    -0.245 A  
HETATM    8  C   UNL     1      -7.780  15.830  69.353  1.00  0.00    -0.213 A  
HETATM    9  C   UNL     1      -8.822  17.723  68.254  1.00  0.00    -0.277 A  
HETATM   10  C   UNL     1      -6.572  16.515  69.346  1.00  0.00    -0.213 A  
HETATM   11  H   UNL     1      -5.239  19.335  68.440  1.00  0.00     0.000 HD 
HETATM   12  O   UNL     1      -5.423  15.968  69.851  1.00  0.00    -0.128 OA 
HETATM   13  C   UNL     1      -7.607  18.406  68.258  1.00  0.00    -0.301 A  
HETATM   14  C   UNL     1      -6.489  17.796  68.808  1.00  0.00    -0.225 A  
HETATM   15  O   UNL     1      -5.295  18.461  68.807  1.00  0.00    -0.183 OA 
HETATM   16  H   UNL     1      -4.597  16.437  69.846  1.00  0.00     0.000 HD 
ENDBRANCH   3   7
BRANCH   6  17
HETATM   17  C   UNL     1     -11.136  12.019  65.998  1.00  0.00    -0.364 A  
HETATM   18  C   UNL     1      -9.145  10.173  65.346  1.00  0.00    -0.188 A  
HETATM   19  C   UNL     1      -9.832  10.842  64.339  1.00  0.00    -0.315 A  
HETATM   20  C   UNL     1     -10.835  11.751  64.654  1.00  0.00    -0.363 A  
HETATM   21  H   UNL     1      -8.782   9.971  62.830  1.00  0.00     0.000 HD 
HETATM   22  C   UNL     1      -9.469  10.374  66.678  1.00  0.00    -0.199 A  
HETATM   23  O   UNL     1      -8.130   9.318  65.027  1.00  0.00    -0.116 OA 
HETATM   24  O   UNL     1      -9.467  10.592  63.045  1.00  0.00    -0.275 OA 
HETATM   25  C   UNL     1     -10.468  11.294  67.002  1.00  0.00    -0.272 A  
HETATM   26  H   UNL     1      -7.661   8.860  65.715  1.00  0.00     0.000 HD 
ENDBRANCH   6  17
TORSDOF 2
ENDMDL
MODEL      104
REMARK 921   NORMALIZED FREE ENERGY PREDICTED BY IDOCK:   -4.95 KCAL/MOL
REMARK 922        TOTAL FREE ENERGY PREDICTED BY IDOCK:   -5.72 KCAL/MOL
REMARK 923 INTER-LIGAND FREE ENERGY PREDICTED BY IDOCK:   -5.07 KCAL/MOL
REMARK 924 INTRA-LIGAND FREE ENERGY PREDICTED BY IDOCK:   -0.65 KCAL/MOL
REMARK 927      BINDING AFFINITY PREDICTED BY RF-SCORE:    0.00 PKD
ROOT
HETATM    1  C   UNL     1      -7.997  14.861  69.010  1.00  0.00    -0.170 C  
HETATM    2  C   UNL     1      -7.068  14.261  67.941  1.00  0.00    -0.169 C  
HETATM    3  C   UNL     1      -5.673  14.939  68.047  1.00  0.00    -0.148 C  
HETATM    4  C   UNL     1      -6.954  12.704  68.073  1.00  0.00    -0.099 C  
HETATM    5  C   UNL     1      -5.997  12.110  67.023  1.00  0.00    -0.095 C  
HETATM    6  C   UNL     1      -8.309  11.937  68.056  1.00  0.00    -0.160 C  
ENDROOT
BRANCH   3   7
HETATM    7  C   UNL     1      -5.646  16.421  67.740  1.00  0.00    -0.151 A  
HETATM    8  C   UNL     1      -6.124  16.901  66.509  1.00  0.00    -0.106 A  
HETATM    9  C   UNL     1      -5.199  17.339  68.706  1.00  0.00    -0.146 A  
HETATM   10  C   UNL     1      -6.134  18.268  66.261  1.00  0.00    -0.184 A  
HETATM   11  H   UNL     1      -5.371  21.116  67.623  1.00  0.00     0.000 HD 
HETATM   12  O   UNL     1      -6.600  18.790  65.085  1.00  0.00    -0.457 OA 
HETATM   13  C   UNL     1      -5.207  18.708  68.446  1.00  0.00    -0.174 A  
HETATM   14  C   UNL     1      -5.672  19.163  67.222  1.00  0.00    -0.174 A  
HETATM   15  O   UNL     1      -5.687  20.505  66.967  1.00  0.00    -0.170 OA 
HETATM   16  H   UNL     1      -6.607  19.725  64.915  1.00  0.00     0.000 HD 
ENDBRANCH   3   7
BRANCH   6  17
HETATM   17  C   UNL     1      -9.075  11.997  66.753  1.00  0.00    -0.197 A  
HETATM   18  C   UNL     1     -10.290  12.162  64.244  1.00  0.00    -0.334 A  
HETATM   19  C   UNL     1     -10.344  13.243  65.117  1.00  0.00    -0.323 A  
HETATM   20  C   UNL     1      -9.755  13.164  66.375  1.00  0.00    -0.269 A  
HETATM   21  H   UNL     1     -11.370  14.434  63.827  1.00  0.00     0.000 HD 
HETATM   22  C   UNL     1      -9.679  10.977  64.622  1.00  0.00    -0.315 A  
HETATM   23  O   UNL     1     -10.830  12.267  62.995  1.00  0.00    -0.628 OA 
HETATM   24  O   UNL     1     -10.968  14.381  64.686  1.00  0.00    -0.390 OA 
HETATM   25  C   UNL     1      -9.076  10.894  65.878  1.00  0.00    -0.212 A  
HETATM   26  H   UNL     1     -10.793  11.528  62.399  1.00  0.00     0.000 HD 
ENDBRANCH   6  17
TORSDOF 2
ENDMDL
MODEL      105
REMARK 921   NORMALIZED FREE ENERGY PREDICTED BY IDOCK:   -4.93 KCAL/MOL
REMARK 922        TOTAL FREE ENERGY PREDICTED BY IDOCK:   -5.70 KCAL/MOL
REMARK 923 INTER-LIGAND FREE ENERGY PREDICTED BY IDOCK:   -5.45 KCAL/MOL
REMARK 924 INTRA-LIGAND FREE ENERGY PREDICTED BY IDOCK:   -0.25 KCAL/MOL
REMARK 927      BINDING AFFINITY PREDICTED BY RF-SCORE:    0.00 PKD
ROOT
HETATM    1  C   UNL     1      -7.680  13.872  68.040  1.00  0.00    -0.151 C  
HETATM    2  C   UNL     1      -8.993  13.655  67.267  1.00  0.00    -0.226 C  
HETATM    3  C   UNL     1      -9.229  14.866  66.322  1.00  0.00    -0.301 C  
HETATM    4  C   UNL     1      -8.988  12.306  66.472  1.00  0.00    -0.161 C  
HETATM    5  C   UNL     1     -10.289  12.107  65.673  1.00  0.00    -0.289 C  
HETATM    6  C   UNL     1      -8.682  11.037  67.321  1.00  0.00    -0.129 C  
ENDROOT
BRANCH   3   7
HETATM    7  C   UNL     1      -9.445  16.196  67.012  1.00  0.00    -0.233 A  
HETATM    8  C   UNL     1      -8.576  17.273  66.769  1.00  0.00    -0.275 A  
HETATM    9  C   UNL     1     -10.553  16.386  67.857  1.00  0.00    -0.320 A  
HETATM   10  C   UNL     1      -8.816  18.499  67.376  1.00  0.00    -0.268 A  
HETATM   11  H   UNL     1     -10.878  19.991  69.395  1.00  0.00     0.000 HD 
HETATM   12  O   UNL     1      -8.009  19.585  67.166  1.00  0.00    -0.257 OA 
HETATM   13  C   UNL     1     -10.781  17.618  68.467  1.00  0.00    -0.193 A  
HETATM   14  C   UNL     1      -9.907  18.667  68.224  1.00  0.00    -0.371 A  
HETATM   15  O   UNL     1     -10.133  19.877  68.816  1.00  0.00    -0.442 OA 
HETATM   16  H   UNL     1      -8.173  20.423  67.581  1.00  0.00     0.000 HD 
ENDBRANCH   3   7
BRANCH   6  17
HETATM   17  C   UNL     1      -9.725  10.681  68.358  1.00  0.00    -0.172 A  
HETATM   18  C   UNL     1     -11.797   9.995  70.099  1.00  0.00    -0.173 A  
HETATM   19  C   UNL     1     -11.505  11.333  69.857  1.00  0.00    -0.293 A  
HETATM   20  C   UNL     1     -10.464  11.684  69.004  1.00  0.00    -0.159 A  
HETATM   21  H   UNL     1     -12.998  12.037  71.045  1.00  0.00     0.000 HD 
HETATM   22  C   UNL     1     -11.039   8.989  69.522  1.00  0.00    -0.039 A  
HETATM   23  O   UNL     1     -12.850   9.662  70.901  1.00  0.00    -0.478 OA 
HETATM   24  O   UNL     1     -12.287  12.277  70.462  1.00  0.00    -0.329 OA 
HETATM   25  C   UNL     1     -10.000   9.334  68.656  1.00  0.00    -0.193 A  
HETATM   26  H   UNL     1     -13.050   8.748  71.067  1.00  0.00     0.000 HD 
ENDBRANCH   6  17
TORSDOF 2
ENDMDL
MODEL      106
REMARK 921   NORMALIZED FREE ENERGY PREDICTED BY IDOCK:   -4.89 KCAL/MOL
REMARK 922        TOTAL FREE ENERGY PREDICTED BY IDOCK:   -5.66 KCAL/MOL
REMARK 923 INTER-LIGAND FREE ENERGY PREDICTED BY IDOCK:   -5.08 KCAL/MOL
REMARK 924 INTRA-LIGAND FREE ENERGY PREDICTED BY IDOCK:   -0.58 KCAL/MOL
REMARK 927      BINDING AFFINITY PREDICTED BY RF-SCORE:    0.00 PKD
ROOT
HETATM    1  C   UNL     1      -8.047   7.855  67.220  1.00  0.00    -0.118 C  
HETATM    2  C   UNL     1      -9.434   7.742  67.876  1.00  0.00    -0.158 C  
HETATM    3  C   UNL     1     -10.515   8.188  66.852  1.00  0.00    -0.379 C  
HETATM    4  C   UNL     1      -9.714   6.295  68.405  1.00  0.00    -0.130 C  
HETATM    5  C   UNL     1     -11.116   6.176  69.031  1.00  0.00    -0.437 C  
HETATM    6  C   UNL     1      -8.642   5.726  69.381  1.00  0.00    -0.111 C  
ENDROOT
BRANCH   3   7
HETATM    7  C   UNL     1     -10.448   9.639  66.427  1.00  0.00    -0.181 A  
HETATM    8  C   UNL     1     -10.845  10.657  67.309  1.00  0.00    -0.345 A  
HETATM    9  C   UNL     1      -9.931   9.986  65.166  1.00  0.00    -0.350 A  
HETATM   10  C   UNL     1     -10.734  11.986  66.918  1.00  0.00    -0.244 A  
HETATM   11  H   UNL     1      -9.792  13.847  64.428  1.00  0.00     0.000 HD 
HETATM   12  O   UNL     1     -11.095  13.018  67.742  1.00  0.00    -0.245 OA 
HETATM   13  C   UNL     1      -9.830  11.322  64.781  1.00  0.00    -0.312 A  
HETATM   14  C   UNL     1     -10.236  12.314  65.660  1.00  0.00    -0.261 A  
HETATM   15  O   UNL     1     -10.132  13.624  65.287  1.00  0.00    -0.316 OA 
HETATM   16  H   UNL     1     -11.019  13.927  67.475  1.00  0.00     0.000 HD 
ENDBRANCH   3   7
BRANCH   6  17
HETATM   17  C   UNL     1      -8.535   6.435  70.714  1.00  0.00    -0.135 A  
HETATM   18  C   UNL     1      -8.505   7.883  73.101  1.00  0.00    -0.186 A  
HETATM   19  C   UNL     1      -7.588   8.176  72.097  1.00  0.00    -0.115 A  
HETATM   20  C   UNL     1      -7.586   7.449  70.911  1.00  0.00    -0.083 A  
HETATM   21  H   UNL     1      -6.721   9.705  73.119  1.00  0.00     0.000 HD 
HETATM   22  C   UNL     1      -9.409   6.844  72.953  1.00  0.00    -0.156 A  
HETATM   23  O   UNL     1      -8.530   8.633  74.241  1.00  0.00    -0.352 OA 
HETATM   24  O   UNL     1      -6.718   9.209  72.309  1.00  0.00    -0.305 OA 
HETATM   25  C   UNL     1      -9.420   6.118  71.761  1.00  0.00    -0.162 A  
HETATM   26  H   UNL     1      -9.156   8.433  74.927  1.00  0.00     0.000 HD 
ENDBRANCH   6  17
TORSDOF 2
ENDMDL
MODEL      107
REMARK 921   NORMALIZED FREE ENERGY PREDICTED BY IDOCK:   -4.89 KCAL/MOL
REMARK 922        TOTAL FREE ENERGY PREDICTED BY IDOCK:   -5.65 KCAL/MOL
REMARK 923 INTER-LIGAND FREE ENERGY PREDICTED BY IDOCK:   -5.51 KCAL/MOL
REMARK 924 INTRA-LIGAND FREE ENERGY PREDICTED BY IDOCK:   -0.15 KCAL/MOL
REMARK 927      BINDING AFFINITY PREDICTED BY RF-SCORE:    0.00 PKD
ROOT
HETATM    1  C   UNL     1     -10.135   8.928  66.561  1.00  0.00    -0.356 C  
HETATM    2  C   UNL     1      -9.254   8.252  67.625  1.00  0.00    -0.150 C  
HETATM    3  C   UNL     1      -8.007   7.634  66.931  1.00  0.00    -0.115 C  
HETATM    4  C   UNL     1      -8.837   9.249  68.759  1.00  0.00    -0.132 C  
HETATM    5  C   UNL     1      -7.927   8.578  69.805  1.00  0.00    -0.103 C  
HETATM    6  C   UNL     1     -10.016   9.980  69.466  1.00  0.00    -0.249 C  
ENDROOT
BRANCH   3   7
HETATM    7  C   UNL     1      -8.296   6.515  65.954  1.00  0.00    -0.140 A  
HETATM    8  C   UNL     1      -9.071   5.411  66.347  1.00  0.00    -0.141 A  
HETATM    9  C   UNL     1      -7.842   6.595  64.626  1.00  0.00    -0.116 A  
HETATM   10  C   UNL     1      -9.364   4.414  65.425  1.00  0.00    -0.164 A  
HETATM   11  H   UNL     1      -8.866   3.573  62.328  1.00  0.00     0.000 HD 
HETATM   12  O   UNL     1     -10.125   3.323  65.750  1.00  0.00    -0.381 OA 
HETATM   13  C   UNL     1      -8.135   5.587  63.710  1.00  0.00    -0.121 A  
HETATM   14  C   UNL     1      -8.893   4.500  64.118  1.00  0.00    -0.148 A  
HETATM   15  O   UNL     1      -9.187   3.513  63.220  1.00  0.00    -0.094 OA 
HETATM   16  H   UNL     1     -10.325   2.642  65.120  1.00  0.00     0.000 HD 
ENDBRANCH   3   7
BRANCH   6  17
HETATM   17  C   UNL     1     -10.940   9.094  70.274  1.00  0.00    -0.279 A  
HETATM   18  C   UNL     1     -12.785   7.458  71.583  1.00  0.00    -0.365 A  
HETATM   19  C   UNL     1     -12.789   8.831  71.806  1.00  0.00    -0.360 A  
HETATM   20  C   UNL     1     -11.863   9.651  71.170  1.00  0.00    -0.448 A  
HETATM   21  H   UNL     1     -14.375   8.777  73.078  1.00  0.00     0.000 HD 
HETATM   22  C   UNL     1     -11.841   6.879  70.751  1.00  0.00    -0.427 A  
HETATM   23  O   UNL     1     -13.728   6.669  72.175  1.00  0.00    -0.513 OA 
HETATM   24  O   UNL     1     -13.743   9.338  72.644  1.00  0.00    -0.450 OA 
HETATM   25  C   UNL     1     -10.915   7.697  70.101  1.00  0.00    -0.255 A  
HETATM   26  H   UNL     1     -13.725   5.731  72.023  1.00  0.00     0.000 HD 
ENDBRANCH   6  17
TORSDOF 2
ENDMDL
MODEL      108
REMARK 921   NORMALIZED FREE ENERGY PREDICTED BY IDOCK:   -4.88 KCAL/MOL
REMARK 922        TOTAL FREE ENERGY PREDICTED BY IDOCK:   -5.64 KCAL/MOL
REMARK 923 INTER-LIGAND FREE ENERGY PREDICTED BY IDOCK:   -5.03 KCAL/MOL
REMARK 924 INTRA-LIGAND FREE ENERGY PREDICTED BY IDOCK:   -0.61 KCAL/MOL
REMARK 927      BINDING AFFINITY PREDICTED BY RF-SCORE:    0.00 PKD
ROOT
HETATM    1  C   UNL     1      -7.847   7.403  68.645  1.00  0.00    -0.122 C  
HETATM    2  C   UNL     1      -9.346   7.328  68.983  1.00  0.00    -0.148 C  
HETATM    3  C   UNL     1      -9.736   5.842  69.226  1.00  0.00    -0.182 C  
HETATM    4  C   UNL     1      -9.713   8.220  70.218  1.00  0.00    -0.177 C  
HETATM    5  C   UNL     1     -11.207   8.117  70.574  1.00  0.00    -0.249 C  
HETATM    6  C   UNL     1      -9.291   9.715  70.103  1.00  0.00    -0.294 C  
ENDROOT
BRANCH   3   7
HETATM    7  C   UNL     1      -9.603   4.932  68.024  1.00  0.00    -0.190 A  
HETATM    8  C   UNL     1      -8.939   3.699  68.136  1.00  0.00    -0.171 A  
HETATM    9  C   UNL     1     -10.194   5.284  66.798  1.00  0.00    -0.287 A  
HETATM   10  C   UNL     1      -8.866   2.856  67.034  1.00  0.00    -0.144 A  
HETATM   11  H   UNL     1      -9.756   2.642  63.917  1.00  0.00     0.000 HD 
HETATM   12  O   UNL     1      -8.243   1.639  67.090  1.00  0.00    -0.069 OA 
HETATM   13  C   UNL     1     -10.109   4.435  65.696  1.00  0.00    -0.256 A  
HETATM   14  C   UNL     1      -9.441   3.226  65.822  1.00  0.00    -0.087 A  
HETATM   15  O   UNL     1      -9.362   2.389  64.744  1.00  0.00    -0.139 OA 
HETATM   16  H   UNL     1      -8.192   1.062  66.337  1.00  0.00     0.000 HD 
ENDBRANCH   3   7
BRANCH   6  17
HETATM   17  C   UNL     1     -10.003  10.511  69.031  1.00  0.00    -0.223 A  
HETATM   18  C   UNL     1     -11.489  11.828  67.069  1.00  0.00    -0.298 A  
HETATM   19  C   UNL     1     -10.487  10.935  66.703  1.00  0.00    -0.254 A  
HETATM   20  C   UNL     1      -9.732  10.287  67.674  1.00  0.00    -0.189 A  
HETATM   21  H   UNL     1     -10.812  11.147  64.706  1.00  0.00     0.000 HD 
HETATM   22  C   UNL     1     -11.731  12.113  68.402  1.00  0.00    -0.388 A  
HETATM   23  O   UNL     1     -12.255  12.423  66.108  1.00  0.00    -0.635 OA 
HETATM   24  O   UNL     1     -10.295  10.704  65.369  1.00  0.00    -0.272 OA 
HETATM   25  C   UNL     1     -10.984  11.458  69.383  1.00  0.00    -0.260 A  
HETATM   26  H   UNL     1     -12.939  13.033  66.358  1.00  0.00     0.000 HD 
ENDBRANCH   6  17
TORSDOF 2
ENDMDL
MODEL      109
REMARK 921   NORMALIZED FREE ENERGY PREDICTED BY IDOCK:   -4.86 KCAL/MOL
REMARK 922        TOTAL FREE ENERGY PREDICTED BY IDOCK:   -5.62 KCAL/MOL
REMARK 923 INTER-LIGAND FREE ENERGY PREDICTED BY IDOCK:   -5.14 KCAL/MOL
REMARK 924 INTRA-LIGAND FREE ENERGY PREDICTED BY IDOCK:   -0.48 KCAL/MOL
REMARK 927      BINDING AFFINITY PREDICTED BY RF-SCORE:    0.00 PKD
ROOT
HETATM    1  C   UNL     1     -11.179  13.161  66.256  1.00  0.00    -0.328 C  
HETATM    2  C   UNL     1     -10.070  12.673  67.205  1.00  0.00    -0.215 C  
HETATM    3  C   UNL     1      -9.653  13.844  68.139  1.00  0.00    -0.218 C  
HETATM    4  C   UNL     1     -10.518  11.420  68.032  1.00  0.00    -0.215 C  
HETATM    5  C   UNL     1      -9.420  10.953  69.005  1.00  0.00    -0.160 C  
HETATM    6  C   UNL     1     -11.029  10.216  67.186  1.00  0.00    -0.204 C  
ENDROOT
BRANCH   3   7
HETATM    7  C   UNL     1      -9.021  15.032  67.447  1.00  0.00    -0.196 A  
HETATM    8  C   UNL     1      -9.798  16.153  67.107  1.00  0.00    -0.241 A  
HETATM    9  C   UNL     1      -7.639  15.053  67.191  1.00  0.00    -0.174 A  
HETATM   10  C   UNL     1      -9.193  17.253  66.512  1.00  0.00    -0.261 A  
HETATM   11  H   UNL     1      -6.308  18.337  65.485  1.00  0.00     0.000 HD 
HETATM   12  O   UNL     1      -9.899  18.375  66.171  1.00  0.00    -0.443 OA 
HETATM   13  C   UNL     1      -7.042  16.158  66.587  1.00  0.00    -0.035 A  
HETATM   14  C   UNL     1      -7.826  17.251  66.249  1.00  0.00    -0.309 A  
HETATM   15  O   UNL     1      -7.242  18.339  65.664  1.00  0.00    -0.503 OA 
HETATM   16  H   UNL     1      -9.485  19.127  65.765  1.00  0.00     0.000 HD 
ENDBRANCH   3   7
BRANCH   6  17
HETATM   17  C   UNL     1      -9.991   9.549  66.310  1.00  0.00    -0.344 A  
HETATM   18  C   UNL     1      -8.249   8.208  64.589  1.00  0.00    -0.125 A  
HETATM   19  C   UNL     1      -8.476   7.719  65.870  1.00  0.00    -0.142 A  
HETATM   20  C   UNL     1      -9.329   8.389  66.740  1.00  0.00    -0.235 A  
HETATM   21  H   UNL     1      -7.271   6.098  65.634  1.00  0.00     0.000 HD 
HETATM   22  C   UNL     1      -8.842   9.386  64.165  1.00  0.00    -0.216 A  
HETATM   23  O   UNL     1      -7.446   7.518  63.728  1.00  0.00    -0.092 OA 
HETATM   24  O   UNL     1      -7.854   6.555  66.228  1.00  0.00    -0.100 OA 
HETATM   25  C   UNL     1      -9.709  10.059  65.029  1.00  0.00    -0.386 A  
HETATM   26  H   UNL     1      -7.291   7.852  62.852  1.00  0.00     0.000 HD 
ENDBRANCH   6  17
TORSDOF 2
ENDMDL
MODEL      110
REMARK 921   NORMALIZED FREE ENERGY PREDICTED BY IDOCK:   -4.83 KCAL/MOL
REMARK 922        TOTAL FREE ENERGY PREDICTED BY IDOCK:   -5.59 KCAL/MOL
REMARK 923 INTER-LIGAND FREE ENERGY PREDICTED BY IDOCK:   -5.58 KCAL/MOL
REMARK 924 INTRA-LIGAND FREE ENERGY PREDICTED BY IDOCK:   -0.01 KCAL/MOL
REMARK 927      BINDING AFFINITY PREDICTED BY RF-SCORE:    0.00 PKD
ROOT
HETATM    1  C   UNL     1     -10.469   7.930  67.300  1.00  0.00    -0.390 C  
HETATM    2  C   UNL     1      -9.464   8.792  68.085  1.00  0.00    -0.152 C  
HETATM    3  C   UNL     1      -8.603   7.865  68.989  1.00  0.00    -0.135 C  
HETATM    4  C   UNL     1      -8.565   9.653  67.135  1.00  0.00    -0.133 C  
HETATM    5  C   UNL     1      -7.539  10.489  67.921  1.00  0.00    -0.092 C  
HETATM    6  C   UNL     1      -9.338  10.560  66.133  1.00  0.00    -0.210 C  
ENDROOT
BRANCH   3   7
HETATM    7  C   UNL     1      -9.360   7.134  70.077  1.00  0.00    -0.154 A  
HETATM    8  C   UNL     1      -9.195   5.750  70.250  1.00  0.00    -0.174 A  
HETATM    9  C   UNL     1     -10.191   7.841  70.963  1.00  0.00    -0.210 A  
HETATM   10  C   UNL     1      -9.863   5.102  71.281  1.00  0.00    -0.177 A  
HETATM   11  H   UNL     1     -11.917   5.652  73.737  1.00  0.00     0.000 HD 
HETATM   12  O   UNL     1      -9.729   3.758  71.503  1.00  0.00    -0.155 OA 
HETATM   13  C   UNL     1     -10.863   7.182  71.990  1.00  0.00    -0.252 A  
HETATM   14  C   UNL     1     -10.696   5.814  72.140  1.00  0.00    -0.231 A  
HETATM   15  O   UNL     1     -11.349   5.166  73.151  1.00  0.00    -0.314 OA 
HETATM   16  H   UNL     1     -10.186   3.315  72.209  1.00  0.00     0.000 HD 
ENDBRANCH   3   7
BRANCH   6  17
HETATM   17  C   UNL     1     -10.144  11.680  66.756  1.00  0.00    -0.242 A  
HETATM   18  C   UNL     1     -11.785  13.585  67.970  1.00  0.00    -0.359 A  
HETATM   19  C   UNL     1     -11.854  13.379  66.596  1.00  0.00    -0.395 A  
HETATM   20  C   UNL     1     -11.029  12.443  65.981  1.00  0.00    -0.324 A  
HETATM   21  H   UNL     1     -13.334  14.743  66.308  1.00  0.00     0.000 HD 
HETATM   22  C   UNL     1     -10.873  12.888  68.745  1.00  0.00    -0.277 A  
HETATM   23  O   UNL     1     -12.631  14.472  68.569  1.00  0.00    -0.517 OA 
HETATM   24  O   UNL     1     -12.771  14.105  65.888  1.00  0.00    -0.487 OA 
HETATM   25  C   UNL     1     -10.049  11.939  68.136  1.00  0.00    -0.200 A  
HETATM   26  H   UNL     1     -12.584  14.613  69.507  1.00  0.00     0.000 HD 
ENDBRANCH   6  17
TORSDOF 2
ENDMDL
MODEL      111
REMARK 921   NORMALIZED FREE ENERGY PREDICTED BY IDOCK:   -4.78 KCAL/MOL
REMARK 922        TOTAL FREE ENERGY PREDICTED BY IDOCK:   -5.54 KCAL/MOL
REMARK 923 INTER-LIGAND FREE ENERGY PREDICTED BY IDOCK:   -4.92 KCAL/MOL
REMARK 924 INTRA-LIGAND FREE ENERGY PREDICTED BY IDOCK:   -0.62 KCAL/MOL
REMARK 927      BINDING AFFINITY PREDICTED BY RF-SCORE:    0.00 PKD
ROOT
HETATM    1  C   UNL     1     -10.571   8.306  67.452  1.00  0.00    -0.324 C  
HETATM    2  C   UNL     1      -9.624   9.166  68.307  1.00  0.00    -0.161 C  
HETATM    3  C   UNL     1      -8.259   8.434  68.441  1.00  0.00    -0.124 C  
HETATM    4  C   UNL     1      -9.441  10.604  67.712  1.00  0.00    -0.165 C  
HETATM    5  C   UNL     1      -8.467  11.451  68.552  1.00  0.00    -0.152 C  
HETATM    6  C   UNL     1     -10.762  11.392  67.468  1.00  0.00    -0.266 C  
ENDROOT
BRANCH   3   7
HETATM    7  C   UNL     1      -8.299   7.115  69.183  1.00  0.00    -0.129 A  
HETATM    8  C   UNL     1      -8.875   7.037  70.462  1.00  0.00    -0.154 A  
HETATM    9  C   UNL     1      -7.815   5.943  68.577  1.00  0.00    -0.102 A  
HETATM   10  C   UNL     1      -8.944   5.810  71.111  1.00  0.00    -0.139 A  
HETATM   11  H   UNL     1      -8.177   2.676  70.736  1.00  0.00     0.000 HD 
HETATM   12  O   UNL     1      -9.506   5.674  72.351  1.00  0.00    -0.144 OA 
HETATM   13  C   UNL     1      -7.882   4.718  69.238  1.00  0.00    -0.070 A  
HETATM   14  C   UNL     1      -8.445   4.661  70.504  1.00  0.00    -0.090 A  
HETATM   15  O   UNL     1      -8.517   3.460  71.151  1.00  0.00    -0.065 OA 
HETATM   16  H   UNL     1      -9.553   4.835  72.795  1.00  0.00     0.000 HD 
ENDBRANCH   3   7
BRANCH   6  17
HETATM   17  C   UNL     1     -11.540  11.761  68.712  1.00  0.00    -0.367 A  
HETATM   18  C   UNL     1     -12.775  12.434  71.124  1.00  0.00    -0.240 A  
HETATM   19  C   UNL     1     -12.780  11.115  70.683  1.00  0.00    -0.263 A  
HETATM   20  C   UNL     1     -12.181  10.774  69.475  1.00  0.00    -0.292 A  
HETATM   21  H   UNL     1     -13.776  10.410  72.310  1.00  0.00     0.000 HD 
HETATM   22  C   UNL     1     -12.203  13.435  70.356  1.00  0.00    -0.415 A  
HETATM   23  O   UNL     1     -13.325  12.750  72.333  1.00  0.00    -0.521 OA 
HETATM   24  O   UNL     1     -13.367  10.177  71.485  1.00  0.00    -0.370 OA 
HETATM   25  C   UNL     1     -11.590  13.098  69.148  1.00  0.00    -0.368 A  
HETATM   26  H   UNL     1     -13.321  13.651  72.634  1.00  0.00     0.000 HD 
ENDBRANCH   6  17
TORSDOF 2
ENDMDL
MODEL      112
REMARK 921   NORMALIZED FREE ENERGY PREDICTED BY IDOCK:   -4.76 KCAL/MOL
REMARK 922        TOTAL FREE ENERGY PREDICTED BY IDOCK:   -5.51 KCAL/MOL
REMARK 923 INTER-LIGAND FREE ENERGY PREDICTED BY IDOCK:   -5.29 KCAL/MOL
REMARK 924 INTRA-LIGAND FREE ENERGY PREDICTED BY IDOCK:   -0.22 KCAL/MOL
REMARK 927      BINDING AFFINITY PREDICTED BY RF-SCORE:    0.00 PKD
ROOT
HETATM    1  C   UNL     1      -8.692   7.662  70.168  1.00  0.00    -0.141 C  
HETATM    2  C   UNL     1      -9.399   8.211  68.916  1.00  0.00    -0.147 C  
HETATM    3  C   UNL     1     -10.120   9.539  69.285  1.00  0.00    -0.203 C  
HETATM    4  C   UNL     1      -8.403   8.418  67.725  1.00  0.00    -0.130 C  
HETATM    5  C   UNL     1      -9.107   8.998  66.485  1.00  0.00    -0.202 C  
HETATM    6  C   UNL     1      -7.573   7.160  67.330  1.00  0.00    -0.104 C  
ENDROOT
BRANCH   3   7
HETATM    7  C   UNL     1     -11.243   9.409  70.291  1.00  0.00    -0.286 A  
HETATM    8  C   UNL     1     -11.901  10.554  70.774  1.00  0.00    -0.465 A  
HETATM    9  C   UNL     1     -11.680   8.140  70.709  1.00  0.00    -0.211 A  
HETATM   10  C   UNL     1     -12.959  10.414  71.663  1.00  0.00    -0.475 A  
HETATM   11  H   UNL     1     -14.690   8.164  73.241  1.00  0.00     0.000 HD 
HETATM   12  O   UNL     1     -13.642  11.493  72.155  1.00  0.00    -0.477 OA 
HETATM   13  C   UNL     1     -12.738   8.011  71.608  1.00  0.00    -0.347 A  
HETATM   14  C   UNL     1     -13.368   9.151  72.081  1.00  0.00    -0.463 A  
HETATM   15  O   UNL     1     -14.410   9.026  72.957  1.00  0.00    -0.462 OA 
HETATM   16  H   UNL     1     -14.366  11.398  72.763  1.00  0.00     0.000 HD 
ENDBRANCH   3   7
BRANCH   6  17
HETATM   17  C   UNL     1      -8.370   6.007  66.759  1.00  0.00    -0.106 A  
HETATM   18  C   UNL     1      -9.654   3.749  65.737  1.00  0.00    -0.162 A  
HETATM   19  C   UNL     1      -9.087   4.679  64.873  1.00  0.00    -0.154 A  
HETATM   20  C   UNL     1      -8.460   5.815  65.373  1.00  0.00    -0.151 A  
HETATM   21  H   UNL     1      -9.576   3.647  63.190  1.00  0.00     0.000 HD 
HETATM   22  C   UNL     1      -9.633   3.951  67.107  1.00  0.00    -0.226 A  
HETATM   23  O   UNL     1     -10.226   2.614  65.237  1.00  0.00    -0.125 OA 
HETATM   24  O   UNL     1      -9.148   4.423  63.531  1.00  0.00    -0.137 OA 
HETATM   25  C   UNL     1      -8.996   5.083  67.617  1.00  0.00    -0.115 A  
HETATM   26  H   UNL     1     -10.613   1.979  65.828  1.00  0.00     0.000 HD 
ENDBRANCH   6  17
TORSDOF 2
ENDMDL
MODEL      113
REMARK 921   NORMALIZED FREE ENERGY PREDICTED BY IDOCK:   -4.76 KCAL/MOL
REMARK 922        TOTAL FREE ENERGY PREDICTED BY IDOCK:   -5.50 KCAL/MOL
REMARK 923 INTER-LIGAND FREE ENERGY PREDICTED BY IDOCK:   -5.18 KCAL/MOL
REMARK 924 INTRA-LIGAND FREE ENERGY PREDICTED BY IDOCK:   -0.32 KCAL/MOL
REMARK 927      BINDING AFFINITY PREDICTED BY RF-SCORE:    0.00 PKD
ROOT
HETATM    1  C   UNL     1     -11.212  12.688  69.124  1.00  0.00    -0.300 C  
HETATM    2  C   UNL     1     -11.098  13.053  67.634  1.00  0.00    -0.296 C  
HETATM    3  C   UNL     1     -11.503  11.820  66.778  1.00  0.00    -0.352 C  
HETATM    4  C   UNL     1     -11.965  14.306  67.270  1.00  0.00    -0.439 C  
HETATM    5  C   UNL     1     -11.874  14.650  65.772  1.00  0.00    -0.274 C  
HETATM    6  C   UNL     1     -11.686  15.576  68.128  1.00  0.00    -0.241 C  
ENDROOT
BRANCH   3   7
HETATM    7  C   UNL     1     -10.601  10.612  66.912  1.00  0.00    -0.311 A  
HETATM    8  C   UNL     1     -10.893   9.606  67.848  1.00  0.00    -0.272 A  
HETATM    9  C   UNL     1      -9.493  10.455  66.060  1.00  0.00    -0.232 A  
HETATM   10  C   UNL     1     -10.079   8.483  67.926  1.00  0.00    -0.207 A  
HETATM   11  H   UNL     1      -7.430   7.151  66.600  1.00  0.00     0.000 HD 
HETATM   12  O   UNL     1     -10.324   7.468  68.810  1.00  0.00    -0.194 OA 
HETATM   13  C   UNL     1      -8.678   9.328  66.151  1.00  0.00    -0.169 A  
HETATM   14  C   UNL     1      -8.976   8.350  67.087  1.00  0.00    -0.137 A  
HETATM   15  O   UNL     1      -8.182   7.241  67.173  1.00  0.00    -0.115 OA 
HETATM   16  H   UNL     1      -9.768   6.700  68.864  1.00  0.00     0.000 HD 
ENDBRANCH   3   7
BRANCH   6  17
HETATM   17  C   UNL     1     -10.315  16.192  67.953  1.00  0.00    -0.277 A  
HETATM   18  C   UNL     1      -7.797  17.266  67.407  1.00  0.00    -0.180 A  
HETATM   19  C   UNL     1      -7.907  15.999  67.969  1.00  0.00    -0.137 A  
HETATM   20  C   UNL     1      -9.157  15.463  68.259  1.00  0.00    -0.187 A  
HETATM   21  H   UNL     1      -5.901  15.666  68.000  1.00  0.00     0.000 HD 
HETATM   22  C   UNL     1      -8.924  18.030  67.155  1.00  0.00    -0.255 A  
HETATM   23  O   UNL     1      -6.567  17.763  67.083  1.00  0.00    -0.157 OA 
HETATM   24  O   UNL     1      -6.754  15.300  68.198  1.00  0.00    -0.109 OA 
HETATM   25  C   UNL     1     -10.183  17.494  67.434  1.00  0.00    -0.337 A  
HETATM   26  H   UNL     1      -6.491  18.629  66.700  1.00  0.00     0.000 HD 
ENDBRANCH   6  17
TORSDOF 2
ENDMDL
MODEL      114
REMARK 921   NORMALIZED FREE ENERGY PREDICTED BY IDOCK:   -4.75 KCAL/MOL
REMARK 922        TOTAL FREE ENERGY PREDICTED BY IDOCK:   -5.50 KCAL/MOL
REMARK 923 INTER-LIGAND FREE ENERGY PREDICTED BY IDOCK:   -5.32 KCAL/MOL
REMARK 924 INTRA-LIGAND FREE ENERGY PREDICTED BY IDOCK:   -0.18 KCAL/MOL
REMARK 927      BINDING AFFINITY PREDICTED BY RF-SCORE:    0.00 PKD
ROOT
HETATM    1  C   UNL     1      -8.626   8.486  70.360  1.00  0.00    -0.146 C  
HETATM    2  C   UNL     1      -9.393   8.739  69.050  1.00  0.00    -0.145 C  
HETATM    3  C   UNL     1     -10.330   9.965  69.242  1.00  0.00    -0.235 C  
HETATM    4  C   UNL     1      -8.424   8.950  67.837  1.00  0.00    -0.125 C  
HETATM    5  C   UNL     1      -9.193   9.236  66.534  1.00  0.00    -0.206 C  
HETATM    6  C   UNL     1      -7.391   7.807  67.609  1.00  0.00    -0.092 C  
ENDROOT
BRANCH   3   7
HETATM    7  C   UNL     1     -11.433   9.785  70.263  1.00  0.00    -0.317 A  
HETATM    8  C   UNL     1     -11.670   8.526  70.839  1.00  0.00    -0.274 A  
HETATM    9  C   UNL     1     -12.193  10.888  70.690  1.00  0.00    -0.472 A  
HETATM   10  C   UNL     1     -12.657   8.388  71.808  1.00  0.00    -0.342 A  
HETATM   11  H   UNL     1     -14.897  10.089  73.432  1.00  0.00     0.000 HD 
HETATM   12  O   UNL     1     -12.921   7.188  72.411  1.00  0.00    -0.493 OA 
HETATM   13  C   UNL     1     -13.186  10.738  71.657  1.00  0.00    -0.487 A  
HETATM   14  C   UNL     1     -13.413   9.486  72.207  1.00  0.00    -0.440 A  
HETATM   15  O   UNL     1     -14.381   9.339  73.160  1.00  0.00    -0.272 OA 
HETATM   16  H   UNL     1     -13.596   7.093  73.073  1.00  0.00     0.000 HD 
ENDBRANCH   3   7
BRANCH   6  17
HETATM   17  C   UNL     1      -7.976   6.473  67.201  1.00  0.00    -0.112 A  
HETATM   18  C   UNL     1      -9.258   4.117  66.425  1.00  0.00    -0.157 A  
HETATM   19  C   UNL     1      -9.060   4.391  67.774  1.00  0.00    -0.127 A  
HETATM   20  C   UNL     1      -8.408   5.554  68.168  1.00  0.00    -0.099 A  
HETATM   21  H   UNL     1      -9.993   2.701  68.414  1.00  0.00     0.000 HD 
HETATM   22  C   UNL     1      -8.783   4.979  65.450  1.00  0.00    -0.146 A  
HETATM   23  O   UNL     1      -9.940   2.996  66.050  1.00  0.00    -0.352 OA 
HETATM   24  O   UNL     1      -9.548   3.495  68.684  1.00  0.00    -0.157 OA 
HETATM   25  C   UNL     1      -8.137   6.154  65.839  1.00  0.00    -0.121 A  
HETATM   26  H   UNL     1     -10.076   2.809  65.128  1.00  0.00     0.000 HD 
ENDBRANCH   6  17
TORSDOF 2
ENDMDL
MODEL      115
REMARK 921   NORMALIZED FREE ENERGY PREDICTED BY IDOCK:   -4.75 KCAL/MOL
REMARK 922        TOTAL FREE ENERGY PREDICTED BY IDOCK:   -5.50 KCAL/MOL
REMARK 923 INTER-LIGAND FREE ENERGY PREDICTED BY IDOCK:   -4.85 KCAL/MOL
REMARK 924 INTRA-LIGAND FREE ENERGY PREDICTED BY IDOCK:   -0.65 KCAL/MOL
REMARK 927      BINDING AFFINITY PREDICTED BY RF-SCORE:    0.00 PKD
ROOT
HETATM    1  C   UNL     1      -8.941  10.230  69.917  1.00  0.00     0.008 C  
HETATM    2  C   UNL     1     -10.301  10.128  69.203  1.00  0.00    -0.237 C  
HETATM    3  C   UNL     1     -11.410   9.879  70.264  1.00  0.00    -0.357 C  
HETATM    4  C   UNL     1     -10.609  11.402  68.347  1.00  0.00    -0.230 C  
HETATM    5  C   UNL     1     -11.984  11.312  67.661  1.00  0.00     0.071 C  
HETATM    6  C   UNL     1      -9.515  11.781  67.305  1.00  0.00    -0.173 C  
ENDROOT
BRANCH   3   7
HETATM    7  C   UNL     1     -11.310   8.568  71.013  1.00  0.00    -0.313 A  
HETATM    8  C   UNL     1     -11.113   7.364  70.317  1.00  0.00    -0.278 A  
HETATM    9  C   UNL     1     -11.354   8.548  72.418  1.00  0.00    -0.412 A  
HETATM   10  C   UNL     1     -10.978   6.176  71.023  1.00  0.00    -0.293 A  
HETATM   11  H   UNL     1     -10.950   4.991  74.047  1.00  0.00     0.000 HD 
HETATM   12  O   UNL     1     -10.772   4.976  70.396  1.00  0.00    -0.168 OA 
HETATM   13  C   UNL     1     -11.225   7.349  73.118  1.00  0.00    -0.294 A  
HETATM   14  C   UNL     1     -11.041   6.170  72.414  1.00  0.00    -0.275 A  
HETATM   15  O   UNL     1     -10.907   4.995  73.098  1.00  0.00    -0.234 OA 
HETATM   16  H   UNL     1     -10.680   4.164  70.879  1.00  0.00     0.000 HD 
ENDBRANCH   3   7
BRANCH   6  17
HETATM   17  C   UNL     1      -9.323  10.792  66.175  1.00  0.00    -0.209 A  
HETATM   18  C   UNL     1      -8.761   9.065  64.055  1.00  0.00    -0.086 A  
HETATM   19  C   UNL     1      -9.540  10.198  63.844  1.00  0.00    -0.239 A  
HETATM   20  C   UNL     1      -9.838  11.055  64.897  1.00  0.00    -0.327 A  
HETATM   21  H   UNL     1      -9.770   9.860  61.851  1.00  0.00     0.000 HD 
HETATM   22  C   UNL     1      -8.296   8.752  65.321  1.00  0.00    -0.168 A  
HETATM   23  O   UNL     1      -8.437   8.256  63.004  1.00  0.00    -0.375 OA 
HETATM   24  O   UNL     1      -9.973  10.445  62.571  1.00  0.00    -0.123 OA 
HETATM   25  C   UNL     1      -8.582   9.613  66.382  1.00  0.00    -0.136 A  
HETATM   26  H   UNL     1      -7.905   7.482  63.149  1.00  0.00     0.000 HD 
ENDBRANCH   6  17
TORSDOF 2
ENDMDL
MODEL      116
REMARK 921   NORMALIZED FREE ENERGY PREDICTED BY IDOCK:   -4.67 KCAL/MOL
REMARK 922        TOTAL FREE ENERGY PREDICTED BY IDOCK:   -5.41 KCAL/MOL
REMARK 923 INTER-LIGAND FREE ENERGY PREDICTED BY IDOCK:   -5.10 KCAL/MOL
REMARK 924 INTRA-LIGAND FREE ENERGY PREDICTED BY IDOCK:   -0.31 KCAL/MOL
REMARK 927      BINDING AFFINITY PREDICTED BY RF-SCORE:    0.00 PKD
ROOT
HETATM    1  C   UNL     1      -8.853   8.980  68.258  1.00  0.00    -0.134 C  
HETATM    2  C   UNL     1      -8.216   8.836  66.865  1.00  0.00    -0.108 C  
HETATM    3  C   UNL     1      -8.096  10.244  66.217  1.00  0.00    -0.129 C  
HETATM    4  C   UNL     1      -6.825   8.120  66.929  1.00  0.00    -0.069 C  
HETATM    5  C   UNL     1      -6.175   8.006  65.538  1.00  0.00    -0.038 C  
HETATM    6  C   UNL     1      -6.827   6.731  67.634  1.00  0.00    -0.080 C  
ENDROOT
BRANCH   3   7
HETATM    7  C   UNL     1      -9.409  10.941  65.930  1.00  0.00    -0.226 A  
HETATM    8  C   UNL     1      -9.980  10.882  64.648  1.00  0.00    -0.369 A  
HETATM    9  C   UNL     1     -10.100  11.605  66.959  1.00  0.00    -0.234 A  
HETATM   10  C   UNL     1     -11.207  11.490  64.414  1.00  0.00    -0.256 A  
HETATM   11  H   UNL     1     -13.531  13.208  65.897  1.00  0.00     0.000 HD 
HETATM   12  O   UNL     1     -11.815  11.453  63.188  1.00  0.00    -0.887 OA 
HETATM   13  C   UNL     1     -11.327  12.218  66.713  1.00  0.00    -0.395 A  
HETATM   14  C   UNL     1     -11.871  12.158  65.439  1.00  0.00    -0.295 A  
HETATM   15  O   UNL     1     -13.078  12.752  65.197  1.00  0.00    -0.750 OA 
HETATM   16  H   UNL     1     -12.654  11.868  63.028  1.00  0.00     0.000 HD 
ENDBRANCH   3   7
BRANCH   6  17
HETATM   17  C   UNL     1      -7.607   5.644  66.926  1.00  0.00    -0.096 A  
HETATM   18  C   UNL     1      -9.067   3.533  65.826  1.00  0.00    -0.150 A  
HETATM   19  C   UNL     1      -7.678   3.532  65.755  1.00  0.00    -0.082 A  
HETATM   20  C   UNL     1      -6.944   4.587  66.286  1.00  0.00    -0.063 A  
HETATM   21  H   UNL     1      -7.572   1.734  64.809  1.00  0.00     0.000 HD 
HETATM   22  C   UNL     1      -9.745   4.598  66.397  1.00  0.00    -0.212 A  
HETATM   23  O   UNL     1      -9.775   2.471  65.343  1.00  0.00    -0.360 OA 
HETATM   24  O   UNL     1      -7.071   2.454  65.172  1.00  0.00    -0.053 OA 
HETATM   25  C   UNL     1      -9.015   5.655  66.942  1.00  0.00    -0.112 A  
HETATM   26  H   UNL     1     -10.724   2.472  65.392  1.00  0.00     0.000 HD 
ENDBRANCH   6  17
TORSDOF 2
ENDMDL
MODEL      117
REMARK 921   NORMALIZED FREE ENERGY PREDICTED BY IDOCK:   -4.67 KCAL/MOL
REMARK 922        TOTAL FREE ENERGY PREDICTED BY IDOCK:   -5.40 KCAL/MOL
REMARK 923 INTER-LIGAND FREE ENERGY PREDICTED BY IDOCK:   -4.87 KCAL/MOL
REMARK 924 INTRA-LIGAND FREE ENERGY PREDICTED BY IDOCK:   -0.54 KCAL/MOL
REMARK 927      BINDING AFFINITY PREDICTED BY RF-SCORE:    0.00 PKD
ROOT
HETATM    1  C   UNL     1      -8.322   6.827  69.886  1.00  0.00    -0.135 C  
HETATM    2  C   UNL     1      -8.108   8.324  69.603  1.00  0.00    -0.116 C  
HETATM    3  C   UNL     1      -8.486   9.137  70.873  1.00  0.00    -0.251 C  
HETATM    4  C   UNL     1      -6.640   8.629  69.149  1.00  0.00    -0.047 C  
HETATM    5  C   UNL     1      -6.419  10.132  68.899  1.00  0.00    -0.048 C  
HETATM    6  C   UNL     1      -6.139   7.804  67.927  1.00  0.00    -0.045 C  
ENDROOT
BRANCH   3   7
HETATM    7  C   UNL     1      -9.942   9.064  71.281  1.00  0.00    -0.381 A  
HETATM    8  C   UNL     1     -10.907   9.837  70.614  1.00  0.00    -0.396 A  
HETATM    9  C   UNL     1     -10.353   8.177  72.291  1.00  0.00    -0.361 A  
HETATM   10  C   UNL     1     -12.244   9.724  70.971  1.00  0.00    -0.347 A  
HETATM   11  H   UNL     1     -14.217   8.158  73.022  1.00  0.00     0.000 HD 
HETATM   12  O   UNL     1     -13.227  10.444  70.347  1.00  0.00    -0.493 OA 
HETATM   13  C   UNL     1     -11.696   8.076  72.648  1.00  0.00    -0.418 A  
HETATM   14  C   UNL     1     -12.633   8.854  71.986  1.00  0.00    -0.394 A  
HETATM   15  O   UNL     1     -13.952   8.752  72.329  1.00  0.00    -0.430 OA 
HETATM   16  H   UNL     1     -14.142  10.367  70.591  1.00  0.00     0.000 HD 
ENDBRANCH   3   7
BRANCH   6  17
HETATM   17  C   UNL     1      -6.842   8.088  66.618  1.00  0.00    -0.068 A  
HETATM   18  C   UNL     1      -8.016   8.442  64.109  1.00  0.00    -0.151 A  
HETATM   19  C   UNL     1      -6.955   9.250  64.502  1.00  0.00    -0.093 A  
HETATM   20  C   UNL     1      -6.375   9.092  65.756  1.00  0.00    -0.060 A  
HETATM   21  H   UNL     1      -6.891  10.285  62.753  1.00  0.00     0.000 HD 
HETATM   22  C   UNL     1      -8.535   7.488  64.969  1.00  0.00    -0.008 A  
HETATM   23  O   UNL     1      -8.547   8.575  62.859  1.00  0.00    -0.384 OA 
HETATM   24  O   UNL     1      -6.494  10.177  63.609  1.00  0.00    -0.131 OA 
HETATM   25  C   UNL     1      -7.951   7.315  66.225  1.00  0.00    -0.110 A  
HETATM   26  H   UNL     1      -9.272   8.023  62.590  1.00  0.00     0.000 HD 
ENDBRANCH   6  17
TORSDOF 2
ENDMDL
MODEL      118
REMARK 921   NORMALIZED FREE ENERGY PREDICTED BY IDOCK:   -4.66 KCAL/MOL
REMARK 922        TOTAL FREE ENERGY PREDICTED BY IDOCK:   -5.39 KCAL/MOL
REMARK 923 INTER-LIGAND FREE ENERGY PREDICTED BY IDOCK:   -5.10 KCAL/MOL
REMARK 924 INTRA-LIGAND FREE ENERGY PREDICTED BY IDOCK:   -0.29 KCAL/MOL
REMARK 927      BINDING AFFINITY PREDICTED BY RF-SCORE:    0.00 PKD
ROOT
HETATM    1  C   UNL     1     -11.636  16.125  68.092  1.00  0.00    -0.133 C  
HETATM    2  C   UNL     1     -10.761  16.658  66.945  1.00  0.00    -0.153 C  
HETATM    3  C   UNL     1     -11.246  16.032  65.607  1.00  0.00     0.058 C  
HETATM    4  C   UNL     1     -10.773  18.223  66.877  1.00  0.00    -0.272 C  
HETATM    5  C   UNL     1      -9.923  18.752  65.707  1.00  0.00     0.038 C  
HETATM    6  C   UNL     1     -10.375  18.946  68.197  1.00  0.00    -0.433 C  
ENDROOT
BRANCH   3   7
HETATM    7  C   UNL     1     -11.089  14.530  65.498  1.00  0.00    -0.339 A  
HETATM    8  C   UNL     1      -9.880  13.914  65.859  1.00  0.00    -0.287 A  
HETATM    9  C   UNL     1     -12.172  13.731  65.091  1.00  0.00    -0.453 A  
HETATM   10  C   UNL     1      -9.768  12.531  65.796  1.00  0.00    -0.187 A  
HETATM   11  H   UNL     1     -11.456   9.864  65.028  1.00  0.00     0.000 HD 
HETATM   12  O   UNL     1      -8.618  11.877  66.148  1.00  0.00    -0.371 OA 
HETATM   13  C   UNL     1     -12.048  12.344  65.023  1.00  0.00    -0.468 A  
HETATM   14  C   UNL     1     -10.843  11.754  65.374  1.00  0.00    -0.295 A  
HETATM   15  O   UNL     1     -10.722  10.394  65.315  1.00  0.00    -0.099 OA 
HETATM   16  H   UNL     1      -8.541  10.931  66.105  1.00  0.00     0.000 HD 
ENDBRANCH   3   7
BRANCH   6  17
HETATM   17  C   UNL     1      -8.941  18.751  68.639  1.00  0.00    -0.368 A  
HETATM   18  C   UNL     1      -6.377  18.287  69.642  1.00  0.00    -0.183 A  
HETATM   19  C   UNL     1      -6.990  19.520  69.840  1.00  0.00    -0.048 A  
HETATM   20  C   UNL     1      -8.260  19.765  69.330  1.00  0.00     0.071 A  
HETATM   21  H   UNL     1      -5.446  20.291  70.916  1.00  0.00     0.000 HD 
HETATM   22  C   UNL     1      -7.005  17.294  68.909  1.00  0.00    -0.233 A  
HETATM   23  O   UNL     1      -5.150  18.041  70.187  1.00  0.00    -0.189 OA 
HETATM   24  O   UNL     1      -6.313  20.459  70.567  1.00  0.00    -0.482 OA 
HETATM   25  C   UNL     1      -8.285  17.529  68.403  1.00  0.00    -0.278 A  
HETATM   26  H   UNL     1      -4.731  17.199  70.052  1.00  0.00     0.000 HD 
ENDBRANCH   6  17
TORSDOF 2
ENDMDL
MODEL      119
REMARK 921   NORMALIZED FREE ENERGY PREDICTED BY IDOCK:   -4.64 KCAL/MOL
REMARK 922        TOTAL FREE ENERGY PREDICTED BY IDOCK:   -5.38 KCAL/MOL
REMARK 923 INTER-LIGAND FREE ENERGY PREDICTED BY IDOCK:   -4.84 KCAL/MOL
REMARK 924 INTRA-LIGAND FREE ENERGY PREDICTED BY IDOCK:   -0.54 KCAL/MOL
REMARK 927      BINDING AFFINITY PREDICTED BY RF-SCORE:    0.00 PKD
ROOT
HETATM    1  C   UNL     1      -8.857  13.667  66.562  1.00  0.00     0.000 C  
HETATM    2  C   UNL     1      -9.772  13.889  67.779  1.00  0.00    -0.225 C  
HETATM    3  C   UNL     1     -10.001  15.415  67.966  1.00  0.00    -0.221 C  
HETATM    4  C   UNL     1     -11.131  13.123  67.637  1.00  0.00    -0.295 C  
HETATM    5  C   UNL     1     -12.057  13.374  68.841  1.00  0.00    -0.289 C  
HETATM    6  C   UNL     1     -11.005  11.595  67.368  1.00  0.00    -0.313 C  
ENDROOT
BRANCH   3   7
HETATM    7  C   UNL     1      -8.766  16.221  68.306  1.00  0.00    -0.190 A  
HETATM    8  C   UNL     1      -8.611  17.527  67.813  1.00  0.00    -0.230 A  
HETATM    9  C   UNL     1      -7.788  15.693  69.167  1.00  0.00    -0.220 A  
HETATM   10  C   UNL     1      -7.492  18.269  68.171  1.00  0.00    -0.263 A  
HETATM   11  H   UNL     1      -4.767  18.092  69.931  1.00  0.00     0.000 HD 
HETATM   12  O   UNL     1      -7.296  19.549  67.730  1.00  0.00    -0.249 OA 
HETATM   13  C   UNL     1      -6.666  16.441  69.516  1.00  0.00    -0.202 A  
HETATM   14  C   UNL     1      -6.524  17.725  69.012  1.00  0.00    -0.233 A  
HETATM   15  O   UNL     1      -5.427  18.463  69.357  1.00  0.00    -0.197 OA 
HETATM   16  H   UNL     1      -6.531  20.056  67.975  1.00  0.00     0.000 HD 
ENDBRANCH   3   7
BRANCH   6  17
HETATM   17  C   UNL     1     -10.406  10.783  68.496  1.00  0.00    -0.202 A  
HETATM   18  C   UNL     1      -9.359   9.457  70.719  1.00  0.00    -0.226 A  
HETATM   19  C   UNL     1      -8.520  10.182  69.880  1.00  0.00    -0.081 A  
HETATM   20  C   UNL     1      -9.030  10.832  68.762  1.00  0.00    -0.171 A  
HETATM   21  H   UNL     1      -6.846   9.806  70.973  1.00  0.00     0.000 HD 
HETATM   22  C   UNL     1     -10.711   9.342  70.439  1.00  0.00    -0.300 A  
HETATM   23  O   UNL     1      -8.855   8.862  71.839  1.00  0.00    -0.342 OA 
HETATM   24  O   UNL     1      -7.194  10.250  70.209  1.00  0.00    -0.179 OA 
HETATM   25  C   UNL     1     -11.233  10.001  69.324  1.00  0.00    -0.213 A  
HETATM   26  H   UNL     1      -9.429   8.366  72.412  1.00  0.00     0.000 HD 
ENDBRANCH   6  17
TORSDOF 2
ENDMDL
MODEL      120
REMARK 921   NORMALIZED FREE ENERGY PREDICTED BY IDOCK:   -4.62 KCAL/MOL
REMARK 922        TOTAL FREE ENERGY PREDICTED BY IDOCK:   -5.35 KCAL/MOL
REMARK 923 INTER-LIGAND FREE ENERGY PREDICTED BY IDOCK:   -5.22 KCAL/MOL
REMARK 924 INTRA-LIGAND FREE ENERGY PREDICTED BY IDOCK:   -0.13 KCAL/MOL
REMARK 927      BINDING AFFINITY PREDICTED BY RF-SCORE:    0.00 PKD
ROOT
HETATM    1  C   UNL     1     -11.326  11.771  69.536  1.00  0.00    -0.317 C  
HETATM    2  C   UNL     1     -10.918  11.642  68.058  1.00  0.00    -0.275 C  
HETATM    3  C   UNL     1     -11.139  10.173  67.599  1.00  0.00    -0.275 C  
HETATM    4  C   UNL     1     -11.701  12.646  67.145  1.00  0.00    -0.438 C  
HETATM    5  C   UNL     1     -11.314  12.491  65.663  1.00  0.00    -0.372 C  
HETATM    6  C   UNL     1     -11.605  14.141  67.570  1.00  0.00    -0.396 C  
ENDROOT
BRANCH   3   7
HETATM    7  C   UNL     1     -10.276   9.140  68.292  1.00  0.00    -0.242 A  
HETATM    8  C   UNL     1     -10.508   8.804  69.636  1.00  0.00    -0.220 A  
HETATM    9  C   UNL     1      -9.270   8.462  67.580  1.00  0.00    -0.147 A  
HETATM   10  C   UNL     1      -9.736   7.822  70.243  1.00  0.00    -0.179 A  
HETATM   11  H   UNL     1      -7.294   5.764  69.650  1.00  0.00     0.000 HD 
HETATM   12  O   UNL     1      -9.927   7.447  71.545  1.00  0.00    -0.181 OA 
HETATM   13  C   UNL     1      -8.495   7.483  68.199  1.00  0.00    -0.124 A  
HETATM   14  C   UNL     1      -8.732   7.172  69.529  1.00  0.00    -0.134 A  
HETATM   15  O   UNL     1      -7.978   6.208  70.137  1.00  0.00    -0.103 OA 
HETATM   16  H   UNL     1      -9.399   6.776  71.960  1.00  0.00     0.000 HD 
ENDBRANCH   3   7
BRANCH   6  17
HETATM   17  C   UNL     1     -10.229  14.762  67.459  1.00  0.00    -0.233 A  
HETATM   18  C   UNL     1      -7.634  15.732  67.119  1.00  0.00    -0.224 A  
HETATM   19  C   UNL     1      -7.957  14.987  68.248  1.00  0.00    -0.128 A  
HETATM   20  C   UNL     1      -9.251  14.514  68.433  1.00  0.00    -0.196 A  
HETATM   21  H   UNL     1      -6.074  15.044  69.016  1.00  0.00     0.000 HD 
HETATM   22  C   UNL     1      -8.600  16.043  66.176  1.00  0.00    -0.315 A  
HETATM   23  O   UNL     1      -6.350  16.152  66.924  1.00  0.00    -0.301 OA 
HETATM   24  O   UNL     1      -6.958  14.721  69.143  1.00  0.00    -0.118 OA 
HETATM   25  C   UNL     1      -9.899  15.562  66.350  1.00  0.00    -0.298 A  
HETATM   26  H   UNL     1      -6.129  16.661  66.152  1.00  0.00     0.000 HD 
ENDBRANCH   6  17
TORSDOF 2
ENDMDL
MODEL      121
REMARK 921   NORMALIZED FREE ENERGY PREDICTED BY IDOCK:   -4.58 KCAL/MOL
REMARK 922        TOTAL FREE ENERGY PREDICTED BY IDOCK:   -5.31 KCAL/MOL
REMARK 923 INTER-LIGAND FREE ENERGY PREDICTED BY IDOCK:   -5.71 KCAL/MOL
REMARK 924 INTRA-LIGAND FREE ENERGY PREDICTED BY IDOCK:    0.40 KCAL/MOL
REMARK 927      BINDING AFFINITY PREDICTED BY RF-SCORE:    0.00 PKD
ROOT
HETATM    1  C   UNL     1      -9.630  12.926  68.570  1.00  0.00    -0.113 C  
HETATM    2  C   UNL     1     -10.826  13.815  68.188  1.00  0.00    -0.261 C  
HETATM    3  C   UNL     1     -11.548  14.274  69.486  1.00  0.00    -0.353 C  
HETATM    4  C   UNL     1     -10.389  15.041  67.316  1.00  0.00    -0.249 C  
HETATM    5  C   UNL     1     -11.584  15.947  66.964  1.00  0.00     0.344 C  
HETATM    6  C   UNL     1      -9.588  14.688  66.029  1.00  0.00    -0.322 C  
ENDROOT
BRANCH   3   7
HETATM    7  C   UNL     1     -12.182  13.168  70.302  1.00  0.00    -0.376 A  
HETATM    8  C   UNL     1     -12.100  11.833  69.874  1.00  0.00    -0.359 A  
HETATM    9  C   UNL     1     -12.806  13.459  71.528  1.00  0.00    -0.427 A  
HETATM   10  C   UNL     1     -12.648  10.825  70.659  1.00  0.00    -0.357 A  
HETATM   11  H   UNL     1     -14.244  10.340  73.446  1.00  0.00     0.000 HD 
HETATM   12  O   UNL     1     -12.587   9.507  70.296  1.00  0.00    -0.468 OA 
HETATM   13  C   UNL     1     -13.359  12.442  72.305  1.00  0.00    -0.427 A  
HETATM   14  C   UNL     1     -13.278  11.131  71.862  1.00  0.00    -0.382 A  
HETATM   15  O   UNL     1     -13.814  10.132  72.625  1.00  0.00    -0.001 OA 
HETATM   16  H   UNL     1     -12.961   8.818  70.832  1.00  0.00     0.000 HD 
ENDBRANCH   3   7
BRANCH   6  17
HETATM   17  C   UNL     1     -10.357  13.924  64.973  1.00  0.00    -0.418 A  
HETATM   18  C   UNL     1     -11.869  12.391  63.196  1.00  0.00    -0.246 A  
HETATM   19  C   UNL     1     -10.537  12.070  63.434  1.00  0.00    -0.428 A  
HETATM   20  C   UNL     1      -9.773  12.837  64.306  1.00  0.00     0.122 A  
HETATM   21  H   UNL     1     -10.547  10.445  62.211  1.00  0.00     0.000 HD 
HETATM   22  C   UNL     1     -12.449  13.497  63.794  1.00  0.00    -0.296 A  
HETATM   23  O   UNL     1     -12.624  11.603  62.375  1.00  0.00     0.003 OA 
HETATM   24  O   UNL     1     -10.024  10.969  62.806  1.00  0.00    -0.257 OA 
HETATM   25  C   UNL     1     -11.690  14.266  64.679  1.00  0.00    -0.439 A  
HETATM   26  H   UNL     1     -13.533  11.823  62.211  1.00  0.00     0.000 HD 
ENDBRANCH   6  17
TORSDOF 2
ENDMDL
MODEL      122
REMARK 921   NORMALIZED FREE ENERGY PREDICTED BY IDOCK:   -4.58 KCAL/MOL
REMARK 922        TOTAL FREE ENERGY PREDICTED BY IDOCK:   -5.30 KCAL/MOL
REMARK 923 INTER-LIGAND FREE ENERGY PREDICTED BY IDOCK:   -4.86 KCAL/MOL
REMARK 924 INTRA-LIGAND FREE ENERGY PREDICTED BY IDOCK:   -0.45 KCAL/MOL
REMARK 927      BINDING AFFINITY PREDICTED BY RF-SCORE:    0.00 PKD
ROOT
HETATM    1  C   UNL     1      -8.849  12.849  67.961  1.00  0.00    -0.195 C  
HETATM    2  C   UNL     1      -9.564  11.551  67.546  1.00  0.00    -0.179 C  
HETATM    3  C   UNL     1     -11.099  11.800  67.538  1.00  0.00    -0.330 C  
HETATM    4  C   UNL     1      -9.066  11.029  66.156  1.00  0.00    -0.208 C  
HETATM    5  C   UNL     1      -9.806   9.748  65.728  1.00  0.00    -0.360 C  
HETATM    6  C   UNL     1      -7.527  10.822  66.038  1.00  0.00    -0.125 C  
ENDROOT
BRANCH   3   7
HETATM    7  C   UNL     1     -11.711  12.120  68.885  1.00  0.00    -0.381 A  
HETATM    8  C   UNL     1     -12.160  11.088  69.725  1.00  0.00    -0.424 A  
HETATM    9  C   UNL     1     -11.783  13.450  69.334  1.00  0.00    -0.382 A  
HETATM   10  C   UNL     1     -12.678  11.397  70.977  1.00  0.00    -0.349 A  
HETATM   11  H   UNL     1     -13.325  13.916  72.922  1.00  0.00     0.000 HD 
HETATM   12  O   UNL     1     -13.118  10.430  71.840  1.00  0.00    -0.441 OA 
HETATM   13  C   UNL     1     -12.311  13.751  70.588  1.00  0.00    -0.445 A  
HETATM   14  C   UNL     1     -12.759  12.720  71.400  1.00  0.00    -0.255 A  
HETATM   15  O   UNL     1     -13.271  13.013  72.633  1.00  0.00    -0.393 OA 
HETATM   16  H   UNL     1     -13.473  10.642  72.696  1.00  0.00     0.000 HD 
ENDBRANCH   3   7
BRANCH   6  17
HETATM   17  C   UNL     1      -6.949   9.728  66.910  1.00  0.00    -0.088 A  
HETATM   18  C   UNL     1      -6.099   7.641  68.558  1.00  0.00    -0.032 A  
HETATM   19  C   UNL     1      -6.218   8.929  69.069  1.00  0.00    -0.044 A  
HETATM   20  C   UNL     1      -6.626   9.977  68.252  1.00  0.00    -0.055 A  
HETATM   21  H   UNL     1      -5.670   8.399  70.955  1.00  0.00     0.000 HD 
HETATM   22  C   UNL     1      -6.351   7.385  67.220  1.00  0.00    -0.055 A  
HETATM   23  O   UNL     1      -5.743   6.611  69.380  1.00  0.00    -0.014 OA 
HETATM   24  O   UNL     1      -5.948   9.115  70.397  1.00  0.00    -0.036 OA 
HETATM   25  C   UNL     1      -6.771   8.430  66.396  1.00  0.00    -0.066 A  
HETATM   26  H   UNL     1      -5.662   5.732  69.031  1.00  0.00     0.000 HD 
ENDBRANCH   6  17
TORSDOF 2
ENDMDL
MODEL      123
REMARK 921   NORMALIZED FREE ENERGY PREDICTED BY IDOCK:   -4.54 KCAL/MOL
REMARK 922        TOTAL FREE ENERGY PREDICTED BY IDOCK:   -5.27 KCAL/MOL
REMARK 923 INTER-LIGAND FREE ENERGY PREDICTED BY IDOCK:   -5.24 KCAL/MOL
REMARK 924 INTRA-LIGAND FREE ENERGY PREDICTED BY IDOCK:   -0.03 KCAL/MOL
REMARK 927      BINDING AFFINITY PREDICTED BY RF-SCORE:    0.00 PKD
ROOT
HETATM    1  C   UNL     1      -7.661  13.067  67.388  1.00  0.00    -0.141 C  
HETATM    2  C   UNL     1      -9.042  12.511  67.002  1.00  0.00    -0.213 C  
HETATM    3  C   UNL     1      -9.711  13.481  65.987  1.00  0.00    -0.233 C  
HETATM    4  C   UNL     1      -8.948  11.059  66.422  1.00  0.00    -0.190 C  
HETATM    5  C   UNL     1     -10.328  10.518  66.006  1.00  0.00    -0.279 C  
HETATM    6  C   UNL     1      -8.222  10.028  67.336  1.00  0.00    -0.118 C  
ENDROOT
BRANCH   3   7
HETATM    7  C   UNL     1     -10.027  14.862  66.519  1.00  0.00    -0.277 A  
HETATM    8  C   UNL     1      -9.299  15.979  66.075  1.00  0.00    -0.380 A  
HETATM    9  C   UNL     1     -11.090  15.050  67.419  1.00  0.00    -0.324 A  
HETATM   10  C   UNL     1      -9.632  17.245  66.541  1.00  0.00    -0.273 A  
HETATM   11  H   UNL     1     -11.709  18.777  68.513  1.00  0.00     0.000 HD 
HETATM   12  O   UNL     1      -8.965  18.368  66.132  1.00  0.00    -0.465 OA 
HETATM   13  C   UNL     1     -11.412  16.323  67.886  1.00  0.00    -0.056 A  
HETATM   14  C   UNL     1     -10.677  17.413  67.445  1.00  0.00    -0.251 A  
HETATM   15  O   UNL     1     -10.995  18.663  67.896  1.00  0.00    -0.284 OA 
HETATM   16  H   UNL     1      -9.193  19.234  66.451  1.00  0.00     0.000 HD 
ENDBRANCH   3   7
BRANCH   6  17
HETATM   17  C   UNL     1      -8.923   9.705  68.638  1.00  0.00    -0.129 A  
HETATM   18  C   UNL     1     -10.224   9.337  71.080  1.00  0.00    -0.317 A  
HETATM   19  C   UNL     1      -8.841   9.215  71.002  1.00  0.00    -0.202 A  
HETATM   20  C   UNL     1      -8.187   9.381  69.787  1.00  0.00    -0.146 A  
HETATM   21  H   UNL     1      -8.605   8.840  72.987  1.00  0.00     0.000 HD 
HETATM   22  C   UNL     1     -10.977   9.593  69.946  1.00  0.00    -0.281 A  
HETATM   23  O   UNL     1     -10.852   9.218  72.286  1.00  0.00    -0.086 OA 
HETATM   24  O   UNL     1      -8.158   8.954  72.157  1.00  0.00    -0.369 OA 
HETATM   25  C   UNL     1     -10.326   9.772  68.724  1.00  0.00    -0.227 A  
HETATM   26  H   UNL     1     -11.797   9.301  72.340  1.00  0.00     0.000 HD 
ENDBRANCH   6  17
TORSDOF 2
ENDMDL
MODEL      124
REMARK 921   NORMALIZED FREE ENERGY PREDICTED BY IDOCK:   -4.52 KCAL/MOL
REMARK 922        TOTAL FREE ENERGY PREDICTED BY IDOCK:   -5.24 KCAL/MOL
REMARK 923 INTER-LIGAND FREE ENERGY PREDICTED BY IDOCK:   -4.88 KCAL/MOL
REMARK 924 INTRA-LIGAND FREE ENERGY PREDICTED BY IDOCK:   -0.36 KCAL/MOL
REMARK 927      BINDING AFFINITY PREDICTED BY RF-SCORE:    0.00 PKD
ROOT
HETATM    1  C   UNL     1     -10.755   9.310  67.112  1.00  0.00    -0.222 C  
HETATM    2  C   UNL     1      -9.555   9.607  66.196  1.00  0.00    -0.295 C  
HETATM    3  C   UNL     1      -8.680   8.327  66.078  1.00  0.00    -0.181 C  
HETATM    4  C   UNL     1     -10.008  10.117  64.786  1.00  0.00    -0.334 C  
HETATM    5  C   UNL     1      -8.807  10.382  63.860  1.00  0.00    -0.222 C  
HETATM    6  C   UNL     1     -10.955  11.354  64.801  1.00  0.00    -0.303 C  
ENDROOT
BRANCH   3   7
HETATM    7  C   UNL     1      -8.031   7.864  67.365  1.00  0.00    -0.122 A  
HETATM    8  C   UNL     1      -8.372   6.622  67.926  1.00  0.00    -0.119 A  
HETATM    9  C   UNL     1      -7.037   8.645  67.979  1.00  0.00    -0.082 A  
HETATM   10  C   UNL     1      -7.733   6.193  69.083  1.00  0.00    -0.100 A  
HETATM   11  H   UNL     1      -5.479   7.094  71.241  1.00  0.00     0.000 HD 
HETATM   12  O   UNL     1      -8.017   4.987  69.665  1.00  0.00    -0.070 OA 
HETATM   13  C   UNL     1      -6.407   8.209  69.144  1.00  0.00    -0.039 A  
HETATM   14  C   UNL     1      -6.762   6.986  69.689  1.00  0.00    -0.049 A  
HETATM   15  O   UNL     1      -6.141   6.553  70.827  1.00  0.00    -0.030 OA 
HETATM   16  H   UNL     1      -7.580   4.694  70.457  1.00  0.00     0.000 HD 
ENDBRANCH   3   7
BRANCH   6  17
HETATM   17  C   UNL     1     -10.340  12.637  65.318  1.00  0.00    -0.309 A  
HETATM   18  C   UNL     1      -9.377  15.011  66.426  1.00  0.00    -0.303 A  
HETATM   19  C   UNL     1     -10.171  15.047  65.285  1.00  0.00    -0.377 A  
HETATM   20  C   UNL     1     -10.642  13.868  64.717  1.00  0.00    -0.444 A  
HETATM   21  H   UNL     1     -10.166  17.076  65.155  1.00  0.00     0.000 HD 
HETATM   22  C   UNL     1      -9.014  13.803  66.998  1.00  0.00    -0.247 A  
HETATM   23  O   UNL     1      -8.959  16.176  67.002  1.00  0.00    -0.195 OA 
HETATM   24  O   UNL     1     -10.488  16.272  64.767  1.00  0.00    -0.607 OA 
HETATM   25  C   UNL     1      -9.492  12.616  66.440  1.00  0.00    -0.231 A  
HETATM   26  H   UNL     1      -8.416  16.152  67.782  1.00  0.00     0.000 HD 
ENDBRANCH   6  17
TORSDOF 2
ENDMDL
MODEL      125
REMARK 921   NORMALIZED FREE ENERGY PREDICTED BY IDOCK:   -4.50 KCAL/MOL
REMARK 922        TOTAL FREE ENERGY PREDICTED BY IDOCK:   -5.22 KCAL/MOL
REMARK 923 INTER-LIGAND FREE ENERGY PREDICTED BY IDOCK:   -4.81 KCAL/MOL
REMARK 924 INTRA-LIGAND FREE ENERGY PREDICTED BY IDOCK:   -0.41 KCAL/MOL
REMARK 927      BINDING AFFINITY PREDICTED BY RF-SCORE:    0.00 PKD
ROOT
HETATM    1  C   UNL     1     -11.276   9.519  70.263  1.00  0.00    -0.307 C  
HETATM    2  C   UNL     1      -9.766   9.249  70.139  1.00  0.00    -0.252 C  
HETATM    3  C   UNL     1      -9.102  10.433  69.380  1.00  0.00    -0.170 C  
HETATM    4  C   UNL     1      -9.095   9.024  71.537  1.00  0.00    -0.231 C  
HETATM    5  C   UNL     1      -7.579   8.787  71.412  1.00  0.00    -0.131 C  
HETATM    6  C   UNL     1      -9.741   7.907  72.409  1.00  0.00    -0.275 C  
ENDROOT
BRANCH   3   7
HETATM    7  C   UNL     1      -9.544  10.612  67.943  1.00  0.00    -0.174 A  
HETATM    8  C   UNL     1      -9.792  11.896  67.430  1.00  0.00    -0.192 A  
HETATM    9  C   UNL     1      -9.654   9.499  67.090  1.00  0.00    -0.206 A  
HETATM   10  C   UNL     1     -10.153  12.045  66.097  1.00  0.00    -0.226 A  
HETATM   11  H   UNL     1     -10.713  10.331  63.395  1.00  0.00     0.000 HD 
HETATM   12  O   UNL     1     -10.394  13.272  65.542  1.00  0.00    -0.281 OA 
HETATM   13  C   UNL     1     -10.024   9.658  65.756  1.00  0.00    -0.342 A  
HETATM   14  C   UNL     1     -10.274  10.932  65.269  1.00  0.00    -0.288 A  
HETATM   15  O   UNL     1     -10.631  11.091  63.960  1.00  0.00    -0.366 OA 
HETATM   16  H   UNL     1     -10.641  13.375  64.630  1.00  0.00     0.000 HD 
ENDBRANCH   3   7
BRANCH   6  17
HETATM   17  C   UNL     1      -9.609   6.500  71.867  1.00  0.00    -0.156 A  
HETATM   18  C   UNL     1      -9.593   3.880  70.905  1.00  0.00    -0.188 A  
HETATM   19  C   UNL     1      -9.215   4.143  72.217  1.00  0.00    -0.121 A  
HETATM   20  C   UNL     1      -9.205   5.447  72.700  1.00  0.00    -0.145 A  
HETATM   21  H   UNL     1      -8.890   2.189  72.680  1.00  0.00     0.000 HD 
HETATM   22  C   UNL     1      -9.935   4.912  70.047  1.00  0.00    -0.323 A  
HETATM   23  O   UNL     1      -9.644   2.592  70.456  1.00  0.00    -0.136 OA 
HETATM   24  O   UNL     1      -8.882   3.080  73.010  1.00  0.00    -0.079 OA 
HETATM   25  C   UNL     1      -9.938   6.222  70.527  1.00  0.00    -0.221 A  
HETATM   26  H   UNL     1      -9.903   2.412  69.559  1.00  0.00     0.000 HD 
ENDBRANCH   6  17
TORSDOF 2
ENDMDL
MODEL      126
REMARK 921   NORMALIZED FREE ENERGY PREDICTED BY IDOCK:   -4.44 KCAL/MOL
REMARK 922        TOTAL FREE ENERGY PREDICTED BY IDOCK:   -5.15 KCAL/MOL
REMARK 923 INTER-LIGAND FREE ENERGY PREDICTED BY IDOCK:   -4.50 KCAL/MOL
REMARK 924 INTRA-LIGAND FREE ENERGY PREDICTED BY IDOCK:   -0.65 KCAL/MOL
REMARK 927      BINDING AFFINITY PREDICTED BY RF-SCORE:    0.00 PKD
ROOT
HETATM    1  C   UNL     1      -7.776   9.911  68.931  1.00  0.00    -0.085 C  
HETATM    2  C   UNL     1      -7.721   9.785  67.398  1.00  0.00    -0.095 C  
HETATM    3  C   UNL     1      -7.577  11.205  66.780  1.00  0.00    -0.146 C  
HETATM    4  C   UNL     1      -6.562   8.842  66.929  1.00  0.00    -0.061 C  
HETATM    5  C   UNL     1      -6.489   8.744  65.395  1.00  0.00    -0.067 C  
HETATM    6  C   UNL     1      -6.574   7.416  67.556  1.00  0.00    -0.061 C  
ENDROOT
BRANCH   3   7
HETATM    7  C   UNL     1      -8.748  12.136  67.012  1.00  0.00    -0.190 A  
HETATM    8  C   UNL     1     -10.020  11.819  66.507  1.00  0.00    -0.229 A  
HETATM    9  C   UNL     1      -8.589  13.298  67.787  1.00  0.00    -0.184 A  
HETATM   10  C   UNL     1     -11.093  12.662  66.768  1.00  0.00    -0.277 A  
HETATM   11  H   UNL     1     -11.856  15.429  68.288  1.00  0.00     0.000 HD 
HETATM   12  O   UNL     1     -12.355  12.395  66.311  1.00  0.00    -0.577 OA 
HETATM   13  C   UNL     1      -9.669  14.141  68.038  1.00  0.00    -0.226 A  
HETATM   14  C   UNL     1     -10.915  13.818  67.523  1.00  0.00    -0.272 A  
HETATM   15  O   UNL     1     -11.978  14.640  67.772  1.00  0.00    -0.348 OA 
HETATM   16  H   UNL     1     -13.089  12.972  66.489  1.00  0.00     0.000 HD 
ENDBRANCH   3   7
BRANCH   6  17
HETATM   17  C   UNL     1      -7.747   6.543  67.165  1.00  0.00    -0.100 A  
HETATM   18  C   UNL     1      -9.942   5.074  66.263  1.00  0.00    -0.224 A  
HETATM   19  C   UNL     1     -10.103   6.020  67.270  1.00  0.00    -0.169 A  
HETATM   20  C   UNL     1      -9.012   6.745  67.736  1.00  0.00    -0.116 A  
HETATM   21  H   UNL     1     -12.109   5.729  67.439  1.00  0.00     0.000 HD 
HETATM   22  C   UNL     1      -8.691   4.813  65.730  1.00  0.00    -0.127 A  
HETATM   23  O   UNL     1     -11.028   4.401  65.781  1.00  0.00    -0.607 OA 
HETATM   24  O   UNL     1     -11.364   6.224  67.758  1.00  0.00    -0.250 OA 
HETATM   25  C   UNL     1      -7.593   5.545  66.185  1.00  0.00    -0.091 A  
HETATM   26  H   UNL     1     -10.919   3.755  65.093  1.00  0.00     0.000 HD 
ENDBRANCH   6  17
TORSDOF 2
ENDMDL
MODEL      127
REMARK 921   NORMALIZED FREE ENERGY PREDICTED BY IDOCK:   -4.36 KCAL/MOL
REMARK 922        TOTAL FREE ENERGY PREDICTED BY IDOCK:   -5.06 KCAL/MOL
REMARK 923 INTER-LIGAND FREE ENERGY PREDICTED BY IDOCK:   -4.77 KCAL/MOL
REMARK 924 INTRA-LIGAND FREE ENERGY PREDICTED BY IDOCK:   -0.29 KCAL/MOL
REMARK 927      BINDING AFFINITY PREDICTED BY RF-SCORE:    0.00 PKD
ROOT
HETATM    1  C   UNL     1     -10.430  10.826  69.445  1.00  0.00    -0.229 C  
HETATM    2  C   UNL     1      -9.110  10.535  68.710  1.00  0.00    -0.166 C  
HETATM    3  C   UNL     1      -8.304  11.858  68.576  1.00  0.00    -0.118 C  
HETATM    4  C   UNL     1      -8.270   9.428  69.433  1.00  0.00    -0.119 C  
HETATM    5  C   UNL     1      -6.934   9.163  68.714  1.00  0.00    -0.062 C  
HETATM    6  C   UNL     1      -9.018   8.086  69.684  1.00  0.00    -0.145 C  
ENDROOT
BRANCH   3   7
HETATM    7  C   UNL     1      -8.950  12.928  67.723  1.00  0.00    -0.191 A  
HETATM    8  C   UNL     1      -9.194  12.699  66.359  1.00  0.00    -0.162 A  
HETATM    9  C   UNL     1      -9.366  14.141  68.299  1.00  0.00    -0.203 A  
HETATM   10  C   UNL     1      -9.828  13.675  65.600  1.00  0.00    -0.175 A  
HETATM   11  H   UNL     1     -11.109  16.651  65.824  1.00  0.00     0.000 HD 
HETATM   12  O   UNL     1     -10.101  13.499  64.271  1.00  0.00    -0.705 OA 
HETATM   13  C   UNL     1      -9.996  15.117  67.529  1.00  0.00    -0.225 A  
HETATM   14  C   UNL     1     -10.219  14.878  66.182  1.00  0.00    -0.300 A  
HETATM   15  O   UNL     1     -10.842  15.831  65.427  1.00  0.00    -0.360 OA 
HETATM   16  H   UNL     1     -10.535  14.167  63.752  1.00  0.00     0.000 HD 
ENDBRANCH   3   7
BRANCH   6  17
HETATM   17  C   UNL     1      -9.393   7.308  68.441  1.00  0.00    -0.143 A  
HETATM   18  C   UNL     1     -10.076   5.681  66.278  1.00  0.00    -0.114 A  
HETATM   19  C   UNL     1      -8.758   6.084  66.457  1.00  0.00    -0.128 A  
HETATM   20  C   UNL     1      -8.411   6.908  67.523  1.00  0.00    -0.122 A  
HETATM   21  H   UNL     1      -8.060   5.062  64.843  1.00  0.00     0.000 HD 
HETATM   22  C   UNL     1     -11.073   6.117  67.136  1.00  0.00    -0.335 A  
HETATM   23  O   UNL     1     -10.397   4.835  65.256  1.00  0.00    -0.408 OA 
HETATM   24  O   UNL     1      -7.824   5.624  65.571  1.00  0.00    -0.093 OA 
HETATM   25  C   UNL     1     -10.731   6.934  68.214  1.00  0.00    -0.265 A  
HETATM   26  H   UNL     1     -11.298   4.560  65.133  1.00  0.00     0.000 HD 
ENDBRANCH   6  17
TORSDOF 2
ENDMDL
MODEL      128
REMARK 921   NORMALIZED FREE ENERGY PREDICTED BY IDOCK:   -4.34 KCAL/MOL
REMARK 922        TOTAL FREE ENERGY PREDICTED BY IDOCK:   -5.03 KCAL/MOL
REMARK 923 INTER-LIGAND FREE ENERGY PREDICTED BY IDOCK:   -4.56 KCAL/MOL
REMARK 924 INTRA-LIGAND FREE ENERGY PREDICTED BY IDOCK:   -0.47 KCAL/MOL
REMARK 927      BINDING AFFINITY PREDICTED BY RF-SCORE:    0.00 PKD
ROOT
HETATM    1  C   UNL     1     -10.063   9.307  68.085  1.00  0.00    -0.222 C  
HETATM    2  C   UNL     1      -8.743   9.945  67.618  1.00  0.00    -0.121 C  
HETATM    3  C   UNL     1      -8.944  11.481  67.485  1.00  0.00    -0.159 C  
HETATM    4  C   UNL     1      -7.557   9.610  68.585  1.00  0.00    -0.080 C  
HETATM    5  C   UNL     1      -6.245  10.276  68.133  1.00  0.00    -0.052 C  
HETATM    6  C   UNL     1      -7.324   8.092  68.845  1.00  0.00    -0.090 C  
ENDROOT
BRANCH   3   7
HETATM    7  C   UNL     1      -9.936  11.917  66.427  1.00  0.00    -0.237 A  
HETATM    8  C   UNL     1      -9.822  11.445  65.109  1.00  0.00    -0.302 A  
HETATM    9  C   UNL     1     -11.016  12.750  66.766  1.00  0.00    -0.301 A  
HETATM   10  C   UNL     1     -10.767  11.819  64.161  1.00  0.00    -0.357 A  
HETATM   11  H   UNL     1     -13.464  13.593  63.806  1.00  0.00     0.000 HD 
HETATM   12  O   UNL     1     -10.711  11.380  62.866  1.00  0.00    -0.699 OA 
HETATM   13  C   UNL     1     -11.955  13.125  65.808  1.00  0.00    -0.473 A  
HETATM   14  C   UNL     1     -11.821  12.659  64.509  1.00  0.00    -0.379 A  
HETATM   15  O   UNL     1     -12.744  13.020  63.569  1.00  0.00    -0.708 OA 
HETATM   16  H   UNL     1     -11.357  11.636  62.218  1.00  0.00     0.000 HD 
ENDBRANCH   3   7
BRANCH   6  17
HETATM   17  C   UNL     1      -6.871   7.288  67.646  1.00  0.00    -0.074 A  
HETATM   18  C   UNL     1      -5.891   5.977  65.385  1.00  0.00    -0.025 A  
HETATM   19  C   UNL     1      -7.074   6.705  65.310  1.00  0.00    -0.064 A  
HETATM   20  C   UNL     1      -7.577   7.347  66.436  1.00  0.00    -0.088 A  
HETATM   21  H   UNL     1      -7.355   6.344  63.328  1.00  0.00     0.000 HD 
HETATM   22  C   UNL     1      -5.211   5.851  66.585  1.00  0.00    -0.005 A  
HETATM   23  O   UNL     1      -5.381   5.389  64.263  1.00  0.00    -0.012 OA 
HETATM   24  O   UNL     1      -7.699   6.783  64.097  1.00  0.00    -0.102 OA 
HETATM   25  C   UNL     1      -5.705   6.503  67.716  1.00  0.00    -0.012 A  
HETATM   26  H   UNL     1      -4.573   4.891  64.314  1.00  0.00     0.000 HD 
ENDBRANCH   6  17
TORSDOF 2
ENDMDL
MODEL      129
REMARK 921   NORMALIZED FREE ENERGY PREDICTED BY IDOCK:   -4.25 KCAL/MOL
REMARK 922        TOTAL FREE ENERGY PREDICTED BY IDOCK:   -4.94 KCAL/MOL
REMARK 923 INTER-LIGAND FREE ENERGY PREDICTED BY IDOCK:   -4.38 KCAL/MOL
REMARK 924 INTRA-LIGAND FREE ENERGY PREDICTED BY IDOCK:   -0.55 KCAL/MOL
REMARK 927      BINDING AFFINITY PREDICTED BY RF-SCORE:    0.00 PKD
ROOT
HETATM    1  C   UNL     1      -8.012   9.982  67.930  1.00  0.00    -0.105 C  
HETATM    2  C   UNL     1      -9.213   9.154  67.441  1.00  0.00    -0.150 C  
HETATM    3  C   UNL     1     -10.078  10.031  66.492  1.00  0.00    -0.296 C  
HETATM    4  C   UNL     1      -8.763   7.829  66.736  1.00  0.00    -0.143 C  
HETATM    5  C   UNL     1      -9.966   7.020  66.218  1.00  0.00     0.033 C  
HETATM    6  C   UNL     1      -7.826   6.916  67.580  1.00  0.00    -0.112 C  
ENDROOT
BRANCH   3   7
HETATM    7  C   UNL     1     -10.725  11.239  67.135  1.00  0.00    -0.297 A  
HETATM    8  C   UNL     1     -10.830  12.450  66.429  1.00  0.00    -0.291 A  
HETATM    9  C   UNL     1     -11.281  11.146  68.423  1.00  0.00    -0.325 A  
HETATM   10  C   UNL     1     -11.466  13.535  67.018  1.00  0.00    -0.340 A  
HETATM   11  H   UNL     1     -12.983  14.436  69.745  1.00  0.00     0.000 HD 
HETATM   12  O   UNL     1     -11.607  14.734  66.371  1.00  0.00    -0.356 OA 
HETATM   13  C   UNL     1     -11.912  12.243  69.008  1.00  0.00    -0.300 A  
HETATM   14  C   UNL     1     -11.997  13.432  68.300  1.00  0.00    -0.317 A  
HETATM   15  O   UNL     1     -12.621  14.507  68.869  1.00  0.00    -0.008 OA 
HETATM   16  H   UNL     1     -12.043  15.476  66.774  1.00  0.00     0.000 HD 
ENDBRANCH   3   7
BRANCH   6  17
HETATM   17  C   UNL     1      -8.451   6.311  68.819  1.00  0.00    -0.119 A  
HETATM   18  C   UNL     1      -9.799   5.303  71.046  1.00  0.00    -0.191 A  
HETATM   19  C   UNL     1      -8.993   6.430  71.170  1.00  0.00    -0.146 A  
HETATM   20  C   UNL     1      -8.306   6.929  70.069  1.00  0.00    -0.139 A  
HETATM   21  H   UNL     1      -9.396   6.693  73.146  1.00  0.00     0.000 HD 
HETATM   22  C   UNL     1      -9.906   4.638  69.836  1.00  0.00    -0.296 A  
HETATM   23  O   UNL     1     -10.506   4.849  72.122  1.00  0.00    -0.205 OA 
HETATM   24  O   UNL     1      -8.926   7.034  72.395  1.00  0.00    -0.129 OA 
HETATM   25  C   UNL     1      -9.227   5.140  68.724  1.00  0.00    -0.152 A  
HETATM   26  H   UNL     1     -11.056   4.079  72.038  1.00  0.00     0.000 HD 
ENDBRANCH   6  17
TORSDOF 2
ENDMDL
MODEL      130
REMARK 921   NORMALIZED FREE ENERGY PREDICTED BY IDOCK:   -4.24 KCAL/MOL
REMARK 922        TOTAL FREE ENERGY PREDICTED BY IDOCK:   -4.93 KCAL/MOL
REMARK 923 INTER-LIGAND FREE ENERGY PREDICTED BY IDOCK:   -4.28 KCAL/MOL
REMARK 924 INTRA-LIGAND FREE ENERGY PREDICTED BY IDOCK:   -0.65 KCAL/MOL
REMARK 927      BINDING AFFINITY PREDICTED BY RF-SCORE:    0.00 PKD
ROOT
HETATM    1  C   UNL     1      -7.035   6.652  68.635  1.00  0.00    -0.080 C  
HETATM    2  C   UNL     1      -7.995   7.264  67.601  1.00  0.00    -0.114 C  
HETATM    3  C   UNL     1      -8.560   8.599  68.164  1.00  0.00    -0.141 C  
HETATM    4  C   UNL     1      -7.300   7.481  66.214  1.00  0.00    -0.082 C  
HETATM    5  C   UNL     1      -8.254   8.124  65.191  1.00  0.00    -0.156 C  
HETATM    6  C   UNL     1      -6.633   6.215  65.601  1.00  0.00    -0.047 C  
ENDROOT
BRANCH   3   7
HETATM    7  C   UNL     1      -9.419   8.468  69.403  1.00  0.00    -0.161 A  
HETATM    8  C   UNL     1     -10.648   7.790  69.349  1.00  0.00    -0.211 A  
HETATM    9  C   UNL     1      -8.968   8.973  70.636  1.00  0.00    -0.263 A  
HETATM   10  C   UNL     1     -11.402   7.641  70.506  1.00  0.00    -0.250 A  
HETATM   11  H   UNL     1     -11.392   8.364  73.673  1.00  0.00     0.000 HD 
HETATM   12  O   UNL     1     -12.600   6.979  70.513  1.00  0.00    -0.618 OA 
HETATM   13  C   UNL     1      -9.735   8.825  71.790  1.00  0.00    -0.380 A  
HETATM   14  C   UNL     1     -10.950   8.161  71.716  1.00  0.00    -0.261 A  
HETATM   15  O   UNL     1     -11.701   8.009  72.847  1.00  0.00    -0.369 OA 
HETATM   16  H   UNL     1     -13.116   6.877  71.304  1.00  0.00     0.000 HD 
ENDBRANCH   3   7
BRANCH   6  17
HETATM   17  C   UNL     1      -7.584   5.106  65.205  1.00  0.00    -0.082 A  
HETATM   18  C   UNL     1      -9.511   3.202  64.529  1.00  0.00    -0.147 A  
HETATM   19  C   UNL     1      -8.899   3.161  65.777  1.00  0.00    -0.138 A  
HETATM   20  C   UNL     1      -7.926   4.096  66.116  1.00  0.00    -0.098 A  
HETATM   21  H   UNL     1      -9.968   1.556  66.423  1.00  0.00     0.000 HD 
HETATM   22  C   UNL     1      -9.142   4.152  63.591  1.00  0.00    -0.136 A  
HETATM   23  O   UNL     1     -10.497   2.309  64.224  1.00  0.00    -0.368 OA 
HETATM   24  O   UNL     1      -9.304   2.194  66.655  1.00  0.00    -0.045 OA 
HETATM   25  C   UNL     1      -8.175   5.100  63.928  1.00  0.00    -0.130 A  
HETATM   26  H   UNL     1     -10.915   2.337  63.372  1.00  0.00     0.000 HD 
ENDBRANCH   6  17
TORSDOF 2
ENDMDL
MODEL      131
REMARK 921   NORMALIZED FREE ENERGY PREDICTED BY IDOCK:   -4.22 KCAL/MOL
REMARK 922        TOTAL FREE ENERGY PREDICTED BY IDOCK:   -4.90 KCAL/MOL
REMARK 923 INTER-LIGAND FREE ENERGY PREDICTED BY IDOCK:   -4.69 KCAL/MOL
REMARK 924 INTRA-LIGAND FREE ENERGY PREDICTED BY IDOCK:   -0.22 KCAL/MOL
REMARK 927      BINDING AFFINITY PREDICTED BY RF-SCORE:    0.00 PKD
ROOT
HETATM    1  C   UNL     1      -7.729   6.421  70.057  1.00  0.00    -0.102 C  
HETATM    2  C   UNL     1      -8.849   5.413  70.366  1.00  0.00    -0.144 C  
HETATM    3  C   UNL     1      -8.504   4.054  69.694  1.00  0.00    -0.088 C  
HETATM    4  C   UNL     1      -9.075   5.243  71.907  1.00  0.00    -0.153 C  
HETATM    5  C   UNL     1     -10.174   4.209  72.213  1.00  0.00    -0.234 C  
HETATM    6  C   UNL     1      -9.352   6.564  72.685  1.00  0.00    -0.145 C  
ENDROOT
BRANCH   3   7
HETATM    7  C   UNL     1      -8.457   4.071  68.182  1.00  0.00    -0.105 A  
HETATM    8  C   UNL     1      -7.299   3.658  67.501  1.00  0.00    -0.066 A  
HETATM    9  C   UNL     1      -9.592   4.444  67.440  1.00  0.00    -0.218 A  
HETATM   10  C   UNL     1      -7.289   3.637  66.112  1.00  0.00    -0.072 A  
HETATM   11  H   UNL     1      -9.162   4.267  63.534  1.00  0.00     0.000 HD 
HETATM   12  O   UNL     1      -6.193   3.232  65.399  1.00  0.00    -0.026 OA 
HETATM   13  C   UNL     1      -9.570   4.427  66.046  1.00  0.00    -0.190 A  
HETATM   14  C   UNL     1      -8.415   4.026  65.392  1.00  0.00    -0.109 A  
HETATM   15  O   UNL     1      -8.393   4.002  64.026  1.00  0.00    -0.090 OA 
HETATM   16  H   UNL     1      -6.186   3.218  64.449  1.00  0.00     0.000 HD 
ENDBRANCH   3   7
BRANCH   6  17
HETATM   17  C   UNL     1     -10.650   7.261  72.342  1.00  0.00    -0.273 A  
HETATM   18  C   UNL     1     -13.010   8.487  71.491  1.00  0.00    -0.303 A  
HETATM   19  C   UNL     1     -11.855   9.243  71.665  1.00  0.00    -0.383 A  
HETATM   20  C   UNL     1     -10.680   8.643  72.104  1.00  0.00    -0.417 A  
HETATM   21  H   UNL     1     -12.717  10.985  71.066  1.00  0.00     0.000 HD 
HETATM   22  C   UNL     1     -13.020   7.133  71.782  1.00  0.00    -0.367 A  
HETATM   23  O   UNL     1     -14.145   9.077  71.015  1.00  0.00    -0.572 OA 
HETATM   24  O   UNL     1     -11.915  10.576  71.366  1.00  0.00    -0.330 OA 
HETATM   25  C   UNL     1     -11.841   6.522  72.212  1.00  0.00    -0.299 A  
HETATM   26  H   UNL     1     -14.934   8.561  70.896  1.00  0.00     0.000 HD 
ENDBRANCH   6  17
TORSDOF 2
ENDMDL
MODEL      132
REMARK 921   NORMALIZED FREE ENERGY PREDICTED BY IDOCK:   -4.18 KCAL/MOL
REMARK 922        TOTAL FREE ENERGY PREDICTED BY IDOCK:   -4.86 KCAL/MOL
REMARK 923 INTER-LIGAND FREE ENERGY PREDICTED BY IDOCK:   -4.59 KCAL/MOL
REMARK 924 INTRA-LIGAND FREE ENERGY PREDICTED BY IDOCK:   -0.28 KCAL/MOL
REMARK 927      BINDING AFFINITY PREDICTED BY RF-SCORE:    0.00 PKD
ROOT
HETATM    1  C   UNL     1      -8.394   7.318  67.379  1.00  0.00    -0.119 C  
HETATM    2  C   UNL     1      -9.654   7.468  68.249  1.00  0.00    -0.157 C  
HETATM    3  C   UNL     1     -10.782   8.114  67.396  1.00  0.00    -0.247 C  
HETATM    4  C   UNL     1     -10.113   6.099  68.855  1.00  0.00    -0.211 C  
HETATM    5  C   UNL     1     -11.393   6.247  69.698  1.00  0.00    -0.492 C  
HETATM    6  C   UNL     1      -9.025   5.335  69.666  1.00  0.00    -0.133 C  
ENDROOT
BRANCH   3   7
HETATM    7  C   UNL     1     -10.512   9.526  66.925  1.00  0.00    -0.279 A  
HETATM    8  C   UNL     1      -9.829   9.756  65.719  1.00  0.00    -0.360 A  
HETATM    9  C   UNL     1     -10.995  10.624  67.658  1.00  0.00    -0.370 A  
HETATM   10  C   UNL     1      -9.629  11.058  65.279  1.00  0.00    -0.227 A  
HETATM   11  H   UNL     1     -10.216  14.147  66.093  1.00  0.00     0.000 HD 
HETATM   12  O   UNL     1      -8.981  11.339  64.107  1.00  0.00    -0.387 OA 
HETATM   13  C   UNL     1     -10.784  11.928  67.213  1.00  0.00    -0.276 A  
HETATM   14  C   UNL     1     -10.098  12.135  66.026  1.00  0.00    -0.235 A  
HETATM   15  O   UNL     1      -9.895  13.412  65.584  1.00  0.00    -0.248 OA 
HETATM   16  H   UNL     1      -8.844  12.229  63.806  1.00  0.00     0.000 HD 
ENDBRANCH   3   7
BRANCH   6  17
HETATM   17  C   UNL     1      -8.574   6.007  70.944  1.00  0.00    -0.131 A  
HETATM   18  C   UNL     1      -7.530   7.166  73.260  1.00  0.00    -0.072 A  
HETATM   19  C   UNL     1      -8.187   5.942  73.328  1.00  0.00    -0.116 A  
HETATM   20  C   UNL     1      -8.724   5.366  72.182  1.00  0.00    -0.130 A  
HETATM   21  H   UNL     1      -7.894   5.719  75.329  1.00  0.00     0.000 HD 
HETATM   22  C   UNL     1      -7.427   7.848  72.059  1.00  0.00    -0.091 A  
HETATM   23  O   UNL     1      -6.967   7.701  74.382  1.00  0.00    -0.105 OA 
HETATM   24  O   UNL     1      -8.261   5.325  74.546  1.00  0.00    -0.101 OA 
HETATM   25  C   UNL     1      -7.954   7.270  70.902  1.00  0.00    -0.098 A  
HETATM   26  H   UNL     1      -6.519   8.537  74.336  1.00  0.00     0.000 HD 
ENDBRANCH   6  17
TORSDOF 2
ENDMDL
MODEL      133
REMARK 921   NORMALIZED FREE ENERGY PREDICTED BY IDOCK:   -4.17 KCAL/MOL
REMARK 922        TOTAL FREE ENERGY PREDICTED BY IDOCK:   -4.85 KCAL/MOL
REMARK 923 INTER-LIGAND FREE ENERGY PREDICTED BY IDOCK:   -4.42 KCAL/MOL
REMARK 924 INTRA-LIGAND FREE ENERGY PREDICTED BY IDOCK:   -0.43 KCAL/MOL
REMARK 927      BINDING AFFINITY PREDICTED BY RF-SCORE:    0.00 PKD
ROOT
HETATM    1  C   UNL     1     -10.726   9.722  67.482  1.00  0.00    -0.327 C  
HETATM    2  C   UNL     1      -9.411   9.407  68.216  1.00  0.00    -0.147 C  
HETATM    3  C   UNL     1      -8.216   9.801  67.303  1.00  0.00    -0.117 C  
HETATM    4  C   UNL     1      -9.328  10.130  69.603  1.00  0.00    -0.215 C  
HETATM    5  C   UNL     1      -7.997   9.839  70.321  1.00  0.00    -0.185 C  
HETATM    6  C   UNL     1     -10.523   9.859  70.564  1.00  0.00    -0.330 C  
ENDROOT
BRANCH   3   7
HETATM    7  C   UNL     1      -8.096   9.013  66.016  1.00  0.00    -0.111 A  
HETATM    8  C   UNL     1      -7.924   7.619  66.049  1.00  0.00    -0.112 A  
HETATM    9  C   UNL     1      -8.213   9.660  64.773  1.00  0.00    -0.142 A  
HETATM   10  C   UNL     1      -7.860   6.906  64.859  1.00  0.00    -0.122 A  
HETATM   11  H   UNL     1      -7.966   7.300  61.636  1.00  0.00     0.000 HD 
HETATM   12  O   UNL     1      -7.707   5.546  64.833  1.00  0.00    -0.084 OA 
HETATM   13  C   UNL     1      -8.141   8.937  63.584  1.00  0.00    -0.167 A  
HETATM   14  C   UNL     1      -7.961   7.563  63.636  1.00  0.00    -0.074 A  
HETATM   15  O   UNL     1      -7.896   6.851  62.471  1.00  0.00    -0.101 OA 
HETATM   16  H   UNL     1      -7.663   5.058  64.019  1.00  0.00     0.000 HD 
ENDBRANCH   3   7
BRANCH   6  17
HETATM   17  C   UNL     1     -10.651   8.435  71.060  1.00  0.00    -0.258 A  
HETATM   18  C   UNL     1     -10.661   5.815  72.025  1.00  0.00    -0.226 A  
HETATM   19  C   UNL     1     -10.549   6.054  70.659  1.00  0.00    -0.260 A  
HETATM   20  C   UNL     1     -10.559   7.355  70.169  1.00  0.00    -0.240 A  
HETATM   21  H   UNL     1     -10.397   4.087  70.168  1.00  0.00     0.000 HD 
HETATM   22  C   UNL     1     -10.817   6.863  72.917  1.00  0.00    -0.318 A  
HETATM   23  O   UNL     1     -10.603   4.537  72.500  1.00  0.00    -0.196 OA 
HETATM   24  O   UNL     1     -10.404   4.975  69.833  1.00  0.00    -0.279 OA 
HETATM   25  C   UNL     1     -10.817   8.173  72.432  1.00  0.00    -0.409 A  
HETATM   26  H   UNL     1     -10.679   4.373  73.432  1.00  0.00     0.000 HD 
ENDBRANCH   6  17
TORSDOF 2
ENDMDL
MODEL      134
REMARK 921   NORMALIZED FREE ENERGY PREDICTED BY IDOCK:   -4.15 KCAL/MOL
REMARK 922        TOTAL FREE ENERGY PREDICTED BY IDOCK:   -4.83 KCAL/MOL
REMARK 923 INTER-LIGAND FREE ENERGY PREDICTED BY IDOCK:   -5.30 KCAL/MOL
REMARK 924 INTRA-LIGAND FREE ENERGY PREDICTED BY IDOCK:    0.47 KCAL/MOL
REMARK 927      BINDING AFFINITY PREDICTED BY RF-SCORE:    0.00 PKD
ROOT
HETATM    1  C   UNL     1      -9.374  12.495  68.147  1.00  0.00    -0.210 C  
HETATM    2  C   UNL     1     -10.059  11.283  68.802  1.00  0.00    -0.204 C  
HETATM    3  C   UNL     1     -11.592  11.539  68.858  1.00  0.00    -0.384 C  
HETATM    4  C   UNL     1      -9.734   9.949  68.048  1.00  0.00    -0.160 C  
HETATM    5  C   UNL     1     -10.447   8.743  68.686  1.00  0.00    -0.213 C  
HETATM    6  C   UNL     1      -8.218   9.641  67.871  1.00  0.00    -0.106 C  
ENDROOT
BRANCH   3   7
HETATM    7  C   UNL     1     -12.025  12.698  69.730  1.00  0.00    -0.365 A  
HETATM    8  C   UNL     1     -12.605  12.464  70.988  1.00  0.00    -0.349 A  
HETATM    9  C   UNL     1     -11.796  14.022  69.317  1.00  0.00    -0.389 A  
HETATM   10  C   UNL     1     -12.955  13.540  71.795  1.00  0.00    -0.348 A  
HETATM   11  H   UNL     1     -12.938  16.787  71.871  1.00  0.00     0.000 HD 
HETATM   12  O   UNL     1     -13.512  13.369  73.033  1.00  0.00    -0.547 OA 
HETATM   13  C   UNL     1     -12.157  15.096  70.130  1.00  0.00    -0.384 A  
HETATM   14  C   UNL     1     -12.738  14.846  71.364  1.00  0.00    -0.335 A  
HETATM   15  O   UNL     1     -13.086  15.896  72.165  1.00  0.00    -0.452 OA 
HETATM   16  H   UNL     1     -13.751  14.105  73.585  1.00  0.00     0.000 HD 
ENDBRANCH   3   7
BRANCH   6  17
HETATM   17  C   UNL     1      -7.455   9.369  69.149  1.00  0.00    -0.073 A  
HETATM   18  C   UNL     1      -6.073   8.642  71.463  1.00  0.00    -0.054 A  
HETATM   19  C   UNL     1      -7.423   8.967  71.531  1.00  0.00    -0.050 A  
HETATM   20  C   UNL     1      -8.116   9.346  70.386  1.00  0.00    -0.197 A  
HETATM   21  H   UNL     1      -7.568   8.617  73.529  1.00  0.00     0.000 HD 
HETATM   22  C   UNL     1      -5.386   8.721  70.263  1.00  0.00    -0.024 A  
HETATM   23  O   UNL     1      -5.415   8.227  72.585  1.00  0.00    -0.037 OA 
HETATM   24  O   UNL     1      -8.041   8.875  72.748  1.00  0.00    -0.380 OA 
HETATM   25  C   UNL     1      -6.076   9.089  69.108  1.00  0.00    -0.042 A  
HETATM   26  H   UNL     1      -4.492   8.005  72.539  1.00  0.00     0.000 HD 
ENDBRANCH   6  17
TORSDOF 2
ENDMDL
MODEL      135
REMARK 921   NORMALIZED FREE ENERGY PREDICTED BY IDOCK:   -4.15 KCAL/MOL
REMARK 922        TOTAL FREE ENERGY PREDICTED BY IDOCK:   -4.82 KCAL/MOL
REMARK 923 INTER-LIGAND FREE ENERGY PREDICTED BY IDOCK:   -4.42 KCAL/MOL
REMARK 924 INTRA-LIGAND FREE ENERGY PREDICTED BY IDOCK:   -0.40 KCAL/MOL
REMARK 927      BINDING AFFINITY PREDICTED BY RF-SCORE:    0.00 PKD
ROOT
HETATM    1  C   UNL     1     -10.661  11.976  65.508  1.00  0.00    -0.313 C  
HETATM    2  C   UNL     1     -10.452  11.831  67.026  1.00  0.00    -0.252 C  
HETATM    3  C   UNL     1     -10.910  13.142  67.726  1.00  0.00    -0.261 C  
HETATM    4  C   UNL     1     -11.206  10.585  67.604  1.00  0.00    -0.338 C  
HETATM    5  C   UNL     1     -11.022  10.462  69.127  1.00  0.00    -0.285 C  
HETATM    6  C   UNL     1     -10.872   9.230  66.913  1.00  0.00    -0.030 C  
ENDROOT
BRANCH   3   7
HETATM    7  C   UNL     1     -10.108  14.377  67.379  1.00  0.00    -0.243 A  
HETATM    8  C   UNL     1     -10.549  15.253  66.374  1.00  0.00    -0.308 A  
HETATM    9  C   UNL     1      -8.943  14.693  68.101  1.00  0.00    -0.179 A  
HETATM   10  C   UNL     1      -9.824  16.406  66.099  1.00  0.00    -0.338 A  
HETATM   11  H   UNL     1      -7.166  18.031  67.018  1.00  0.00     0.000 HD 
HETATM   12  O   UNL     1     -10.215  17.300  65.139  1.00  0.00    -0.432 OA 
HETATM   13  C   UNL     1      -8.218  15.849  67.814  1.00  0.00    -0.157 A  
HETATM   14  C   UNL     1      -8.663  16.696  66.811  1.00  0.00    -0.226 A  
HETATM   15  O   UNL     1      -7.958  17.833  66.532  1.00  0.00    -0.233 OA 
HETATM   16  H   UNL     1      -9.719  18.088  64.952  1.00  0.00     0.000 HD 
ENDBRANCH   3   7
BRANCH   6  17
HETATM   17  C   UNL     1      -9.452   8.739  67.096  1.00  0.00    -0.208 A  
HETATM   18  C   UNL     1      -6.829   7.949  67.632  1.00  0.00    -0.070 A  
HETATM   19  C   UNL     1      -7.073   9.032  66.796  1.00  0.00    -0.082 A  
HETATM   20  C   UNL     1      -8.376   9.423  66.510  1.00  0.00    -0.119 A  
HETATM   21  H   UNL     1      -5.104   9.438  66.488  1.00  0.00     0.000 HD 
HETATM   22  C   UNL     1      -7.877   7.219  68.170  1.00  0.00    -0.118 A  
HETATM   23  O   UNL     1      -5.545   7.603  67.943  1.00  0.00    -0.029 OA 
HETATM   24  O   UNL     1      -5.994   9.705  66.293  1.00  0.00    -0.060 OA 
HETATM   25  C   UNL     1      -9.188   7.612  67.897  1.00  0.00    -0.139 A  
HETATM   26  H   UNL     1      -5.378   6.862  68.514  1.00  0.00     0.000 HD 
ENDBRANCH   6  17
TORSDOF 2
ENDMDL
MODEL      136
REMARK 921   NORMALIZED FREE ENERGY PREDICTED BY IDOCK:   -4.08 KCAL/MOL
REMARK 922        TOTAL FREE ENERGY PREDICTED BY IDOCK:   -4.75 KCAL/MOL
REMARK 923 INTER-LIGAND FREE ENERGY PREDICTED BY IDOCK:   -4.19 KCAL/MOL
REMARK 924 INTRA-LIGAND FREE ENERGY PREDICTED BY IDOCK:   -0.55 KCAL/MOL
REMARK 927      BINDING AFFINITY PREDICTED BY RF-SCORE:    0.00 PKD
ROOT
HETATM    1  C   UNL     1      -7.048   6.081  68.723  1.00  0.00    -0.081 C  
HETATM    2  C   UNL     1      -8.508   5.614  68.853  1.00  0.00    -0.102 C  
HETATM    3  C   UNL     1      -8.615   4.147  68.348  1.00  0.00    -0.111 C  
HETATM    4  C   UNL     1      -9.037   5.749  70.321  1.00  0.00    -0.160 C  
HETATM    5  C   UNL     1     -10.487   5.250  70.454  1.00  0.00    -0.322 C  
HETATM    6  C   UNL     1      -8.900   7.169  70.946  1.00  0.00    -0.150 C  
ENDROOT
BRANCH   3   7
HETATM    7  C   UNL     1      -8.312   3.942  66.879  1.00  0.00    -0.100 A  
HETATM    8  C   UNL     1      -9.033   4.646  65.900  1.00  0.00    -0.127 A  
HETATM    9  C   UNL     1      -7.267   3.090  66.481  1.00  0.00    -0.066 A  
HETATM   10  C   UNL     1      -8.711   4.480  64.558  1.00  0.00    -0.148 A  
HETATM   11  H   UNL     1      -6.677   2.876  62.599  1.00  0.00     0.000 HD 
HETATM   12  O   UNL     1      -9.371   5.150  63.564  1.00  0.00    -0.342 OA 
HETATM   13  C   UNL     1      -6.957   2.924  65.133  1.00  0.00    -0.053 A  
HETATM   14  C   UNL     1      -7.685   3.619  64.180  1.00  0.00    -0.080 A  
HETATM   15  O   UNL     1      -7.378   3.463  62.857  1.00  0.00    -0.050 OA 
HETATM   16  H   UNL     1      -9.152   5.036  62.647  1.00  0.00     0.000 HD 
ENDBRANCH   3   7
BRANCH   6  17
HETATM   17  C   UNL     1      -9.745   8.248  70.302  1.00  0.00    -0.177 A  
HETATM   18  C   UNL     1     -11.467  10.078  69.086  1.00  0.00    -0.033 A  
HETATM   19  C   UNL     1     -10.476   9.450  68.338  1.00  0.00    -0.218 A  
HETATM   20  C   UNL     1      -9.604   8.549  68.939  1.00  0.00    -0.160 A  
HETATM   21  H   UNL     1     -11.008  10.346  66.592  1.00  0.00     0.000 HD 
HETATM   22  C   UNL     1     -11.583   9.843  70.446  1.00  0.00    -0.356 A  
HETATM   23  O   UNL     1     -12.347  10.925  68.476  1.00  0.00    -0.807 OA 
HETATM   24  O   UNL     1     -10.412   9.731  67.002  1.00  0.00    -0.238 OA 
HETATM   25  C   UNL     1     -10.718   8.932  71.054  1.00  0.00    -0.315 A  
HETATM   26  H   UNL     1     -13.023  11.354  68.987  1.00  0.00     0.000 HD 
ENDBRANCH   6  17
TORSDOF 2
ENDMDL
MODEL      137
REMARK 921   NORMALIZED FREE ENERGY PREDICTED BY IDOCK:   -4.07 KCAL/MOL
REMARK 922        TOTAL FREE ENERGY PREDICTED BY IDOCK:   -4.74 KCAL/MOL
REMARK 923 INTER-LIGAND FREE ENERGY PREDICTED BY IDOCK:   -4.25 KCAL/MOL
REMARK 924 INTRA-LIGAND FREE ENERGY PREDICTED BY IDOCK:   -0.49 KCAL/MOL
REMARK 927      BINDING AFFINITY PREDICTED BY RF-SCORE:    0.00 PKD
ROOT
HETATM    1  C   UNL     1     -10.838   8.725  67.439  1.00  0.00    -0.087 C  
HETATM    2  C   UNL     1      -9.530   8.500  68.217  1.00  0.00    -0.143 C  
HETATM    3  C   UNL     1      -8.377   8.250  67.204  1.00  0.00    -0.123 C  
HETATM    4  C   UNL     1      -9.201   9.700  69.168  1.00  0.00    -0.168 C  
HETATM    5  C   UNL     1      -7.874   9.487  69.920  1.00  0.00    -0.140 C  
HETATM    6  C   UNL     1     -10.329  10.080  70.171  1.00  0.00    -0.321 C  
ENDROOT
BRANCH   3   7
HETATM    7  C   UNL     1      -8.507   6.995  66.369  1.00  0.00    -0.130 A  
HETATM    8  C   UNL     1      -8.159   7.007  65.008  1.00  0.00    -0.119 A  
HETATM    9  C   UNL     1      -8.921   5.788  66.960  1.00  0.00    -0.114 A  
HETATM   10  C   UNL     1      -8.242   5.834  64.267  1.00  0.00    -0.106 A  
HETATM   11  H   UNL     1      -9.040   2.697  64.530  1.00  0.00     0.000 HD 
HETATM   12  O   UNL     1      -7.904   5.787  62.941  1.00  0.00    -0.082 OA 
HETATM   13  C   UNL     1      -9.008   4.618  66.207  1.00  0.00    -0.118 A  
HETATM   14  C   UNL     1      -8.670   4.651  64.862  1.00  0.00    -0.145 A  
HETATM   15  O   UNL     1      -8.748   3.505  64.124  1.00  0.00    -0.096 OA 
HETATM   16  H   UNL     1      -7.961   4.985  62.435  1.00  0.00     0.000 HD 
ENDBRANCH   3   7
BRANCH   6  17
HETATM   17  C   UNL     1     -10.642   9.038  71.223  1.00  0.00    -0.378 A  
HETATM   18  C   UNL     1     -11.080   6.972  73.049  1.00  0.00    -0.259 A  
HETATM   19  C   UNL     1     -11.999   7.210  72.032  1.00  0.00    -0.295 A  
HETATM   20  C   UNL     1     -11.796   8.247  71.128  1.00  0.00    -0.302 A  
HETATM   21  H   UNL     1     -13.219   5.670  72.560  1.00  0.00     0.000 HD 
HETATM   22  C   UNL     1      -9.966   7.781  73.201  1.00  0.00    -0.374 A  
HETATM   23  O   UNL     1     -11.265   5.922  73.902  1.00  0.00    -0.315 OA 
HETATM   24  O   UNL     1     -13.081   6.379  71.943  1.00  0.00    -0.153 OA 
HETATM   25  C   UNL     1      -9.751   8.817  72.290  1.00  0.00    -0.282 A  
HETATM   26  H   UNL     1     -10.638   5.760  74.597  1.00  0.00     0.000 HD 
ENDBRANCH   6  17
TORSDOF 2
ENDMDL
MODEL      138
REMARK 921   NORMALIZED FREE ENERGY PREDICTED BY IDOCK:   -4.06 KCAL/MOL
REMARK 922        TOTAL FREE ENERGY PREDICTED BY IDOCK:   -4.73 KCAL/MOL
REMARK 923 INTER-LIGAND FREE ENERGY PREDICTED BY IDOCK:   -4.09 KCAL/MOL
REMARK 924 INTRA-LIGAND FREE ENERGY PREDICTED BY IDOCK:   -0.64 KCAL/MOL
REMARK 927      BINDING AFFINITY PREDICTED BY RF-SCORE:    0.00 PKD
ROOT
HETATM    1  C   UNL     1      -8.185   8.276  65.942  1.00  0.00    -0.119 C  
HETATM    2  C   UNL     1      -9.455   8.191  66.807  1.00  0.00    -0.256 C  
HETATM    3  C   UNL     1     -10.508   9.195  66.258  1.00  0.00    -0.035 C  
HETATM    4  C   UNL     1     -10.031   6.736  66.858  1.00  0.00    -0.252 C  
HETATM    5  C   UNL     1     -11.320   6.660  67.697  1.00  0.00    -0.078 C  
HETATM    6  C   UNL     1      -9.025   5.641  67.323  1.00  0.00    -0.111 C  
ENDROOT
BRANCH   3   7
HETATM    7  C   UNL     1     -10.121  10.656  66.349  1.00  0.00    -0.279 A  
HETATM    8  C   UNL     1     -10.268  11.501  65.236  1.00  0.00    -0.315 A  
HETATM    9  C   UNL     1      -9.665  11.196  67.564  1.00  0.00    -0.193 A  
HETATM   10  C   UNL     1      -9.951  12.848  65.350  1.00  0.00    -0.194 A  
HETATM   11  H   UNL     1      -8.857  15.044  67.479  1.00  0.00     0.000 HD 
HETATM   12  O   UNL     1     -10.087  13.719  64.302  1.00  0.00    -0.744 OA 
HETATM   13  C   UNL     1      -9.342  12.548  67.667  1.00  0.00    -0.189 A  
HETATM   14  C   UNL     1      -9.485  13.365  66.556  1.00  0.00    -0.245 A  
HETATM   15  O   UNL     1      -9.175  14.692  66.656  1.00  0.00    -0.246 OA 
HETATM   16  H   UNL     1      -9.870  14.640  64.380  1.00  0.00     0.000 HD 
ENDBRANCH   3   7
BRANCH   6  17
HETATM   17  C   UNL     1      -8.562   5.751  68.760  1.00  0.00    -0.109 A  
HETATM   18  C   UNL     1      -7.881   6.102  71.444  1.00  0.00    -0.108 A  
HETATM   19  C   UNL     1      -7.213   6.818  70.456  1.00  0.00    -0.073 A  
HETATM   20  C   UNL     1      -7.536   6.638  69.116  1.00  0.00    -0.095 A  
HETATM   21  H   UNL     1      -6.039   7.837  71.768  1.00  0.00     0.000 HD 
HETATM   22  C   UNL     1      -8.853   5.174  71.111  1.00  0.00    -0.150 A  
HETATM   23  O   UNL     1      -7.589   6.321  72.759  1.00  0.00    -0.101 OA 
HETATM   24  O   UNL     1      -6.259   7.713  70.852  1.00  0.00    -0.035 OA 
HETATM   25  C   UNL     1      -9.190   4.995  69.768  1.00  0.00    -0.168 A  
HETATM   26  H   UNL     1      -8.044   5.831  73.434  1.00  0.00     0.000 HD 
ENDBRANCH   6  17
TORSDOF 2
ENDMDL
MODEL      139
REMARK 921   NORMALIZED FREE ENERGY PREDICTED BY IDOCK:   -4.05 KCAL/MOL
REMARK 922        TOTAL FREE ENERGY PREDICTED BY IDOCK:   -4.72 KCAL/MOL
REMARK 923 INTER-LIGAND FREE ENERGY PREDICTED BY IDOCK:   -4.31 KCAL/MOL
REMARK 924 INTRA-LIGAND FREE ENERGY PREDICTED BY IDOCK:   -0.40 KCAL/MOL
REMARK 927      BINDING AFFINITY PREDICTED BY RF-SCORE:    0.00 PKD
ROOT
HETATM    1  C   UNL     1      -9.950   9.238  68.447  1.00  0.00    -0.196 C  
HETATM    2  C   UNL     1      -8.745   9.750  67.639  1.00  0.00    -0.125 C  
HETATM    3  C   UNL     1      -8.689  11.300  67.742  1.00  0.00    -0.134 C  
HETATM    4  C   UNL     1      -7.403   9.099  68.115  1.00  0.00    -0.079 C  
HETATM    5  C   UNL     1      -6.195   9.637  67.327  1.00  0.00    -0.067 C  
HETATM    6  C   UNL     1      -7.386   7.542  68.122  1.00  0.00    -0.096 C  
ENDROOT
BRANCH   3   7
HETATM    7  C   UNL     1      -9.860  12.035  67.126  1.00  0.00    -0.205 A  
HETATM    8  C   UNL     1     -10.715  12.810  67.928  1.00  0.00    -0.235 A  
HETATM    9  C   UNL     1     -10.070  11.999  65.737  1.00  0.00    -0.267 A  
HETATM   10  C   UNL     1     -11.758  13.514  67.340  1.00  0.00    -0.380 A  
HETATM   11  H   UNL     1     -13.132  14.109  64.458  1.00  0.00     0.000 HD 
HETATM   12  O   UNL     1     -12.613  14.293  68.072  1.00  0.00    -0.487 OA 
HETATM   13  C   UNL     1     -11.124  12.703  65.156  1.00  0.00    -0.329 A  
HETATM   14  C   UNL     1     -11.963  13.454  65.965  1.00  0.00    -0.415 A  
HETATM   15  O   UNL     1     -12.993  14.150  65.397  1.00  0.00    -0.706 OA 
HETATM   16  H   UNL     1     -13.326  14.775  67.669  1.00  0.00     0.000 HD 
ENDBRANCH   3   7
BRANCH   6  17
HETATM   17  C   UNL     1      -7.485   6.885  66.762  1.00  0.00    -0.082 A  
HETATM   18  C   UNL     1      -7.590   5.478  64.353  1.00  0.00    -0.074 A  
HETATM   19  C   UNL     1      -6.491   6.279  64.645  1.00  0.00    -0.034 A  
HETATM   20  C   UNL     1      -6.438   6.995  65.836  1.00  0.00    -0.051 A  
HETATM   21  H   UNL     1      -5.504   5.823  62.926  1.00  0.00     0.000 HD 
HETATM   22  C   UNL     1      -8.663   5.404  65.225  1.00  0.00    -0.145 A  
HETATM   23  O   UNL     1      -7.610   4.742  63.203  1.00  0.00    -0.056 OA 
HETATM   24  O   UNL     1      -5.468   6.313  63.739  1.00  0.00    -0.018 OA 
HETATM   25  C   UNL     1      -8.612   6.112  66.427  1.00  0.00    -0.131 A  
HETATM   26  H   UNL     1      -8.361   4.195  63.004  1.00  0.00     0.000 HD 
ENDBRANCH   6  17
TORSDOF 2
ENDMDL
MODEL      140
REMARK 921   NORMALIZED FREE ENERGY PREDICTED BY IDOCK:   -4.02 KCAL/MOL
REMARK 922        TOTAL FREE ENERGY PREDICTED BY IDOCK:   -4.69 KCAL/MOL
REMARK 923 INTER-LIGAND FREE ENERGY PREDICTED BY IDOCK:   -4.08 KCAL/MOL
REMARK 924 INTRA-LIGAND FREE ENERGY PREDICTED BY IDOCK:   -0.60 KCAL/MOL
REMARK 927      BINDING AFFINITY PREDICTED BY RF-SCORE:    0.00 PKD
ROOT
HETATM    1  C   UNL     1      -7.932  10.926  66.869  1.00  0.00    -0.138 C  
HETATM    2  C   UNL     1      -7.754  11.448  68.305  1.00  0.00    -0.124 C  
HETATM    3  C   UNL     1      -7.174  10.307  69.188  1.00  0.00    -0.083 C  
HETATM    4  C   UNL     1      -6.845  12.722  68.356  1.00  0.00    -0.091 C  
HETATM    5  C   UNL     1      -6.641  13.223  69.797  1.00  0.00     0.052 C  
HETATM    6  C   UNL     1      -7.301  13.898  67.441  1.00  0.00    -0.129 C  
ENDROOT
BRANCH   3   7
HETATM    7  C   UNL     1      -8.073   9.101  69.364  1.00  0.00    -0.102 A  
HETATM    8  C   UNL     1      -7.628   7.823  68.989  1.00  0.00    -0.100 A  
HETATM    9  C   UNL     1      -9.339   9.240  69.959  1.00  0.00    -0.232 A  
HETATM   10  C   UNL     1      -8.448   6.721  69.199  1.00  0.00    -0.128 A  
HETATM   11  H   UNL     1     -11.364   5.893  70.367  1.00  0.00     0.000 HD 
HETATM   12  O   UNL     1      -8.061   5.452  68.864  1.00  0.00    -0.092 OA 
HETATM   13  C   UNL     1     -10.158   8.130  70.159  1.00  0.00    -0.194 A  
HETATM   14  C   UNL     1      -9.707   6.877  69.774  1.00  0.00    -0.164 A  
HETATM   15  O   UNL     1     -10.505   5.786  69.975  1.00  0.00    -0.231 OA 
HETATM   16  H   UNL     1      -8.622   4.699  69.007  1.00  0.00     0.000 HD 
ENDBRANCH   3   7
BRANCH   6  17
HETATM   17  C   UNL     1      -8.617  14.544  67.819  1.00  0.00    -0.176 A  
HETATM   18  C   UNL     1     -11.064  15.575  68.680  1.00  0.00    -0.297 A  
HETATM   19  C   UNL     1     -11.016  14.715  67.588  1.00  0.00    -0.293 A  
HETATM   20  C   UNL     1      -9.799  14.210  67.143  1.00  0.00    -0.253 A  
HETATM   21  H   UNL     1     -13.029  14.717  67.299  1.00  0.00     0.000 HD 
HETATM   22  C   UNL     1      -9.902  15.969  69.323  1.00  0.00    -0.255 A  
HETATM   23  O   UNL     1     -12.267  16.028  69.138  1.00  0.00    -0.446 OA 
HETATM   24  O   UNL     1     -12.198  14.371  66.995  1.00  0.00    -0.400 OA 
HETATM   25  C   UNL     1      -8.678  15.457  68.888  1.00  0.00    -0.208 A  
HETATM   26  H   UNL     1     -12.300  16.616  69.884  1.00  0.00     0.000 HD 
ENDBRANCH   6  17
TORSDOF 2
ENDMDL
MODEL      141
REMARK 921   NORMALIZED FREE ENERGY PREDICTED BY IDOCK:   -4.00 KCAL/MOL
REMARK 922        TOTAL FREE ENERGY PREDICTED BY IDOCK:   -4.66 KCAL/MOL
REMARK 923 INTER-LIGAND FREE ENERGY PREDICTED BY IDOCK:   -4.20 KCAL/MOL
REMARK 924 INTRA-LIGAND FREE ENERGY PREDICTED BY IDOCK:   -0.46 KCAL/MOL
REMARK 927      BINDING AFFINITY PREDICTED BY RF-SCORE:    0.00 PKD
ROOT
HETATM    1  C   UNL     1      -7.886  10.247  67.914  1.00  0.00    -0.101 C  
HETATM    2  C   UNL     1      -9.404   9.995  67.896  1.00  0.00    -0.151 C  
HETATM    3  C   UNL     1      -9.668   8.485  68.157  1.00  0.00    -0.175 C  
HETATM    4  C   UNL     1     -10.158  10.893  68.934  1.00  0.00    -0.211 C  
HETATM    5  C   UNL     1     -11.673  10.615  68.937  1.00  0.00    -0.282 C  
HETATM    6  C   UNL     1      -9.895  12.422  68.803  1.00  0.00    -0.005 C  
ENDROOT
BRANCH   3   7
HETATM    7  C   UNL     1      -9.145   7.541  67.097  1.00  0.00    -0.144 A  
HETATM    8  C   UNL     1      -8.723   6.247  67.443  1.00  0.00    -0.105 A  
HETATM    9  C   UNL     1      -9.131   7.928  65.745  1.00  0.00    -0.084 A  
HETATM   10  C   UNL     1      -8.287   5.378  66.450  1.00  0.00    -0.110 A  
HETATM   11  H   UNL     1      -7.817   5.195  63.241  1.00  0.00     0.000 HD 
HETATM   12  O   UNL     1      -7.877   4.102  66.729  1.00  0.00    -0.095 OA 
HETATM   13  C   UNL     1      -8.686   7.052  64.757  1.00  0.00     0.330 A  
HETATM   14  C   UNL     1      -8.264   5.782  65.118  1.00  0.00    -0.140 A  
HETATM   15  O   UNL     1      -7.833   4.919  64.150  1.00  0.00    -0.082 OA 
HETATM   16  H   UNL     1      -7.579   3.508  66.050  1.00  0.00     0.000 HD 
ENDBRANCH   3   7
BRANCH   6  17
HETATM   17  C   UNL     1     -10.411  13.064  67.534  1.00  0.00    -0.229 A  
HETATM   18  C   UNL     1     -11.527  14.087  65.188  1.00  0.00    -0.328 A  
HETATM   19  C   UNL     1     -10.424  13.243  65.125  1.00  0.00    -0.333 A  
HETATM   20  C   UNL     1      -9.852  12.742  66.289  1.00  0.00    -0.269 A  
HETATM   21  H   UNL     1     -10.337  13.252  63.093  1.00  0.00     0.000 HD 
HETATM   22  C   UNL     1     -12.056  14.471  66.410  1.00  0.00    -0.320 A  
HETATM   23  O   UNL     1     -12.109  14.536  64.038  1.00  0.00    -0.688 OA 
HETATM   24  O   UNL     1      -9.946  12.909  63.888  1.00  0.00    -0.324 OA 
HETATM   25  C   UNL     1     -11.494  13.963  67.582  1.00  0.00    -0.354 A  
HETATM   26  H   UNL     1     -12.862  15.113  64.081  1.00  0.00     0.000 HD 
ENDBRANCH   6  17
TORSDOF 2
ENDMDL
MODEL      142
REMARK 921   NORMALIZED FREE ENERGY PREDICTED BY IDOCK:   -3.99 KCAL/MOL
REMARK 922        TOTAL FREE ENERGY PREDICTED BY IDOCK:   -4.65 KCAL/MOL
REMARK 923 INTER-LIGAND FREE ENERGY PREDICTED BY IDOCK:   -4.57 KCAL/MOL
REMARK 924 INTRA-LIGAND FREE ENERGY PREDICTED BY IDOCK:   -0.08 KCAL/MOL
REMARK 927      BINDING AFFINITY PREDICTED BY RF-SCORE:    0.00 PKD
ROOT
HETATM    1  C   UNL     1     -10.455  11.326  68.625  1.00  0.00    -0.226 C  
HETATM    2  C   UNL     1      -9.009  11.463  68.117  1.00  0.00    -0.169 C  
HETATM    3  C   UNL     1      -8.644  12.972  68.032  1.00  0.00    -0.186 C  
HETATM    4  C   UNL     1      -7.995  10.684  69.022  1.00  0.00    -0.140 C  
HETATM    5  C   UNL     1      -6.546  10.850  68.531  1.00  0.00    -0.055 C  
HETATM    6  C   UNL     1      -8.319   9.175  69.232  1.00  0.00    -0.123 C  
ENDROOT
BRANCH   3   7
HETATM    7  C   UNL     1      -9.443  13.778  67.031  1.00  0.00    -0.255 A  
HETATM    8  C   UNL     1      -9.130  15.126  66.791  1.00  0.00    -0.282 A  
HETATM    9  C   UNL     1     -10.469  13.170  66.286  1.00  0.00    -0.291 A  
HETATM   10  C   UNL     1      -9.845  15.839  65.836  1.00  0.00    -0.349 A  
HETATM   11  H   UNL     1     -12.265  15.519  63.693  1.00  0.00     0.000 HD 
HETATM   12  O   UNL     1      -9.574  17.150  65.554  1.00  0.00    -0.508 OA 
HETATM   13  C   UNL     1     -11.185  13.894  65.335  1.00  0.00    -0.306 A  
HETATM   14  C   UNL     1     -10.869  15.227  65.119  1.00  0.00    -0.426 A  
HETATM   15  O   UNL     1     -11.566  15.937  64.183  1.00  0.00    -0.425 OA 
HETATM   16  H   UNL     1     -10.063  17.637  64.901  1.00  0.00     0.000 HD 
ENDBRANCH   3   7
BRANCH   6  17
HETATM   17  C   UNL     1      -8.226   8.311  67.994  1.00  0.00    -0.128 A  
HETATM   18  C   UNL     1      -8.147   6.544  65.833  1.00  0.00    -0.125 A  
HETATM   19  C   UNL     1      -7.011   6.746  66.610  1.00  0.00    -0.066 A  
HETATM   20  C   UNL     1      -7.038   7.636  67.679  1.00  0.00    -0.085 A  
HETATM   21  H   UNL     1      -5.874   5.417  65.573  1.00  0.00     0.000 HD 
HETATM   22  C   UNL     1      -9.313   7.248  66.087  1.00  0.00    -0.101 A  
HETATM   23  O   UNL     1      -8.124   5.634  64.816  1.00  0.00    -0.116 OA 
HETATM   24  O   UNL     1      -5.891   6.025  66.302  1.00  0.00    -0.022 OA 
HETATM   25  C   UNL     1      -9.350   8.135  67.164  1.00  0.00    -0.183 A  
HETATM   26  H   UNL     1      -8.899   5.496  64.285  1.00  0.00     0.000 HD 
ENDBRANCH   6  17
TORSDOF 2
ENDMDL
MODEL      143
REMARK 921   NORMALIZED FREE ENERGY PREDICTED BY IDOCK:   -3.96 KCAL/MOL
REMARK 922        TOTAL FREE ENERGY PREDICTED BY IDOCK:   -4.61 KCAL/MOL
REMARK 923 INTER-LIGAND FREE ENERGY PREDICTED BY IDOCK:   -4.02 KCAL/MOL
REMARK 924 INTRA-LIGAND FREE ENERGY PREDICTED BY IDOCK:   -0.59 KCAL/MOL
REMARK 927      BINDING AFFINITY PREDICTED BY RF-SCORE:    0.00 PKD
ROOT
HETATM    1  C   UNL     1      -9.255   3.770  69.547  1.00  0.00    -0.226 C  
HETATM    2  C   UNL     1      -8.279   4.782  68.921  1.00  0.00    -0.082 C  
HETATM    3  C   UNL     1      -7.884   5.834  69.997  1.00  0.00    -0.091 C  
HETATM    4  C   UNL     1      -7.014   4.080  68.322  1.00  0.00    -0.048 C  
HETATM    5  C   UNL     1      -6.023   5.097  67.727  1.00  0.00    -0.022 C  
HETATM    6  C   UNL     1      -7.309   2.953  67.289  1.00  0.00    -0.061 C  
ENDROOT
BRANCH   3   7
HETATM    7  C   UNL     1      -9.015   6.705  70.499  1.00  0.00    -0.152 A  
HETATM    8  C   UNL     1      -9.506   6.549  71.806  1.00  0.00    -0.155 A  
HETATM    9  C   UNL     1      -9.547   7.719  69.683  1.00  0.00    -0.163 A  
HETATM   10  C   UNL     1     -10.514   7.387  72.266  1.00  0.00    -0.223 A  
HETATM   11  H   UNL     1     -12.394   9.869  71.339  1.00  0.00     0.000 HD 
HETATM   12  O   UNL     1     -11.021   7.288  73.533  1.00  0.00    -0.543 OA 
HETATM   13  C   UNL     1     -10.563   8.551  70.151  1.00  0.00    -0.238 A  
HETATM   14  C   UNL     1     -11.042   8.376  71.440  1.00  0.00    -0.255 A  
HETATM   15  O   UNL     1     -12.034   9.194  71.903  1.00  0.00    -0.352 OA 
HETATM   16  H   UNL     1     -11.711   7.861  73.848  1.00  0.00     0.000 HD 
ENDBRANCH   3   7
BRANCH   6  17
HETATM   17  C   UNL     1      -7.948   3.407  65.994  1.00  0.00    -0.092 A  
HETATM   18  C   UNL     1      -9.106   4.463  63.684  1.00  0.00    -0.136 A  
HETATM   19  C   UNL     1      -9.912   3.985  64.711  1.00  0.00    -0.205 A  
HETATM   20  C   UNL     1      -9.344   3.443  65.859  1.00  0.00    -0.145 A  
HETATM   21  H   UNL     1     -11.654   4.462  63.777  1.00  0.00     0.000 HD 
HETATM   22  C   UNL     1      -7.726   4.378  63.769  1.00  0.00    -0.075 A  
HETATM   23  O   UNL     1      -9.673   5.035  62.582  1.00  0.00    -0.354 OA 
HETATM   24  O   UNL     1     -11.267   4.092  64.561  1.00  0.00    -0.336 OA 
HETATM   25  C   UNL     1      -7.148   3.846  64.923  1.00  0.00    -0.066 A  
HETATM   26  H   UNL     1      -9.123   5.361  61.880  1.00  0.00     0.000 HD 
ENDBRANCH   6  17
TORSDOF 2
ENDMDL
MODEL      144
REMARK 921   NORMALIZED FREE ENERGY PREDICTED BY IDOCK:   -3.93 KCAL/MOL
REMARK 922        TOTAL FREE ENERGY PREDICTED BY IDOCK:   -4.59 KCAL/MOL
REMARK 923 INTER-LIGAND FREE ENERGY PREDICTED BY IDOCK:   -4.55 KCAL/MOL
REMARK 924 INTRA-LIGAND FREE ENERGY PREDICTED BY IDOCK:   -0.04 KCAL/MOL
REMARK 927      BINDING AFFINITY PREDICTED BY RF-SCORE:    0.00 PKD
ROOT
HETATM    1  C   UNL     1     -10.271  14.580  65.686  1.00  0.00    -0.379 C  
HETATM    2  C   UNL     1      -9.268  14.806  66.830  1.00  0.00    -0.282 C  
HETATM    3  C   UNL     1      -8.783  13.425  67.356  1.00  0.00    -0.209 C  
HETATM    4  C   UNL     1      -8.061  15.699  66.382  1.00  0.00    -0.046 C  
HETATM    5  C   UNL     1      -7.043  15.896  67.520  1.00  0.00    -0.207 C  
HETATM    6  C   UNL     1      -8.449  17.076  65.767  1.00  0.00     0.214 C  
ENDROOT
BRANCH   3   7
HETATM    7  C   UNL     1      -9.850  12.562  67.993  1.00  0.00    -0.214 A  
HETATM    8  C   UNL     1     -10.014  11.225  67.595  1.00  0.00    -0.197 A  
HETATM    9  C   UNL     1     -10.650  13.071  69.032  1.00  0.00    -0.079 A  
HETATM   10  C   UNL     1     -10.968  10.433  68.222  1.00  0.00    -0.270 A  
HETATM   11  H   UNL     1     -13.243  10.527  70.539  1.00  0.00     0.000 HD 
HETATM   12  O   UNL     1     -11.162   9.121  67.883  1.00  0.00    -0.494 OA 
HETATM   13  C   UNL     1     -11.610  12.272  69.650  1.00  0.00    -0.348 A  
HETATM   14  C   UNL     1     -11.764  10.957  69.237  1.00  0.00    -0.324 A  
HETATM   15  O   UNL     1     -12.700  10.170  69.846  1.00  0.00    -0.000 OA 
HETATM   16  H   UNL     1     -11.814   8.580  68.311  1.00  0.00     0.000 HD 
ENDBRANCH   3   7
BRANCH   6  17
HETATM   17  C   UNL     1      -9.110  18.051  66.717  1.00  0.00    -0.280 A  
HETATM   18  C   UNL     1     -10.118  19.911  68.538  1.00  0.00    -0.421 A  
HETATM   19  C   UNL     1     -10.035  18.568  68.889  1.00  0.00    -0.347 A  
HETATM   20  C   UNL     1      -9.549  17.632  67.982  1.00  0.00    -0.289 A  
HETATM   21  H   UNL     1     -10.751  18.853  70.771  1.00  0.00     0.000 HD 
HETATM   22  C   UNL     1      -9.751  20.337  67.272  1.00  0.00    -0.590 A  
HETATM   23  O   UNL     1     -10.553  20.828  69.452  1.00  0.00    -0.079 OA 
HETATM   24  O   UNL     1     -10.420  18.213  70.152  1.00  0.00     0.697 OA 
HETATM   25  C   UNL     1      -9.252  19.405  66.361  1.00  0.00    -0.403 A  
HETATM   26  H   UNL     1     -10.610  21.746  69.212  1.00  0.00     0.000 HD 
ENDBRANCH   6  17
TORSDOF 2
ENDMDL
MODEL      145
REMARK 921   NORMALIZED FREE ENERGY PREDICTED BY IDOCK:   -3.88 KCAL/MOL
REMARK 922        TOTAL FREE ENERGY PREDICTED BY IDOCK:   -4.52 KCAL/MOL
REMARK 923 INTER-LIGAND FREE ENERGY PREDICTED BY IDOCK:   -4.34 KCAL/MOL
REMARK 924 INTRA-LIGAND FREE ENERGY PREDICTED BY IDOCK:   -0.19 KCAL/MOL
REMARK 927      BINDING AFFINITY PREDICTED BY RF-SCORE:    0.00 PKD
ROOT
HETATM    1  C   UNL     1      -8.801   5.728  70.537  1.00  0.00    -0.144 C  
HETATM    2  C   UNL     1      -8.294   6.910  69.693  1.00  0.00    -0.133 C  
HETATM    3  C   UNL     1      -8.365   8.208  70.547  1.00  0.00    -0.123 C  
HETATM    4  C   UNL     1      -6.844   6.665  69.154  1.00  0.00    -0.069 C  
HETATM    5  C   UNL     1      -6.327   7.863  68.337  1.00  0.00    -0.049 C  
HETATM    6  C   UNL     1      -6.651   5.346  68.348  1.00  0.00    -0.049 C  
ENDROOT
BRANCH   3   7
HETATM    7  C   UNL     1      -9.757   8.641  70.955  1.00  0.00    -0.254 A  
HETATM    8  C   UNL     1     -10.526   9.454  70.105  1.00  0.00    -0.280 A  
HETATM    9  C   UNL     1     -10.318   8.186  72.161  1.00  0.00    -0.342 A  
HETATM   10  C   UNL     1     -11.818   9.805  70.474  1.00  0.00    -0.240 A  
HETATM   11  H   UNL     1     -13.991   9.408  72.856  1.00  0.00     0.000 HD 
HETATM   12  O   UNL     1     -12.615  10.584  69.680  1.00  0.00    -0.570 OA 
HETATM   13  C   UNL     1     -11.613   8.549  72.526  1.00  0.00    -0.376 A  
HETATM   14  C   UNL     1     -12.354   9.360  71.680  1.00  0.00    -0.385 A  
HETATM   15  O   UNL     1     -13.626   9.712  72.033  1.00  0.00    -0.408 OA 
HETATM   16  H   UNL     1     -13.499  10.824  69.933  1.00  0.00     0.000 HD 
ENDBRANCH   3   7
BRANCH   6  17
HETATM   17  C   UNL     1      -7.396   5.272  67.033  1.00  0.00    -0.083 A  
HETATM   18  C   UNL     1      -8.863   4.938  64.681  1.00  0.00    -0.139 A  
HETATM   19  C   UNL     1      -7.527   4.553  64.730  1.00  0.00    -0.072 A  
HETATM   20  C   UNL     1      -6.785   4.730  65.893  1.00  0.00    -0.053 A  
HETATM   21  H   UNL     1      -7.495   3.856  62.820  1.00  0.00     0.000 HD 
HETATM   22  C   UNL     1      -9.468   5.534  65.775  1.00  0.00    -0.071 A  
HETATM   23  O   UNL     1      -9.594   4.716  63.550  1.00  0.00    -0.341 OA 
HETATM   24  O   UNL     1      -6.988   3.977  63.613  1.00  0.00    -0.043 OA 
HETATM   25  C   UNL     1      -8.733   5.705  66.948  1.00  0.00    -0.113 A  
HETATM   26  H   UNL     1     -10.507   4.980  63.516  1.00  0.00     0.000 HD 
ENDBRANCH   6  17
TORSDOF 2
ENDMDL
MODEL      146
REMARK 921   NORMALIZED FREE ENERGY PREDICTED BY IDOCK:   -3.88 KCAL/MOL
REMARK 922        TOTAL FREE ENERGY PREDICTED BY IDOCK:   -4.52 KCAL/MOL
REMARK 923 INTER-LIGAND FREE ENERGY PREDICTED BY IDOCK:   -3.87 KCAL/MOL
REMARK 924 INTRA-LIGAND FREE ENERGY PREDICTED BY IDOCK:   -0.65 KCAL/MOL
REMARK 927      BINDING AFFINITY PREDICTED BY RF-SCORE:    0.00 PKD
ROOT
HETATM    1  C   UNL     1      -6.943   7.667  69.039  1.00  0.00    -0.069 C  
HETATM    2  C   UNL     1      -8.429   8.034  69.191  1.00  0.00    -0.136 C  
HETATM    3  C   UNL     1      -9.164   6.874  69.920  1.00  0.00    -0.147 C  
HETATM    4  C   UNL     1      -8.622   9.393  69.946  1.00  0.00    -0.201 C  
HETATM    5  C   UNL     1     -10.111   9.741  70.125  1.00  0.00    -0.317 C  
HETATM    6  C   UNL     1      -7.859  10.605  69.335  1.00  0.00    -0.126 C  
ENDROOT
BRANCH   3   7
HETATM    7  C   UNL     1      -9.203   5.559  69.172  1.00  0.00    -0.142 A  
HETATM    8  C   UNL     1      -9.882   5.458  67.946  1.00  0.00    -0.179 A  
HETATM    9  C   UNL     1      -8.511   4.439  69.666  1.00  0.00    -0.089 A  
HETATM   10  C   UNL     1      -9.870   4.255  67.251  1.00  0.00    -0.146 A  
HETATM   11  H   UNL     1      -8.728   1.219  67.419  1.00  0.00     0.000 HD 
HETATM   12  O   UNL     1     -10.504   4.105  66.048  1.00  0.00    -0.447 OA 
HETATM   13  C   UNL     1      -8.511   3.235  68.966  1.00  0.00    -0.094 A  
HETATM   14  C   UNL     1      -9.194   3.151  67.762  1.00  0.00    -0.196 A  
HETATM   15  O   UNL     1      -9.190   1.973  67.070  1.00  0.00    -0.114 OA 
HETATM   16  H   UNL     1     -10.496   3.282  65.572  1.00  0.00     0.000 HD 
ENDBRANCH   3   7
BRANCH   6  17
HETATM   17  C   UNL     1      -8.325  11.042  67.963  1.00  0.00    -0.125 A  
HETATM   18  C   UNL     1      -9.377  11.727  65.469  1.00  0.00    -0.118 A  
HETATM   19  C   UNL     1      -8.473  10.677  65.579  1.00  0.00    -0.175 A  
HETATM   20  C   UNL     1      -7.932  10.339  66.815  1.00  0.00    -0.114 A  
HETATM   21  H   UNL     1      -8.531  10.213  63.600  1.00  0.00     0.000 HD 
HETATM   22  C   UNL     1      -9.730  12.477  66.579  1.00  0.00    -0.249 A  
HETATM   23  O   UNL     1      -9.937  12.021  64.259  1.00  0.00    -0.348 OA 
HETATM   24  O   UNL     1      -8.161   9.982  64.443  1.00  0.00    -0.150 OA 
HETATM   25  C   UNL     1      -9.199  12.136  67.825  1.00  0.00    -0.189 A  
HETATM   26  H   UNL     1     -10.555  12.739  64.184  1.00  0.00     0.000 HD 
ENDBRANCH   6  17
TORSDOF 2
ENDMDL
MODEL      147
REMARK 921   NORMALIZED FREE ENERGY PREDICTED BY IDOCK:   -3.83 KCAL/MOL
REMARK 922        TOTAL FREE ENERGY PREDICTED BY IDOCK:   -4.47 KCAL/MOL
REMARK 923 INTER-LIGAND FREE ENERGY PREDICTED BY IDOCK:   -4.11 KCAL/MOL
REMARK 924 INTRA-LIGAND FREE ENERGY PREDICTED BY IDOCK:   -0.36 KCAL/MOL
REMARK 927      BINDING AFFINITY PREDICTED BY RF-SCORE:    0.00 PKD
ROOT
HETATM    1  C   UNL     1      -7.034  11.543  67.102  1.00  0.00    -0.138 C  
HETATM    2  C   UNL     1      -7.225  12.080  68.532  1.00  0.00    -0.101 C  
HETATM    3  C   UNL     1      -7.080  10.902  69.537  1.00  0.00    -0.123 C  
HETATM    4  C   UNL     1      -6.221  13.235  68.862  1.00  0.00    -0.088 C  
HETATM    5  C   UNL     1      -6.392  13.747  70.304  1.00  0.00    -0.035 C  
HETATM    6  C   UNL     1      -6.235  14.431  67.865  1.00  0.00    -0.167 C  
ENDROOT
BRANCH   3   7
HETATM    7  C   UNL     1      -8.134   9.821  69.426  1.00  0.00    -0.129 A  
HETATM    8  C   UNL     1      -9.472  10.095  69.756  1.00  0.00    -0.201 A  
HETATM    9  C   UNL     1      -7.796   8.548  68.934  1.00  0.00    -0.109 A  
HETATM   10  C   UNL     1     -10.433   9.104  69.606  1.00  0.00    -0.223 A  
HETATM   11  H   UNL     1     -10.793   6.015  68.668  1.00  0.00     0.000 HD 
HETATM   12  O   UNL     1     -11.752   9.320  69.900  1.00  0.00    -0.455 OA 
HETATM   13  C   UNL     1      -8.767   7.557  68.793  1.00  0.00    -0.128 A  
HETATM   14  C   UNL     1     -10.080   7.843  69.134  1.00  0.00    -0.197 A  
HETATM   15  O   UNL     1     -11.034   6.875  68.990  1.00  0.00    -0.225 OA 
HETATM   16  H   UNL     1     -12.410   8.642  69.798  1.00  0.00     0.000 HD 
ENDBRANCH   3   7
BRANCH   6  17
HETATM   17  C   UNL     1      -7.511  15.243  67.841  1.00  0.00    -0.157 A  
HETATM   18  C   UNL     1      -9.847  16.761  68.025  1.00  0.00    -0.265 A  
HETATM   19  C   UNL     1      -9.921  15.374  67.964  1.00  0.00    -0.221 A  
HETATM   20  C   UNL     1      -8.763  14.611  67.856  1.00  0.00    -0.169 A  
HETATM   21  H   UNL     1     -11.948  15.318  68.113  1.00  0.00     0.000 HD 
HETATM   22  C   UNL     1      -8.626  17.409  67.947  1.00  0.00    -0.232 A  
HETATM   23  O   UNL     1     -10.986  17.498  68.178  1.00  0.00    -0.316 OA 
HETATM   24  O   UNL     1     -11.158  14.797  68.039  1.00  0.00    -0.265 OA 
HETATM   25  C   UNL     1      -7.459  16.649  67.850  1.00  0.00    -0.169 A  
HETATM   26  H   UNL     1     -10.936  18.445  68.220  1.00  0.00     0.000 HD 
ENDBRANCH   6  17
TORSDOF 2
ENDMDL
MODEL      148
REMARK 921   NORMALIZED FREE ENERGY PREDICTED BY IDOCK:   -3.83 KCAL/MOL
REMARK 922        TOTAL FREE ENERGY PREDICTED BY IDOCK:   -4.47 KCAL/MOL
REMARK 923 INTER-LIGAND FREE ENERGY PREDICTED BY IDOCK:   -4.07 KCAL/MOL
REMARK 924 INTRA-LIGAND FREE ENERGY PREDICTED BY IDOCK:   -0.40 KCAL/MOL
REMARK 927      BINDING AFFINITY PREDICTED BY RF-SCORE:    0.00 PKD
ROOT
HETATM    1  C   UNL     1      -7.989   7.237  69.717  1.00  0.00    -0.123 C  
HETATM    2  C   UNL     1      -7.804   8.762  69.800  1.00  0.00    -0.090 C  
HETATM    3  C   UNL     1      -8.522   9.289  71.075  1.00  0.00    -0.150 C  
HETATM    4  C   UNL     1      -6.292   9.170  69.791  1.00  0.00    -0.039 C  
HETATM    5  C   UNL     1      -6.109  10.694  69.908  1.00  0.00    -0.086 C  
HETATM    6  C   UNL     1      -5.465   8.622  68.590  1.00  0.00    -0.037 C  
ENDROOT
BRANCH   3   7
HETATM    7  C   UNL     1     -10.026   9.118  71.090  1.00  0.00    -0.377 A  
HETATM    8  C   UNL     1     -10.604   7.954  71.625  1.00  0.00    -0.267 A  
HETATM    9  C   UNL     1     -10.863  10.147  70.624  1.00  0.00    -0.305 A  
HETATM   10  C   UNL     1     -11.987   7.833  71.672  1.00  0.00    -0.297 A  
HETATM   11  H   UNL     1     -14.717   9.421  70.913  1.00  0.00     0.000 HD 
HETATM   12  O   UNL     1     -12.603   6.728  72.193  1.00  0.00    -0.511 OA 
HETATM   13  C   UNL     1     -12.249  10.013  70.669  1.00  0.00    -0.360 A  
HETATM   14  C   UNL     1     -12.802   8.854  71.191  1.00  0.00    -0.143 A  
HETATM   15  O   UNL     1     -14.161   8.724  71.241  1.00  0.00    -0.319 OA 
HETATM   16  H   UNL     1     -13.549   6.645  72.225  1.00  0.00     0.000 HD 
ENDBRANCH   3   7
BRANCH   6  17
HETATM   17  C   UNL     1      -5.853   9.166  67.232  1.00  0.00    -0.046 A  
HETATM   18  C   UNL     1      -6.686  10.335  64.837  1.00  0.00    -0.099 A  
HETATM   19  C   UNL     1      -7.372   9.241  65.354  1.00  0.00    -0.090 A  
HETATM   20  C   UNL     1      -6.954   8.643  66.538  1.00  0.00    -0.079 A  
HETATM   21  H   UNL     1      -8.758   9.208  63.867  1.00  0.00     0.000 HD 
HETATM   22  C   UNL     1      -5.558  10.828  65.472  1.00  0.00    -0.126 A  
HETATM   23  O   UNL     1      -7.133  10.943  63.699  1.00  0.00    -0.318 OA 
HETATM   24  O   UNL     1      -8.473   8.799  64.675  1.00  0.00    -0.169 OA 
HETATM   25  C   UNL     1      -5.140  10.239  66.666  1.00  0.00    -0.040 A  
HETATM   26  H   UNL     1      -6.664  11.690  63.345  1.00  0.00     0.000 HD 
ENDBRANCH   6  17
TORSDOF 2
ENDMDL
MODEL      149
REMARK 921   NORMALIZED FREE ENERGY PREDICTED BY IDOCK:   -3.81 KCAL/MOL
REMARK 922        TOTAL FREE ENERGY PREDICTED BY IDOCK:   -4.45 KCAL/MOL
REMARK 923 INTER-LIGAND FREE ENERGY PREDICTED BY IDOCK:   -3.77 KCAL/MOL
REMARK 924 INTRA-LIGAND FREE ENERGY PREDICTED BY IDOCK:   -0.68 KCAL/MOL
REMARK 927      BINDING AFFINITY PREDICTED BY RF-SCORE:    0.00 PKD
ROOT
HETATM    1  C   UNL     1      -7.499   5.711  68.845  1.00  0.00    -0.084 C  
HETATM    2  C   UNL     1      -8.958   6.196  68.783  1.00  0.00    -0.123 C  
HETATM    3  C   UNL     1      -9.897   4.959  68.690  1.00  0.00    -0.221 C  
HETATM    4  C   UNL     1      -9.327   7.098  70.009  1.00  0.00    -0.154 C  
HETATM    5  C   UNL     1     -10.797   7.554  69.961  1.00  0.00    -0.260 C  
HETATM    6  C   UNL     1      -8.394   8.325  70.234  1.00  0.00    -0.123 C  
ENDROOT
BRANCH   3   7
HETATM    7  C   UNL     1      -9.751   4.127  67.435  1.00  0.00    -0.202 A  
HETATM    8  C   UNL     1      -9.927   4.712  66.170  1.00  0.00    -0.266 A  
HETATM    9  C   UNL     1      -9.381   2.773  67.519  1.00  0.00    -0.201 A  
HETATM   10  C   UNL     1      -9.746   3.944  65.026  1.00  0.00    -0.192 A  
HETATM   11  H   UNL     1      -8.981   0.937  64.064  1.00  0.00     0.000 HD 
HETATM   12  O   UNL     1      -9.892   4.465  63.769  1.00  0.00    -0.328 OA 
HETATM   13  C   UNL     1      -9.208   2.009  66.366  1.00  0.00     0.017 A  
HETATM   14  C   UNL     1      -9.395   2.600  65.126  1.00  0.00    -0.100 A  
HETATM   15  O   UNL     1      -9.220   1.854  63.995  1.00  0.00    -0.104 OA 
HETATM   16  H   UNL     1      -9.768   3.940  62.987  1.00  0.00     0.000 HD 
ENDBRANCH   3   7
BRANCH   6  17
HETATM   17  C   UNL     1      -8.439   9.383  69.153  1.00  0.00    -0.134 A  
HETATM   18  C   UNL     1      -8.326  11.421  67.248  1.00  0.00    -0.149 A  
HETATM   19  C   UNL     1      -9.121  11.568  68.380  1.00  0.00    -0.185 A  
HETATM   20  C   UNL     1      -9.195  10.552  69.326  1.00  0.00    -0.164 A  
HETATM   21  H   UNL     1      -9.745  13.441  67.889  1.00  0.00     0.000 HD 
HETATM   22  C   UNL     1      -7.622  10.249  67.025  1.00  0.00    -0.099 A  
HETATM   23  O   UNL     1      -8.224  12.443  66.349  1.00  0.00    -0.396 OA 
HETATM   24  O   UNL     1      -9.796  12.747  68.536  1.00  0.00    -0.213 OA 
HETATM   25  C   UNL     1      -7.683   9.229  67.976  1.00  0.00    -0.088 A  
HETATM   26  H   UNL     1      -7.682  12.342  65.576  1.00  0.00     0.000 HD 
ENDBRANCH   6  17
TORSDOF 2
ENDMDL
MODEL      150
REMARK 921   NORMALIZED FREE ENERGY PREDICTED BY IDOCK:   -3.72 KCAL/MOL
REMARK 922        TOTAL FREE ENERGY PREDICTED BY IDOCK:   -4.35 KCAL/MOL
REMARK 923 INTER-LIGAND FREE ENERGY PREDICTED BY IDOCK:   -3.74 KCAL/MOL
REMARK 924 INTRA-LIGAND FREE ENERGY PREDICTED BY IDOCK:   -0.60 KCAL/MOL
REMARK 927      BINDING AFFINITY PREDICTED BY RF-SCORE:    0.00 PKD
ROOT
HETATM    1  C   UNL     1     -10.846   7.253  68.155  1.00  0.00    -0.130 C  
HETATM    2  C   UNL     1      -9.545   7.530  68.927  1.00  0.00    -0.149 C  
HETATM    3  C   UNL     1      -8.419   7.877  67.912  1.00  0.00    -0.126 C  
HETATM    4  C   UNL     1      -9.725   8.670  69.986  1.00  0.00    -0.176 C  
HETATM    5  C   UNL     1      -8.413   8.969  70.734  1.00  0.00    -0.238 C  
HETATM    6  C   UNL     1     -10.884   8.452  71.004  1.00  0.00    -0.280 C  
ENDROOT
BRANCH   3   7
HETATM    7  C   UNL     1      -8.032   6.761  66.966  1.00  0.00    -0.109 A  
HETATM    8  C   UNL     1      -7.540   5.543  67.466  1.00  0.00    -0.089 A  
HETATM    9  C   UNL     1      -8.217   6.907  65.580  1.00  0.00    -0.134 A  
HETATM   10  C   UNL     1      -7.232   4.513  66.586  1.00  0.00    -0.080 A  
HETATM   11  H   UNL     1      -7.216   3.775  63.423  1.00  0.00     0.000 HD 
HETATM   12  O   UNL     1      -6.761   3.304  67.019  1.00  0.00    -0.043 OA 
HETATM   13  C   UNL     1      -7.899   5.871  64.705  1.00  0.00    -0.114 A  
HETATM   14  C   UNL     1      -7.404   4.681  65.215  1.00  0.00    -0.076 A  
HETATM   15  O   UNL     1      -7.097   3.661  64.359  1.00  0.00    -0.052 OA 
HETATM   16  H   UNL     1      -6.550   2.599  66.418  1.00  0.00     0.000 HD 
ENDBRANCH   3   7
BRANCH   6  17
HETATM   17  C   UNL     1     -10.704   7.288  71.954  1.00  0.00    -0.243 A  
HETATM   18  C   UNL     1     -10.145   5.174  73.690  1.00  0.00    -0.188 A  
HETATM   19  C   UNL     1     -10.405   4.923  72.347  1.00  0.00    -0.204 A  
HETATM   20  C   UNL     1     -10.700   5.969  71.479  1.00  0.00    -0.309 A  
HETATM   21  H   UNL     1     -10.133   2.914  72.508  1.00  0.00     0.000 HD 
HETATM   22  C   UNL     1     -10.206   6.463  74.194  1.00  0.00    -0.361 A  
HETATM   23  O   UNL     1      -9.810   4.146  74.523  1.00  0.00    -0.122 OA 
HETATM   24  O   UNL     1     -10.335   3.628  71.915  1.00  0.00    -0.096 OA 
HETATM   25  C   UNL     1     -10.491   7.519  73.326  1.00  0.00    -0.426 A  
HETATM   26  H   UNL     1      -9.633   4.317  75.440  1.00  0.00     0.000 HD 
ENDBRANCH   6  17
TORSDOF 2
ENDMDL
MODEL      151
REMARK 921   NORMALIZED FREE ENERGY PREDICTED BY IDOCK:   -3.71 KCAL/MOL
REMARK 922        TOTAL FREE ENERGY PREDICTED BY IDOCK:   -4.34 KCAL/MOL
REMARK 923 INTER-LIGAND FREE ENERGY PREDICTED BY IDOCK:   -4.37 KCAL/MOL
REMARK 924 INTRA-LIGAND FREE ENERGY PREDICTED BY IDOCK:    0.03 KCAL/MOL
REMARK 927      BINDING AFFINITY PREDICTED BY RF-SCORE:    0.00 PKD
ROOT
HETATM    1  C   UNL     1      -9.629   8.477  66.225  1.00  0.00    -0.306 C  
HETATM    2  C   UNL     1      -8.552   7.895  67.158  1.00  0.00    -0.128 C  
HETATM    3  C   UNL     1      -7.557   7.049  66.314  1.00  0.00    -0.092 C  
HETATM    4  C   UNL     1      -7.807   9.015  67.961  1.00  0.00    -0.101 C  
HETATM    5  C   UNL     1      -6.708   8.432  68.869  1.00  0.00    -0.053 C  
HETATM    6  C   UNL     1      -8.728   9.967  68.780  1.00  0.00    -0.136 C  
ENDROOT
BRANCH   3   7
HETATM    7  C   UNL     1      -8.147   5.822  65.653  1.00  0.00    -0.119 A  
HETATM    8  C   UNL     1      -8.695   4.789  66.432  1.00  0.00    -0.112 A  
HETATM    9  C   UNL     1      -8.206   5.729  64.252  1.00  0.00    -0.106 A  
HETATM   10  C   UNL     1      -9.273   3.690  65.807  1.00  0.00    -0.159 A  
HETATM   11  H   UNL     1      -9.902   2.462  62.867  1.00  0.00     0.000 HD 
HETATM   12  O   UNL     1      -9.833   2.662  66.516  1.00  0.00    -0.296 OA 
HETATM   13  C   UNL     1      -8.781   4.620  63.634  1.00  0.00    -0.136 A  
HETATM   14  C   UNL     1      -9.308   3.605  64.418  1.00  0.00    -0.146 A  
HETATM   15  O   UNL     1      -9.878   2.520  63.815  1.00  0.00    -0.131 OA 
HETATM   16  H   UNL     1     -10.228   1.911  66.089  1.00  0.00     0.000 HD 
ENDBRANCH   3   7
BRANCH   6  17
HETATM   17  C   UNL     1      -9.473   9.323  69.929  1.00  0.00    -0.214 A  
HETATM   18  C   UNL     1     -10.726   8.271  72.191  1.00  0.00    -0.319 A  
HETATM   19  C   UNL     1      -9.652   7.602  71.615  1.00  0.00    -0.153 A  
HETATM   20  C   UNL     1      -9.032   8.110  70.479  1.00  0.00    -0.145 A  
HETATM   21  H   UNL     1      -9.643   6.106  72.993  1.00  0.00     0.000 HD 
HETATM   22  C   UNL     1     -11.218   9.437  71.628  1.00  0.00    -0.431 A  
HETATM   23  O   UNL     1     -11.297   7.788  73.333  1.00  0.00    -0.586 OA 
HETATM   24  O   UNL     1      -9.219   6.453  72.217  1.00  0.00    -0.141 OA 
HETATM   25  C   UNL     1     -10.594   9.959  70.494  1.00  0.00    -0.359 A  
HETATM   26  H   UNL     1     -12.030   8.245  73.727  1.00  0.00     0.000 HD 
ENDBRANCH   6  17
TORSDOF 2
ENDMDL
MODEL      152
REMARK 921   NORMALIZED FREE ENERGY PREDICTED BY IDOCK:   -3.68 KCAL/MOL
REMARK 922        TOTAL FREE ENERGY PREDICTED BY IDOCK:   -4.30 KCAL/MOL
REMARK 923 INTER-LIGAND FREE ENERGY PREDICTED BY IDOCK:   -4.50 KCAL/MOL
REMARK 924 INTRA-LIGAND FREE ENERGY PREDICTED BY IDOCK:    0.20 KCAL/MOL
REMARK 927      BINDING AFFINITY PREDICTED BY RF-SCORE:    0.00 PKD
ROOT
HETATM    1  C   UNL     1     -10.507   8.808  67.561  1.00  0.00    -0.340 C  
HETATM    2  C   UNL     1      -9.236   9.674  67.614  1.00  0.00    -0.144 C  
HETATM    3  C   UNL     1      -8.072   8.827  68.202  1.00  0.00    -0.107 C  
HETATM    4  C   UNL     1      -8.864  10.253  66.207  1.00  0.00    -0.161 C  
HETATM    5  C   UNL     1      -7.574  11.092  66.257  1.00  0.00    -0.111 C  
HETATM    6  C   UNL     1      -9.996  11.055  65.500  1.00  0.00    -0.308 C  
ENDROOT
BRANCH   3   7
HETATM    7  C   UNL     1      -8.253   8.384  69.637  1.00  0.00    -0.117 A  
HETATM    8  C   UNL     1      -9.235   7.436  69.971  1.00  0.00    -0.148 A  
HETATM    9  C   UNL     1      -7.400   8.870  70.644  1.00  0.00    -0.080 A  
HETATM   10  C   UNL     1      -9.357   7.006  71.286  1.00  0.00    -0.160 A  
HETATM   11  H   UNL     1      -8.072   7.426  74.240  1.00  0.00     0.000 HD 
HETATM   12  O   UNL     1     -10.287   6.077  71.664  1.00  0.00    -0.203 OA 
HETATM   13  C   UNL     1      -7.535   8.439  71.962  1.00  0.00    -0.135 A  
HETATM   14  C   UNL     1      -8.516   7.511  72.275  1.00  0.00    -0.114 A  
HETATM   15  O   UNL     1      -8.646   7.082  73.565  1.00  0.00    -0.125 OA 
HETATM   16  H   UNL     1     -10.371   5.783  72.564  1.00  0.00     0.000 HD 
ENDBRANCH   3   7
BRANCH   6  17
HETATM   17  C   UNL     1     -10.398  12.348  66.176  1.00  0.00    -0.271 A  
HETATM   18  C   UNL     1     -11.222  14.803  67.219  1.00  0.00    -0.346 A  
HETATM   19  C   UNL     1      -9.901  14.621  66.826  1.00  0.00    -0.255 A  
HETATM   20  C   UNL     1      -9.478  13.397  66.320  1.00  0.00    -0.196 A  
HETATM   21  H   UNL     1      -9.341  16.524  67.277  1.00  0.00     0.000 HD 
HETATM   22  C   UNL     1     -12.132  13.761  67.145  1.00  0.00    -0.416 A  
HETATM   23  O   UNL     1     -11.638  16.022  67.670  1.00  0.00    -0.106 OA 
HETATM   24  O   UNL     1      -9.052  15.688  66.931  1.00  0.00    -0.208 OA 
HETATM   25  C   UNL     1     -11.718  12.532  66.628  1.00  0.00    -0.453 A  
HETATM   26  H   UNL     1     -12.541  16.146  67.939  1.00  0.00     0.000 HD 
ENDBRANCH   6  17
TORSDOF 2
ENDMDL
MODEL      153
REMARK 921   NORMALIZED FREE ENERGY PREDICTED BY IDOCK:   -3.61 KCAL/MOL
REMARK 922        TOTAL FREE ENERGY PREDICTED BY IDOCK:   -4.23 KCAL/MOL
REMARK 923 INTER-LIGAND FREE ENERGY PREDICTED BY IDOCK:   -4.55 KCAL/MOL
REMARK 924 INTRA-LIGAND FREE ENERGY PREDICTED BY IDOCK:    0.32 KCAL/MOL
REMARK 927      BINDING AFFINITY PREDICTED BY RF-SCORE:    0.00 PKD
ROOT
HETATM    1  C   UNL     1     -11.005  16.505  67.691  1.00  0.00    -0.207 C  
HETATM    2  C   UNL     1      -9.768  16.250  66.812  1.00  0.00    -0.253 C  
HETATM    3  C   UNL     1     -10.221  16.109  65.332  1.00  0.00    -0.294 C  
HETATM    4  C   UNL     1      -8.693  17.378  66.973  1.00  0.00    -0.249 C  
HETATM    5  C   UNL     1      -7.471  17.136  66.068  1.00  0.00    -0.178 C  
HETATM    6  C   UNL     1      -8.230  17.648  68.435  1.00  0.00    -0.289 C  
ENDROOT
BRANCH   3   7
HETATM    7  C   UNL     1     -11.112  14.922  65.035  1.00  0.00    -0.422 A  
HETATM    8  C   UNL     1     -10.723  13.961  64.086  1.00  0.00     0.046 A  
HETATM    9  C   UNL     1     -12.309  14.736  65.748  1.00  0.00    -0.011 A  
HETATM   10  C   UNL     1     -11.532  12.854  63.859  1.00  0.00    -0.446 A  
HETATM   11  H   UNL     1     -14.322  11.491  64.809  1.00  0.00     0.000 HD 
HETATM   12  O   UNL     1     -11.196  11.882  62.956  1.00  0.00    -0.665 OA 
HETATM   13  C   UNL     1     -13.117  13.626  65.508  1.00  0.00    -0.162 A  
HETATM   14  C   UNL     1     -12.723  12.693  64.561  1.00  0.00    -0.357 A  
HETATM   15  O   UNL     1     -13.510  11.601  64.329  1.00  0.00    -0.151 OA 
HETATM   16  H   UNL     1     -11.748  11.125  62.800  1.00  0.00     0.000 HD 
ENDBRANCH   3   7
BRANCH   6  17
HETATM   17  C   UNL     1      -7.472  16.519  69.097  1.00  0.00    -0.218 A  
HETATM   18  C   UNL     1      -5.925  14.442  70.141  1.00  0.00    -0.151 A  
HETATM   19  C   UNL     1      -7.076  14.156  69.414  1.00  0.00    -0.049 A  
HETATM   20  C   UNL     1      -7.860  15.185  68.904  1.00  0.00    -0.164 A  
HETATM   21  H   UNL     1      -6.849  12.140  69.550  1.00  0.00     0.000 HD 
HETATM   22  C   UNL     1      -5.557  15.753  70.399  1.00  0.00    -0.142 A  
HETATM   23  O   UNL     1      -5.137  13.425  70.598  1.00  0.00    -0.096 OA 
HETATM   24  O   UNL     1      -7.386  12.842  69.202  1.00  0.00    -0.006 OA 
HETATM   25  C   UNL     1      -6.334  16.790  69.880  1.00  0.00    -0.085 A  
HETATM   26  H   UNL     1      -4.351  13.620  71.094  1.00  0.00     0.000 HD 
ENDBRANCH   6  17
TORSDOF 2
ENDMDL
MODEL      154
REMARK 921   NORMALIZED FREE ENERGY PREDICTED BY IDOCK:   -3.58 KCAL/MOL
REMARK 922        TOTAL FREE ENERGY PREDICTED BY IDOCK:   -4.19 KCAL/MOL
REMARK 923 INTER-LIGAND FREE ENERGY PREDICTED BY IDOCK:   -3.56 KCAL/MOL
REMARK 924 INTRA-LIGAND FREE ENERGY PREDICTED BY IDOCK:   -0.62 KCAL/MOL
REMARK 927      BINDING AFFINITY PREDICTED BY RF-SCORE:    0.00 PKD
ROOT
HETATM    1  C   UNL     1      -8.800   6.660  68.372  1.00  0.00    -0.121 C  
HETATM    2  C   UNL     1      -7.903   7.826  67.923  1.00  0.00    -0.127 C  
HETATM    3  C   UNL     1      -6.428   7.501  68.294  1.00  0.00    -0.049 C  
HETATM    4  C   UNL     1      -8.051   8.123  66.392  1.00  0.00    -0.106 C  
HETATM    5  C   UNL     1      -7.127   9.269  65.939  1.00  0.00    -0.090 C  
HETATM    6  C   UNL     1      -9.507   8.385  65.906  1.00  0.00    -0.169 C  
ENDROOT
BRANCH   3   7
HETATM    7  C   UNL     1      -6.142   7.390  69.776  1.00  0.00    -0.027 A  
HETATM    8  C   UNL     1      -6.569   8.395  70.661  1.00  0.00    -0.037 A  
HETATM    9  C   UNL     1      -5.497   6.252  70.292  1.00  0.00    -0.014 A  
HETATM   10  C   UNL     1      -6.337   8.255  72.023  1.00  0.00    -0.061 A  
HETATM   11  H   UNL     1      -5.012   6.236  74.195  1.00  0.00     0.000 HD 
HETATM   12  O   UNL     1      -6.743   9.197  72.930  1.00  0.00    -0.313 OA 
HETATM   13  C   UNL     1      -5.262   6.124  71.660  1.00  0.00    -0.021 A  
HETATM   14  C   UNL     1      -5.682   7.130  72.516  1.00  0.00    -0.038 A  
HETATM   15  O   UNL     1      -5.459   7.004  73.859  1.00  0.00    -0.049 OA 
HETATM   16  H   UNL     1      -6.584   9.102  73.862  1.00  0.00     0.000 HD 
ENDBRANCH   3   7
BRANCH   6  17
HETATM   17  C   UNL     1     -10.155   9.643  66.442  1.00  0.00    -0.317 A  
HETATM   18  C   UNL     1     -11.140  12.045  67.468  1.00  0.00    -0.275 A  
HETATM   19  C   UNL     1     -11.045  10.925  68.286  1.00  0.00    -0.266 A  
HETATM   20  C   UNL     1     -10.571   9.720  67.779  1.00  0.00    -0.320 A  
HETATM   21  H   UNL     1     -11.732  11.884  69.943  1.00  0.00     0.000 HD 
HETATM   22  C   UNL     1     -10.795  11.975  66.128  1.00  0.00    -0.325 A  
HETATM   23  O   UNL     1     -11.562  13.235  67.987  1.00  0.00    -0.293 OA 
HETATM   24  O   UNL     1     -11.408  11.061  69.598  1.00  0.00    -0.246 OA 
HETATM   25  C   UNL     1     -10.308  10.771  65.615  1.00  0.00    -0.297 A  
HETATM   26  H   UNL     1     -11.627  14.000  67.428  1.00  0.00     0.000 HD 
ENDBRANCH   6  17
TORSDOF 2
ENDMDL
MODEL      155
REMARK 921   NORMALIZED FREE ENERGY PREDICTED BY IDOCK:   -3.57 KCAL/MOL
REMARK 922        TOTAL FREE ENERGY PREDICTED BY IDOCK:   -4.18 KCAL/MOL
REMARK 923 INTER-LIGAND FREE ENERGY PREDICTED BY IDOCK:   -4.08 KCAL/MOL
REMARK 924 INTRA-LIGAND FREE ENERGY PREDICTED BY IDOCK:   -0.11 KCAL/MOL
REMARK 927      BINDING AFFINITY PREDICTED BY RF-SCORE:    0.00 PKD
ROOT
HETATM    1  C   UNL     1      -7.160   6.973  68.639  1.00  0.00    -0.092 C  
HETATM    2  C   UNL     1      -7.689   7.619  67.347  1.00  0.00    -0.117 C  
HETATM    3  C   UNL     1      -7.972   9.125  67.614  1.00  0.00    -0.100 C  
HETATM    4  C   UNL     1      -6.697   7.432  66.149  1.00  0.00    -0.053 C  
HETATM    5  C   UNL     1      -7.214   8.108  64.867  1.00  0.00    -0.081 C  
HETATM    6  C   UNL     1      -6.289   5.959  65.851  1.00  0.00    -0.042 C  
ENDROOT
BRANCH   3   7
HETATM    7  C   UNL     1      -9.065   9.411  68.621  1.00  0.00    -0.132 A  
HETATM    8  C   UNL     1     -10.297   9.941  68.202  1.00  0.00    -0.232 A  
HETATM    9  C   UNL     1      -8.882   9.093  69.978  1.00  0.00    -0.193 A  
HETATM   10  C   UNL     1     -11.305  10.156  69.134  1.00  0.00    -0.143 A  
HETATM   11  H   UNL     1     -11.962   9.860  72.301  1.00  0.00     0.000 HD 
HETATM   12  O   UNL     1     -12.528  10.658  68.779  1.00  0.00    -0.795 OA 
HETATM   13  C   UNL     1      -9.897   9.318  70.907  1.00  0.00    -0.363 A  
HETATM   14  C   UNL     1     -11.102   9.852  70.477  1.00  0.00    -0.332 A  
HETATM   15  O   UNL     1     -12.100  10.068  71.384  1.00  0.00    -0.367 OA 
HETATM   16  H   UNL     1     -13.217  10.805  69.416  1.00  0.00     0.000 HD 
ENDBRANCH   3   7
BRANCH   6  17
HETATM   17  C   UNL     1      -7.405   5.062  65.360  1.00  0.00    -0.072 A  
HETATM   18  C   UNL     1      -9.352   3.231  64.554  1.00  0.00    -0.143 A  
HETATM   19  C   UNL     1      -8.348   3.614  63.671  1.00  0.00    -0.090 A  
HETATM   20  C   UNL     1      -7.384   4.538  64.060  1.00  0.00    -0.058 A  
HETATM   21  H   UNL     1      -8.992   2.405  62.168  1.00  0.00     0.000 HD 
HETATM   22  C   UNL     1      -9.430   3.784  65.821  1.00  0.00    -0.170 A  
HETATM   23  O   UNL     1     -10.266   2.289  64.179  1.00  0.00    -0.317 OA 
HETATM   24  O   UNL     1      -8.333   3.036  62.433  1.00  0.00    -0.072 OA 
HETATM   25  C   UNL     1      -8.459   4.703  66.222  1.00  0.00    -0.113 A  
HETATM   26  H   UNL     1     -10.952   2.027  64.781  1.00  0.00     0.000 HD 
ENDBRANCH   6  17
TORSDOF 2
ENDMDL
MODEL      156
REMARK 921   NORMALIZED FREE ENERGY PREDICTED BY IDOCK:   -3.37 KCAL/MOL
REMARK 922        TOTAL FREE ENERGY PREDICTED BY IDOCK:   -3.96 KCAL/MOL
REMARK 923 INTER-LIGAND FREE ENERGY PREDICTED BY IDOCK:   -3.39 KCAL/MOL
REMARK 924 INTRA-LIGAND FREE ENERGY PREDICTED BY IDOCK:   -0.57 KCAL/MOL
REMARK 927      BINDING AFFINITY PREDICTED BY RF-SCORE:    0.00 PKD
ROOT
HETATM    1  C   UNL     1      -6.328   4.546  70.268  1.00  0.00    -0.030 C  
HETATM    2  C   UNL     1      -7.696   3.881  70.036  1.00  0.00    -0.048 C  
HETATM    3  C   UNL     1      -7.641   3.057  68.718  1.00  0.00    -0.048 C  
HETATM    4  C   UNL     1      -8.125   2.986  71.247  1.00  0.00    -0.067 C  
HETATM    5  C   UNL     1      -9.479   2.296  70.998  1.00  0.00    -0.217 C  
HETATM    6  C   UNL     1      -8.137   3.704  72.630  1.00  0.00    -0.077 C  
ENDROOT
BRANCH   3   7
HETATM    7  C   UNL     1      -7.426   3.865  67.456  1.00  0.00    -0.068 A  
HETATM    8  C   UNL     1      -8.382   4.808  67.044  1.00  0.00    -0.106 A  
HETATM    9  C   UNL     1      -6.240   3.722  66.714  1.00  0.00    -0.028 A  
HETATM   10  C   UNL     1      -8.148   5.573  65.908  1.00  0.00    -0.110 A  
HETATM   11  H   UNL     1      -5.958   6.052  63.558  1.00  0.00     0.000 HD 
HETATM   12  O   UNL     1      -9.039   6.514  65.469  1.00  0.00    -0.367 OA 
HETATM   13  C   UNL     1      -6.018   4.488  65.572  1.00  0.00    -0.023 A  
HETATM   14  C   UNL     1      -6.977   5.408  65.175  1.00  0.00    -0.057 A  
HETATM   15  O   UNL     1      -6.758   6.164  64.059  1.00  0.00    -0.036 OA 
HETATM   16  H   UNL     1      -8.880   7.037  64.692  1.00  0.00     0.000 HD 
ENDBRANCH   3   7
BRANCH   6  17
HETATM   17  C   UNL     1      -9.167   4.801  72.785  1.00  0.00    -0.143 A  
HETATM   18  C   UNL     1     -11.110   6.805  72.845  1.00  0.00    -0.243 A  
HETATM   19  C   UNL     1      -9.764   7.142  72.756  1.00  0.00    -0.158 A  
HETATM   20  C   UNL     1      -8.788   6.151  72.741  1.00  0.00    -0.123 A  
HETATM   21  H   UNL     1     -10.109   9.144  72.668  1.00  0.00     0.000 HD 
HETATM   22  C   UNL     1     -11.503   5.481  72.953  1.00  0.00    -0.327 A  
HETATM   23  O   UNL     1     -12.061   7.784  72.811  1.00  0.00    -0.586 OA 
HETATM   24  O   UNL     1      -9.443   8.468  72.659  1.00  0.00    -0.278 OA 
HETATM   25  C   UNL     1     -10.530   4.480  72.928  1.00  0.00    -0.254 A  
HETATM   26  H   UNL     1     -12.981   7.554  72.872  1.00  0.00     0.000 HD 
ENDBRANCH   6  17
TORSDOF 2
ENDMDL
MODEL      157
REMARK 921   NORMALIZED FREE ENERGY PREDICTED BY IDOCK:   -3.31 KCAL/MOL
REMARK 922        TOTAL FREE ENERGY PREDICTED BY IDOCK:   -3.89 KCAL/MOL
REMARK 923 INTER-LIGAND FREE ENERGY PREDICTED BY IDOCK:   -3.22 KCAL/MOL
REMARK 924 INTRA-LIGAND FREE ENERGY PREDICTED BY IDOCK:   -0.67 KCAL/MOL
REMARK 927      BINDING AFFINITY PREDICTED BY RF-SCORE:    0.00 PKD
ROOT
HETATM    1  C   UNL     1     -10.910   9.637  66.545  1.00  0.00     0.074 C  
HETATM    2  C   UNL     1      -9.742   9.336  67.500  1.00  0.00    -0.201 C  
HETATM    3  C   UNL     1      -9.848  10.270  68.738  1.00  0.00    -0.184 C  
HETATM    4  C   UNL     1      -9.709   7.829  67.927  1.00  0.00    -0.181 C  
HETATM    5  C   UNL     1      -8.559   7.538  68.908  1.00  0.00    -0.129 C  
HETATM    6  C   UNL     1      -9.681   6.808  66.751  1.00  0.00    -0.222 C  
ENDROOT
BRANCH   3   7
HETATM    7  C   UNL     1      -9.692  11.748  68.451  1.00  0.00    -0.197 A  
HETATM    8  C   UNL     1      -8.508  12.240  67.877  1.00  0.00    -0.165 A  
HETATM    9  C   UNL     1     -10.754  12.636  68.700  1.00  0.00    -0.269 A  
HETATM   10  C   UNL     1      -8.399  13.593  67.579  1.00  0.00    -0.188 A  
HETATM   11  H   UNL     1     -10.054  16.384  67.733  1.00  0.00     0.000 HD 
HETATM   12  O   UNL     1      -7.274  14.123  67.008  1.00  0.00    -0.353 OA 
HETATM   13  C   UNL     1     -10.633  13.993  68.404  1.00  0.00    -0.259 A  
HETATM   14  C   UNL     1      -9.453  14.462  67.847  1.00  0.00    -0.214 A  
HETATM   15  O   UNL     1      -9.334  15.791  67.550  1.00  0.00    -0.207 OA 
HETATM   16  H   UNL     1      -7.199  15.048  66.804  1.00  0.00     0.000 HD 
ENDBRANCH   3   7
BRANCH   6  17
HETATM   17  C   UNL     1      -8.429   6.828  65.902  1.00  0.00    -0.146 A  
HETATM   18  C   UNL     1      -6.241   6.762  64.168  1.00  0.00    -0.035 A  
HETATM   19  C   UNL     1      -6.385   5.784  65.147  1.00  0.00    -0.037 A  
HETATM   20  C   UNL     1      -7.463   5.819  66.024  1.00  0.00    -0.082 A  
HETATM   21  H   UNL     1      -4.715   4.763  64.594  1.00  0.00     0.000 HD 
HETATM   22  C   UNL     1      -7.148   7.804  64.071  1.00  0.00    -0.072 A  
HETATM   23  O   UNL     1      -5.205   6.692  63.282  1.00  0.00    -0.025 OA 
HETATM   24  O   UNL     1      -5.451   4.787  65.193  1.00  0.00    -0.013 OA 
HETATM   25  C   UNL     1      -8.239   7.839  64.941  1.00  0.00    -0.111 A  
HETATM   26  H   UNL     1      -5.106   7.361  62.614  1.00  0.00     0.000 HD 
ENDBRANCH   6  17
TORSDOF 2
ENDMDL
MODEL      158
REMARK 921   NORMALIZED FREE ENERGY PREDICTED BY IDOCK:   -3.30 KCAL/MOL
REMARK 922        TOTAL FREE ENERGY PREDICTED BY IDOCK:   -3.88 KCAL/MOL
REMARK 923 INTER-LIGAND FREE ENERGY PREDICTED BY IDOCK:   -3.57 KCAL/MOL
REMARK 924 INTRA-LIGAND FREE ENERGY PREDICTED BY IDOCK:   -0.31 KCAL/MOL
REMARK 927      BINDING AFFINITY PREDICTED BY RF-SCORE:    0.00 PKD
ROOT
HETATM    1  C   UNL     1      -6.216   8.862  68.618  1.00  0.00    -0.046 C  
HETATM    2  C   UNL     1      -7.108   7.646  68.315  1.00  0.00    -0.080 C  
HETATM    3  C   UNL     1      -6.731   7.079  66.917  1.00  0.00    -0.056 C  
HETATM    4  C   UNL     1      -6.993   6.545  69.424  1.00  0.00    -0.071 C  
HETATM    5  C   UNL     1      -7.861   5.315  69.101  1.00  0.00    -0.085 C  
HETATM    6  C   UNL     1      -7.277   7.034  70.875  1.00  0.00    -0.072 C  
ENDROOT
BRANCH   3   7
HETATM    7  C   UNL     1      -6.994   8.005  65.749  1.00  0.00    -0.060 A  
HETATM    8  C   UNL     1      -8.310   8.349  65.397  1.00  0.00    -0.166 A  
HETATM    9  C   UNL     1      -5.923   8.577  65.041  1.00  0.00    -0.052 A  
HETATM   10  C   UNL     1      -8.532   9.236  64.351  1.00  0.00    -0.188 A  
HETATM   11  H   UNL     1      -6.960  11.023  62.141  1.00  0.00     0.000 HD 
HETATM   12  O   UNL     1      -9.792   9.615  63.974  1.00  0.00    -0.425 OA 
HETATM   13  C   UNL     1      -6.156   9.460  63.988  1.00  0.00    -0.091 A  
HETATM   14  C   UNL     1      -7.461   9.781  63.648  1.00  0.00    -0.130 A  
HETATM   15  O   UNL     1      -7.691  10.651  62.620  1.00  0.00    -0.148 OA 
HETATM   16  H   UNL     1      -9.944  10.221  63.258  1.00  0.00     0.000 HD 
ENDBRANCH   3   7
BRANCH   6  17
HETATM   17  C   UNL     1      -8.698   7.478  71.146  1.00  0.00    -0.136 A  
HETATM   18  C   UNL     1     -11.281   8.254  71.868  1.00  0.00    -0.300 A  
HETATM   19  C   UNL     1     -11.048   6.971  71.383  1.00  0.00    -0.245 A  
HETATM   20  C   UNL     1      -9.767   6.582  71.006  1.00  0.00    -0.189 A  
HETATM   21  H   UNL     1     -12.984   6.378  71.574  1.00  0.00     0.000 HD 
HETATM   22  C   UNL     1     -10.250   9.176  71.954  1.00  0.00    -0.221 A  
HETATM   23  O   UNL     1     -12.533   8.610  72.279  1.00  0.00    -0.367 OA 
HETATM   24  O   UNL     1     -12.110   6.112  71.317  1.00  0.00    -0.137 OA 
HETATM   25  C   UNL     1      -8.960   8.788  71.588  1.00  0.00    -0.301 A  
HETATM   26  H   UNL     1     -12.692   9.486  72.610  1.00  0.00     0.000 HD 
ENDBRANCH   6  17
TORSDOF 2
ENDMDL
MODEL      159
REMARK 921   NORMALIZED FREE ENERGY PREDICTED BY IDOCK:   -3.23 KCAL/MOL
REMARK 922        TOTAL FREE ENERGY PREDICTED BY IDOCK:   -3.80 KCAL/MOL
REMARK 923 INTER-LIGAND FREE ENERGY PREDICTED BY IDOCK:   -3.21 KCAL/MOL
REMARK 924 INTRA-LIGAND FREE ENERGY PREDICTED BY IDOCK:   -0.59 KCAL/MOL
REMARK 927      BINDING AFFINITY PREDICTED BY RF-SCORE:    0.00 PKD
ROOT
HETATM    1  C   UNL     1      -7.227   9.355  67.406  1.00  0.00    -0.087 C  
HETATM    2  C   UNL     1      -8.666   8.853  67.189  1.00  0.00    -0.126 C  
HETATM    3  C   UNL     1      -8.687   7.305  67.329  1.00  0.00    -0.121 C  
HETATM    4  C   UNL     1      -9.676   9.527  68.179  1.00  0.00    -0.166 C  
HETATM    5  C   UNL     1     -11.109   8.999  67.982  1.00  0.00     0.161 C  
HETATM    6  C   UNL     1      -9.674  11.084  68.170  1.00  0.00    -0.180 C  
ENDROOT
BRANCH   3   7
HETATM    7  C   UNL     1      -7.893   6.548  66.287  1.00  0.00    -0.105 A  
HETATM    8  C   UNL     1      -7.090   5.457  66.659  1.00  0.00    -0.069 A  
HETATM    9  C   UNL     1      -7.996   6.891  64.927  1.00  0.00    -0.124 A  
HETATM   10  C   UNL     1      -6.402   4.746  65.683  1.00  0.00    -0.035 A  
HETATM   11  H   UNL     1      -5.888   4.650  62.477  1.00  0.00     0.000 HD 
HETATM   12  O   UNL     1      -5.616   3.668  65.988  1.00  0.00    -0.016 OA 
HETATM   13  C   UNL     1      -7.297   6.176  63.956  1.00  0.00    -0.070 A  
HETATM   14  C   UNL     1      -6.501   5.109  64.343  1.00  0.00    -0.038 A  
HETATM   15  O   UNL     1      -5.820   4.402  63.392  1.00  0.00    -0.016 OA 
HETATM   16  H   UNL     1      -5.146   3.181  65.321  1.00  0.00     0.000 HD 
ENDBRANCH   3   7
BRANCH   6  17
HETATM   17  C   UNL     1     -10.153  11.728  66.887  1.00  0.00    -0.231 A  
HETATM   18  C   UNL     1     -10.994  13.120  64.618  1.00  0.00    -0.356 A  
HETATM   19  C   UNL     1     -11.928  12.665  65.542  1.00  0.00    -0.456 A  
HETATM   20  C   UNL     1     -11.519  11.957  66.667  1.00  0.00    -0.382 A  
HETATM   21  H   UNL     1     -13.523  13.444  64.549  1.00  0.00     0.000 HD 
HETATM   22  C   UNL     1      -9.646  12.849  64.782  1.00  0.00     0.247 A  
HETATM   23  O   UNL     1     -11.402  13.854  63.542  1.00  0.00    -0.359 OA 
HETATM   24  O   UNL     1     -13.244  12.961  65.317  1.00  0.00    -0.609 OA 
HETATM   25  C   UNL     1      -9.227  12.149  65.914  1.00  0.00    -0.069 A  
HETATM   26  H   UNL     1     -10.764  14.165  62.910  1.00  0.00     0.000 HD 
ENDBRANCH   6  17
TORSDOF 2
ENDMDL
MODEL      160
REMARK 921   NORMALIZED FREE ENERGY PREDICTED BY IDOCK:   -3.00 KCAL/MOL
REMARK 922        TOTAL FREE ENERGY PREDICTED BY IDOCK:   -3.54 KCAL/MOL
REMARK 923 INTER-LIGAND FREE ENERGY PREDICTED BY IDOCK:   -2.93 KCAL/MOL
REMARK 924 INTRA-LIGAND FREE ENERGY PREDICTED BY IDOCK:   -0.62 KCAL/MOL
REMARK 927      BINDING AFFINITY PREDICTED BY RF-SCORE:    0.00 PKD
ROOT
HETATM    1  C   UNL     1      -6.636   6.346  68.846  1.00  0.00    -0.048 C  
HETATM    2  C   UNL     1      -6.709   7.396  69.969  1.00  0.00    -0.047 C  
HETATM    3  C   UNL     1      -5.995   6.836  71.231  1.00  0.00    -0.036 C  
HETATM    4  C   UNL     1      -6.091   8.767  69.528  1.00  0.00    -0.036 C  
HETATM    5  C   UNL     1      -6.136   9.805  70.664  1.00  0.00    -0.088 C  
HETATM    6  C   UNL     1      -6.688   9.374  68.224  1.00  0.00    -0.059 C  
ENDROOT
BRANCH   3   7
HETATM    7  C   UNL     1      -6.639   5.616  71.853  1.00  0.00    -0.057 A  
HETATM    8  C   UNL     1      -7.950   5.681  72.356  1.00  0.00    -0.103 A  
HETATM    9  C   UNL     1      -5.955   4.388  71.881  1.00  0.00    -0.013 A  
HETATM   10  C   UNL     1      -8.541   4.540  72.882  1.00  0.00    -0.109 A  
HETATM   11  H   UNL     1      -7.961   1.397  73.462  1.00  0.00     0.000 HD 
HETATM   12  O   UNL     1      -9.819   4.544  73.374  1.00  0.00    -0.130 OA 
HETATM   13  C   UNL     1      -6.554   3.250  72.417  1.00  0.00    -0.015 A  
HETATM   14  C   UNL     1      -7.845   3.335  72.918  1.00  0.00    -0.061 A  
HETATM   15  O   UNL     1      -8.436   2.219  73.439  1.00  0.00    -0.064 OA 
HETATM   16  H   UNL     1     -10.223   3.764  73.734  1.00  0.00     0.000 HD 
ENDBRANCH   3   7
BRANCH   6  17
HETATM   17  C   UNL     1      -8.139   9.797  68.308  1.00  0.00    -0.104 A  
HETATM   18  C   UNL     1     -10.832  10.530  68.239  1.00  0.00    -0.248 A  
HETATM   19  C   UNL     1      -9.842  11.503  68.143  1.00  0.00    -0.194 A  
HETATM   20  C   UNL     1      -8.499  11.148  68.193  1.00  0.00    -0.138 A  
HETATM   21  H   UNL     1     -11.156  13.042  67.940  1.00  0.00     0.000 HD 
HETATM   22  C   UNL     1     -10.500   9.198  68.418  1.00  0.00    -0.241 A  
HETATM   23  O   UNL     1     -12.147  10.884  68.142  1.00  0.00    -0.785 OA 
HETATM   24  O   UNL     1     -10.238  12.801  67.974  1.00  0.00    -0.215 OA 
HETATM   25  C   UNL     1      -9.153   8.833  68.458  1.00  0.00    -0.138 A  
HETATM   26  H   UNL     1     -12.823  10.220  68.208  1.00  0.00     0.000 HD 
ENDBRANCH   6  17
TORSDOF 2
ENDMDL
MODEL      161
REMARK 921   NORMALIZED FREE ENERGY PREDICTED BY IDOCK:   -2.99 KCAL/MOL
REMARK 922        TOTAL FREE ENERGY PREDICTED BY IDOCK:   -3.54 KCAL/MOL
REMARK 923 INTER-LIGAND FREE ENERGY PREDICTED BY IDOCK:   -4.01 KCAL/MOL
REMARK 924 INTRA-LIGAND FREE ENERGY PREDICTED BY IDOCK:    0.48 KCAL/MOL
REMARK 927      BINDING AFFINITY PREDICTED BY RF-SCORE:    0.00 PKD
ROOT
HETATM    1  C   UNL     1      -7.435   8.053  68.102  1.00  0.00    -0.101 C  
HETATM    2  C   UNL     1      -8.964   8.180  68.221  1.00  0.00    -0.136 C  
HETATM    3  C   UNL     1      -9.586   6.756  68.281  1.00  0.00    -0.127 C  
HETATM    4  C   UNL     1      -9.385   9.035  69.464  1.00  0.00    -0.160 C  
HETATM    5  C   UNL     1     -10.915   9.133  69.600  1.00  0.00    -0.168 C  
HETATM    6  C   UNL     1      -8.750  10.456  69.537  1.00  0.00    -0.102 C  
ENDROOT
BRANCH   3   7
HETATM    7  C   UNL     1      -9.401   5.915  67.036  1.00  0.00    -0.125 A  
HETATM    8  C   UNL     1      -8.798   6.462  65.891  1.00  0.00    -0.142 A  
HETATM    9  C   UNL     1      -9.777   4.560  67.031  1.00  0.00    -0.227 A  
HETATM   10  C   UNL     1      -8.596   5.663  64.772  1.00  0.00    -0.061 A  
HETATM   11  H   UNL     1      -9.055   2.640  63.676  1.00  0.00     0.000 HD 
HETATM   12  O   UNL     1      -8.002   6.141  63.636  1.00  0.00    -0.109 OA 
HETATM   13  C   UNL     1      -9.577   3.769  65.902  1.00  0.00    -0.166 A  
HETATM   14  C   UNL     1      -8.990   4.328  64.778  1.00  0.00    -0.145 A  
HETATM   15  O   UNL     1      -8.786   3.552  63.672  1.00  0.00    -0.093 OA 
HETATM   16  H   UNL     1      -7.864   5.595  62.871  1.00  0.00     0.000 HD 
ENDBRANCH   3   7
BRANCH   6  17
HETATM   17  C   UNL     1      -9.178  11.416  68.448  1.00  0.00    -0.183 A  
HETATM   18  C   UNL     1     -10.006  13.342  66.605  1.00  0.00    -0.277 A  
HETATM   19  C   UNL     1     -10.897  12.368  67.043  1.00  0.00    -0.246 A  
HETATM   20  C   UNL     1     -10.488  11.396  67.949  1.00  0.00    -0.212 A  
HETATM   21  H   UNL     1     -12.460  13.085  65.956  1.00  0.00     0.000 HD 
HETATM   22  C   UNL     1      -8.690  13.342  67.035  1.00  0.00    -0.195 A  
HETATM   23  O   UNL     1     -10.431  14.320  65.752  1.00  0.00    -0.291 OA 
HETATM   24  O   UNL     1     -12.181  12.421  66.575  1.00  0.00    -0.586 OA 
HETATM   25  C   UNL     1      -8.275  12.375  67.953  1.00  0.00    -0.163 A  
HETATM   26  H   UNL     1      -9.823  14.985  65.452  1.00  0.00     0.000 HD 
ENDBRANCH   6  17
TORSDOF 2
ENDMDL
MODEL      162
REMARK 921   NORMALIZED FREE ENERGY PREDICTED BY IDOCK:   -2.97 KCAL/MOL
REMARK 922        TOTAL FREE ENERGY PREDICTED BY IDOCK:   -3.52 KCAL/MOL
REMARK 923 INTER-LIGAND FREE ENERGY PREDICTED BY IDOCK:   -3.41 KCAL/MOL
REMARK 924 INTRA-LIGAND FREE ENERGY PREDICTED BY IDOCK:   -0.10 KCAL/MOL
REMARK 927      BINDING AFFINITY PREDICTED BY RF-SCORE:    0.00 PKD
ROOT
HETATM    1  C   UNL     1      -9.429  10.376  69.342  1.00  0.00    -0.204 C  
HETATM    2  C   UNL     1      -8.052  10.380  68.656  1.00  0.00    -0.118 C  
HETATM    3  C   UNL     1      -7.499  11.833  68.641  1.00  0.00    -0.120 C  
HETATM    4  C   UNL     1      -7.050   9.397  69.351  1.00  0.00    -0.054 C  
HETATM    5  C   UNL     1      -5.663   9.427  68.682  1.00  0.00    -0.040 C  
HETATM    6  C   UNL     1      -7.547   7.927  69.484  1.00  0.00    -0.099 C  
ENDROOT
BRANCH   3   7
HETATM    7  C   UNL     1      -8.299  12.824  67.824  1.00  0.00    -0.177 A  
HETATM    8  C   UNL     1      -8.222  14.199  68.100  1.00  0.00    -0.149 A  
HETATM    9  C   UNL     1      -9.080  12.385  66.741  1.00  0.00    -0.212 A  
HETATM   10  C   UNL     1      -8.928  15.099  67.311  1.00  0.00    -0.199 A  
HETATM   11  H   UNL     1     -10.936  15.232  64.762  1.00  0.00     0.000 HD 
HETATM   12  O   UNL     1      -8.880  16.450  67.528  1.00  0.00    -0.179 OA 
HETATM   13  C   UNL     1      -9.791  13.294  65.959  1.00  0.00    -0.271 A  
HETATM   14  C   UNL     1      -9.712  14.647  66.253  1.00  0.00    -0.307 A  
HETATM   15  O   UNL     1     -10.402  15.541  65.484  1.00  0.00    -0.336 OA 
HETATM   16  H   UNL     1      -9.363  17.065  66.989  1.00  0.00     0.000 HD 
ENDBRANCH   3   7
BRANCH   6  17
HETATM   17  C   UNL     1      -7.727   7.181  68.180  1.00  0.00    -0.117 A  
HETATM   18  C   UNL     1      -8.102   6.007  65.675  1.00  0.00    -0.126 A  
HETATM   19  C   UNL     1      -9.142   6.027  66.597  1.00  0.00    -0.137 A  
HETATM   20  C   UNL     1      -8.959   6.595  67.853  1.00  0.00    -0.112 A  
HETATM   21  H   UNL     1     -10.467   5.108  65.358  1.00  0.00     0.000 HD 
HETATM   22  C   UNL     1      -6.857   6.521  65.999  1.00  0.00    -0.057 A  
HETATM   23  O   UNL     1      -8.306   5.488  64.429  1.00  0.00    -0.134 OA 
HETATM   24  O   UNL     1     -10.343   5.496  66.216  1.00  0.00    -0.201 OA 
HETATM   25  C   UNL     1      -6.670   7.104  67.254  1.00  0.00    -0.064 A  
HETATM   26  H   UNL     1      -7.595   5.474  63.798  1.00  0.00     0.000 HD 
ENDBRANCH   6  17
TORSDOF 2
ENDMDL
MODEL      163
REMARK 921   NORMALIZED FREE ENERGY PREDICTED BY IDOCK:   -2.88 KCAL/MOL
REMARK 922        TOTAL FREE ENERGY PREDICTED BY IDOCK:   -3.41 KCAL/MOL
REMARK 923 INTER-LIGAND FREE ENERGY PREDICTED BY IDOCK:   -2.82 KCAL/MOL
REMARK 924 INTRA-LIGAND FREE ENERGY PREDICTED BY IDOCK:   -0.58 KCAL/MOL
REMARK 927      BINDING AFFINITY PREDICTED BY RF-SCORE:    0.00 PKD
ROOT
HETATM    1  C   UNL     1      -6.985   6.347  69.071  1.00  0.00    -0.072 C  
HETATM    2  C   UNL     1      -7.149   7.589  69.964  1.00  0.00    -0.060 C  
HETATM    3  C   UNL     1      -7.065   7.154  71.455  1.00  0.00    -0.065 C  
HETATM    4  C   UNL     1      -6.087   8.692  69.633  1.00  0.00    -0.032 C  
HETATM    5  C   UNL     1      -6.233   9.920  70.550  1.00  0.00    -0.101 C  
HETATM    6  C   UNL     1      -6.039   9.140  68.143  1.00  0.00    -0.050 C  
ENDROOT
BRANCH   3   7
HETATM    7  C   UNL     1      -8.172   6.237  71.926  1.00  0.00    -0.110 A  
HETATM    8  C   UNL     1      -7.869   5.062  72.634  1.00  0.00    -0.098 A  
HETATM    9  C   UNL     1      -9.519   6.580  71.714  1.00  0.00    -0.155 A  
HETATM   10  C   UNL     1      -8.899   4.254  73.099  1.00  0.00    -0.099 A  
HETATM   11  H   UNL     1     -12.139   4.032  73.167  1.00  0.00     0.000 HD 
HETATM   12  O   UNL     1      -8.661   3.105  73.804  1.00  0.00    -0.076 OA 
HETATM   13  C   UNL     1     -10.546   5.760  72.177  1.00  0.00    -0.268 A  
HETATM   14  C   UNL     1     -10.227   4.599  72.865  1.00  0.00    -0.179 A  
HETATM   15  O   UNL     1     -11.233   3.796  73.326  1.00  0.00    -0.194 OA 
HETATM   16  H   UNL     1      -9.366   2.552  74.121  1.00  0.00     0.000 HD 
ENDBRANCH   3   7
BRANCH   6  17
HETATM   17  C   UNL     1      -7.272   9.858  67.639  1.00  0.00    -0.089 A  
HETATM   18  C   UNL     1      -9.583  11.252  66.927  1.00  0.00    -0.191 A  
HETATM   19  C   UNL     1      -9.641   9.883  67.166  1.00  0.00    -0.162 A  
HETATM   20  C   UNL     1      -8.492   9.178  67.505  1.00  0.00    -0.116 A  
HETATM   21  H   UNL     1     -11.646   9.754  66.848  1.00  0.00     0.000 HD 
HETATM   22  C   UNL     1      -8.378  11.932  66.990  1.00  0.00    -0.178 A  
HETATM   23  O   UNL     1     -10.725  11.943  66.640  1.00  0.00    -0.236 OA 
HETATM   24  O   UNL     1     -10.861   9.272  67.079  1.00  0.00    -0.186 OA 
HETATM   25  C   UNL     1      -7.222  11.232  67.342  1.00  0.00    -0.110 A  
HETATM   26  H   UNL     1     -10.686  12.878  66.476  1.00  0.00     0.000 HD 
ENDBRANCH   6  17
TORSDOF 2
ENDMDL
MODEL      164
REMARK 921   NORMALIZED FREE ENERGY PREDICTED BY IDOCK:   -2.87 KCAL/MOL
REMARK 922        TOTAL FREE ENERGY PREDICTED BY IDOCK:   -3.40 KCAL/MOL
REMARK 923 INTER-LIGAND FREE ENERGY PREDICTED BY IDOCK:   -3.15 KCAL/MOL
REMARK 924 INTRA-LIGAND FREE ENERGY PREDICTED BY IDOCK:   -0.25 KCAL/MOL
REMARK 927      BINDING AFFINITY PREDICTED BY RF-SCORE:    0.00 PKD
ROOT
HETATM    1  C   UNL     1      -6.834   6.226  69.505  1.00  0.00    -0.065 C  
HETATM    2  C   UNL     1      -7.315   7.612  69.043  1.00  0.00    -0.086 C  
HETATM    3  C   UNL     1      -7.981   8.342  70.243  1.00  0.00    -0.102 C  
HETATM    4  C   UNL     1      -6.148   8.464  68.436  1.00  0.00    -0.046 C  
HETATM    5  C   UNL     1      -6.625   9.863  68.005  1.00  0.00    -0.060 C  
HETATM    6  C   UNL     1      -5.366   7.784  67.274  1.00  0.00    -0.031 C  
ENDROOT
BRANCH   3   7
HETATM    7  C   UNL     1      -9.241   7.696  70.778  1.00  0.00    -0.157 A  
HETATM    8  C   UNL     1      -9.402   7.486  72.157  1.00  0.00    -0.176 A  
HETATM    9  C   UNL     1     -10.289   7.354  69.905  1.00  0.00    -0.222 A  
HETATM   10  C   UNL     1     -10.584   6.932  72.635  1.00  0.00    -0.233 A  
HETATM   11  H   UNL     1     -13.460   5.802  71.638  1.00  0.00     0.000 HD 
HETATM   12  O   UNL     1     -10.798   6.717  73.969  1.00  0.00    -0.472 OA 
HETATM   13  C   UNL     1     -11.468   6.793  70.393  1.00  0.00    -0.419 A  
HETATM   14  C   UNL     1     -11.605   6.583  71.756  1.00  0.00    -0.312 A  
HETATM   15  O   UNL     1     -12.763   6.039  72.237  1.00  0.00    -0.088 OA 
HETATM   16  H   UNL     1     -11.606   6.339  74.296  1.00  0.00     0.000 HD 
ENDBRANCH   3   7
BRANCH   6  17
HETATM   17  C   UNL     1      -6.158   7.551  66.006  1.00  0.00    -0.038 A  
HETATM   18  C   UNL     1      -7.606   6.897  63.710  1.00  0.00    -0.105 A  
HETATM   19  C   UNL     1      -6.240   7.140  63.626  1.00  0.00    -0.044 A  
HETATM   20  C   UNL     1      -5.513   7.482  64.762  1.00  0.00    -0.033 A  
HETATM   21  H   UNL     1      -6.138   6.771  61.629  1.00  0.00     0.000 HD 
HETATM   22  C   UNL     1      -8.275   7.023  64.917  1.00  0.00    -0.076 A  
HETATM   23  O   UNL     1      -8.301   6.516  62.598  1.00  0.00    -0.268 OA 
HETATM   24  O   UNL     1      -5.642   7.005  62.404  1.00  0.00    -0.035 OA 
HETATM   25  C   UNL     1      -7.550   7.355  66.063  1.00  0.00    -0.088 A  
HETATM   26  H   UNL     1      -9.234   6.351  62.656  1.00  0.00     0.000 HD 
ENDBRANCH   6  17
TORSDOF 2
ENDMDL
MODEL      165
REMARK 921   NORMALIZED FREE ENERGY PREDICTED BY IDOCK:   -2.73 KCAL/MOL
REMARK 922        TOTAL FREE ENERGY PREDICTED BY IDOCK:   -3.24 KCAL/MOL
REMARK 923 INTER-LIGAND FREE ENERGY PREDICTED BY IDOCK:   -3.69 KCAL/MOL
REMARK 924 INTRA-LIGAND FREE ENERGY PREDICTED BY IDOCK:    0.45 KCAL/MOL
REMARK 927      BINDING AFFINITY PREDICTED BY RF-SCORE:    0.00 PKD
ROOT
HETATM    1  C   UNL     1      -8.371   6.866  67.970  1.00  0.00    -0.121 C  
HETATM    2  C   UNL     1      -7.849   8.259  68.363  1.00  0.00    -0.118 C  
HETATM    3  C   UNL     1      -7.548   8.274  69.888  1.00  0.00    -0.080 C  
HETATM    4  C   UNL     1      -6.586   8.667  67.530  1.00  0.00    -0.058 C  
HETATM    5  C   UNL     1      -6.046  10.047  67.949  1.00  0.00    -0.053 C  
HETATM    6  C   UNL     1      -6.764   8.608  65.984  1.00  0.00    -0.061 C  
ENDROOT
BRANCH   3   7
HETATM    7  C   UNL     1      -8.749   8.085  70.789  1.00  0.00    -0.139 A  
HETATM    8  C   UNL     1      -8.586   7.993  72.181  1.00  0.00    -0.206 A  
HETATM    9  C   UNL     1     -10.046   8.059  70.247  1.00  0.00    -0.192 A  
HETATM   10  C   UNL     1      -9.704   7.865  72.997  1.00  0.00    -0.283 A  
HETATM   11  H   UNL     1     -12.944   7.668  72.877  1.00  0.00     0.000 HD 
HETATM   12  O   UNL     1      -9.604   7.784  74.359  1.00  0.00    -0.267 OA 
HETATM   13  C   UNL     1     -11.161   7.922  71.072  1.00  0.00    -0.268 A  
HETATM   14  C   UNL     1     -10.981   7.823  72.443  1.00  0.00    -0.311 A  
HETATM   15  O   UNL     1     -12.072   7.696  73.255  1.00  0.00     0.177 OA 
HETATM   16  H   UNL     1     -10.368   7.696  74.917  1.00  0.00     0.000 HD 
ENDBRANCH   3   7
BRANCH   6  17
HETATM   17  C   UNL     1      -7.746   9.603  65.404  1.00  0.00    -0.117 A  
HETATM   18  C   UNL     1      -9.727  11.311  64.429  1.00  0.00    -0.254 A  
HETATM   19  C   UNL     1      -9.193  10.323  63.608  1.00  0.00    -0.280 A  
HETATM   20  C   UNL     1      -8.195   9.478  64.081  1.00  0.00    -0.159 A  
HETATM   21  H   UNL     1     -10.381  10.778  62.022  1.00  0.00     0.000 HD 
HETATM   22  C   UNL     1      -9.254  11.493  65.717  1.00  0.00    -0.210 A  
HETATM   23  O   UNL     1     -10.739  12.104  63.970  1.00  0.00    -0.315 OA 
HETATM   24  O   UNL     1      -9.699  10.201  62.344  1.00  0.00    -0.222 OA 
HETATM   25  C   UNL     1      -8.260  10.642  66.203  1.00  0.00    -0.156 A  
HETATM   26  H   UNL     1     -11.103  12.780  64.530  1.00  0.00     0.000 HD 
ENDBRANCH   6  17
TORSDOF 2
ENDMDL
MODEL      166
REMARK 921   NORMALIZED FREE ENERGY PREDICTED BY IDOCK:   -2.67 KCAL/MOL
REMARK 922        TOTAL FREE ENERGY PREDICTED BY IDOCK:   -3.17 KCAL/MOL
REMARK 923 INTER-LIGAND FREE ENERGY PREDICTED BY IDOCK:   -3.15 KCAL/MOL
REMARK 924 INTRA-LIGAND FREE ENERGY PREDICTED BY IDOCK:   -0.02 KCAL/MOL
REMARK 927      BINDING AFFINITY PREDICTED BY RF-SCORE:    0.00 PKD
ROOT
HETATM    1  C   UNL     1     -11.621  13.727  70.596  1.00  0.00    -0.013 C  
HETATM    2  C   UNL     1     -11.539  13.741  69.059  1.00  0.00    -0.356 C  
HETATM    3  C   UNL     1     -12.392  12.568  68.498  1.00  0.00     0.307 C  
HETATM    4  C   UNL     1     -11.998  15.114  68.461  1.00  0.00    -0.243 C  
HETATM    5  C   UNL     1     -11.947  15.113  66.922  1.00  0.00     0.109 C  
HETATM    6  C   UNL     1     -11.254  16.362  69.021  1.00  0.00    -0.291 C  
ENDROOT
BRANCH   3   7
HETATM    7  C   UNL     1     -11.907  11.181  68.861  1.00  0.00    -0.406 A  
HETATM    8  C   UNL     1     -11.097  10.455  67.972  1.00  0.00    -0.359 A  
HETATM    9  C   UNL     1     -12.212  10.628  70.117  1.00  0.00    -0.398 A  
HETATM   10  C   UNL     1     -10.624   9.202  68.340  1.00  0.00    -0.172 A  
HETATM   11  H   UNL     1     -10.700   7.058  70.779  1.00  0.00     0.000 HD 
HETATM   12  O   UNL     1      -9.822   8.457  67.518  1.00  0.00    -0.159 OA 
HETATM   13  C   UNL     1     -11.739   9.367  70.475  1.00  0.00    -0.254 A  
HETATM   14  C   UNL     1     -10.949   8.661  69.580  1.00  0.00    -0.091 A  
HETATM   15  O   UNL     1     -10.479   7.427  69.932  1.00  0.00    -0.219 OA 
HETATM   16  H   UNL     1      -9.499   7.600  67.769  1.00  0.00     0.000 HD 
ENDBRANCH   3   7
BRANCH   6  17
HETATM   17  C   UNL     1      -9.782  16.449  68.680  1.00  0.00    -0.239 A  
HETATM   18  C   UNL     1      -7.067  16.380  68.034  1.00  0.00    -0.136 A  
HETATM   19  C   UNL     1      -7.465  16.462  69.364  1.00  0.00    -0.122 A  
HETATM   20  C   UNL     1      -8.815  16.513  69.694  1.00  0.00     0.451 A  
HETATM   21  H   UNL     1      -5.568  16.430  70.097  1.00  0.00     0.000 HD 
HETATM   22  C   UNL     1      -8.003  16.380  67.014  1.00  0.00    -0.240 A  
HETATM   23  O   UNL     1      -5.741  16.283  67.724  1.00  0.00    -0.118 OA 
HETATM   24  O   UNL     1      -6.489  16.465  70.322  1.00  0.00     0.023 OA 
HETATM   25  C   UNL     1      -9.361  16.420  67.338  1.00  0.00    -0.223 A  
HETATM   26  H   UNL     1      -5.469  16.227  66.816  1.00  0.00     0.000 HD 
ENDBRANCH   6  17
TORSDOF 2
ENDMDL
MODEL      167
REMARK 921   NORMALIZED FREE ENERGY PREDICTED BY IDOCK:   -1.74 KCAL/MOL
REMARK 922        TOTAL FREE ENERGY PREDICTED BY IDOCK:   -2.13 KCAL/MOL
REMARK 923 INTER-LIGAND FREE ENERGY PREDICTED BY IDOCK:   -2.92 KCAL/MOL
REMARK 924 INTRA-LIGAND FREE ENERGY PREDICTED BY IDOCK:    0.79 KCAL/MOL
REMARK 927      BINDING AFFINITY PREDICTED BY RF-SCORE:    0.00 PKD
ROOT
HETATM    1  C   UNL     1     -12.121  17.015  69.087  1.00  0.00     1.976 C  
HETATM    2  C   UNL     1     -11.033  16.201  68.365  1.00  0.00    -0.341 C  
HETATM    3  C   UNL     1     -11.602  14.797  68.014  1.00  0.00    -0.367 C  
HETATM    4  C   UNL     1     -10.505  16.935  67.087  1.00  0.00    -0.296 C  
HETATM    5  C   UNL     1      -9.440  16.104  66.348  1.00  0.00    -0.323 C  
HETATM    6  C   UNL     1      -9.983  18.384  67.323  1.00  0.00    -0.347 C  
ENDROOT
BRANCH   3   7
HETATM    7  C   UNL     1     -11.961  13.927  69.199  1.00  0.00    -0.404 A  
HETATM    8  C   UNL     1     -11.994  14.469  70.495  1.00  0.00    -0.387 A  
HETATM    9  C   UNL     1     -12.322  12.581  69.010  1.00  0.00     0.167 A  
HETATM   10  C   UNL     1     -12.369  13.667  71.566  1.00  0.00    -0.148 A  
HETATM   11  H   UNL     1     -13.304  10.641  72.286  1.00  0.00     0.000 HD 
HETATM   12  O   UNL     1     -12.431  14.146  72.847  1.00  0.00    -0.179 OA 
HETATM   13  C   UNL     1     -12.689  11.782  70.091  1.00  0.00     0.068 A  
HETATM   14  C   UNL     1     -12.707  12.331  71.364  1.00  0.00    -0.248 A  
HETATM   15  O   UNL     1     -13.073  11.552  72.425  1.00  0.00    -0.208 OA 
HETATM   16  H   UNL     1     -12.687  13.597  73.579  1.00  0.00     0.000 HD 
ENDBRANCH   3   7
BRANCH   6  17
HETATM   17  C   UNL     1      -8.739  18.496  68.177  1.00  0.00    -0.330 A  
HETATM   18  C   UNL     1      -6.332  18.771  69.564  1.00  0.00    -0.256 A  
HETATM   19  C   UNL     1      -6.734  17.520  69.107  1.00  0.00    -0.243 A  
HETATM   20  C   UNL     1      -7.939  17.372  68.430  1.00  0.00    -0.259 A  
HETATM   21  H   UNL     1      -5.074  16.564  69.788  1.00  0.00     0.000 HD 
HETATM   22  C   UNL     1      -7.137  19.884  69.382  1.00  0.00    -0.254 A  
HETATM   23  O   UNL     1      -5.125  18.913  70.187  1.00  0.00    -0.184 OA 
HETATM   24  O   UNL     1      -5.897  16.462  69.326  1.00  0.00    -0.132 OA 
HETATM   25  C   UNL     1      -8.343  19.744  68.693  1.00  0.00    -0.229 A  
HETATM   26  H   UNL     1      -4.851  19.767  70.499  1.00  0.00     0.000 HD 
ENDBRANCH   6  17
TORSDOF 2
ENDMDL
MODEL      168
REMARK 921   NORMALIZED FREE ENERGY PREDICTED BY IDOCK:   -1.23 KCAL/MOL
REMARK 922        TOTAL FREE ENERGY PREDICTED BY IDOCK:   -1.57 KCAL/MOL
REMARK 923 INTER-LIGAND FREE ENERGY PREDICTED BY IDOCK:   -1.18 KCAL/MOL
REMARK 924 INTRA-LIGAND FREE ENERGY PREDICTED BY IDOCK:   -0.39 KCAL/MOL
REMARK 927      BINDING AFFINITY PREDICTED BY RF-SCORE:    0.00 PKD
ROOT
HETATM    1  C   UNL     1      -6.247  14.620  67.047  1.00  0.00     1.012 C  
HETATM    2  C   UNL     1      -7.388  13.699  67.514  1.00  0.00    -0.178 C  
HETATM    3  C   UNL     1      -8.733  14.233  66.946  1.00  0.00    -0.202 C  
HETATM    4  C   UNL     1      -7.145  12.209  67.095  1.00  0.00    -0.120 C  
HETATM    5  C   UNL     1      -8.303  11.295  67.535  1.00  0.00    -0.131 C  
HETATM    6  C   UNL     1      -5.784  11.606  67.552  1.00  0.00    -0.071 C  
ENDROOT
BRANCH   3   7
HETATM    7  C   UNL     1      -9.156  15.595  67.451  1.00  0.00    -0.203 A  
HETATM    8  C   UNL     1      -9.956  16.432  66.655  1.00  0.00    -0.281 A  
HETATM    9  C   UNL     1      -8.802  16.015  68.745  1.00  0.00    -0.227 A  
HETATM   10  C   UNL     1     -10.373  17.660  67.152  1.00  0.00    -0.343 A  
HETATM   11  H   UNL     1     -10.160  19.558  69.780  1.00  0.00     0.000 HD 
HETATM   12  O   UNL     1     -11.163  18.509  66.425  1.00  0.00     0.289 OA 
HETATM   13  C   UNL     1      -9.218  17.252  69.233  1.00  0.00     0.120 A  
HETATM   14  C   UNL     1     -10.000  18.069  68.430  1.00  0.00    -0.378 A  
HETATM   15  O   UNL     1     -10.414  19.280  68.908  1.00  0.00    -0.188 OA 
HETATM   16  H   UNL     1     -11.448  19.349  66.765  1.00  0.00     0.000 HD 
ENDBRANCH   3   7
BRANCH   6  17
HETATM   17  C   UNL     1      -5.611  11.450  69.047  1.00  0.00    -0.039 A  
HETATM   18  C   UNL     1      -5.515  11.111  71.817  1.00  0.00     0.321 A  
HETATM   19  C   UNL     1      -5.644  12.385  71.275  1.00  0.00     0.082 A  
HETATM   20  C   UNL     1      -5.676  12.564  69.896  1.00  0.00    -0.124 A  
HETATM   21  H   UNL     1      -5.739  13.314  73.081  1.00  0.00     0.000 HD 
HETATM   22  C   UNL     1      -5.385  10.002  70.996  1.00  0.00    -0.072 A  
HETATM   23  O   UNL     1      -5.532  10.942  73.171  1.00  0.00    -0.006 OA 
HETATM   24  O   UNL     1      -5.761  13.437  72.140  1.00  0.00    -0.409 OA 
HETATM   25  C   UNL     1      -5.427  10.174  69.612  1.00  0.00    -0.038 A  
HETATM   26  H   UNL     1      -5.444  10.071  73.542  1.00  0.00     0.000 HD 
ENDBRANCH   6  17
TORSDOF 2
ENDMDL
MODEL      169
REMARK 921   NORMALIZED FREE ENERGY PREDICTED BY IDOCK:   -1.11 KCAL/MOL
REMARK 922        TOTAL FREE ENERGY PREDICTED BY IDOCK:   -1.43 KCAL/MOL
REMARK 923 INTER-LIGAND FREE ENERGY PREDICTED BY IDOCK:   -2.06 KCAL/MOL
REMARK 924 INTRA-LIGAND FREE ENERGY PREDICTED BY IDOCK:    0.63 KCAL/MOL
REMARK 927      BINDING AFFINITY PREDICTED BY RF-SCORE:    0.00 PKD
ROOT
HETATM    1  C   UNL     1      -6.537  17.236  69.412  1.00  0.00    -0.218 C  
HETATM    2  C   UNL     1      -7.032  16.247  68.342  1.00  0.00    -0.135 C  
HETATM    3  C   UNL     1      -6.106  16.345  67.097  1.00  0.00    -0.182 C  
HETATM    4  C   UNL     1      -7.098  14.780  68.887  1.00  0.00    -0.118 C  
HETATM    5  C   UNL     1      -7.563  13.788  67.805  1.00  0.00    -0.173 C  
HETATM    6  C   UNL     1      -7.942  14.592  70.182  1.00  0.00     0.699 C  
ENDROOT
BRANCH   3   7
HETATM    7  C   UNL     1      -6.124  17.676  66.377  1.00  0.00    -0.250 A  
HETATM    8  C   UNL     1      -6.798  18.776  66.933  1.00  0.00    -0.211 A  
HETATM    9  C   UNL     1      -5.416  17.843  65.174  1.00  0.00     0.042 A  
HETATM   10  C   UNL     1      -6.767  20.002  66.281  1.00  0.00    -0.222 A  
HETATM   11  H   UNL     1      -5.580  21.456  63.630  1.00  0.00     0.000 HD 
HETATM   12  O   UNL     1      -7.395  21.109  66.784  1.00  0.00    -0.610 OA 
HETATM   13  C   UNL     1      -5.396  19.075  64.523  1.00  0.00    -0.264 A  
HETATM   14  C   UNL     1      -6.076  20.147  65.081  1.00  0.00    -0.238 A  
HETATM   15  O   UNL     1      -6.052  21.358  64.449  1.00  0.00    -0.192 OA 
HETATM   16  H   UNL     1      -7.374  21.948  66.338  1.00  0.00     0.000 HD 
ENDBRANCH   3   7
BRANCH   6  17
HETATM   17  C   UNL     1      -9.427  14.845  70.034  1.00  0.00     0.369 A  
HETATM   18  C   UNL     1     -12.201  15.113  69.875  1.00  0.00    -0.314 A  
HETATM   19  C   UNL     1     -11.491  14.579  68.805  1.00  0.00    -0.294 A  
HETATM   20  C   UNL     1     -10.107  14.457  68.870  1.00  0.00    -0.202 A  
HETATM   21  H   UNL     1     -13.144  14.246  67.670  1.00  0.00     0.000 HD 
HETATM   22  C   UNL     1     -11.544  15.561  71.008  1.00  0.00    -0.424 A  
HETATM   23  O   UNL     1     -13.563  15.185  69.819  1.00  0.00     0.160 OA 
HETATM   24  O   UNL     1     -12.200  14.162  67.713  1.00  0.00    -0.334 OA 
HETATM   25  C   UNL     1     -10.156  15.431  71.085  1.00  0.00     1.048 A  
HETATM   26  H   UNL     1     -14.049  15.550  70.550  1.00  0.00     0.000 HD 
ENDBRANCH   6  17
TORSDOF 2
ENDMDL
MODEL      170
REMARK 921   NORMALIZED FREE ENERGY PREDICTED BY IDOCK:   -0.82 KCAL/MOL
REMARK 922        TOTAL FREE ENERGY PREDICTED BY IDOCK:   -1.11 KCAL/MOL
REMARK 923 INTER-LIGAND FREE ENERGY PREDICTED BY IDOCK:   -1.58 KCAL/MOL
REMARK 924 INTRA-LIGAND FREE ENERGY PREDICTED BY IDOCK:    0.47 KCAL/MOL
REMARK 927      BINDING AFFINITY PREDICTED BY RF-SCORE:    0.00 PKD
ROOT
HETATM    1  C   UNL     1     -10.404  15.755  68.796  1.00  0.00    -0.220 C  
HETATM    2  C   UNL     1      -8.922  15.454  68.511  1.00  0.00    -0.192 C  
HETATM    3  C   UNL     1      -8.098  16.760  68.690  1.00  0.00    -0.251 C  
HETATM    4  C   UNL     1      -8.373  14.305  69.423  1.00  0.00     0.329 C  
HETATM    5  C   UNL     1      -6.882  14.028  69.158  1.00  0.00    -0.112 C  
HETATM    6  C   UNL     1      -9.181  12.975  69.373  1.00  0.00     1.195 C  
ENDROOT
BRANCH   3   7
HETATM    7  C   UNL     1      -8.422  17.871  67.715  1.00  0.00    -0.242 A  
HETATM    8  C   UNL     1      -9.484  17.731  66.805  1.00  0.00    -0.289 A  
HETATM    9  C   UNL     1      -7.703  19.078  67.749  1.00  0.00    -0.273 A  
HETATM   10  C   UNL     1      -9.796  18.779  65.948  1.00  0.00    -0.041 A  
HETATM   11  H   UNL     1      -8.878  21.793  65.157  1.00  0.00     0.000 HD 
HETATM   12  O   UNL     1     -10.827  18.702  65.051  1.00  0.00    -0.546 OA 
HETATM   13  C   UNL     1      -8.018  20.121  66.880  1.00  0.00    -0.356 A  
HETATM   14  C   UNL     1      -9.063  19.962  65.982  1.00  0.00    -0.256 A  
HETATM   15  O   UNL     1      -9.379  20.986  65.134  1.00  0.00     1.146 OA 
HETATM   16  H   UNL     1     -11.041  19.419  64.465  1.00  0.00     0.000 HD 
ENDBRANCH   3   7
BRANCH   6  17
HETATM   17  C   UNL     1      -9.150  12.244  68.048  1.00  0.00    -0.191 A  
HETATM   18  C   UNL     1      -9.100  10.698  65.724  1.00  0.00    -0.186 A  
HETATM   19  C   UNL     1      -7.915  11.192  66.258  1.00  0.00    -0.125 A  
HETATM   20  C   UNL     1      -7.932  11.976  67.407  1.00  0.00    -0.165 A  
HETATM   21  H   UNL     1      -6.734  10.323  64.848  1.00  0.00     0.000 HD 
HETATM   22  C   UNL     1     -10.320  11.005  66.304  1.00  0.00    -0.304 A  
HETATM   23  O   UNL     1      -9.067   9.892  64.623  1.00  0.00    -0.207 OA 
HETATM   24  O   UNL     1      -6.746  10.858  65.633  1.00  0.00    -0.072 OA 
HETATM   25  C   UNL     1     -10.344  11.782  67.464  1.00  0.00    -0.217 A  
HETATM   26  H   UNL     1      -9.877   9.555  64.258  1.00  0.00     0.000 HD 
ENDBRANCH   6  17
TORSDOF 2
ENDMDL
MODEL      171
REMARK 921   NORMALIZED FREE ENERGY PREDICTED BY IDOCK:    0.52 KCAL/MOL
REMARK 922        TOTAL FREE ENERGY PREDICTED BY IDOCK:    0.39 KCAL/MOL
REMARK 923 INTER-LIGAND FREE ENERGY PREDICTED BY IDOCK:    0.19 KCAL/MOL
REMARK 924 INTRA-LIGAND FREE ENERGY PREDICTED BY IDOCK:    0.20 KCAL/MOL
REMARK 927      BINDING AFFINITY PREDICTED BY RF-SCORE:    0.00 PKD
ROOT
HETATM    1  C   UNL     1     -11.643  17.263  68.750  1.00  0.00     1.001 C  
HETATM    2  C   UNL     1     -10.444  16.364  69.098  1.00  0.00    -0.303 C  
HETATM    3  C   UNL     1      -9.206  17.261  69.382  1.00  0.00     0.275 C  
HETATM    4  C   UNL     1     -10.752  15.421  70.310  1.00  0.00    -0.320 C  
HETATM    5  C   UNL     1      -9.539  14.546  70.677  1.00  0.00     1.997 C  
HETATM    6  C   UNL     1     -12.023  14.534  70.154  1.00  0.00    -0.377 C  
ENDROOT
BRANCH   3   7
HETATM    7  C   UNL     1      -8.706  18.069  68.205  1.00  0.00    -0.277 A  
HETATM    8  C   UNL     1      -7.518  17.708  67.547  1.00  0.00    -0.206 A  
HETATM    9  C   UNL     1      -9.456  19.155  67.718  1.00  0.00    -0.362 A  
HETATM   10  C   UNL     1      -7.098  18.434  66.440  1.00  0.00    -0.239 A  
HETATM   11  H   UNL     1      -7.928  20.963  64.578  1.00  0.00     0.000 HD 
HETATM   12  O   UNL     1      -5.956  18.119  65.754  1.00  0.00    -0.190 OA 
HETATM   13  C   UNL     1      -9.022  19.882  66.611  1.00  0.00    -0.452 A  
HETATM   14  C   UNL     1      -7.843  19.517  65.981  1.00  0.00    -0.308 A  
HETATM   15  O   UNL     1      -7.419  20.224  64.891  1.00  0.00    -0.141 OA 
HETATM   16  H   UNL     1      -5.668  18.616  64.997  1.00  0.00     0.000 HD 
ENDBRANCH   3   7
BRANCH   6  17
HETATM   17  C   UNL     1     -11.955  13.486  69.065  1.00  0.00    -0.376 A  
HETATM   18  C   UNL     1     -11.652  11.459  67.169  1.00  0.00    -0.098 A  
HETATM   19  C   UNL     1     -11.094  12.713  66.944  1.00  0.00    -0.273 A  
HETATM   20  C   UNL     1     -11.254  13.733  67.875  1.00  0.00    -0.299 A  
HETATM   21  H   UNL     1     -10.261  12.196  65.162  1.00  0.00     0.000 HD 
HETATM   22  C   UNL     1     -12.403  11.212  68.306  1.00  0.00     0.568 A  
HETATM   23  O   UNL     1     -11.450  10.452  66.270  1.00  0.00     0.315 OA 
HETATM   24  O   UNL     1     -10.370  12.892  65.798  1.00  0.00    -0.274 OA 
HETATM   25  C   UNL     1     -12.558  12.228  69.251  1.00  0.00     0.530 A  
HETATM   26  H   UNL     1     -11.831   9.596  66.423  1.00  0.00     0.000 HD 
ENDBRANCH   6  17
TORSDOF 2
ENDMDL
MODEL      172
REMARK 921   NORMALIZED FREE ENERGY PREDICTED BY IDOCK:   11.64 KCAL/MOL
REMARK 922        TOTAL FREE ENERGY PREDICTED BY IDOCK:   12.81 KCAL/MOL
REMARK 923 INTER-LIGAND FREE ENERGY PREDICTED BY IDOCK:   12.08 KCAL/MOL
REMARK 924 INTRA-LIGAND FREE ENERGY PREDICTED BY IDOCK:    0.74 KCAL/MOL
REMARK 927      BINDING AFFINITY PREDICTED BY RF-SCORE:    0.00 PKD
ROOT
HETATM    1  C   UNL     1      -8.924  16.551  68.913  1.00  0.00    -0.245 C  
HETATM    2  C   UNL     1      -9.743  15.250  68.989  1.00  0.00    -0.234 C  
HETATM    3  C   UNL     1      -9.594  14.480  67.646  1.00  0.00    -0.214 C  
HETATM    4  C   UNL     1      -9.314  14.360  70.204  1.00  0.00     1.331 C  
HETATM    5  C   UNL     1     -10.112  13.044  70.259  1.00  0.00     3.165 C  
HETATM    6  C   UNL     1      -9.355  15.068  71.591  1.00  0.00     3.892 C  
ENDROOT
BRANCH   3   7
HETATM    7  C   UNL     1     -10.162  15.180  66.430  1.00  0.00    -0.291 A  
HETATM    8  C   UNL     1     -10.298  16.578  66.413  1.00  0.00    -0.316 A  
HETATM    9  C   UNL     1     -10.505  14.444  65.283  1.00  0.00    -0.410 A  
HETATM   10  C   UNL     1     -10.780  17.208  65.272  1.00  0.00    -0.056 A  
HETATM   11  H   UNL     1     -11.844  16.585  62.267  1.00  0.00     0.000 HD 
HETATM   12  O   UNL     1     -10.920  18.567  65.197  1.00  0.00    -0.571 OA 
HETATM   13  C   UNL     1     -10.994  15.084  64.145  1.00  0.00     0.438 A  
HETATM   14  C   UNL     1     -11.131  16.464  64.150  1.00  0.00     0.558 A  
HETATM   15  O   UNL     1     -11.604  17.094  63.034  1.00  0.00     3.928 OA 
HETATM   16  H   UNL     1     -11.250  18.998  64.416  1.00  0.00     0.000 HD 
ENDBRANCH   3   7
BRANCH   6  17
HETATM   17  C   UNL     1     -10.731  15.466  72.078  1.00  0.00     0.609 A  
HETATM   18  C   UNL     1     -13.211  16.117  73.183  1.00  0.00    -0.427 A  
HETATM   19  C   UNL     1     -13.060  14.944  72.451  1.00  0.00    -0.366 A  
HETATM   20  C   UNL     1     -11.833  14.620  71.884  1.00  0.00    -0.268 A  
HETATM   21  H   UNL     1     -14.984  14.342  72.723  1.00  0.00     0.000 HD 
HETATM   22  C   UNL     1     -12.153  16.999  73.333  1.00  0.00     0.095 A  
HETATM   23  O   UNL     1     -14.408  16.402  73.774  1.00  0.00    -0.153 OA 
HETATM   24  O   UNL     1     -14.146  14.121  72.335  1.00  0.00    -0.524 OA 
HETATM   25  C   UNL     1     -10.915  16.675  72.775  1.00  0.00     2.131 A  
HETATM   26  H   UNL     1     -14.511  17.203  74.274  1.00  0.00     0.000 HD 
ENDBRANCH   6  17
TORSDOF 2
ENDMDL
MODEL      173
REMARK 921   NORMALIZED FREE ENERGY PREDICTED BY IDOCK:   14.15 KCAL/MOL
REMARK 922        TOTAL FREE ENERGY PREDICTED BY IDOCK:   15.61 KCAL/MOL
REMARK 923 INTER-LIGAND FREE ENERGY PREDICTED BY IDOCK:   15.75 KCAL/MOL
REMARK 924 INTRA-LIGAND FREE ENERGY PREDICTED BY IDOCK:   -0.15 KCAL/MOL
REMARK 927      BINDING AFFINITY PREDICTED BY RF-SCORE:    0.00 PKD
ROOT
HETATM    1  C   UNL     1      -7.142   8.504  68.316  1.00  0.00    -0.085 C  
HETATM    2  C   UNL     1      -8.426   7.985  68.986  1.00  0.00    -0.130 C  
HETATM    3  C   UNL     1      -9.600   8.944  68.638  1.00  0.00    -0.158 C  
HETATM    4  C   UNL     1      -8.752   6.512  68.565  1.00  0.00    -0.122 C  
HETATM    5  C   UNL     1     -10.056   6.008  69.211  1.00  0.00    -0.235 C  
HETATM    6  C   UNL     1      -7.605   5.486  68.802  1.00  0.00    -0.083 C  
ENDROOT
BRANCH   3   7
HETATM    7  C   UNL     1      -9.468  10.352  69.177  1.00  0.00    -0.220 A  
HETATM    8  C   UNL     1     -10.023  11.436  68.476  1.00  0.00    -0.203 A  
HETATM    9  C   UNL     1      -8.843  10.585  70.414  1.00  0.00     1.205 A  
HETATM   10  C   UNL     1      -9.932  12.717  69.007  1.00  0.00     0.240 A  
HETATM   11  H   UNL     1      -8.776  14.343  71.569  1.00  0.00     0.000 HD 
HETATM   12  O   UNL     1     -10.465  13.807  68.373  1.00  0.00    -0.240 OA 
HETATM   13  C   UNL     1      -8.750  11.874  70.936  1.00  0.00     8.557 A  
HETATM   14  C   UNL     1      -9.294  12.933  70.225  1.00  0.00     4.698 A  
HETATM   15  O   UNL     1      -9.211  14.196  70.738  1.00  0.00     2.872 OA 
HETATM   16  H   UNL     1     -10.403  14.682  68.736  1.00  0.00     0.000 HD 
ENDBRANCH   3   7
BRANCH   6  17
HETATM   17  C   UNL     1      -7.249   5.232  70.251  1.00  0.00    -0.062 A  
HETATM   18  C   UNL     1      -6.388   4.864  72.881  1.00  0.00    -0.042 A  
HETATM   19  C   UNL     1      -6.276   3.828  71.960  1.00  0.00    -0.014 A  
HETATM   20  C   UNL     1      -6.716   3.998  70.652  1.00  0.00    -0.032 A  
HETATM   21  H   UNL     1      -5.397   2.547  73.272  1.00  0.00     0.000 HD 
HETATM   22  C   UNL     1      -6.970   6.069  72.524  1.00  0.00    -0.079 A  
HETATM   23  O   UNL     1      -5.910   4.703  74.150  1.00  0.00    -0.023 OA 
HETATM   24  O   UNL     1      -5.698   2.662  72.379  1.00  0.00    -0.007 OA 
HETATM   25  C   UNL     1      -7.405   6.250  71.210  1.00  0.00    -0.081 A  
HETATM   26  H   UNL     1      -5.987   5.410  74.779  1.00  0.00     0.000 HD 
ENDBRANCH   6  17
TORSDOF 2
ENDMDL
MODEL      174
REMARK 921   NORMALIZED FREE ENERGY PREDICTED BY IDOCK:   55.80 KCAL/MOL
REMARK 922        TOTAL FREE ENERGY PREDICTED BY IDOCK:   62.13 KCAL/MOL
REMARK 923 INTER-LIGAND FREE ENERGY PREDICTED BY IDOCK:   62.30 KCAL/MOL
REMARK 924 INTRA-LIGAND FREE ENERGY PREDICTED BY IDOCK:   -0.16 KCAL/MOL
REMARK 927      BINDING AFFINITY PREDICTED BY RF-SCORE:    0.00 PKD
ROOT
HETATM    1  C   UNL     1     -11.101  11.776  70.351  1.00  0.00     0.767 C  
HETATM    2  C   UNL     1     -11.253  12.760  69.178  1.00  0.00    -0.294 C  
HETATM    3  C   UNL     1     -12.533  12.394  68.375  1.00  0.00     0.722 C  
HETATM    4  C   UNL     1     -11.293  14.248  69.664  1.00  0.00    -0.292 C  
HETATM    5  C   UNL     1     -11.479  15.228  68.491  1.00  0.00    -0.355 C  
HETATM    6  C   UNL     1     -10.088  14.690  70.545  1.00  0.00     0.866 C  
ENDROOT
BRANCH   3   7
HETATM    7  C   UNL     1     -12.509  11.042  67.696  1.00  0.00     2.263 A  
HETATM    8  C   UNL     1     -12.882   9.885  68.401  1.00  0.00     5.107 A  
HETATM    9  C   UNL     1     -12.171  10.936  66.335  1.00  0.00     2.832 A  
HETATM   10  C   UNL     1     -12.897   8.658  67.749  1.00  0.00    11.534 A  
HETATM   11  H   UNL     1     -12.320   7.293  64.859  1.00  0.00     0.000 HD 
HETATM   12  O   UNL     1     -13.264   7.502  68.384  1.00  0.00     7.571 OA 
HETATM   13  C   UNL     1     -12.183   9.700  65.692  1.00  0.00     8.865 A  
HETATM   14  C   UNL     1     -12.543   8.567  66.406  1.00  0.00    13.027 A  
HETATM   15  O   UNL     1     -12.561   7.355  65.776  1.00  0.00     8.631 OA 
HETATM   16  H   UNL     1     -13.274   6.663  67.939  1.00  0.00     0.000 HD 
ENDBRANCH   3   7
BRANCH   6  17
HETATM   17  C   UNL     1      -8.746  14.719  69.845  1.00  0.00     0.461 A  
HETATM   18  C   UNL     1      -6.368  14.648  68.384  1.00  0.00    -0.100 A  
HETATM   19  C   UNL     1      -6.580  13.739  69.415  1.00  0.00    -0.100 A  
HETATM   20  C   UNL     1      -7.755  13.777  70.158  1.00  0.00     1.517 A  
HETATM   21  H   UNL     1      -4.810  12.776  69.141  1.00  0.00     0.000 HD 
HETATM   22  C   UNL     1      -7.306  15.627  68.100  1.00  0.00    -0.123 A  
HETATM   23  O   UNL     1      -5.232  14.571  67.631  1.00  0.00    -0.307 OA 
HETATM   24  O   UNL     1      -5.612  12.802  69.648  1.00  0.00    -0.082 OA 
HETATM   25  C   UNL     1      -8.492  15.665  68.835  1.00  0.00    -0.213 A  
HETATM   26  H   UNL     1      -5.087  15.193  66.927  1.00  0.00     0.000 HD 
ENDBRANCH   6  17
TORSDOF 2
ENDMDL
MODEL      175
REMARK 921   NORMALIZED FREE ENERGY PREDICTED BY IDOCK:   77.53 KCAL/MOL
REMARK 922        TOTAL FREE ENERGY PREDICTED BY IDOCK:   86.40 KCAL/MOL
REMARK 923 INTER-LIGAND FREE ENERGY PREDICTED BY IDOCK:   86.86 KCAL/MOL
REMARK 924 INTRA-LIGAND FREE ENERGY PREDICTED BY IDOCK:   -0.46 KCAL/MOL
REMARK 927      BINDING AFFINITY PREDICTED BY RF-SCORE:    0.00 PKD
ROOT
HETATM    1  C   UNL     1     -10.270  11.767  72.770  1.00  0.00    18.247 C  
HETATM    2  C   UNL     1     -10.584  12.976  71.873  1.00  0.00     8.677 C  
HETATM    3  C   UNL     1     -11.663  12.565  70.831  1.00  0.00     0.598 C  
HETATM    4  C   UNL     1     -11.044  14.220  72.707  1.00  0.00     2.403 C  
HETATM    5  C   UNL     1     -11.390  15.418  71.804  1.00  0.00    -0.457 C  
HETATM    6  C   UNL     1     -10.063  14.663  73.831  1.00  0.00     6.735 C  
ENDROOT
BRANCH   3   7
HETATM    7  C   UNL     1     -11.240  11.499  69.844  1.00  0.00    -0.183 A  
HETATM    8  C   UNL     1     -11.551  10.149  70.079  1.00  0.00    -0.323 A  
HETATM    9  C   UNL     1     -10.583  11.854  68.653  1.00  0.00    -0.259 A  
HETATM   10  C   UNL     1     -11.194   9.188  69.141  1.00  0.00     0.175 A  
HETATM   11  H   UNL     1      -9.728   8.850  66.262  1.00  0.00     0.000 HD 
HETATM   12  O   UNL     1     -11.483   7.862  69.313  1.00  0.00    -0.295 OA 
HETATM   13  C   UNL     1     -10.222  10.882  67.721  1.00  0.00    -0.209 A  
HETATM   14  C   UNL     1     -10.528   9.554  67.974  1.00  0.00    -0.230 A  
HETATM   15  O   UNL     1     -10.182   8.601  67.059  1.00  0.00    -0.239 OA 
HETATM   16  H   UNL     1     -11.239   7.205  68.671  1.00  0.00     0.000 HD 
ENDBRANCH   3   7
BRANCH   6  17
HETATM   17  C   UNL     1      -8.726  15.192  73.358  1.00  0.00    10.503 A  
HETATM   18  C   UNL     1      -6.354  16.188  72.273  1.00  0.00     3.340 A  
HETATM   19  C   UNL     1      -6.529  14.817  72.426  1.00  0.00     1.406 A  
HETATM   20  C   UNL     1      -7.701  14.313  72.979  1.00  0.00     6.844 A  
HETATM   21  H   UNL     1      -4.727  14.338  71.613  1.00  0.00     0.000 HD 
HETATM   22  C   UNL     1      -7.327  17.077  72.699  1.00  0.00    11.727 A  
HETATM   23  O   UNL     1      -5.220  16.669  71.686  1.00  0.00    -0.211 OA 
HETATM   24  O   UNL     1      -5.527  13.994  71.991  1.00  0.00    -0.205 OA 
HETATM   25  C   UNL     1      -8.511  16.578  73.246  1.00  0.00    18.816 A  
HETATM   26  H   UNL     1      -5.100  17.605  71.582  1.00  0.00     0.000 HD 
ENDBRANCH   6  17
TORSDOF 2
ENDMDL
