MODEL        1
REMARK 921   NORMALIZED FREE ENERGY PREDICTED BY IDOCK:   -7.17 KCAL/MOL
REMARK 922        TOTAL FREE ENERGY PREDICTED BY IDOCK:   -8.09 KCAL/MOL
REMARK 923 INTER-LIGAND FREE ENERGY PREDICTED BY IDOCK:   -7.59 KCAL/MOL
REMARK 924 INTRA-LIGAND FREE ENERGY PREDICTED BY IDOCK:   -0.50 KCAL/MOL
REMARK 927      BINDING AFFINITY PREDICTED BY RF-SCORE:    0.00 PKD
ROOT
HETATM    1  O   UNL     1     -13.468  15.468  70.080  1.00  0.00    -0.631 OA 
HETATM    2  C   UNL     1     -12.180  14.923  70.376  1.00  0.00    -0.336 C  
HETATM    3  H   UNL     1     -13.625  15.320  69.155  1.00  0.00     0.000 HD 
HETATM    4  C   UNL     1     -12.327  13.399  70.465  1.00  0.00    -0.401 A  
HETATM    5  N   UNL     1     -11.941  15.146  71.785  1.00  0.00    -0.353 NA 
HETATM    6  C   UNL     1     -11.610  12.363  69.884  1.00  0.00    -0.260 A  
HETATM    7  C   UNL     1     -11.837  16.322  72.590  1.00  0.00    -0.497 C  
HETATM    8  C   UNL     1     -11.817  11.061  70.360  1.00  0.00    -0.460 A  
HETATM    9  C   UNL     1     -12.329  15.764  73.962  1.00  0.00    -0.623 C  
HETATM   10  N   UNL     1     -13.106  14.508  73.692  1.00  0.00    -0.350 NA 
HETATM   11  C   UNL     1     -12.750  10.789  71.382  1.00  0.00    -0.544 A  
HETATM   12  C   UNL     1     -13.364  11.838  72.056  1.00  0.00    -0.417 A  
HETATM   13  C   UNL     1     -12.749  14.260  72.468  1.00  0.00    -0.293 C  
HETATM   14  C   UNL     1     -13.044  13.101  71.633  1.00  0.00    -0.444 A  
ENDROOT
BRANCH   2  15
HETATM   15  C   UNL     1     -11.315  15.413  69.235  1.00  0.00    -0.323 A  
HETATM   16  C   UNL     1      -9.048  16.238  68.646  1.00  0.00    -0.228 A  
HETATM   17 CL   UNL     1      -8.234  16.649  66.121  1.00  0.00    -0.352 Cl 
HETATM   18  C   UNL     1      -9.405  16.220  67.304  1.00  0.00    -0.224 A  
HETATM   19  C   UNL     1     -10.695  15.834  66.922  1.00  0.00    -0.299 A  
HETATM   20  C   UNL     1     -11.655  15.431  67.879  1.00  0.00    -0.267 A  
HETATM   21  C   UNL     1     -10.001  15.840  69.587  1.00  0.00    -0.284 A  
ENDBRANCH   2  15
TORSDOF 1
ENDMDL
MODEL        2
REMARK 921   NORMALIZED FREE ENERGY PREDICTED BY IDOCK:   -6.90 KCAL/MOL
REMARK 922        TOTAL FREE ENERGY PREDICTED BY IDOCK:   -7.81 KCAL/MOL
REMARK 923 INTER-LIGAND FREE ENERGY PREDICTED BY IDOCK:   -7.45 KCAL/MOL
REMARK 924 INTRA-LIGAND FREE ENERGY PREDICTED BY IDOCK:   -0.35 KCAL/MOL
REMARK 927      BINDING AFFINITY PREDICTED BY RF-SCORE:    0.00 PKD
ROOT
HETATM    1  O   UNL     1      -9.588  13.564  68.815  1.00  0.00    -0.391 OA 
HETATM    2  C   UNL     1     -10.967  13.925  68.696  1.00  0.00    -0.261 C  
HETATM    3  H   UNL     1      -9.544  12.618  68.750  1.00  0.00     0.000 HD 
HETATM    4  C   UNL     1     -11.345  13.835  67.213  1.00  0.00    -0.343 A  
HETATM    5  N   UNL     1     -11.034  15.367  68.795  1.00  0.00    -0.251 NA 
HETATM    6  C   UNL     1     -12.405  13.220  66.563  1.00  0.00    -0.311 A  
HETATM    7  C   UNL     1     -10.684  16.300  69.819  1.00  0.00    -0.345 C  
HETATM    8  C   UNL     1     -12.630  13.531  65.214  1.00  0.00    -0.517 A  
HETATM    9  C   UNL     1     -10.337  17.549  68.950  1.00  0.00    -0.338 C  
HETATM   10  N   UNL     1     -10.053  17.070  67.555  1.00  0.00    -0.285 NA 
HETATM   11  C   UNL     1     -11.791  14.421  64.513  1.00  0.00    -0.463 A  
HETATM   12  C   UNL     1     -10.818  15.139  65.196  1.00  0.00    -0.437 A  
HETATM   13  C   UNL     1     -10.542  15.868  67.607  1.00  0.00    -0.307 C  
HETATM   14  C   UNL     1     -10.710  14.888  66.539  1.00  0.00    -0.309 A  
ENDROOT
BRANCH   2  15
HETATM   15  C   UNL     1     -11.674  12.934  69.595  1.00  0.00    -0.367 A  
HETATM   16  C   UNL     1     -11.960  10.516  70.082  1.00  0.00    -0.398 A  
HETATM   17 CL   UNL     1     -13.306   9.586  72.211  1.00  0.00    -0.529 Cl 
HETATM   18  C   UNL     1     -12.719  10.845  71.198  1.00  0.00    -0.429 A  
HETATM   19  C   UNL     1     -12.981  12.186  71.503  1.00  0.00    -0.398 A  
HETATM   20  C   UNL     1     -12.464  13.234  70.708  1.00  0.00    -0.403 A  
HETATM   21  C   UNL     1     -11.453  11.557  69.300  1.00  0.00    -0.370 A  
ENDBRANCH   2  15
TORSDOF 1
ENDMDL
MODEL        3
REMARK 921   NORMALIZED FREE ENERGY PREDICTED BY IDOCK:   -6.87 KCAL/MOL
REMARK 922        TOTAL FREE ENERGY PREDICTED BY IDOCK:   -7.77 KCAL/MOL
REMARK 923 INTER-LIGAND FREE ENERGY PREDICTED BY IDOCK:   -7.22 KCAL/MOL
REMARK 924 INTRA-LIGAND FREE ENERGY PREDICTED BY IDOCK:   -0.56 KCAL/MOL
REMARK 927      BINDING AFFINITY PREDICTED BY RF-SCORE:    0.00 PKD
ROOT
HETATM    1  O   UNL     1     -13.144  15.503  69.833  1.00  0.00    -0.586 OA 
HETATM    2  C   UNL     1     -11.939  14.897  70.310  1.00  0.00    -0.312 C  
HETATM    3  H   UNL     1     -13.179  15.345  68.896  1.00  0.00     0.000 HD 
HETATM    4  C   UNL     1     -12.181  13.385  70.398  1.00  0.00    -0.415 A  
HETATM    5  N   UNL     1     -11.886  15.136  71.736  1.00  0.00    -0.377 NA 
HETATM    6  C   UNL     1     -11.449  12.302  69.934  1.00  0.00    -0.190 A  
HETATM    7  C   UNL     1     -11.829  16.321  72.533  1.00  0.00    -0.510 C  
HETATM    8  C   UNL     1     -11.791  11.022  70.394  1.00  0.00    -0.460 A  
HETATM    9  C   UNL     1     -12.535  15.816  73.831  1.00  0.00    -0.628 C  
HETATM   10  N   UNL     1     -13.335  14.598  73.472  1.00  0.00    -0.341 NA 
HETATM   11  C   UNL     1     -12.869  10.820  71.280  1.00  0.00    -0.540 A  
HETATM   12  C   UNL     1     -13.512  11.913  71.849  1.00  0.00    -0.289 A  
HETATM   13  C   UNL     1     -12.827  14.307  72.312  1.00  0.00    -0.340 C  
HETATM   14  C   UNL     1     -13.067  13.148  71.458  1.00  0.00    -0.404 A  
ENDROOT
BRANCH   2  15
HETATM   15  C   UNL     1     -10.900  15.318  69.294  1.00  0.00    -0.257 A  
HETATM   16  C   UNL     1     -10.580  16.112  66.963  1.00  0.00    -0.292 A  
HETATM   17 CL   UNL     1      -8.218  16.951  65.999  1.00  0.00    -0.281 Cl 
HETATM   18  C   UNL     1      -9.229  16.299  67.228  1.00  0.00    -0.208 A  
HETATM   19  C   UNL     1      -8.705  15.981  68.486  1.00  0.00    -0.195 A  
HETATM   20  C   UNL     1      -9.532  15.490  69.523  1.00  0.00    -0.269 A  
HETATM   21  C   UNL     1     -11.391  15.626  67.991  1.00  0.00    -0.324 A  
ENDBRANCH   2  15
TORSDOF 1
ENDMDL
MODEL        4
REMARK 921   NORMALIZED FREE ENERGY PREDICTED BY IDOCK:   -6.84 KCAL/MOL
REMARK 922        TOTAL FREE ENERGY PREDICTED BY IDOCK:   -7.74 KCAL/MOL
REMARK 923 INTER-LIGAND FREE ENERGY PREDICTED BY IDOCK:   -7.18 KCAL/MOL
REMARK 924 INTRA-LIGAND FREE ENERGY PREDICTED BY IDOCK:   -0.56 KCAL/MOL
REMARK 927      BINDING AFFINITY PREDICTED BY RF-SCORE:    0.00 PKD
ROOT
HETATM    1  O   UNL     1     -12.215  15.295  68.219  1.00  0.00    -0.533 OA 
HETATM    2  C   UNL     1     -11.417  14.193  67.778  1.00  0.00    -0.325 C  
HETATM    3  H   UNL     1     -12.102  15.358  69.160  1.00  0.00     0.000 HD 
HETATM    4  C   UNL     1      -9.956  14.658  67.747  1.00  0.00    -0.224 A  
HETATM    5  N   UNL     1     -11.588  14.097  66.345  1.00  0.00    -0.355 NA 
HETATM    6  C   UNL     1      -8.795  14.098  68.259  1.00  0.00    -0.187 A  
HETATM    7  C   UNL     1     -12.718  13.859  65.503  1.00  0.00    -0.499 C  
HETATM    8  C   UNL     1      -7.563  14.626  67.846  1.00  0.00    -0.151 A  
HETATM    9  C   UNL     1     -12.274  14.626  64.218  1.00  0.00    -0.408 C  
HETATM   10  N   UNL     1     -11.205  15.602  64.616  1.00  0.00    -0.419 NA 
HETATM   11  C   UNL     1      -7.489  15.718  66.957  1.00  0.00    -0.242 A  
HETATM   12  C   UNL     1      -8.642  16.187  66.339  1.00  0.00    -0.365 A  
HETATM   13  C   UNL     1     -10.887  15.149  65.791  1.00  0.00    -0.353 C  
HETATM   14  C   UNL     1      -9.812  15.564  66.686  1.00  0.00    -0.268 A  
ENDROOT
BRANCH   2  15
HETATM   15  C   UNL     1     -11.718  13.107  68.788  1.00  0.00    -0.363 A  
HETATM   16  C   UNL     1     -12.500  12.685  71.107  1.00  0.00    -0.326 A  
HETATM   17 CL   UNL     1     -13.047  10.235  72.060  1.00  0.00    -0.553 Cl 
HETATM   18  C   UNL     1     -12.510  11.322  70.841  1.00  0.00    -0.394 A  
HETATM   19  C   UNL     1     -12.109  10.845  69.587  1.00  0.00    -0.400 A  
HETATM   20  C   UNL     1     -11.712  11.728  68.558  1.00  0.00    -0.390 A  
HETATM   21  C   UNL     1     -12.105  13.553  70.086  1.00  0.00    -0.425 A  
ENDBRANCH   2  15
TORSDOF 1
ENDMDL
MODEL        5
REMARK 921   NORMALIZED FREE ENERGY PREDICTED BY IDOCK:   -6.76 KCAL/MOL
REMARK 922        TOTAL FREE ENERGY PREDICTED BY IDOCK:   -7.65 KCAL/MOL
REMARK 923 INTER-LIGAND FREE ENERGY PREDICTED BY IDOCK:   -7.26 KCAL/MOL
REMARK 924 INTRA-LIGAND FREE ENERGY PREDICTED BY IDOCK:   -0.39 KCAL/MOL
REMARK 927      BINDING AFFINITY PREDICTED BY RF-SCORE:    0.00 PKD
ROOT
HETATM    1  O   UNL     1     -12.194  11.444  68.010  1.00  0.00    -0.607 OA 
HETATM    2  C   UNL     1     -11.318  12.495  67.595  1.00  0.00    -0.306 C  
HETATM    3  H   UNL     1     -12.990  11.856  68.324  1.00  0.00     0.000 HD 
HETATM    4  C   UNL     1     -11.804  12.994  66.229  1.00  0.00    -0.466 A  
HETATM    5  N   UNL     1     -10.106  11.867  67.116  1.00  0.00    -0.203 NA 
HETATM    6  C   UNL     1     -12.060  14.269  65.746  1.00  0.00    -0.414 A  
HETATM    7  C   UNL     1      -9.120  11.034  67.731  1.00  0.00    -0.147 C  
HETATM    8  C   UNL     1     -12.247  14.434  64.366  1.00  0.00    -0.481 A  
HETATM    9  C   UNL     1      -8.638  10.214  66.494  1.00  0.00    -0.126 C  
HETATM   10  N   UNL     1      -9.704  10.307  65.440  1.00  0.00    -0.256 NA 
HETATM   11  C   UNL     1     -12.210  13.337  63.481  1.00  0.00    -0.513 A  
HETATM   12  C   UNL     1     -11.819  12.087  63.944  1.00  0.00    -0.543 A  
HETATM   13  C   UNL     1     -10.409  11.299  65.896  1.00  0.00    -0.253 C  
HETATM   14  C   UNL     1     -11.533  11.997  65.281  1.00  0.00    -0.358 A  
ENDROOT
BRANCH   2  15
HETATM   15  C   UNL     1     -11.418  13.507  68.715  1.00  0.00    -0.349 A  
HETATM   16  C   UNL     1     -12.422  13.939  70.944  1.00  0.00    -0.447 A  
HETATM   17 CL   UNL     1     -11.790  16.062  72.464  1.00  0.00    -0.607 Cl 
HETATM   18  C   UNL     1     -11.683  15.112  71.035  1.00  0.00    -0.340 A  
HETATM   19  C   UNL     1     -10.844  15.500  69.983  1.00  0.00    -0.330 A  
HETATM   20  C   UNL     1     -10.707  14.706  68.822  1.00  0.00    -0.252 A  
HETATM   21  C   UNL     1     -12.283  13.160  69.794  1.00  0.00    -0.266 A  
ENDBRANCH   2  15
TORSDOF 1
ENDMDL
MODEL        6
REMARK 921   NORMALIZED FREE ENERGY PREDICTED BY IDOCK:   -6.72 KCAL/MOL
REMARK 922        TOTAL FREE ENERGY PREDICTED BY IDOCK:   -7.61 KCAL/MOL
REMARK 923 INTER-LIGAND FREE ENERGY PREDICTED BY IDOCK:   -7.12 KCAL/MOL
REMARK 924 INTRA-LIGAND FREE ENERGY PREDICTED BY IDOCK:   -0.50 KCAL/MOL
REMARK 927      BINDING AFFINITY PREDICTED BY RF-SCORE:    0.00 PKD
ROOT
HETATM    1  O   UNL     1      -9.208  14.337  68.957  1.00  0.00    -0.372 OA 
HETATM    2  C   UNL     1     -10.418  15.040  68.667  1.00  0.00    -0.238 C  
HETATM    3  H   UNL     1      -8.705  14.885  69.549  1.00  0.00     0.000 HD 
HETATM    4  C   UNL     1     -11.347  14.887  69.878  1.00  0.00    -0.311 A  
HETATM    5  N   UNL     1     -11.184  14.206  67.768  1.00  0.00    -0.276 NA 
HETATM    6  C   UNL     1     -12.072  15.814  70.612  1.00  0.00    -0.424 A  
HETATM    7  C   UNL     1     -10.944  13.697  66.454  1.00  0.00    -0.297 C  
HETATM    8  C   UNL     1     -13.042  15.342  71.508  1.00  0.00    -0.545 A  
HETATM    9  C   UNL     1     -11.783  12.382  66.508  1.00  0.00    -0.379 C  
HETATM   10  N   UNL     1     -12.001  12.037  67.953  1.00  0.00    -0.547 NA 
HETATM   11  C   UNL     1     -13.267  13.962  71.693  1.00  0.00    -0.446 A  
HETATM   12  C   UNL     1     -12.641  13.042  70.861  1.00  0.00    -0.364 A  
HETATM   13  C   UNL     1     -11.678  13.160  68.521  1.00  0.00    -0.352 C  
HETATM   14  C   UNL     1     -11.787  13.556  69.921  1.00  0.00    -0.386 A  
ENDROOT
BRANCH   2  15
HETATM   15  C   UNL     1      -9.954  16.454  68.396  1.00  0.00    -0.238 A  
HETATM   16  C   UNL     1      -7.994  17.976  68.497  1.00  0.00    -0.310 A  
HETATM   17 CL   UNL     1      -7.996  20.458  67.471  1.00  0.00    -0.346 Cl 
HETATM   18  C   UNL     1      -8.741  18.957  67.858  1.00  0.00    -0.298 A  
HETATM   19  C   UNL     1     -10.077  18.716  67.513  1.00  0.00    -0.397 A  
HETATM   20  C   UNL     1     -10.690  17.470  67.779  1.00  0.00    -0.333 A  
HETATM   21  C   UNL     1      -8.606  16.748  68.757  1.00  0.00    -0.255 A  
ENDBRANCH   2  15
TORSDOF 1
ENDMDL
MODEL        7
REMARK 921   NORMALIZED FREE ENERGY PREDICTED BY IDOCK:   -6.65 KCAL/MOL
REMARK 922        TOTAL FREE ENERGY PREDICTED BY IDOCK:   -7.54 KCAL/MOL
REMARK 923 INTER-LIGAND FREE ENERGY PREDICTED BY IDOCK:   -7.39 KCAL/MOL
REMARK 924 INTRA-LIGAND FREE ENERGY PREDICTED BY IDOCK:   -0.15 KCAL/MOL
REMARK 927      BINDING AFFINITY PREDICTED BY RF-SCORE:    0.00 PKD
ROOT
HETATM    1  O   UNL     1     -11.761  10.453  67.734  1.00  0.00    -0.677 OA 
HETATM    2  C   UNL     1     -11.241  11.779  67.604  1.00  0.00    -0.281 C  
HETATM    3  H   UNL     1     -12.677  10.538  67.971  1.00  0.00     0.000 HD 
HETATM    4  C   UNL     1     -11.717  12.334  66.256  1.00  0.00    -0.431 A  
HETATM    5  N   UNL     1      -9.846  11.650  67.243  1.00  0.00    -0.187 NA 
HETATM    6  C   UNL     1     -12.327  13.532  65.911  1.00  0.00    -0.507 A  
HETATM    7  C   UNL     1      -8.713  11.068  67.890  1.00  0.00    -0.133 C  
HETATM    8  C   UNL     1     -12.410  13.870  64.553  1.00  0.00    -0.408 A  
HETATM    9  C   UNL     1      -7.859  10.667  66.647  1.00  0.00    -0.135 C  
HETATM   10  N   UNL     1      -8.777  10.610  65.460  1.00  0.00    -0.185 NA 
HETATM   11  C   UNL     1     -11.919  13.011  63.548  1.00  0.00    -0.615 A  
HETATM   12  C   UNL     1     -11.189  11.882  63.898  1.00  0.00    -0.497 A  
HETATM   13  C   UNL     1      -9.814  11.239  65.926  1.00  0.00    -0.232 C  
HETATM   14  C   UNL     1     -11.034  11.652  65.239  1.00  0.00    -0.327 A  
ENDROOT
BRANCH   2  15
HETATM   15  C   UNL     1     -11.787  12.498  68.818  1.00  0.00    -0.347 A  
HETATM   16  C   UNL     1     -12.625  12.174  71.133  1.00  0.00    -0.360 A  
HETATM   17 CL   UNL     1     -13.171  14.204  72.804  1.00  0.00    -0.598 Cl 
HETATM   18  C   UNL     1     -12.685  13.553  71.289  1.00  0.00    -0.348 A  
HETATM   19  C   UNL     1     -12.333  14.400  70.231  1.00  0.00    -0.410 A  
HETATM   20  C   UNL     1     -11.885  13.881  68.994  1.00  0.00    -0.397 A  
HETATM   21  C   UNL     1     -12.182  11.669  69.909  1.00  0.00    -0.310 A  
ENDBRANCH   2  15
TORSDOF 1
ENDMDL
MODEL        8
REMARK 921   NORMALIZED FREE ENERGY PREDICTED BY IDOCK:   -6.64 KCAL/MOL
REMARK 922        TOTAL FREE ENERGY PREDICTED BY IDOCK:   -7.52 KCAL/MOL
REMARK 923 INTER-LIGAND FREE ENERGY PREDICTED BY IDOCK:   -6.98 KCAL/MOL
REMARK 924 INTRA-LIGAND FREE ENERGY PREDICTED BY IDOCK:   -0.54 KCAL/MOL
REMARK 927      BINDING AFFINITY PREDICTED BY RF-SCORE:    0.00 PKD
ROOT
HETATM    1  O   UNL     1     -12.212  15.506  68.236  1.00  0.00    -0.462 OA 
HETATM    2  C   UNL     1     -11.446  14.357  67.865  1.00  0.00    -0.321 C  
HETATM    3  H   UNL     1     -12.140  15.593  69.179  1.00  0.00     0.000 HD 
HETATM    4  C   UNL     1      -9.966  14.757  67.888  1.00  0.00    -0.213 A  
HETATM    5  N   UNL     1     -11.556  14.224  66.428  1.00  0.00    -0.359 NA 
HETATM    6  C   UNL     1      -8.855  14.164  68.471  1.00  0.00    -0.173 A  
HETATM    7  C   UNL     1     -12.656  14.010  65.542  1.00  0.00    -0.516 C  
HETATM    8  C   UNL     1      -7.583  14.624  68.101  1.00  0.00    -0.123 A  
HETATM    9  C   UNL     1     -12.120  14.717  64.258  1.00  0.00    -0.415 C  
HETATM   10  N   UNL     1     -11.027  15.657  64.676  1.00  0.00    -0.425 NA 
HETATM   11  C   UNL     1      -7.421  15.684  67.185  1.00  0.00    -0.253 A  
HETATM   12  C   UNL     1      -8.522  16.183  66.500  1.00  0.00    -0.346 A  
HETATM   13  C   UNL     1     -10.784  15.227  65.878  1.00  0.00    -0.334 C  
HETATM   14  C   UNL     1      -9.733  15.623  66.810  1.00  0.00    -0.255 A  
ENDROOT
BRANCH   2  15
HETATM   15  C   UNL     1     -11.841  13.318  68.891  1.00  0.00    -0.367 A  
HETATM   16  C   UNL     1     -12.001  10.876  69.314  1.00  0.00    -0.382 A  
HETATM   17 CL   UNL     1     -12.597   9.828  71.714  1.00  0.00    -0.486 Cl 
HETATM   18  C   UNL     1     -12.347  11.142  70.633  1.00  0.00    -0.388 A  
HETATM   19  C   UNL     1     -12.469  12.463  71.079  1.00  0.00    -0.353 A  
HETATM   20  C   UNL     1     -12.219  13.555  70.216  1.00  0.00    -0.417 A  
HETATM   21  C   UNL     1     -11.756  11.959  68.467  1.00  0.00    -0.388 A  
ENDBRANCH   2  15
TORSDOF 1
ENDMDL
MODEL        9
REMARK 921   NORMALIZED FREE ENERGY PREDICTED BY IDOCK:   -6.58 KCAL/MOL
REMARK 922        TOTAL FREE ENERGY PREDICTED BY IDOCK:   -7.46 KCAL/MOL
REMARK 923 INTER-LIGAND FREE ENERGY PREDICTED BY IDOCK:   -7.11 KCAL/MOL
REMARK 924 INTRA-LIGAND FREE ENERGY PREDICTED BY IDOCK:   -0.35 KCAL/MOL
REMARK 927      BINDING AFFINITY PREDICTED BY RF-SCORE:    0.00 PKD
ROOT
HETATM    1  O   UNL     1     -12.778  14.463  66.533  1.00  0.00    -0.493 OA 
HETATM    2  C   UNL     1     -11.572  13.827  66.964  1.00  0.00    -0.365 C  
HETATM    3  H   UNL     1     -13.305  13.797  66.109  1.00  0.00     0.000 HD 
HETATM    4  C   UNL     1     -11.895  13.027  68.232  1.00  0.00    -0.381 A  
HETATM    5  N   UNL     1     -10.770  14.841  67.612  1.00  0.00    -0.266 NA 
HETATM    6  C   UNL     1     -11.624  11.715  68.593  1.00  0.00    -0.373 A  
HETATM    7  C   UNL     1     -10.185  16.067  67.165  1.00  0.00    -0.278 C  
HETATM    8  C   UNL     1     -11.817  11.340  69.931  1.00  0.00    -0.436 A  
HETATM    9  C   UNL     1     -10.175  16.873  68.501  1.00  0.00    -0.310 C  
HETATM   10  N   UNL     1     -11.171  16.237  69.427  1.00  0.00    -0.326 NA 
HETATM   11  C   UNL     1     -12.302  12.252  70.890  1.00  0.00    -0.363 A  
HETATM   12  C   UNL     1     -12.441  13.595  70.561  1.00  0.00    -0.394 A  
HETATM   13  C   UNL     1     -11.364  15.099  68.830  1.00  0.00    -0.300 C  
HETATM   14  C   UNL     1     -12.131  13.938  69.272  1.00  0.00    -0.383 A  
ENDROOT
BRANCH   2  15
HETATM   15  C   UNL     1     -11.163  12.992  65.771  1.00  0.00    -0.316 A  
HETATM   16  C   UNL     1      -9.415  11.459  64.899  1.00  0.00    -0.194 A  
HETATM   17 CL   UNL     1      -9.653  10.104  62.593  1.00  0.00    -0.283 Cl 
HETATM   18  C   UNL     1     -10.201  11.222  63.778  1.00  0.00    -0.377 A  
HETATM   19  C   UNL     1     -11.433  11.871  63.630  1.00  0.00    -0.551 A  
HETATM   20  C   UNL     1     -11.920  12.756  64.619  1.00  0.00    -0.453 A  
HETATM   21  C   UNL     1      -9.902  12.335  65.872  1.00  0.00    -0.266 A  
ENDBRANCH   2  15
TORSDOF 1
ENDMDL
MODEL       10
REMARK 921   NORMALIZED FREE ENERGY PREDICTED BY IDOCK:   -6.58 KCAL/MOL
REMARK 922        TOTAL FREE ENERGY PREDICTED BY IDOCK:   -7.46 KCAL/MOL
REMARK 923 INTER-LIGAND FREE ENERGY PREDICTED BY IDOCK:   -6.91 KCAL/MOL
REMARK 924 INTRA-LIGAND FREE ENERGY PREDICTED BY IDOCK:   -0.54 KCAL/MOL
REMARK 927      BINDING AFFINITY PREDICTED BY RF-SCORE:    0.00 PKD
ROOT
HETATM    1  O   UNL     1      -9.510  14.419  68.537  1.00  0.00    -0.206 OA 
HETATM    2  C   UNL     1     -10.691  15.013  67.993  1.00  0.00    -0.262 C  
HETATM    3  H   UNL     1      -8.934  14.230  67.806  1.00  0.00     0.000 HD 
HETATM    4  C   UNL     1     -10.364  16.471  67.651  1.00  0.00    -0.291 A  
HETATM    5  N   UNL     1     -11.569  15.301  69.107  1.00  0.00    -0.312 NA 
HETATM    6  C   UNL     1     -10.572  17.223  66.503  1.00  0.00    -0.178 A  
HETATM    7  C   UNL     1     -12.206  14.486  70.093  1.00  0.00    -0.342 C  
HETATM    8  C   UNL     1     -10.400  18.612  66.576  1.00  0.00    -0.462 A  
HETATM    9  C   UNL     1     -12.302  15.502  71.273  1.00  0.00    -0.408 C  
HETATM   10  N   UNL     1     -11.301  16.592  71.021  1.00  0.00    -0.196 NA 
HETATM   11  C   UNL     1      -9.996  19.243  67.771  1.00  0.00    -0.460 A  
HETATM   12  C   UNL     1      -9.922  18.511  68.950  1.00  0.00    -0.383 A  
HETATM   13  C   UNL     1     -11.027  16.384  69.768  1.00  0.00    -0.341 C  
HETATM   14  C   UNL     1     -10.211  17.176  68.854  1.00  0.00    -0.332 A  
ENDROOT
BRANCH   2  15
HETATM   15  C   UNL     1     -11.016  14.137  66.803  1.00  0.00    -0.300 A  
HETATM   16  C   UNL     1     -12.849  13.387  65.305  1.00  0.00    -0.398 A  
HETATM   17 CL   UNL     1     -12.443  11.914  63.096  1.00  0.00    -0.538 Cl 
HETATM   18  C   UNL     1     -11.915  12.723  64.518  1.00  0.00    -0.393 A  
HETATM   19  C   UNL     1     -10.560  12.735  64.869  1.00  0.00    -0.336 A  
HETATM   20  C   UNL     1     -10.103  13.437  66.008  1.00  0.00    -0.308 A  
HETATM   21  C   UNL     1     -12.391  14.077  66.429  1.00  0.00    -0.468 A  
ENDBRANCH   2  15
TORSDOF 1
ENDMDL
MODEL       11
REMARK 921   NORMALIZED FREE ENERGY PREDICTED BY IDOCK:   -6.54 KCAL/MOL
REMARK 922        TOTAL FREE ENERGY PREDICTED BY IDOCK:   -7.42 KCAL/MOL
REMARK 923 INTER-LIGAND FREE ENERGY PREDICTED BY IDOCK:   -6.93 KCAL/MOL
REMARK 924 INTRA-LIGAND FREE ENERGY PREDICTED BY IDOCK:   -0.49 KCAL/MOL
REMARK 927      BINDING AFFINITY PREDICTED BY RF-SCORE:    0.00 PKD
ROOT
HETATM    1  O   UNL     1     -12.586  14.312  67.043  1.00  0.00    -0.553 OA 
HETATM    2  C   UNL     1     -11.457  13.668  67.639  1.00  0.00    -0.325 C  
HETATM    3  H   UNL     1     -13.079  13.640  66.588  1.00  0.00     0.000 HD 
HETATM    4  C   UNL     1     -11.947  12.935  68.893  1.00  0.00    -0.291 A  
HETATM    5  N   UNL     1     -10.706  14.692  68.333  1.00  0.00    -0.235 NA 
HETATM    6  C   UNL     1     -11.758  11.635  69.340  1.00  0.00    -0.405 A  
HETATM    7  C   UNL     1     -10.039  15.882  67.906  1.00  0.00    -0.235 C  
HETATM    8  C   UNL     1     -12.116  11.325  70.660  1.00  0.00    -0.480 A  
HETATM    9  C   UNL     1     -10.162  16.748  69.199  1.00  0.00    -0.306 C  
HETATM   10  N   UNL     1     -11.277  16.178  70.027  1.00  0.00    -0.354 NA 
HETATM   11  C   UNL     1     -12.683  12.292  71.516  1.00  0.00    -0.339 A  
HETATM   12  C   UNL     1     -12.745  13.621  71.116  1.00  0.00    -0.432 A  
HETATM   13  C   UNL     1     -11.431  15.019  69.461  1.00  0.00    -0.294 C  
HETATM   14  C   UNL     1     -12.277  13.898  69.858  1.00  0.00    -0.393 A  
ENDROOT
BRANCH   2  15
HETATM   15  C   UNL     1     -10.936  12.770  66.539  1.00  0.00    -0.291 A  
HETATM   16  C   UNL     1     -11.425  11.884  64.271  1.00  0.00    -0.423 A  
HETATM   17 CL   UNL     1      -9.671  10.444  62.836  1.00  0.00    -0.328 Cl 
HETATM   18  C   UNL     1     -10.169  11.292  64.247  1.00  0.00    -0.327 A  
HETATM   19  C   UNL     1      -9.314  11.404  65.349  1.00  0.00    -0.206 A  
HETATM   20  C   UNL     1      -9.689  12.139  66.497  1.00  0.00    -0.234 A  
HETATM   21  C   UNL     1     -11.790  12.608  65.409  1.00  0.00    -0.473 A  
ENDBRANCH   2  15
TORSDOF 1
ENDMDL
MODEL       12
REMARK 921   NORMALIZED FREE ENERGY PREDICTED BY IDOCK:   -6.45 KCAL/MOL
REMARK 922        TOTAL FREE ENERGY PREDICTED BY IDOCK:   -7.32 KCAL/MOL
REMARK 923 INTER-LIGAND FREE ENERGY PREDICTED BY IDOCK:   -6.86 KCAL/MOL
REMARK 924 INTRA-LIGAND FREE ENERGY PREDICTED BY IDOCK:   -0.47 KCAL/MOL
REMARK 927      BINDING AFFINITY PREDICTED BY RF-SCORE:    0.00 PKD
ROOT
HETATM    1  O   UNL     1      -8.966  14.027  66.402  1.00  0.00    -0.454 OA 
HETATM    2  C   UNL     1     -10.069  14.879  66.724  1.00  0.00    -0.251 C  
HETATM    3  H   UNL     1      -8.217  14.350  66.889  1.00  0.00     0.000 HD 
HETATM    4  C   UNL     1     -10.578  14.477  68.113  1.00  0.00    -0.238 A  
HETATM    5  N   UNL     1     -11.210  14.387  65.984  1.00  0.00    -0.327 NA 
HETATM    6  C   UNL     1     -10.864  15.225  69.247  1.00  0.00    -0.257 A  
HETATM    7  C   UNL     1     -11.489  14.238  64.590  1.00  0.00    -0.385 C  
HETATM    8  C   UNL     1     -11.565  14.607  70.292  1.00  0.00    -0.335 A  
HETATM    9  C   UNL     1     -12.477  13.031  64.632  1.00  0.00    -0.400 C  
HETATM   10  N   UNL     1     -12.280  12.324  65.942  1.00  0.00    -0.600 NA 
HETATM   11  C   UNL     1     -11.950  13.252  70.223  1.00  0.00    -0.372 A  
HETATM   12  C   UNL     1     -11.786  12.546  69.038  1.00  0.00    -0.368 A  
HETATM   13  C   UNL     1     -11.609  13.219  66.602  1.00  0.00    -0.365 C  
HETATM   14  C   UNL     1     -11.200  13.225  68.003  1.00  0.00    -0.307 A  
ENDROOT
BRANCH   2  15
HETATM   15  C   UNL     1      -9.482  16.271  66.639  1.00  0.00    -0.269 A  
HETATM   16  C   UNL     1      -7.377  17.543  66.296  1.00  0.00    -0.355 A  
HETATM   17 CL   UNL     1      -7.293  20.210  65.996  1.00  0.00    -0.312 Cl 
HETATM   18  C   UNL     1      -8.109  18.723  66.276  1.00  0.00    -0.251 A  
HETATM   19  C   UNL     1      -9.497  18.695  66.459  1.00  0.00    -0.331 A  
HETATM   20  C   UNL     1     -10.189  17.476  66.642  1.00  0.00    -0.332 A  
HETATM   21  C   UNL     1      -8.067  16.342  66.478  1.00  0.00    -0.345 A  
ENDBRANCH   2  15
TORSDOF 1
ENDMDL
MODEL       13
REMARK 921   NORMALIZED FREE ENERGY PREDICTED BY IDOCK:   -6.45 KCAL/MOL
REMARK 922        TOTAL FREE ENERGY PREDICTED BY IDOCK:   -7.32 KCAL/MOL
REMARK 923 INTER-LIGAND FREE ENERGY PREDICTED BY IDOCK:   -6.87 KCAL/MOL
REMARK 924 INTRA-LIGAND FREE ENERGY PREDICTED BY IDOCK:   -0.46 KCAL/MOL
REMARK 927      BINDING AFFINITY PREDICTED BY RF-SCORE:    0.00 PKD
ROOT
HETATM    1  O   UNL     1      -9.409  13.816  66.314  1.00  0.00    -0.423 OA 
HETATM    2  C   UNL     1     -10.590  13.126  66.730  1.00  0.00    -0.263 C  
HETATM    3  H   UNL     1      -8.842  13.876  67.075  1.00  0.00     0.000 HD 
HETATM    4  C   UNL     1     -10.252  11.633  66.814  1.00  0.00    -0.248 A  
HETATM    5  N   UNL     1     -11.453  13.033  65.573  1.00  0.00    -0.311 NA 
HETATM    6  C   UNL     1     -10.466  10.689  67.808  1.00  0.00    -0.258 A  
HETATM    7  C   UNL     1     -12.087  14.005  64.739  1.00  0.00    -0.437 C  
HETATM    8  C   UNL     1     -10.280   9.335  67.493  1.00  0.00    -0.300 A  
HETATM    9  C   UNL     1     -12.161  13.213  63.396  1.00  0.00    -0.486 C  
HETATM   10  N   UNL     1     -11.152  12.103  63.464  1.00  0.00    -0.441 NA 
HETATM   11  C   UNL     1      -9.857   8.929  66.210  1.00  0.00    -0.355 A  
HETATM   12  C   UNL     1      -9.777   9.858  65.180  1.00  0.00    -0.376 A  
HETATM   13  C   UNL     1     -10.893  12.088  64.737  1.00  0.00    -0.306 C  
HETATM   14  C   UNL     1     -10.080  11.153  65.507  1.00  0.00    -0.309 A  
ENDROOT
BRANCH   2  15
HETATM   15  C   UNL     1     -10.936  13.775  68.052  1.00  0.00    -0.268 A  
HETATM   16  C   UNL     1     -10.184  15.453  69.721  1.00  0.00    -0.278 A  
HETATM   17 CL   UNL     1     -11.678  16.231  71.813  1.00  0.00    -0.553 Cl 
HETATM   18  C   UNL     1     -11.376  15.279  70.413  1.00  0.00    -0.296 A  
HETATM   19  C   UNL     1     -12.326  14.356  69.961  1.00  0.00    -0.391 A  
HETATM   20  C   UNL     1     -12.114  13.601  68.784  1.00  0.00    -0.332 A  
HETATM   21  C   UNL     1      -9.980  14.704  68.561  1.00  0.00    -0.235 A  
ENDBRANCH   2  15
TORSDOF 1
ENDMDL
MODEL       14
REMARK 921   NORMALIZED FREE ENERGY PREDICTED BY IDOCK:   -6.25 KCAL/MOL
REMARK 922        TOTAL FREE ENERGY PREDICTED BY IDOCK:   -7.11 KCAL/MOL
REMARK 923 INTER-LIGAND FREE ENERGY PREDICTED BY IDOCK:   -6.60 KCAL/MOL
REMARK 924 INTRA-LIGAND FREE ENERGY PREDICTED BY IDOCK:   -0.51 KCAL/MOL
REMARK 927      BINDING AFFINITY PREDICTED BY RF-SCORE:    0.00 PKD
ROOT
HETATM    1  O   UNL     1      -9.243  12.923  68.506  1.00  0.00    -0.336 OA 
HETATM    2  C   UNL     1     -10.664  13.066  68.441  1.00  0.00    -0.256 C  
HETATM    3  H   UNL     1      -9.050  12.007  68.344  1.00  0.00     0.000 HD 
HETATM    4  C   UNL     1     -11.065  13.064  66.961  1.00  0.00    -0.311 A  
HETATM    5  N   UNL     1     -10.959  14.461  68.687  1.00  0.00    -0.241 NA 
HETATM    6  C   UNL     1     -12.030  12.353  66.263  1.00  0.00    -0.369 A  
HETATM    7  C   UNL     1     -10.735  15.332  69.798  1.00  0.00    -0.283 C  
HETATM    8  C   UNL     1     -12.339  12.756  64.956  1.00  0.00    -0.559 A  
HETATM    9  C   UNL     1     -10.616  16.700  69.058  1.00  0.00    -0.340 C  
HETATM   10  N   UNL     1     -10.298  16.416  67.618  1.00  0.00    -0.277 NA 
HETATM   11  C   UNL     1     -11.673  13.835  64.340  1.00  0.00    -0.436 A  
HETATM   12  C   UNL     1     -10.809  14.630  65.083  1.00  0.00    -0.414 A  
HETATM   13  C   UNL     1     -10.587  15.150  67.552  1.00  0.00    -0.269 C  
HETATM   14  C   UNL     1     -10.625  14.268  66.391  1.00  0.00    -0.286 A  
ENDROOT
BRANCH   2  15
HETATM   15  C   UNL     1     -11.179  11.889  69.241  1.00  0.00    -0.304 A  
HETATM   16  C   UNL     1     -10.797   9.489  69.750  1.00  0.00    -0.264 A  
HETATM   17 CL   UNL     1     -12.136   8.151  71.656  1.00  0.00    -0.319 Cl 
HETATM   18  C   UNL     1     -11.796   9.549  70.714  1.00  0.00    -0.277 A  
HETATM   19  C   UNL     1     -12.498  10.741  70.929  1.00  0.00    -0.500 A  
HETATM   20  C   UNL     1     -12.197  11.913  70.198  1.00  0.00    -0.319 A  
HETATM   21  C   UNL     1     -10.506  10.650  69.031  1.00  0.00    -0.237 A  
ENDBRANCH   2  15
TORSDOF 1
ENDMDL
MODEL       15
REMARK 921   NORMALIZED FREE ENERGY PREDICTED BY IDOCK:   -6.17 KCAL/MOL
REMARK 922        TOTAL FREE ENERGY PREDICTED BY IDOCK:   -7.03 KCAL/MOL
REMARK 923 INTER-LIGAND FREE ENERGY PREDICTED BY IDOCK:   -7.11 KCAL/MOL
REMARK 924 INTRA-LIGAND FREE ENERGY PREDICTED BY IDOCK:    0.09 KCAL/MOL
REMARK 927      BINDING AFFINITY PREDICTED BY RF-SCORE:    0.00 PKD
ROOT
HETATM    1  O   UNL     1      -9.282  15.389  68.137  1.00  0.00    -0.183 OA 
HETATM    2  C   UNL     1     -10.690  15.629  68.065  1.00  0.00    -0.287 C  
HETATM    3  H   UNL     1      -9.169  14.527  68.521  1.00  0.00     0.000 HD 
HETATM    4  C   UNL     1     -11.237  14.835  66.872  1.00  0.00    -0.347 A  
HETATM    5  N   UNL     1     -10.864  16.941  67.480  1.00  0.00    -0.264 NA 
HETATM    6  C   UNL     1     -12.314  13.968  66.752  1.00  0.00    -0.368 A  
HETATM    7  C   UNL     1     -10.470  18.255  67.880  1.00  0.00    -0.388 C  
HETATM    8  C   UNL     1     -12.725  13.592  65.465  1.00  0.00    -0.514 A  
HETATM    9  C   UNL     1     -10.335  18.941  66.484  1.00  0.00    -0.431 C  
HETATM   10  N   UNL     1     -10.184  17.857  65.455  1.00  0.00    -0.543 NA 
HETATM   11  C   UNL     1     -12.053  14.050  64.313  1.00  0.00    -0.476 A  
HETATM   12  C   UNL     1     -11.067  15.022  64.427  1.00  0.00    -0.120 A  
HETATM   13  C   UNL     1     -10.562  16.819  66.139  1.00  0.00    -0.210 C  
HETATM   14  C   UNL     1     -10.777  15.445  65.697  1.00  0.00    -0.381 A  
ENDROOT
BRANCH   2  15
HETATM   15  C   UNL     1     -11.199  15.179  69.416  1.00  0.00    -0.293 A  
HETATM   16  C   UNL     1     -11.792  15.958  71.698  1.00  0.00    -0.565 A  
HETATM   17 CL   UNL     1     -12.976  14.395  73.533  1.00  0.00    -0.308 Cl 
HETATM   18  C   UNL     1     -12.269  14.687  71.993  1.00  0.00    -0.295 A  
HETATM   19  C   UNL     1     -12.194  13.666  71.039  1.00  0.00    -0.374 A  
HETATM   20  C   UNL     1     -11.661  13.902  69.751  1.00  0.00    -0.372 A  
HETATM   21  C   UNL     1     -11.266  16.185  70.425  1.00  0.00    -0.394 A  
ENDBRANCH   2  15
TORSDOF 1
ENDMDL
MODEL       16
REMARK 921   NORMALIZED FREE ENERGY PREDICTED BY IDOCK:   -6.15 KCAL/MOL
REMARK 922        TOTAL FREE ENERGY PREDICTED BY IDOCK:   -7.01 KCAL/MOL
REMARK 923 INTER-LIGAND FREE ENERGY PREDICTED BY IDOCK:   -6.96 KCAL/MOL
REMARK 924 INTRA-LIGAND FREE ENERGY PREDICTED BY IDOCK:   -0.05 KCAL/MOL
REMARK 927      BINDING AFFINITY PREDICTED BY RF-SCORE:    0.00 PKD
ROOT
HETATM    1  O   UNL     1     -10.067  14.128  68.089  1.00  0.00    -0.226 OA 
HETATM    2  C   UNL     1     -11.293  13.517  68.500  1.00  0.00    -0.292 C  
HETATM    3  H   UNL     1      -9.548  14.260  68.873  1.00  0.00     0.000 HD 
HETATM    4  C   UNL     1     -11.007  12.035  68.771  1.00  0.00    -0.282 A  
HETATM    5  N   UNL     1     -12.084  13.315  67.306  1.00  0.00    -0.333 NA 
HETATM    6  C   UNL     1     -11.311  11.215  69.847  1.00  0.00    -0.348 A  
HETATM    7  C   UNL     1     -12.635  14.202  66.330  1.00  0.00    -0.260 C  
HETATM    8  C   UNL     1     -11.147   9.830  69.696  1.00  0.00    -0.251 A  
HETATM    9  C   UNL     1     -12.649  13.266  65.081  1.00  0.00    -0.453 C  
HETATM   10  N   UNL     1     -11.680  12.147  65.338  1.00  0.00    -0.352 NA 
HETATM   11  C   UNL     1     -10.657   9.272  68.498  1.00  0.00    -0.222 A  
HETATM   12  C   UNL     1     -10.485  10.077  67.379  1.00  0.00    -0.316 A  
HETATM   13  C   UNL     1     -11.503  12.269  66.619  1.00  0.00    -0.373 C  
HETATM   14  C   UNL     1     -10.768  11.408  67.540  1.00  0.00    -0.266 A  
ENDROOT
BRANCH   2  15
HETATM   15  C   UNL     1     -11.701  14.319  69.717  1.00  0.00    -0.367 A  
HETATM   16  C   UNL     1     -13.180  14.327  71.711  1.00  0.00    -0.444 A  
HETATM   17 CL   UNL     1     -13.041  16.183  73.648  1.00  0.00    -0.629 Cl 
HETATM   18  C   UNL     1     -12.565  15.495  72.145  1.00  0.00    -0.398 A  
HETATM   19  C   UNL     1     -11.557  16.089  71.378  1.00  0.00    -0.520 A  
HETATM   20  C   UNL     1     -11.120  15.510  70.165  1.00  0.00    -0.337 A  
HETATM   21  C   UNL     1     -12.744  13.760  70.512  1.00  0.00    -0.293 A  
ENDBRANCH   2  15
TORSDOF 1
ENDMDL
MODEL       17
REMARK 921   NORMALIZED FREE ENERGY PREDICTED BY IDOCK:   -6.14 KCAL/MOL
REMARK 922        TOTAL FREE ENERGY PREDICTED BY IDOCK:   -7.00 KCAL/MOL
REMARK 923 INTER-LIGAND FREE ENERGY PREDICTED BY IDOCK:   -6.46 KCAL/MOL
REMARK 924 INTRA-LIGAND FREE ENERGY PREDICTED BY IDOCK:   -0.54 KCAL/MOL
REMARK 927      BINDING AFFINITY PREDICTED BY RF-SCORE:    0.00 PKD
ROOT
HETATM    1  O   UNL     1     -10.845  16.799  68.824  1.00  0.00    -0.328 OA 
HETATM    2  C   UNL     1     -10.090  16.672  67.616  1.00  0.00    -0.272 C  
HETATM    3  H   UNL     1     -11.022  15.918  69.132  1.00  0.00     0.000 HD 
HETATM    4  C   UNL     1      -8.646  16.330  68.003  1.00  0.00    -0.176 A  
HETATM    5  N   UNL     1      -9.819  18.013  67.147  1.00  0.00    -0.304 NA 
HETATM    6  C   UNL     1      -7.776  15.344  67.560  1.00  0.00    -0.205 A  
HETATM    7  C   UNL     1     -10.654  19.097  66.733  1.00  0.00    -0.439 C  
HETATM    8  C   UNL     1      -6.423  15.442  67.914  1.00  0.00    -0.168 A  
HETATM    9  C   UNL     1      -9.745  20.308  67.112  1.00  0.00    -0.452 C  
HETATM   10  N   UNL     1      -8.741  19.828  68.120  1.00  0.00    -0.308 NA 
HETATM   11  C   UNL     1      -5.947  16.492  68.725  1.00  0.00    -0.132 A  
HETATM   12  C   UNL     1      -6.786  17.550  69.052  1.00  0.00    -0.242 A  
HETATM   13  C   UNL     1      -8.860  18.541  67.986  1.00  0.00    -0.298 C  
HETATM   14  C   UNL     1      -8.072  17.469  68.588  1.00  0.00    -0.263 A  
ENDROOT
BRANCH   2  15
HETATM   15  C   UNL     1     -10.817  15.588  66.852  1.00  0.00    -0.301 A  
HETATM   16  C   UNL     1     -11.191  14.633  64.590  1.00  0.00    -0.353 A  
HETATM   17 CL   UNL     1     -12.528  12.345  64.154  1.00  0.00    -0.546 Cl 
HETATM   18  C   UNL     1     -11.912  13.593  65.164  1.00  0.00    -0.372 A  
HETATM   19  C   UNL     1     -12.112  13.552  66.549  1.00  0.00    -0.460 A  
HETATM   20  C   UNL     1     -11.571  14.544  67.398  1.00  0.00    -0.406 A  
HETATM   21  C   UNL     1     -10.659  15.610  65.435  1.00  0.00    -0.436 A  
ENDBRANCH   2  15
TORSDOF 1
ENDMDL
MODEL       18
REMARK 921   NORMALIZED FREE ENERGY PREDICTED BY IDOCK:   -6.14 KCAL/MOL
REMARK 922        TOTAL FREE ENERGY PREDICTED BY IDOCK:   -6.99 KCAL/MOL
REMARK 923 INTER-LIGAND FREE ENERGY PREDICTED BY IDOCK:   -6.95 KCAL/MOL
REMARK 924 INTRA-LIGAND FREE ENERGY PREDICTED BY IDOCK:   -0.04 KCAL/MOL
REMARK 927      BINDING AFFINITY PREDICTED BY RF-SCORE:    0.00 PKD
ROOT
HETATM    1  O   UNL     1     -12.427  14.059  67.708  1.00  0.00    -0.490 OA 
HETATM    2  C   UNL     1     -11.664  13.545  68.802  1.00  0.00    -0.337 C  
HETATM    3  H   UNL     1     -13.073  13.398  67.487  1.00  0.00     0.000 HD 
HETATM    4  C   UNL     1     -12.509  13.697  70.072  1.00  0.00    -0.267 A  
HETATM    5  N   UNL     1     -10.681  14.551  69.139  1.00  0.00    -0.253 NA 
HETATM    6  C   UNL     1     -12.834  12.802  71.081  1.00  0.00    -0.315 A  
HETATM    7  C   UNL     1      -9.599  15.149  68.421  1.00  0.00    -0.212 C  
HETATM    8  C   UNL     1     -13.414  13.304  72.255  1.00  0.00    -0.679 A  
HETATM    9  C   UNL     1      -9.548  16.548  69.112  1.00  0.00    -0.228 C  
HETATM   10  N   UNL     1     -10.873  16.777  69.780  1.00  0.00    -0.265 NA 
HETATM   11  C   UNL     1     -13.696  14.676  72.410  1.00  0.00    -0.575 A  
HETATM   12  C   UNL     1     -13.247  15.587  71.461  1.00  0.00    -0.589 A  
HETATM   13  C   UNL     1     -11.361  15.573  69.769  1.00  0.00    -0.319 C  
HETATM   14  C   UNL     1     -12.582  15.062  70.384  1.00  0.00    -0.399 A  
ENDROOT
BRANCH   2  15
HETATM   15  C   UNL     1     -11.376  12.116  68.396  1.00  0.00    -0.336 A  
HETATM   16  C   UNL     1     -10.874  10.642  66.461  1.00  0.00    -0.168 A  
HETATM   17 CL   UNL     1     -10.173   8.062  66.711  1.00  0.00    -0.370 Cl 
HETATM   18  C   UNL     1     -10.664   9.586  67.338  1.00  0.00    -0.227 A  
HETATM   19  C   UNL     1     -10.829   9.768  68.716  1.00  0.00    -0.219 A  
HETATM   20  C   UNL     1     -11.185  11.028  69.252  1.00  0.00    -0.321 A  
HETATM   21  C   UNL     1     -11.226  11.883  66.997  1.00  0.00    -0.379 A  
ENDBRANCH   2  15
TORSDOF 1
ENDMDL
MODEL       19
REMARK 921   NORMALIZED FREE ENERGY PREDICTED BY IDOCK:   -6.12 KCAL/MOL
REMARK 922        TOTAL FREE ENERGY PREDICTED BY IDOCK:   -6.97 KCAL/MOL
REMARK 923 INTER-LIGAND FREE ENERGY PREDICTED BY IDOCK:   -6.43 KCAL/MOL
REMARK 924 INTRA-LIGAND FREE ENERGY PREDICTED BY IDOCK:   -0.54 KCAL/MOL
REMARK 927      BINDING AFFINITY PREDICTED BY RF-SCORE:    0.00 PKD
ROOT
HETATM    1  O   UNL     1     -12.660  14.142  67.641  1.00  0.00    -0.468 OA 
HETATM    2  C   UNL     1     -11.512  13.337  67.361  1.00  0.00    -0.332 C  
HETATM    3  H   UNL     1     -12.674  14.286  68.580  1.00  0.00     0.000 HD 
HETATM    4  C   UNL     1     -10.280  14.248  67.416  1.00  0.00    -0.247 A  
HETATM    5  N   UNL     1     -11.490  13.119  65.931  1.00  0.00    -0.322 NA 
HETATM    6  C   UNL     1      -9.062  14.121  68.069  1.00  0.00    -0.191 A  
HETATM    7  C   UNL     1     -12.390  12.486  65.019  1.00  0.00    -0.453 C  
HETATM    8  C   UNL     1      -8.025  14.998  67.721  1.00  0.00    -0.155 A  
HETATM    9  C   UNL     1     -12.078  13.291  63.718  1.00  0.00    -0.482 C  
HETATM   10  N   UNL     1     -11.422  14.579  64.124  1.00  0.00    -0.154 NA 
HETATM   11  C   UNL     1      -8.207  16.008  66.755  1.00  0.00    -0.307 A  
HETATM   12  C   UNL     1      -9.377  16.047  66.005  1.00  0.00    -0.380 A  
HETATM   13  C   UNL     1     -11.104  14.312  65.355  1.00  0.00    -0.327 C  
HETATM   14  C   UNL     1     -10.318  15.098  66.301  1.00  0.00    -0.303 A  
ENDROOT
BRANCH   2  15
HETATM   15  C   UNL     1     -11.559  12.265  68.428  1.00  0.00    -0.377 A  
HETATM   16  C   UNL     1     -10.812   9.966  68.996  1.00  0.00    -0.242 A  
HETATM   17 CL   UNL     1     -11.144   8.860  71.421  1.00  0.00    -0.349 Cl 
HETATM   18  C   UNL     1     -11.331  10.128  70.274  1.00  0.00    -0.315 A  
HETATM   19  C   UNL     1     -11.978  11.318  70.628  1.00  0.00    -0.435 A  
HETATM   20  C   UNL     1     -12.097  12.389  69.712  1.00  0.00    -0.292 A  
HETATM   21  C   UNL     1     -10.933  11.027  68.096  1.00  0.00    -0.301 A  
ENDBRANCH   2  15
TORSDOF 1
ENDMDL
MODEL       20
REMARK 921   NORMALIZED FREE ENERGY PREDICTED BY IDOCK:   -6.08 KCAL/MOL
REMARK 922        TOTAL FREE ENERGY PREDICTED BY IDOCK:   -6.94 KCAL/MOL
REMARK 923 INTER-LIGAND FREE ENERGY PREDICTED BY IDOCK:   -6.39 KCAL/MOL
REMARK 924 INTRA-LIGAND FREE ENERGY PREDICTED BY IDOCK:   -0.55 KCAL/MOL
REMARK 927      BINDING AFFINITY PREDICTED BY RF-SCORE:    0.00 PKD
ROOT
HETATM    1  O   UNL     1     -12.246  12.035  66.615  1.00  0.00    -0.550 OA 
HETATM    2  C   UNL     1     -10.831  12.058  66.818  1.00  0.00    -0.266 C  
HETATM    3  H   UNL     1     -12.648  12.258  67.447  1.00  0.00     0.000 HD 
HETATM    4  C   UNL     1     -10.387  13.526  66.837  1.00  0.00    -0.265 A  
HETATM    5  N   UNL     1     -10.219  11.719  65.552  1.00  0.00    -0.242 NA 
HETATM    6  C   UNL     1      -9.595  14.243  67.722  1.00  0.00    -0.221 A  
HETATM    7  C   UNL     1     -10.269  10.563  64.714  1.00  0.00    -0.303 C  
HETATM    8  C   UNL     1      -9.149  15.515  67.336  1.00  0.00    -0.207 A  
HETATM    9  C   UNL     1     -10.027  11.220  63.319  1.00  0.00    -0.393 C  
HETATM   10  N   UNL     1     -10.349  12.681  63.440  1.00  0.00    -0.316 NA 
HETATM   11  C   UNL     1      -9.512  16.079  66.096  1.00  0.00    -0.371 A  
HETATM   12  C   UNL     1     -10.187  15.309  65.156  1.00  0.00    -0.374 A  
HETATM   13  C   UNL     1     -10.371  12.819  64.732  1.00  0.00    -0.322 C  
HETATM   14  C   UNL     1     -10.503  14.031  65.534  1.00  0.00    -0.339 A  
ENDROOT
BRANCH   2  15
HETATM   15  C   UNL     1     -10.646  11.320  68.126  1.00  0.00    -0.225 A  
HETATM   16  C   UNL     1     -11.800  10.597  70.202  1.00  0.00    -0.421 A  
HETATM   17 CL   UNL     1     -10.692   8.951  72.013  1.00  0.00    -0.414 Cl 
HETATM   18  C   UNL     1     -10.667   9.879  70.565  1.00  0.00    -0.317 A  
HETATM   19  C   UNL     1      -9.530   9.894  69.748  1.00  0.00    -0.254 A  
HETATM   20  C   UNL     1      -9.511  10.612  68.530  1.00  0.00    -0.176 A  
HETATM   21  C   UNL     1     -11.774  11.304  68.998  1.00  0.00    -0.410 A  
ENDBRANCH   2  15
TORSDOF 1
ENDMDL
MODEL       21
REMARK 921   NORMALIZED FREE ENERGY PREDICTED BY IDOCK:   -6.03 KCAL/MOL
REMARK 922        TOTAL FREE ENERGY PREDICTED BY IDOCK:   -6.88 KCAL/MOL
REMARK 923 INTER-LIGAND FREE ENERGY PREDICTED BY IDOCK:   -6.39 KCAL/MOL
REMARK 924 INTRA-LIGAND FREE ENERGY PREDICTED BY IDOCK:   -0.50 KCAL/MOL
REMARK 927      BINDING AFFINITY PREDICTED BY RF-SCORE:    0.00 PKD
ROOT
HETATM    1  O   UNL     1      -9.104  11.064  69.205  1.00  0.00    -0.386 OA 
HETATM    2  C   UNL     1     -10.483  11.043  68.830  1.00  0.00    -0.204 C  
HETATM    3  H   UNL     1      -8.928  11.926  69.564  1.00  0.00     0.000 HD 
HETATM    4  C   UNL     1     -11.311  10.870  70.109  1.00  0.00    -0.367 A  
HETATM    5  N   UNL     1     -10.751   9.731  68.284  1.00  0.00    -0.238 NA 
HETATM    6  C   UNL     1     -12.410  11.559  70.602  1.00  0.00    -0.457 A  
HETATM    7  C   UNL     1     -10.241   9.010  67.160  1.00  0.00    -0.265 C  
HETATM    8  C   UNL     1     -13.117  11.004  71.678  1.00  0.00    -0.543 A  
HETATM    9  C   UNL     1     -10.412   7.545  67.669  1.00  0.00    -0.250 C  
HETATM   10  N   UNL     1     -10.530   7.591  69.165  1.00  0.00    -0.216 NA 
HETATM   11  C   UNL     1     -12.716   9.792  72.276  1.00  0.00    -0.333 A  
HETATM   12  C   UNL     1     -11.704   9.035  71.698  1.00  0.00    -0.431 A  
HETATM   13  C   UNL     1     -10.770   8.855  69.350  1.00  0.00    -0.181 C  
HETATM   14  C   UNL     1     -11.117   9.563  70.578  1.00  0.00    -0.342 A  
ENDROOT
BRANCH   2  15
HETATM   15  C   UNL     1     -10.680  12.364  68.119  1.00  0.00    -0.243 A  
HETATM   16  C   UNL     1      -9.603  14.539  67.592  1.00  0.00    -0.214 A  
HETATM   17 CL   UNL     1     -10.653  16.335  65.894  1.00  0.00    -0.327 Cl 
HETATM   18  C   UNL     1     -10.675  14.854  66.766  1.00  0.00    -0.312 A  
HETATM   19  C   UNL     1     -11.747  13.964  66.632  1.00  0.00    -0.417 A  
HETATM   20  C   UNL     1     -11.758  12.720  67.303  1.00  0.00    -0.440 A  
HETATM   21  C   UNL     1      -9.620  13.309  68.253  1.00  0.00    -0.221 A  
ENDBRANCH   2  15
TORSDOF 1
ENDMDL
MODEL       22
REMARK 921   NORMALIZED FREE ENERGY PREDICTED BY IDOCK:   -6.00 KCAL/MOL
REMARK 922        TOTAL FREE ENERGY PREDICTED BY IDOCK:   -6.85 KCAL/MOL
REMARK 923 INTER-LIGAND FREE ENERGY PREDICTED BY IDOCK:   -6.30 KCAL/MOL
REMARK 924 INTRA-LIGAND FREE ENERGY PREDICTED BY IDOCK:   -0.55 KCAL/MOL
REMARK 927      BINDING AFFINITY PREDICTED BY RF-SCORE:    0.00 PKD
ROOT
HETATM    1  O   UNL     1     -11.394   9.477  68.007  1.00  0.00    -0.514 OA 
HETATM    2  C   UNL     1     -10.959  10.674  68.658  1.00  0.00    -0.246 C  
HETATM    3  H   UNL     1     -11.079   9.520  67.112  1.00  0.00     0.000 HD 
HETATM    4  C   UNL     1      -9.471  10.508  68.990  1.00  0.00    -0.211 A  
HETATM    5  N   UNL     1     -11.439  10.609  70.021  1.00  0.00    -0.299 NA 
HETATM    6  C   UNL     1      -8.376  11.331  68.770  1.00  0.00    -0.120 A  
HETATM    7  C   UNL     1     -12.743  10.543  70.602  1.00  0.00    -0.355 C  
HETATM    8  C   UNL     1      -7.172  11.025  69.421  1.00  0.00    -0.114 A  
HETATM    9  C   UNL     1     -12.420   9.772  71.920  1.00  0.00    -0.366 C  
HETATM   10  N   UNL     1     -11.109   9.067  71.728  1.00  0.00    -0.357 NA 
HETATM   11  C   UNL     1      -7.053   9.898  70.259  1.00  0.00    -0.155 A  
HETATM   12  C   UNL     1      -8.181   9.156  70.588  1.00  0.00    -0.220 A  
HETATM   13  C   UNL     1     -10.659   9.675  70.671  1.00  0.00    -0.319 C  
HETATM   14  C   UNL     1      -9.359   9.561  70.018  1.00  0.00    -0.265 A  
ENDROOT
BRANCH   2  15
HETATM   15  C   UNL     1     -11.270  11.760  67.652  1.00  0.00    -0.345 A  
HETATM   16  C   UNL     1     -11.450  12.256  65.225  1.00  0.00    -0.399 A  
HETATM   17 CL   UNL     1     -12.407  14.571  64.257  1.00  0.00    -0.474 Cl 
HETATM   18  C   UNL     1     -11.940  13.519  65.534  1.00  0.00    -0.390 A  
HETATM   19  C   UNL     1     -12.072  13.918  66.869  1.00  0.00    -0.467 A  
HETATM   20  C   UNL     1     -11.738  13.047  67.932  1.00  0.00    -0.402 A  
HETATM   21  C   UNL     1     -11.122  11.401  66.280  1.00  0.00    -0.281 A  
ENDBRANCH   2  15
TORSDOF 1
ENDMDL
MODEL       23
REMARK 921   NORMALIZED FREE ENERGY PREDICTED BY IDOCK:   -5.94 KCAL/MOL
REMARK 922        TOTAL FREE ENERGY PREDICTED BY IDOCK:   -6.78 KCAL/MOL
REMARK 923 INTER-LIGAND FREE ENERGY PREDICTED BY IDOCK:   -6.32 KCAL/MOL
REMARK 924 INTRA-LIGAND FREE ENERGY PREDICTED BY IDOCK:   -0.46 KCAL/MOL
REMARK 927      BINDING AFFINITY PREDICTED BY RF-SCORE:    0.00 PKD
ROOT
HETATM    1  O   UNL     1     -12.513  14.393  67.619  1.00  0.00    -0.596 OA 
HETATM    2  C   UNL     1     -11.379  14.648  68.452  1.00  0.00    -0.292 C  
HETATM    3  H   UNL     1     -12.264  14.630  66.733  1.00  0.00     0.000 HD 
HETATM    4  C   UNL     1     -10.379  13.505  68.240  1.00  0.00    -0.253 A  
HETATM    5  N   UNL     1     -11.757  14.286  69.800  1.00  0.00    -0.292 NA 
HETATM    6  C   UNL     1      -9.018  13.503  67.970  1.00  0.00    -0.189 A  
HETATM    7  C   UNL     1     -12.761  14.760  70.700  1.00  0.00    -0.358 C  
HETATM    8  C   UNL     1      -8.318  12.293  68.087  1.00  0.00    -0.174 A  
HETATM    9  C   UNL     1     -13.018  13.467  71.536  1.00  0.00    -0.341 C  
HETATM   10  N   UNL     1     -12.518  12.299  70.735  1.00  0.00    -0.322 NA 
HETATM   11  C   UNL     1      -8.971  11.095  68.440  1.00  0.00    -0.165 A  
HETATM   12  C   UNL     1     -10.300  11.123  68.844  1.00  0.00    -0.220 A  
HETATM   13  C   UNL     1     -11.794  12.908  69.844  1.00  0.00    -0.303 C  
HETATM   14  C   UNL     1     -10.914  12.347  68.824  1.00  0.00    -0.287 A  
ENDROOT
BRANCH   2  15
HETATM   15  C   UNL     1     -10.898  16.008  67.993  1.00  0.00    -0.335 A  
HETATM   16  C   UNL     1     -10.421  17.397  65.991  1.00  0.00    -0.278 A  
HETATM   17 CL   UNL     1      -9.814  20.010  66.115  1.00  0.00    -0.553 Cl 
HETATM   18  C   UNL     1     -10.186  18.486  66.820  1.00  0.00    -0.393 A  
HETATM   19  C   UNL     1     -10.276  18.348  68.210  1.00  0.00    -0.412 A  
HETATM   20  C   UNL     1     -10.629  17.114  68.804  1.00  0.00    -0.336 A  
HETATM   21  C   UNL     1     -10.769  16.181  66.584  1.00  0.00    -0.226 A  
ENDBRANCH   2  15
TORSDOF 1
ENDMDL
MODEL       24
REMARK 921   NORMALIZED FREE ENERGY PREDICTED BY IDOCK:   -5.92 KCAL/MOL
REMARK 922        TOTAL FREE ENERGY PREDICTED BY IDOCK:   -6.76 KCAL/MOL
REMARK 923 INTER-LIGAND FREE ENERGY PREDICTED BY IDOCK:   -6.76 KCAL/MOL
REMARK 924 INTRA-LIGAND FREE ENERGY PREDICTED BY IDOCK:   -0.01 KCAL/MOL
REMARK 927      BINDING AFFINITY PREDICTED BY RF-SCORE:    0.00 PKD
ROOT
HETATM    1  O   UNL     1     -12.749   9.495  70.210  1.00  0.00    -0.412 OA 
HETATM    2  C   UNL     1     -11.646  10.385  70.018  1.00  0.00    -0.301 C  
HETATM    3  H   UNL     1     -13.523   9.942  69.889  1.00  0.00     0.000 HD 
HETATM    4  C   UNL     1     -11.267  10.345  68.533  1.00  0.00    -0.308 A  
HETATM    5  N   UNL     1     -10.467   9.705  70.506  1.00  0.00    -0.284 NA 
HETATM    6  C   UNL     1     -11.048  11.353  67.605  1.00  0.00    -0.325 A  
HETATM    7  C   UNL     1     -10.080   9.201  71.786  1.00  0.00    -0.209 C  
HETATM    8  C   UNL     1     -10.457  11.013  66.380  1.00  0.00    -0.312 A  
HETATM    9  C   UNL     1      -9.143   8.031  71.353  1.00  0.00    -0.141 C  
HETATM   10  N   UNL     1      -9.472   7.685  69.929  1.00  0.00    -0.161 NA 
HETATM   11  C   UNL     1     -10.118   9.680  66.070  1.00  0.00    -0.318 A  
HETATM   12  C   UNL     1     -10.209   8.697  67.047  1.00  0.00    -0.360 A  
HETATM   13  C   UNL     1     -10.162   8.728  69.580  1.00  0.00    -0.208 C  
HETATM   14  C   UNL     1     -10.684   9.098  68.268  1.00  0.00    -0.173 A  
ENDROOT
BRANCH   2  15
HETATM   15  C   UNL     1     -12.174  11.717  70.505  1.00  0.00    -0.438 A  
HETATM   16  C   UNL     1     -13.563  12.809  72.250  1.00  0.00    -0.563 A  
HETATM   17 CL   UNL     1     -13.751  15.472  72.538  1.00  0.00    -0.622 Cl 
HETATM   18  C   UNL     1     -13.190  14.050  71.751  1.00  0.00    -0.375 A  
HETATM   19  C   UNL     1     -12.348  14.139  70.636  1.00  0.00    -0.435 A  
HETATM   20  C   UNL     1     -11.837  12.980  70.008  1.00  0.00    -0.355 A  
HETATM   21  C   UNL     1     -13.056  11.668  71.624  1.00  0.00    -0.456 A  
ENDBRANCH   2  15
TORSDOF 1
ENDMDL
MODEL       25
REMARK 921   NORMALIZED FREE ENERGY PREDICTED BY IDOCK:   -5.91 KCAL/MOL
REMARK 922        TOTAL FREE ENERGY PREDICTED BY IDOCK:   -6.75 KCAL/MOL
REMARK 923 INTER-LIGAND FREE ENERGY PREDICTED BY IDOCK:   -6.50 KCAL/MOL
REMARK 924 INTRA-LIGAND FREE ENERGY PREDICTED BY IDOCK:   -0.26 KCAL/MOL
REMARK 927      BINDING AFFINITY PREDICTED BY RF-SCORE:    0.00 PKD
ROOT
HETATM    1  O   UNL     1     -11.913  10.376  68.227  1.00  0.00    -0.772 OA 
HETATM    2  C   UNL     1     -11.150  10.974  69.278  1.00  0.00    -0.254 C  
HETATM    3  H   UNL     1     -12.683   9.992  68.629  1.00  0.00     0.000 HD 
HETATM    4  C   UNL     1     -11.828  12.297  69.652  1.00  0.00    -0.393 A  
HETATM    5  N   UNL     1      -9.977  11.559  68.667  1.00  0.00    -0.213 NA 
HETATM    6  C   UNL     1     -12.207  12.830  70.876  1.00  0.00    -0.284 A  
HETATM    7  C   UNL     1      -8.882  11.020  67.924  1.00  0.00    -0.134 C  
HETATM    8  C   UNL     1     -12.574  14.183  70.928  1.00  0.00    -0.433 A  
HETATM    9  C   UNL     1      -8.518  12.249  67.034  1.00  0.00    -0.181 C  
HETATM   10  N   UNL     1      -9.711  13.160  67.002  1.00  0.00    -0.234 NA 
HETATM   11  C   UNL     1     -12.593  14.987  69.769  1.00  0.00    -0.145 A  
HETATM   12  C   UNL     1     -12.084  14.492  68.575  1.00  0.00    -0.257 A  
HETATM   13  C   UNL     1     -10.402  12.687  67.996  1.00  0.00    -0.228 C  
HETATM   14  C   UNL     1     -11.629  13.200  68.598  1.00  0.00    -0.356 A  
ENDROOT
BRANCH   2  15
HETATM   15  C   UNL     1     -11.159   9.923  70.367  1.00  0.00    -0.382 A  
HETATM   16  C   UNL     1      -9.708   8.515  71.809  1.00  0.00    -0.337 A  
HETATM   17 CL   UNL     1     -10.644   7.009  73.826  1.00  0.00    -0.394 Cl 
HETATM   18  C   UNL     1     -10.835   8.080  72.495  1.00  0.00    -0.349 A  
HETATM   19  C   UNL     1     -12.107   8.528  72.118  1.00  0.00    -0.449 A  
HETATM   20  C   UNL     1     -12.278   9.447  71.058  1.00  0.00    -0.354 A  
HETATM   21  C   UNL     1      -9.884   9.422  70.762  1.00  0.00    -0.348 A  
ENDBRANCH   2  15
TORSDOF 1
ENDMDL
MODEL       26
REMARK 921   NORMALIZED FREE ENERGY PREDICTED BY IDOCK:   -5.90 KCAL/MOL
REMARK 922        TOTAL FREE ENERGY PREDICTED BY IDOCK:   -6.74 KCAL/MOL
REMARK 923 INTER-LIGAND FREE ENERGY PREDICTED BY IDOCK:   -6.56 KCAL/MOL
REMARK 924 INTRA-LIGAND FREE ENERGY PREDICTED BY IDOCK:   -0.18 KCAL/MOL
REMARK 927      BINDING AFFINITY PREDICTED BY RF-SCORE:    0.00 PKD
ROOT
HETATM    1  O   UNL     1     -11.275   9.641  68.169  1.00  0.00    -0.505 OA 
HETATM    2  C   UNL     1     -10.865  11.010  68.125  1.00  0.00    -0.226 C  
HETATM    3  H   UNL     1     -12.209   9.638  68.339  1.00  0.00     0.000 HD 
HETATM    4  C   UNL     1     -11.289  11.580  66.766  1.00  0.00    -0.309 A  
HETATM    5  N   UNL     1      -9.442  11.015  67.866  1.00  0.00    -0.162 NA 
HETATM    6  C   UNL     1     -11.974  12.735  66.419  1.00  0.00    -0.443 A  
HETATM    7  C   UNL     1      -8.311  10.504  68.575  1.00  0.00    -0.129 C  
HETATM    8  C   UNL     1     -11.989  13.121  65.071  1.00  0.00    -0.423 A  
HETATM    9  C   UNL     1      -7.338  10.229  67.386  1.00  0.00    -0.093 C  
HETATM   10  N   UNL     1      -8.160  10.144  66.133  1.00  0.00    -0.119 NA 
HETATM   11  C   UNL     1     -11.354  12.350  64.076  1.00  0.00    -0.465 A  
HETATM   12  C   UNL     1     -10.555  11.272  64.440  1.00  0.00    -0.410 A  
HETATM   13  C   UNL     1      -9.279  10.663  66.542  1.00  0.00    -0.166 C  
HETATM   14  C   UNL     1     -10.477  11.000  65.780  1.00  0.00    -0.290 A  
ENDROOT
BRANCH   2  15
HETATM   15  C   UNL     1     -11.557  11.629  69.319  1.00  0.00    -0.385 A  
HETATM   16  C   UNL     1     -12.063  13.779  70.453  1.00  0.00    -0.421 A  
HETATM   17 CL   UNL     1     -13.729  13.990  72.549  1.00  0.00    -0.642 Cl 
HETATM   18  C   UNL     1     -12.876  13.099  71.350  1.00  0.00    -0.311 A  
HETATM   19  C   UNL     1     -13.016  11.709  71.263  1.00  0.00    -0.368 A  
HETATM   20  C   UNL     1     -12.361  10.968  70.253  1.00  0.00    -0.410 A  
HETATM   21  C   UNL     1     -11.418  13.041  69.459  1.00  0.00    -0.289 A  
ENDBRANCH   2  15
TORSDOF 1
ENDMDL
MODEL       27
REMARK 921   NORMALIZED FREE ENERGY PREDICTED BY IDOCK:   -5.89 KCAL/MOL
REMARK 922        TOTAL FREE ENERGY PREDICTED BY IDOCK:   -6.73 KCAL/MOL
REMARK 923 INTER-LIGAND FREE ENERGY PREDICTED BY IDOCK:   -6.17 KCAL/MOL
REMARK 924 INTRA-LIGAND FREE ENERGY PREDICTED BY IDOCK:   -0.56 KCAL/MOL
REMARK 927      BINDING AFFINITY PREDICTED BY RF-SCORE:    0.00 PKD
ROOT
HETATM    1  O   UNL     1     -12.531  14.964  68.273  1.00  0.00    -0.542 OA 
HETATM    2  C   UNL     1     -11.327  14.668  68.985  1.00  0.00    -0.277 C  
HETATM    3  H   UNL     1     -12.308  14.985  67.350  1.00  0.00     0.000 HD 
HETATM    4  C   UNL     1     -11.057  13.166  68.839  1.00  0.00    -0.310 A  
HETATM    5  N   UNL     1     -11.667  14.636  70.391  1.00  0.00    -0.284 NA 
HETATM    6  C   UNL     1      -9.919  12.461  68.471  1.00  0.00    -0.175 A  
HETATM    7  C   UNL     1     -12.187  15.608  71.300  1.00  0.00    -0.415 C  
HETATM    8  C   UNL     1      -9.899  11.074  68.680  1.00  0.00    -0.197 A  
HETATM    9  C   UNL     1     -12.944  14.678  72.299  1.00  0.00    -0.355 C  
HETATM   10  N   UNL     1     -13.188  13.368  71.608  1.00  0.00    -0.377 NA 
HETATM   11  C   UNL     1     -11.010  10.393  69.219  1.00  0.00    -0.287 A  
HETATM   12  C   UNL     1     -12.091  11.113  69.712  1.00  0.00    -0.414 A  
HETATM   13  C   UNL     1     -12.373  13.469  70.601  1.00  0.00    -0.358 C  
HETATM   14  C   UNL     1     -12.017  12.476  69.592  1.00  0.00    -0.339 A  
ENDROOT
BRANCH   2  15
HETATM   15  C   UNL     1     -10.298  15.567  68.335  1.00  0.00    -0.230 A  
HETATM   16  C   UNL     1      -9.689  16.718  66.221  1.00  0.00    -0.318 A  
HETATM   17 CL   UNL     1      -7.670  18.478  66.025  1.00  0.00    -0.248 Cl 
HETATM   18  C   UNL     1      -8.643  17.349  66.882  1.00  0.00    -0.249 A  
HETATM   19  C   UNL     1      -8.400  17.083  68.235  1.00  0.00    -0.228 A  
HETATM   20  C   UNL     1      -9.221  16.195  68.967  1.00  0.00    -0.252 A  
HETATM   21  C   UNL     1     -10.495  15.841  66.950  1.00  0.00    -0.315 A  
ENDBRANCH   2  15
TORSDOF 1
ENDMDL
MODEL       28
REMARK 921   NORMALIZED FREE ENERGY PREDICTED BY IDOCK:   -5.88 KCAL/MOL
REMARK 922        TOTAL FREE ENERGY PREDICTED BY IDOCK:   -6.72 KCAL/MOL
REMARK 923 INTER-LIGAND FREE ENERGY PREDICTED BY IDOCK:   -6.21 KCAL/MOL
REMARK 924 INTRA-LIGAND FREE ENERGY PREDICTED BY IDOCK:   -0.51 KCAL/MOL
REMARK 927      BINDING AFFINITY PREDICTED BY RF-SCORE:    0.00 PKD
ROOT
HETATM    1  O   UNL     1      -8.949  10.550  69.773  1.00  0.00    -0.400 OA 
HETATM    2  C   UNL     1     -10.247  10.336  69.213  1.00  0.00    -0.227 C  
HETATM    3  H   UNL     1      -8.905  11.464  70.028  1.00  0.00     0.000 HD 
HETATM    4  C   UNL     1     -11.245  10.240  70.373  1.00  0.00    -0.407 A  
HETATM    5  N   UNL     1     -10.314   8.945  68.824  1.00  0.00    -0.210 NA 
HETATM    6  C   UNL     1     -12.462  10.866  70.603  1.00  0.00    -0.460 A  
HETATM    7  C   UNL     1      -9.576   8.146  67.897  1.00  0.00    -0.155 C  
HETATM    8  C   UNL     1     -13.276  10.380  71.635  1.00  0.00    -0.502 A  
HETATM    9  C   UNL     1      -9.698   6.746  68.578  1.00  0.00    -0.133 C  
HETATM   10  N   UNL     1     -10.051   6.969  70.020  1.00  0.00    -0.185 NA 
HETATM   11  C   UNL     1     -12.871   9.302  72.449  1.00  0.00    -0.418 A  
HETATM   12  C   UNL     1     -11.721   8.590  72.132  1.00  0.00    -0.448 A  
HETATM   13  C   UNL     1     -10.423   8.213  69.990  1.00  0.00    -0.231 C  
HETATM   14  C   UNL     1     -11.015   9.030  71.044  1.00  0.00    -0.352 A  
ENDROOT
BRANCH   2  15
HETATM   15  C   UNL     1     -10.443  11.528  68.302  1.00  0.00    -0.219 A  
HETATM   16  C   UNL     1     -11.441  12.268  66.152  1.00  0.00    -0.429 A  
HETATM   17 CL   UNL     1     -11.562  14.839  65.385  1.00  0.00    -0.338 Cl 
HETATM   18  C   UNL     1     -11.109  13.580  66.465  1.00  0.00    -0.300 A  
HETATM   19  C   UNL     1     -10.433  13.872  67.655  1.00  0.00    -0.245 A  
HETATM   20  C   UNL     1     -10.096  12.855  68.577  1.00  0.00    -0.193 A  
HETATM   21  C   UNL     1     -11.105  11.267  67.066  1.00  0.00    -0.356 A  
ENDBRANCH   2  15
TORSDOF 1
ENDMDL
MODEL       29
REMARK 921   NORMALIZED FREE ENERGY PREDICTED BY IDOCK:   -5.88 KCAL/MOL
REMARK 922        TOTAL FREE ENERGY PREDICTED BY IDOCK:   -6.72 KCAL/MOL
REMARK 923 INTER-LIGAND FREE ENERGY PREDICTED BY IDOCK:   -6.17 KCAL/MOL
REMARK 924 INTRA-LIGAND FREE ENERGY PREDICTED BY IDOCK:   -0.55 KCAL/MOL
REMARK 927      BINDING AFFINITY PREDICTED BY RF-SCORE:    0.00 PKD
ROOT
HETATM    1  O   UNL     1     -10.416  14.650  68.328  1.00  0.00    -0.228 OA 
HETATM    2  C   UNL     1      -9.867  14.862  67.025  1.00  0.00    -0.237 C  
HETATM    3  H   UNL     1     -11.095  15.302  68.451  1.00  0.00     0.000 HD 
HETATM    4  C   UNL     1     -10.853  14.280  66.005  1.00  0.00    -0.303 A  
HETATM    5  N   UNL     1      -8.832  13.869  66.837  1.00  0.00    -0.221 NA 
HETATM    6  C   UNL     1     -11.407  14.806  64.847  1.00  0.00    -0.411 A  
HETATM    7  C   UNL     1      -7.605  13.588  67.513  1.00  0.00    -0.167 C  
HETATM    8  C   UNL     1     -12.080  13.938  63.976  1.00  0.00    -0.437 A  
HETATM    9  C   UNL     1      -7.490  12.053  67.253  1.00  0.00    -0.158 C  
HETATM   10  N   UNL     1      -8.859  11.546  66.901  1.00  0.00    -0.175 NA 
HETATM   11  C   UNL     1     -12.225  12.566  64.269  1.00  0.00    -0.535 A  
HETATM   12  C   UNL     1     -11.554  12.015  65.354  1.00  0.00    -0.343 A  
HETATM   13  C   UNL     1      -9.472  12.662  66.645  1.00  0.00    -0.244 C  
HETATM   14  C   UNL     1     -10.814  12.882  66.113  1.00  0.00    -0.300 A  
ENDROOT
BRANCH   2  15
HETATM   15  C   UNL     1      -9.689  16.363  66.952  1.00  0.00    -0.260 A  
HETATM   16  C   UNL     1     -10.635  18.534  67.700  1.00  0.00    -0.450 A  
HETATM   17 CL   UNL     1      -9.416  20.894  67.299  1.00  0.00    -0.482 Cl 
HETATM   18  C   UNL     1      -9.544  19.186  67.139  1.00  0.00    -0.319 A  
HETATM   19  C   UNL     1      -8.552  18.458  66.471  1.00  0.00    -0.287 A  
HETATM   20  C   UNL     1      -8.617  17.049  66.373  1.00  0.00    -0.311 A  
HETATM   21  C   UNL     1     -10.693  17.143  67.598  1.00  0.00    -0.302 A  
ENDBRANCH   2  15
TORSDOF 1
ENDMDL
MODEL       30
REMARK 921   NORMALIZED FREE ENERGY PREDICTED BY IDOCK:   -5.82 KCAL/MOL
REMARK 922        TOTAL FREE ENERGY PREDICTED BY IDOCK:   -6.66 KCAL/MOL
REMARK 923 INTER-LIGAND FREE ENERGY PREDICTED BY IDOCK:   -6.10 KCAL/MOL
REMARK 924 INTRA-LIGAND FREE ENERGY PREDICTED BY IDOCK:   -0.56 KCAL/MOL
REMARK 927      BINDING AFFINITY PREDICTED BY RF-SCORE:    0.00 PKD
ROOT
HETATM    1  O   UNL     1     -12.325  14.886  68.246  1.00  0.00    -0.580 OA 
HETATM    2  C   UNL     1     -11.102  14.528  67.597  1.00  0.00    -0.304 C  
HETATM    3  H   UNL     1     -12.512  15.785  68.004  1.00  0.00     0.000 HD 
HETATM    4  C   UNL     1     -11.421  14.249  66.124  1.00  0.00    -0.357 A  
HETATM    5  N   UNL     1     -10.816  13.159  67.964  1.00  0.00    -0.235 NA 
HETATM    6  C   UNL     1     -10.836  14.697  64.948  1.00  0.00    -0.436 A  
HETATM    7  C   UNL     1     -10.565  12.507  69.211  1.00  0.00     0.147 C  
HETATM    8  C   UNL     1     -11.183  14.062  63.747  1.00  0.00     0.429 A  
HETATM    9  C   UNL     1     -11.094  11.075  68.888  1.00  0.00    -0.239 C  
HETATM   10  N   UNL     1     -12.014  11.184  67.706  1.00  0.00    -0.603 NA 
HETATM   11  C   UNL     1     -12.123  13.012  63.713  1.00  0.00    -0.574 A  
HETATM   12  C   UNL     1     -12.602  12.473  64.901  1.00  0.00    -0.469 A  
HETATM   13  C   UNL     1     -11.708  12.368  67.269  1.00  0.00    -0.349 C  
HETATM   14  C   UNL     1     -12.147  13.051  66.056  1.00  0.00    -0.493 A  
ENDROOT
BRANCH   2  15
HETATM   15  C   UNL     1     -10.206  15.723  67.839  1.00  0.00    -0.242 A  
HETATM   16  C   UNL     1     -10.197  18.165  68.291  1.00  0.00    -0.402 A  
HETATM   17 CL   UNL     1      -7.979  19.545  68.911  1.00  0.00    -0.375 Cl 
HETATM   18  C   UNL     1      -8.820  18.113  68.469  1.00  0.00    -0.299 A  
HETATM   19  C   UNL     1      -8.133  16.903  68.312  1.00  0.00    -0.217 A  
HETATM   20  C   UNL     1      -8.817  15.707  67.997  1.00  0.00    -0.169 A  
HETATM   21  C   UNL     1     -10.866  16.980  67.979  1.00  0.00    -0.330 A  
ENDBRANCH   2  15
TORSDOF 1
ENDMDL
MODEL       31
REMARK 921   NORMALIZED FREE ENERGY PREDICTED BY IDOCK:   -5.82 KCAL/MOL
REMARK 922        TOTAL FREE ENERGY PREDICTED BY IDOCK:   -6.65 KCAL/MOL
REMARK 923 INTER-LIGAND FREE ENERGY PREDICTED BY IDOCK:   -6.12 KCAL/MOL
REMARK 924 INTRA-LIGAND FREE ENERGY PREDICTED BY IDOCK:   -0.53 KCAL/MOL
REMARK 927      BINDING AFFINITY PREDICTED BY RF-SCORE:    0.00 PKD
ROOT
HETATM    1  O   UNL     1     -12.407  10.785  68.334  1.00  0.00    -0.813 OA 
HETATM    2  C   UNL     1     -11.259  10.923  69.174  1.00  0.00    -0.256 C  
HETATM    3  H   UNL     1     -12.243  10.044  67.762  1.00  0.00     0.000 HD 
HETATM    4  C   UNL     1     -11.344   9.844  70.260  1.00  0.00    -0.357 A  
HETATM    5  N   UNL     1     -11.508  12.051  70.045  1.00  0.00    -0.175 NA 
HETATM    6  C   UNL     1     -10.420   8.915  70.718  1.00  0.00    -0.283 A  
HETATM    7  C   UNL     1     -11.738  13.442  69.812  1.00  0.00    -0.286 C  
HETATM    8  C   UNL     1     -10.700   8.228  71.907  1.00  0.00    -0.350 A  
HETATM    9  C   UNL     1     -12.621  13.790  71.051  1.00  0.00    -0.371 C  
HETATM   10  N   UNL     1     -13.197  12.506  71.576  1.00  0.00    -0.295 NA 
HETATM   11  C   UNL     1     -11.900   8.440  72.617  1.00  0.00    -0.360 A  
HETATM   12  C   UNL     1     -12.758   9.465  72.236  1.00  0.00    -0.416 A  
HETATM   13  C   UNL     1     -12.445  11.637  70.970  1.00  0.00    -0.334 C  
HETATM   14  C   UNL     1     -12.386  10.188  71.133  1.00  0.00    -0.488 A  
ENDROOT
BRANCH   2  15
HETATM   15  C   UNL     1     -10.096  10.774  68.218  1.00  0.00    -0.187 A  
HETATM   16  C   UNL     1      -9.316   9.592  66.178  1.00  0.00    -0.254 A  
HETATM   17 CL   UNL     1      -7.027  10.191  64.907  1.00  0.00    -0.136 Cl 
HETATM   18  C   UNL     1      -8.172  10.380  66.176  1.00  0.00    -0.144 A  
HETATM   19  C   UNL     1      -7.968  11.331  67.183  1.00  0.00    -0.151 A  
HETATM   20  C   UNL     1      -8.922  11.533  68.206  1.00  0.00    -0.177 A  
HETATM   21  C   UNL     1     -10.254   9.796  67.192  1.00  0.00    -0.288 A  
ENDBRANCH   2  15
TORSDOF 1
ENDMDL
MODEL       32
REMARK 921   NORMALIZED FREE ENERGY PREDICTED BY IDOCK:   -5.80 KCAL/MOL
REMARK 922        TOTAL FREE ENERGY PREDICTED BY IDOCK:   -6.64 KCAL/MOL
REMARK 923 INTER-LIGAND FREE ENERGY PREDICTED BY IDOCK:   -6.30 KCAL/MOL
REMARK 924 INTRA-LIGAND FREE ENERGY PREDICTED BY IDOCK:   -0.34 KCAL/MOL
REMARK 927      BINDING AFFINITY PREDICTED BY RF-SCORE:    0.00 PKD
ROOT
HETATM    1  O   UNL     1      -9.424  14.936  67.669  1.00  0.00    -0.197 OA 
HETATM    2  C   UNL     1      -9.536  15.993  68.626  1.00  0.00    -0.222 C  
HETATM    3  H   UNL     1     -10.307  14.709  67.403  1.00  0.00     0.000 HD 
HETATM    4  C   UNL     1      -9.825  17.288  67.858  1.00  0.00    -0.283 A  
HETATM    5  N   UNL     1      -8.191  16.339  69.030  1.00  0.00    -0.239 NA 
HETATM    6  C   UNL     1     -10.785  18.275  68.032  1.00  0.00    -0.290 A  
HETATM    7  C   UNL     1      -7.140  15.615  69.673  1.00  0.00    -0.160 C  
HETATM    8  C   UNL     1     -10.638  19.479  67.329  1.00  0.00    -0.610 A  
HETATM    9  C   UNL     1      -5.896  16.351  69.086  1.00  0.00    -0.142 C  
HETATM   10  N   UNL     1      -6.332  17.060  67.836  1.00  0.00    -0.134 NA 
HETATM   11  C   UNL     1      -9.564  19.687  66.439  1.00  0.00    -0.490 A  
HETATM   12  C   UNL     1      -8.533  18.758  66.370  1.00  0.00    -0.296 A  
HETATM   13  C   UNL     1      -7.623  17.020  67.973  1.00  0.00    -0.181 C  
HETATM   14  C   UNL     1      -8.661  17.648  67.162  1.00  0.00    -0.252 A  
ENDROOT
BRANCH   2  15
HETATM   15  C   UNL     1     -10.652  15.532  69.538  1.00  0.00    -0.258 A  
HETATM   16  C   UNL     1     -12.136  13.616  70.082  1.00  0.00    -0.431 A  
HETATM   17 CL   UNL     1     -13.771  13.572  72.212  1.00  0.00    -0.655 Cl 
HETATM   18  C   UNL     1     -12.621  14.321  71.176  1.00  0.00    -0.362 A  
HETATM   19  C   UNL     1     -12.161  15.616  71.443  1.00  0.00    -0.476 A  
HETATM   20  C   UNL     1     -11.179  16.228  70.629  1.00  0.00    -0.310 A  
HETATM   21  C   UNL     1     -11.167  14.226  69.283  1.00  0.00    -0.309 A  
ENDBRANCH   2  15
TORSDOF 1
ENDMDL
MODEL       33
REMARK 921   NORMALIZED FREE ENERGY PREDICTED BY IDOCK:   -5.80 KCAL/MOL
REMARK 922        TOTAL FREE ENERGY PREDICTED BY IDOCK:   -6.63 KCAL/MOL
REMARK 923 INTER-LIGAND FREE ENERGY PREDICTED BY IDOCK:   -6.08 KCAL/MOL
REMARK 924 INTRA-LIGAND FREE ENERGY PREDICTED BY IDOCK:   -0.56 KCAL/MOL
REMARK 927      BINDING AFFINITY PREDICTED BY RF-SCORE:    0.00 PKD
ROOT
HETATM    1  O   UNL     1     -12.021  11.847  67.249  1.00  0.00    -0.605 OA 
HETATM    2  C   UNL     1     -10.876  11.711  68.095  1.00  0.00    -0.217 C  
HETATM    3  H   UNL     1     -12.074  11.055  66.727  1.00  0.00     0.000 HD 
HETATM    4  C   UNL     1     -11.256  10.772  69.245  1.00  0.00    -0.333 A  
HETATM    5  N   UNL     1     -10.795  12.917  68.890  1.00  0.00    -0.230 NA 
HETATM    6  C   UNL     1     -10.628   9.652  69.773  1.00  0.00    -0.267 A  
HETATM    7  C   UNL     1     -10.626  14.299  68.566  1.00  0.00    -0.257 C  
HETATM    8  C   UNL     1     -11.085   9.149  71.000  1.00  0.00    -0.374 A  
HETATM    9  C   UNL     1     -11.371  14.959  69.768  1.00  0.00    -0.283 C  
HETATM   10  N   UNL     1     -12.282  13.926  70.365  1.00  0.00    -0.347 NA 
HETATM   11  C   UNL     1     -12.174   9.735  71.678  1.00  0.00    -0.488 A  
HETATM   12  C   UNL     1     -12.711  10.932  71.221  1.00  0.00    -0.542 A  
HETATM   13  C   UNL     1     -11.807  12.843  69.825  1.00  0.00    -0.310 C  
HETATM   14  C   UNL     1     -12.156  11.450  70.080  1.00  0.00    -0.439 A  
ENDROOT
BRANCH   2  15
HETATM   15  C   UNL     1      -9.807  11.180  67.166  1.00  0.00    -0.212 A  
HETATM   16  C   UNL     1      -9.423   9.983  65.025  1.00  0.00    -0.339 A  
HETATM   17 CL   UNL     1      -6.997   9.685  63.912  1.00  0.00    -0.107 Cl 
HETATM   18  C   UNL     1      -8.059  10.214  65.156  1.00  0.00    -0.148 A  
HETATM   19  C   UNL     1      -7.562  10.889  66.277  1.00  0.00    -0.136 A  
HETATM   20  C   UNL     1      -8.427  11.374  67.285  1.00  0.00    -0.148 A  
HETATM   21  C   UNL     1     -10.271  10.463  66.024  1.00  0.00    -0.295 A  
ENDBRANCH   2  15
TORSDOF 1
ENDMDL
MODEL       34
REMARK 921   NORMALIZED FREE ENERGY PREDICTED BY IDOCK:   -5.79 KCAL/MOL
REMARK 922        TOTAL FREE ENERGY PREDICTED BY IDOCK:   -6.63 KCAL/MOL
REMARK 923 INTER-LIGAND FREE ENERGY PREDICTED BY IDOCK:   -6.10 KCAL/MOL
REMARK 924 INTRA-LIGAND FREE ENERGY PREDICTED BY IDOCK:   -0.53 KCAL/MOL
REMARK 927      BINDING AFFINITY PREDICTED BY RF-SCORE:    0.00 PKD
ROOT
HETATM    1  O   UNL     1      -8.773  11.064  68.059  1.00  0.00    -0.129 OA 
HETATM    2  C   UNL     1     -10.171  11.072  67.761  1.00  0.00    -0.183 C  
HETATM    3  H   UNL     1      -8.538  11.952  68.301  1.00  0.00     0.000 HD 
HETATM    4  C   UNL     1     -10.931  11.096  69.092  1.00  0.00    -0.295 A  
HETATM    5  N   UNL     1     -10.530   9.719  67.393  1.00  0.00    -0.244 NA 
HETATM    6  C   UNL     1     -11.967  11.895  69.554  1.00  0.00    -0.355 A  
HETATM    7  C   UNL     1     -10.119   8.844  66.340  1.00  0.00    -0.263 C  
HETATM    8  C   UNL     1     -12.636  11.510  70.725  1.00  0.00    -0.390 A  
HETATM    9  C   UNL     1     -10.328   7.461  67.032  1.00  0.00    -0.314 C  
HETATM   10  N   UNL     1     -10.358   7.691  68.515  1.00  0.00    -0.200 NA 
HETATM   11  C   UNL     1     -12.257  10.358  71.444  1.00  0.00    -0.461 A  
HETATM   12  C   UNL     1     -11.316   9.486  70.911  1.00  0.00    -0.410 A  
HETATM   13  C   UNL     1     -10.528   8.979  68.557  1.00  0.00    -0.196 C  
HETATM   14  C   UNL     1     -10.771   9.845  69.706  1.00  0.00    -0.298 A  
ENDROOT
BRANCH   2  15
HETATM   15  C   UNL     1     -10.348  12.307  66.905  1.00  0.00    -0.236 A  
HETATM   16  C   UNL     1     -11.842  13.409  65.257  1.00  0.00    -0.373 A  
HETATM   17 CL   UNL     1     -11.489  15.928  64.395  1.00  0.00    -0.367 Cl 
HETATM   18  C   UNL     1     -11.042  14.544  65.312  1.00  0.00    -0.353 A  
HETATM   19  C   UNL     1      -9.901  14.565  66.121  1.00  0.00    -0.339 A  
HETATM   20  C   UNL     1      -9.546  13.452  66.919  1.00  0.00    -0.257 A  
HETATM   21  C   UNL     1     -11.486  12.314  66.046  1.00  0.00    -0.434 A  
ENDBRANCH   2  15
TORSDOF 1
ENDMDL
MODEL       35
REMARK 921   NORMALIZED FREE ENERGY PREDICTED BY IDOCK:   -5.77 KCAL/MOL
REMARK 922        TOTAL FREE ENERGY PREDICTED BY IDOCK:   -6.61 KCAL/MOL
REMARK 923 INTER-LIGAND FREE ENERGY PREDICTED BY IDOCK:   -6.14 KCAL/MOL
REMARK 924 INTRA-LIGAND FREE ENERGY PREDICTED BY IDOCK:   -0.46 KCAL/MOL
REMARK 927      BINDING AFFINITY PREDICTED BY RF-SCORE:    0.00 PKD
ROOT
HETATM    1  O   UNL     1     -12.730  14.404  68.010  1.00  0.00    -0.278 OA 
HETATM    2  C   UNL     1     -11.551  14.860  68.679  1.00  0.00    -0.318 C  
HETATM    3  H   UNL     1     -13.452  14.929  68.335  1.00  0.00     0.000 HD 
HETATM    4  C   UNL     1     -11.120  16.174  68.018  1.00  0.00    -0.317 A  
HETATM    5  N   UNL     1     -10.452  14.061  68.184  1.00  0.00    -0.237 NA 
HETATM    6  C   UNL     1     -10.782  17.411  68.549  1.00  0.00    -0.279 A  
HETATM    7  C   UNL     1     -10.158  12.662  68.219  1.00  0.00    -0.233 C  
HETATM    8  C   UNL     1     -10.175  18.354  67.707  1.00  0.00    -0.407 A  
HETATM    9  C   UNL     1      -9.305  12.525  66.920  1.00  0.00    -0.219 C  
HETATM   10  N   UNL     1      -9.606  13.709  66.048  1.00  0.00    -0.218 NA 
HETATM   11  C   UNL     1      -9.935  18.080  66.345  1.00  0.00    -0.362 A  
HETATM   12  C   UNL     1     -10.145  16.799  65.849  1.00  0.00    -0.324 A  
HETATM   13  C   UNL     1     -10.193  14.494  66.900  1.00  0.00    -0.264 C  
HETATM   14  C   UNL     1     -10.632  15.877  66.737  1.00  0.00    -0.309 A  
ENDROOT
BRANCH   2  15
HETATM   15  C   UNL     1     -11.985  14.985  70.123  1.00  0.00    -0.366 A  
HETATM   16  C   UNL     1     -11.165  15.320  72.443  1.00  0.00    -0.186 A  
HETATM   17 CL   UNL     1     -12.790  15.727  74.541  1.00  0.00    -0.375 Cl 
HETATM   18  C   UNL     1     -12.480  15.409  72.880  1.00  0.00    -0.418 A  
HETATM   19  C   UNL     1     -13.537  15.264  71.974  1.00  0.00    -0.571 A  
HETATM   20  C   UNL     1     -13.299  15.052  70.596  1.00  0.00    -0.279 A  
HETATM   21  C   UNL     1     -10.936  15.109  71.081  1.00  0.00    -0.187 A  
ENDBRANCH   2  15
TORSDOF 1
ENDMDL
MODEL       36
REMARK 921   NORMALIZED FREE ENERGY PREDICTED BY IDOCK:   -5.77 KCAL/MOL
REMARK 922        TOTAL FREE ENERGY PREDICTED BY IDOCK:   -6.60 KCAL/MOL
REMARK 923 INTER-LIGAND FREE ENERGY PREDICTED BY IDOCK:   -6.05 KCAL/MOL
REMARK 924 INTRA-LIGAND FREE ENERGY PREDICTED BY IDOCK:   -0.56 KCAL/MOL
REMARK 927      BINDING AFFINITY PREDICTED BY RF-SCORE:    0.00 PKD
ROOT
HETATM    1  O   UNL     1      -8.047  16.518  65.840  1.00  0.00    -0.289 OA 
HETATM    2  C   UNL     1      -9.005  16.641  66.893  1.00  0.00    -0.222 C  
HETATM    3  H   UNL     1      -8.531  16.531  65.023  1.00  0.00     0.000 HD 
HETATM    4  C   UNL     1      -9.429  18.113  66.967  1.00  0.00    -0.274 A  
HETATM    5  N   UNL     1      -8.268  16.622  68.138  1.00  0.00    -0.186 NA 
HETATM    6  C   UNL     1     -10.678  18.717  67.010  1.00  0.00    -0.400 A  
HETATM    7  C   UNL     1      -7.423  15.655  68.765  1.00  0.00    -0.151 C  
HETATM    8  C   UNL     1     -10.748  20.078  67.339  1.00  0.00    -0.359 A  
HETATM    9  C   UNL     1      -6.483  16.595  69.582  1.00  0.00    -0.195 C  
HETATM   10  N   UNL     1      -6.563  17.964  68.971  1.00  0.00    -0.240 NA 
HETATM   11  C   UNL     1      -9.587  20.837  67.593  1.00  0.00    -0.378 A  
HETATM   12  C   UNL     1      -8.353  20.204  67.685  1.00  0.00    -0.348 A  
HETATM   13  C   UNL     1      -7.629  17.841  68.238  1.00  0.00    -0.256 C  
HETATM   14  C   UNL     1      -8.348  18.851  67.469  1.00  0.00    -0.294 A  
ENDROOT
BRANCH   2  15
HETATM   15  C   UNL     1     -10.104  15.682  66.491  1.00  0.00    -0.293 A  
HETATM   16  C   UNL     1     -11.121  14.490  64.565  1.00  0.00    -0.280 A  
HETATM   17 CL   UNL     1     -13.025  12.615  64.825  1.00  0.00    -0.379 Cl 
HETATM   18  C   UNL     1     -11.947  13.802  65.444  1.00  0.00    -0.379 A  
HETATM   19  C   UNL     1     -11.883  14.057  66.819  1.00  0.00    -0.450 A  
HETATM   20  C   UNL     1     -10.967  14.995  67.350  1.00  0.00    -0.315 A  
HETATM   21  C   UNL     1     -10.219  15.415  65.095  1.00  0.00    -0.360 A  
ENDBRANCH   2  15
TORSDOF 1
ENDMDL
MODEL       37
REMARK 921   NORMALIZED FREE ENERGY PREDICTED BY IDOCK:   -5.77 KCAL/MOL
REMARK 922        TOTAL FREE ENERGY PREDICTED BY IDOCK:   -6.60 KCAL/MOL
REMARK 923 INTER-LIGAND FREE ENERGY PREDICTED BY IDOCK:   -6.15 KCAL/MOL
REMARK 924 INTRA-LIGAND FREE ENERGY PREDICTED BY IDOCK:   -0.46 KCAL/MOL
REMARK 927      BINDING AFFINITY PREDICTED BY RF-SCORE:    0.00 PKD
ROOT
HETATM    1  O   UNL     1      -9.101  12.089  69.016  1.00  0.00    -0.382 OA 
HETATM    2  C   UNL     1     -10.256  11.357  68.596  1.00  0.00    -0.208 C  
HETATM    3  H   UNL     1      -8.487  11.456  69.369  1.00  0.00     0.000 HD 
HETATM    4  C   UNL     1      -9.919  10.679  67.263  1.00  0.00    -0.224 A  
HETATM    5  N   UNL     1     -11.191  12.321  68.056  1.00  0.00    -0.249 NA 
HETATM    6  C   UNL     1     -10.071   9.372  66.823  1.00  0.00    -0.325 A  
HETATM    7  C   UNL     1     -11.874  13.446  68.613  1.00  0.00    -0.362 C  
HETATM    8  C   UNL     1      -9.910   9.106  65.456  1.00  0.00    -0.064 A  
HETATM    9  C   UNL     1     -12.035  14.331  67.337  1.00  0.00    -0.391 C  
HETATM   10  N   UNL     1     -11.028  13.865  66.327  1.00  0.00    -0.297 NA 
HETATM   11  C   UNL     1      -9.571  10.124  64.541  1.00  0.00    -0.376 A  
HETATM   12  C   UNL     1      -9.554  11.450  64.956  1.00  0.00    -0.250 A  
HETATM   13  C   UNL     1     -10.689  12.717  66.834  1.00  0.00    -0.253 C  
HETATM   14  C   UNL     1      -9.831  11.675  66.279  1.00  0.00    -0.245 A  
ENDROOT
BRANCH   2  15
HETATM   15  C   UNL     1     -10.515  10.408  69.745  1.00  0.00    -0.284 A  
HETATM   16  C   UNL     1      -9.432   8.829  71.326  1.00  0.00    -0.320 A  
HETATM   17 CL   UNL     1     -10.717   7.691  73.392  1.00  0.00    -0.407 Cl 
HETATM   18  C   UNL     1     -10.643   8.686  71.991  1.00  0.00    -0.351 A  
HETATM   19  C   UNL     1     -11.781   9.363  71.538  1.00  0.00    -0.465 A  
HETATM   20  C   UNL     1     -11.726  10.223  70.418  1.00  0.00    -0.404 A  
HETATM   21  C   UNL     1      -9.385   9.679  70.220  1.00  0.00    -0.292 A  
ENDBRANCH   2  15
TORSDOF 1
ENDMDL
MODEL       38
REMARK 921   NORMALIZED FREE ENERGY PREDICTED BY IDOCK:   -5.75 KCAL/MOL
REMARK 922        TOTAL FREE ENERGY PREDICTED BY IDOCK:   -6.59 KCAL/MOL
REMARK 923 INTER-LIGAND FREE ENERGY PREDICTED BY IDOCK:   -6.03 KCAL/MOL
REMARK 924 INTRA-LIGAND FREE ENERGY PREDICTED BY IDOCK:   -0.55 KCAL/MOL
REMARK 927      BINDING AFFINITY PREDICTED BY RF-SCORE:    0.00 PKD
ROOT
HETATM    1  O   UNL     1      -7.426  16.379  66.548  1.00  0.00    -0.245 OA 
HETATM    2  C   UNL     1      -8.356  16.607  67.610  1.00  0.00    -0.173 C  
HETATM    3  H   UNL     1      -7.928  16.075  65.801  1.00  0.00     0.000 HD 
HETATM    4  C   UNL     1      -9.068  17.936  67.328  1.00  0.00    -0.251 A  
HETATM    5  N   UNL     1      -7.591  17.070  68.747  1.00  0.00    -0.235 NA 
HETATM    6  C   UNL     1     -10.411  18.283  67.316  1.00  0.00    -0.419 A  
HETATM    7  C   UNL     1      -6.549  16.490  69.533  1.00  0.00    -0.217 C  
HETATM    8  C   UNL     1     -10.747  19.644  67.278  1.00  0.00    -0.583 A  
HETATM    9  C   UNL     1      -5.794  17.778  69.988  1.00  0.00    -0.221 C  
HETATM   10  N   UNL     1      -6.170  18.885  69.046  1.00  0.00    -0.238 NA 
HETATM   11  C   UNL     1      -9.757  20.647  67.222  1.00  0.00    -0.562 A  
HETATM   12  C   UNL     1      -8.418  20.307  67.372  1.00  0.00    -0.405 A  
HETATM   13  C   UNL     1      -7.211  18.367  68.466  1.00  0.00    -0.284 C  
HETATM   14  C   UNL     1      -8.144  18.973  67.522  1.00  0.00    -0.292 A  
ENDROOT
BRANCH   2  15
HETATM   15  C   UNL     1      -9.249  15.386  67.571  1.00  0.00    -0.201 A  
HETATM   16  C   UNL     1     -10.046  13.529  66.128  1.00  0.00    -0.307 A  
HETATM   17 CL   UNL     1     -11.531  11.484  67.037  1.00  0.00    -0.346 Cl 
HETATM   18  C   UNL     1     -10.699  12.977  67.223  1.00  0.00    -0.250 A  
HETATM   19  C   UNL     1     -10.660  13.620  68.466  1.00  0.00    -0.259 A  
HETATM   20  C   UNL     1      -9.939  14.823  68.648  1.00  0.00    -0.232 A  
HETATM   21  C   UNL     1      -9.337  14.717  66.315  1.00  0.00    -0.310 A  
ENDBRANCH   2  15
TORSDOF 1
ENDMDL
MODEL       39
REMARK 921   NORMALIZED FREE ENERGY PREDICTED BY IDOCK:   -5.73 KCAL/MOL
REMARK 922        TOTAL FREE ENERGY PREDICTED BY IDOCK:   -6.56 KCAL/MOL
REMARK 923 INTER-LIGAND FREE ENERGY PREDICTED BY IDOCK:   -6.01 KCAL/MOL
REMARK 924 INTRA-LIGAND FREE ENERGY PREDICTED BY IDOCK:   -0.55 KCAL/MOL
REMARK 927      BINDING AFFINITY PREDICTED BY RF-SCORE:    0.00 PKD
ROOT
HETATM    1  O   UNL     1     -10.647  17.788  69.130  1.00  0.00    -0.406 OA 
HETATM    2  C   UNL     1      -9.691  17.243  68.218  1.00  0.00    -0.294 C  
HETATM    3  H   UNL     1     -10.710  17.182  69.859  1.00  0.00     0.000 HD 
HETATM    4  C   UNL     1      -8.294  17.514  68.789  1.00  0.00    -0.219 A  
HETATM    5  N   UNL     1      -9.595  18.165  67.108  1.00  0.00    -0.271 NA 
HETATM    6  C   UNL     1      -7.198  16.687  68.989  1.00  0.00    -0.222 A  
HETATM    7  C   UNL     1     -10.531  18.637  66.137  1.00  0.00    -0.430 C  
HETATM    8  C   UNL     1      -5.963  17.280  69.291  1.00  0.00    -0.216 A  
HETATM    9  C   UNL     1      -9.934  20.048  65.838  1.00  0.00    -0.368 C  
HETATM   10  N   UNL     1      -9.042  20.420  66.987  1.00  0.00    -0.353 NA 
HETATM   11  C   UNL     1      -5.828  18.677  69.422  1.00  0.00    -0.251 A  
HETATM   12  C   UNL     1      -6.889  19.510  69.087  1.00  0.00    -0.381 A  
HETATM   13  C   UNL     1      -8.901  19.266  67.567  1.00  0.00    -0.299 C  
HETATM   14  C   UNL     1      -8.043  18.890  68.686  1.00  0.00    -0.382 A  
ENDROOT
BRANCH   2  15
HETATM   15  C   UNL     1     -10.071  15.781  68.134  1.00  0.00    -0.220 A  
HETATM   16  C   UNL     1     -11.310  13.960  69.282  1.00  0.00    -0.321 A  
HETATM   17 CL   UNL     1     -11.730  11.542  68.192  1.00  0.00    -0.376 Cl 
HETATM   18  C   UNL     1     -11.074  13.132  68.192  1.00  0.00    -0.255 A  
HETATM   19  C   UNL     1     -10.330  13.595  67.101  1.00  0.00    -0.250 A  
HETATM   20  C   UNL     1      -9.825  14.915  67.064  1.00  0.00    -0.239 A  
HETATM   21  C   UNL     1     -10.808  15.263  69.239  1.00  0.00    -0.257 A  
ENDBRANCH   2  15
TORSDOF 1
ENDMDL
MODEL       40
REMARK 921   NORMALIZED FREE ENERGY PREDICTED BY IDOCK:   -5.73 KCAL/MOL
REMARK 922        TOTAL FREE ENERGY PREDICTED BY IDOCK:   -6.56 KCAL/MOL
REMARK 923 INTER-LIGAND FREE ENERGY PREDICTED BY IDOCK:   -6.56 KCAL/MOL
REMARK 924 INTRA-LIGAND FREE ENERGY PREDICTED BY IDOCK:   -0.00 KCAL/MOL
REMARK 927      BINDING AFFINITY PREDICTED BY RF-SCORE:    0.00 PKD
ROOT
HETATM    1  O   UNL     1      -8.643  13.559  66.454  1.00  0.00    -0.424 OA 
HETATM    2  C   UNL     1     -10.066  13.698  66.471  1.00  0.00    -0.286 C  
HETATM    3  H   UNL     1      -8.302  14.116  67.143  1.00  0.00     0.000 HD 
HETATM    4  C   UNL     1     -10.601  12.869  67.645  1.00  0.00    -0.232 A  
HETATM    5  N   UNL     1     -10.585  12.849  65.422  1.00  0.00    -0.284 NA 
HETATM    6  C   UNL     1     -11.483  13.176  68.671  1.00  0.00    -0.342 A  
HETATM    7  C   UNL     1     -10.417  12.825  64.003  1.00  0.00    -0.406 C  
HETATM    8  C   UNL     1     -11.986  12.127  69.453  1.00  0.00    -0.329 A  
HETATM    9  C   UNL     1     -10.622  11.303  63.724  1.00  0.00    -0.392 C  
HETATM   10  N   UNL     1     -10.398  10.568  65.014  1.00  0.00    -0.295 NA 
HETATM   11  C   UNL     1     -11.591  10.791  69.237  1.00  0.00    -0.376 A  
HETATM   12  C   UNL     1     -10.818  10.468  68.128  1.00  0.00    -0.300 A  
HETATM   13  C   UNL     1     -10.457  11.549  65.865  1.00  0.00    -0.255 C  
HETATM   14  C   UNL     1     -10.445  11.512  67.324  1.00  0.00    -0.246 A  
ENDROOT
BRANCH   2  15
HETATM   15  C   UNL     1     -10.277  15.191  66.599  1.00  0.00    -0.270 A  
HETATM   16  C   UNL     1     -10.184  17.103  68.181  1.00  0.00    -0.332 A  
HETATM   17 CL   UNL     1     -10.473  19.663  67.424  1.00  0.00    -0.575 Cl 
HETATM   18  C   UNL     1     -10.435  17.970  67.126  1.00  0.00    -0.367 A  
HETATM   19  C   UNL     1     -10.632  17.471  65.833  1.00  0.00    -0.203 A  
HETATM   20  C   UNL     1     -10.556  16.086  65.561  1.00  0.00    -0.415 A  
HETATM   21  C   UNL     1     -10.111  15.736  67.906  1.00  0.00    -0.230 A  
ENDBRANCH   2  15
TORSDOF 1
ENDMDL
MODEL       41
REMARK 921   NORMALIZED FREE ENERGY PREDICTED BY IDOCK:   -5.63 KCAL/MOL
REMARK 922        TOTAL FREE ENERGY PREDICTED BY IDOCK:   -6.46 KCAL/MOL
REMARK 923 INTER-LIGAND FREE ENERGY PREDICTED BY IDOCK:   -5.91 KCAL/MOL
REMARK 924 INTRA-LIGAND FREE ENERGY PREDICTED BY IDOCK:   -0.55 KCAL/MOL
REMARK 927      BINDING AFFINITY PREDICTED BY RF-SCORE:    0.00 PKD
ROOT
HETATM    1  O   UNL     1      -9.233  11.070  69.380  1.00  0.00    -0.399 OA 
HETATM    2  C   UNL     1     -10.357  10.568  68.653  1.00  0.00    -0.185 C  
HETATM    3  H   UNL     1      -8.490  11.050  68.788  1.00  0.00     0.000 HD 
HETATM    4  C   UNL     1     -10.846  11.686  67.723  1.00  0.00    -0.264 A  
HETATM    5  N   UNL     1     -11.488  10.600  69.554  1.00  0.00    -0.269 NA 
HETATM    6  C   UNL     1     -11.147  11.699  66.369  1.00  0.00    -0.347 A  
HETATM    7  C   UNL     1     -11.771   9.960  70.800  1.00  0.00    -0.341 C  
HETATM    8  C   UNL     1     -11.824  12.811  65.847  1.00  0.00    -0.490 A  
HETATM    9  C   UNL     1     -12.725  11.014  71.444  1.00  0.00    -0.429 C  
HETATM   10  N   UNL     1     -12.500  12.322  70.742  1.00  0.00    -0.322 NA 
HETATM   11  C   UNL     1     -12.170  13.910  66.659  1.00  0.00    -0.465 A  
HETATM   12  C   UNL     1     -11.993  13.838  68.036  1.00  0.00    -0.390 A  
HETATM   13  C   UNL     1     -11.850  11.924  69.689  1.00  0.00    -0.337 C  
HETATM   14  C   UNL     1     -11.433  12.683  68.515  1.00  0.00    -0.349 A  
ENDROOT
BRANCH   2  15
HETATM   15  C   UNL     1      -9.810   9.347  67.947  1.00  0.00    -0.197 A  
HETATM   16  C   UNL     1     -10.430   7.155  66.959  1.00  0.00    -0.392 A  
HETATM   17 CL   UNL     1      -8.724   5.631  65.553  1.00  0.00    -0.154 Cl 
HETATM   18  C   UNL     1      -9.131   7.014  66.490  1.00  0.00    -0.156 A  
HETATM   19  C   UNL     1      -8.172   7.998  66.759  1.00  0.00    -0.111 A  
HETATM   20  C   UNL     1      -8.503   9.165  67.486  1.00  0.00    -0.116 A  
HETATM   21  C   UNL     1     -10.750   8.309  67.678  1.00  0.00    -0.195 A  
ENDBRANCH   2  15
TORSDOF 1
ENDMDL
MODEL       42
REMARK 921   NORMALIZED FREE ENERGY PREDICTED BY IDOCK:   -5.63 KCAL/MOL
REMARK 922        TOTAL FREE ENERGY PREDICTED BY IDOCK:   -6.45 KCAL/MOL
REMARK 923 INTER-LIGAND FREE ENERGY PREDICTED BY IDOCK:   -5.89 KCAL/MOL
REMARK 924 INTRA-LIGAND FREE ENERGY PREDICTED BY IDOCK:   -0.56 KCAL/MOL
REMARK 927      BINDING AFFINITY PREDICTED BY RF-SCORE:    0.00 PKD
ROOT
HETATM    1  O   UNL     1     -12.224  11.525  67.403  1.00  0.00    -0.401 OA 
HETATM    2  C   UNL     1     -10.826  11.799  67.528  1.00  0.00    -0.239 C  
HETATM    3  H   UNL     1     -12.599  11.601  68.272  1.00  0.00     0.000 HD 
HETATM    4  C   UNL     1     -10.659  13.318  67.656  1.00  0.00    -0.242 A  
HETATM    5  N   UNL     1     -10.255  11.683  66.204  1.00  0.00    -0.219 NA 
HETATM    6  C   UNL     1      -9.951  14.099  68.558  1.00  0.00    -0.235 A  
HETATM    7  C   UNL     1     -10.152  10.608  65.268  1.00  0.00    -0.297 C  
HETATM    8  C   UNL     1      -9.774  15.459  68.265  1.00  0.00    -0.209 A  
HETATM    9  C   UNL     1     -10.135  11.407  63.928  1.00  0.00    -0.345 C  
HETATM   10  N   UNL     1     -10.711  12.767  64.199  1.00  0.00    -0.388 NA 
HETATM   11  C   UNL     1     -10.323  16.041  67.103  1.00  0.00    -0.295 A  
HETATM   12  C   UNL     1     -10.911  15.234  66.137  1.00  0.00    -0.320 A  
HETATM   13  C   UNL     1     -10.664  12.795  65.498  1.00  0.00    -0.278 C  
HETATM   14  C   UNL     1     -10.958  13.893  66.413  1.00  0.00    -0.303 A  
ENDROOT
BRANCH   2  15
HETATM   15  C   UNL     1     -10.415  11.008  68.751  1.00  0.00    -0.222 A  
HETATM   16  C   UNL     1     -11.237  10.043  70.886  1.00  0.00    -0.415 A  
HETATM   17 CL   UNL     1      -9.765   8.420  72.439  1.00  0.00    -0.366 Cl 
HETATM   18  C   UNL     1     -10.005   9.429  71.067  1.00  0.00    -0.264 A  
HETATM   19  C   UNL     1      -8.980   9.614  70.132  1.00  0.00    -0.273 A  
HETATM   20  C   UNL     1      -9.176  10.400  68.974  1.00  0.00    -0.194 A  
HETATM   21  C   UNL     1     -11.424  10.820  69.740  1.00  0.00    -0.386 A  
ENDBRANCH   2  15
TORSDOF 1
ENDMDL
MODEL       43
REMARK 921   NORMALIZED FREE ENERGY PREDICTED BY IDOCK:   -5.54 KCAL/MOL
REMARK 922        TOTAL FREE ENERGY PREDICTED BY IDOCK:   -6.36 KCAL/MOL
REMARK 923 INTER-LIGAND FREE ENERGY PREDICTED BY IDOCK:   -5.83 KCAL/MOL
REMARK 924 INTRA-LIGAND FREE ENERGY PREDICTED BY IDOCK:   -0.53 KCAL/MOL
REMARK 927      BINDING AFFINITY PREDICTED BY RF-SCORE:    0.00 PKD
ROOT
HETATM    1  O   UNL     1     -12.147  11.807  66.918  1.00  0.00    -0.566 OA 
HETATM    2  C   UNL     1     -10.932  11.873  66.168  1.00  0.00    -0.308 C  
HETATM    3  H   UNL     1     -11.923  11.471  67.778  1.00  0.00     0.000 HD 
HETATM    4  C   UNL     1     -10.159  13.110  66.641  1.00  0.00    -0.264 A  
HETATM    5  N   UNL     1     -11.273  12.386  64.859  1.00  0.00    -0.302 NA 
HETATM    6  C   UNL     1      -8.841  13.283  67.037  1.00  0.00    -0.216 A  
HETATM    7  C   UNL     1     -12.117  11.913  63.807  1.00  0.00    -0.443 C  
HETATM    8  C   UNL     1      -8.351  14.591  67.169  1.00  0.00    -0.226 A  
HETATM    9  C   UNL     1     -12.532  13.268  63.154  1.00  0.00     0.031 C  
HETATM   10  N   UNL     1     -12.296  14.354  64.163  1.00  0.00    -0.700 NA 
HETATM   11  C   UNL     1      -9.173  15.713  66.939  1.00  0.00    -0.257 A  
HETATM   12  C   UNL     1     -10.447  15.541  66.411  1.00  0.00    -0.310 A  
HETATM   13  C   UNL     1     -11.541  13.730  65.018  1.00  0.00    -0.341 C  
HETATM   14  C   UNL     1     -10.843  14.248  66.189  1.00  0.00    -0.310 A  
ENDROOT
BRANCH   2  15
HETATM   15  C   UNL     1     -10.258  10.551  66.462  1.00  0.00    -0.288 A  
HETATM   16  C   UNL     1     -10.288   8.574  67.965  1.00  0.00    -0.272 A  
HETATM   17 CL   UNL     1      -8.787   6.385  67.557  1.00  0.00    -0.112 Cl 
HETATM   18  C   UNL     1      -9.319   7.973  67.171  1.00  0.00    -0.149 A  
HETATM   19  C   UNL     1      -8.802   8.646  66.058  1.00  0.00    -0.213 A  
HETATM   20  C   UNL     1      -9.264   9.933  65.697  1.00  0.00    -0.245 A  
HETATM   21  C   UNL     1     -10.740   9.846  67.604  1.00  0.00    -0.339 A  
ENDBRANCH   2  15
TORSDOF 1
ENDMDL
MODEL       44
REMARK 921   NORMALIZED FREE ENERGY PREDICTED BY IDOCK:   -5.53 KCAL/MOL
REMARK 922        TOTAL FREE ENERGY PREDICTED BY IDOCK:   -6.35 KCAL/MOL
REMARK 923 INTER-LIGAND FREE ENERGY PREDICTED BY IDOCK:   -5.84 KCAL/MOL
REMARK 924 INTRA-LIGAND FREE ENERGY PREDICTED BY IDOCK:   -0.50 KCAL/MOL
REMARK 927      BINDING AFFINITY PREDICTED BY RF-SCORE:    0.00 PKD
ROOT
HETATM    1  O   UNL     1     -12.527  14.171  67.258  1.00  0.00    -0.569 OA 
HETATM    2  C   UNL     1     -11.243  14.051  67.876  1.00  0.00    -0.273 C  
HETATM    3  H   UNL     1     -12.393  14.609  66.426  1.00  0.00     0.000 HD 
HETATM    4  C   UNL     1     -10.503  12.896  67.190  1.00  0.00    -0.241 A  
HETATM    5  N   UNL     1     -11.447  13.383  69.143  1.00  0.00    -0.283 NA 
HETATM    6  C   UNL     1      -9.228  12.802  66.652  1.00  0.00    -0.212 A  
HETATM    7  C   UNL     1     -12.190  13.711  70.319  1.00  0.00    -0.353 C  
HETATM    8  C   UNL     1      -8.735  11.531  66.323  1.00  0.00    -0.159 A  
HETATM    9  C   UNL     1     -12.520  12.280  70.847  1.00  0.00    -0.276 C  
HETATM   10  N   UNL     1     -12.369  11.323  69.700  1.00  0.00    -0.243 NA 
HETATM   11  C   UNL     1      -9.515  10.370  66.499  1.00  0.00    -0.204 A  
HETATM   12  C   UNL     1     -10.733  10.448  67.162  1.00  0.00    -0.316 A  
HETATM   13  C   UNL     1     -11.711  12.060  68.855  1.00  0.00    -0.326 C  
HETATM   14  C   UNL     1     -11.123  11.697  67.570  1.00  0.00    -0.333 A  
ENDROOT
BRANCH   2  15
HETATM   15  C   UNL     1     -10.620  15.415  67.675  1.00  0.00    -0.280 A  
HETATM   16  C   UNL     1     -10.349  17.277  66.055  1.00  0.00    -0.312 A  
HETATM   17 CL   UNL     1      -9.223  19.633  66.686  1.00  0.00    -0.405 Cl 
HETATM   18  C   UNL     1      -9.719  18.025  67.042  1.00  0.00    -0.303 A  
HETATM   19  C   UNL     1      -9.513  17.482  68.316  1.00  0.00    -0.296 A  
HETATM   20  C   UNL     1      -9.958  16.180  68.639  1.00  0.00    -0.228 A  
HETATM   21  C   UNL     1     -10.786  15.992  66.381  1.00  0.00    -0.232 A  
ENDBRANCH   2  15
TORSDOF 1
ENDMDL
MODEL       45
REMARK 921   NORMALIZED FREE ENERGY PREDICTED BY IDOCK:   -5.52 KCAL/MOL
REMARK 922        TOTAL FREE ENERGY PREDICTED BY IDOCK:   -6.34 KCAL/MOL
REMARK 923 INTER-LIGAND FREE ENERGY PREDICTED BY IDOCK:   -5.78 KCAL/MOL
REMARK 924 INTRA-LIGAND FREE ENERGY PREDICTED BY IDOCK:   -0.56 KCAL/MOL
REMARK 927      BINDING AFFINITY PREDICTED BY RF-SCORE:    0.00 PKD
ROOT
HETATM    1  O   UNL     1      -9.862   9.043  71.236  1.00  0.00    -0.260 OA 
HETATM    2  C   UNL     1     -10.834   8.748  70.230  1.00  0.00    -0.231 C  
HETATM    3  H   UNL     1      -9.008   8.967  70.826  1.00  0.00     0.000 HD 
HETATM    4  C   UNL     1     -10.962   9.983  69.330  1.00  0.00    -0.280 A  
HETATM    5  N   UNL     1     -12.134   8.865  70.853  1.00  0.00    -0.232 NA 
HETATM    6  C   UNL     1     -10.934  10.131  67.951  1.00  0.00    -0.335 A  
HETATM    7  C   UNL     1     -12.771   8.181  71.935  1.00  0.00    -0.332 C  
HETATM    8  C   UNL     1     -11.340  11.357  67.405  1.00  0.00    -0.359 A  
HETATM    9  C   UNL     1     -13.723   9.305  72.451  1.00  0.00    -0.452 C  
HETATM   10  N   UNL     1     -13.194  10.618  71.951  1.00  0.00    -0.462 NA 
HETATM   11  C   UNL     1     -11.741  12.433  68.224  1.00  0.00    -0.398 A  
HETATM   12  C   UNL     1     -11.900  12.241  69.590  1.00  0.00    -0.393 A  
HETATM   13  C   UNL     1     -12.365  10.213  71.036  1.00  0.00    -0.373 C  
HETATM   14  C   UNL     1     -11.602  10.991  70.066  1.00  0.00    -0.427 A  
ENDROOT
BRANCH   2  15
HETATM   15  C   UNL     1     -10.278   7.518  69.547  1.00  0.00    -0.207 A  
HETATM   16  C   UNL     1      -8.181   6.331  68.945  1.00  0.00    -0.113 A  
HETATM   17 CL   UNL     1      -8.130   3.862  67.890  1.00  0.00    -0.088 Cl 
HETATM   18  C   UNL     1      -8.936   5.261  68.482  1.00  0.00    -0.108 A  
HETATM   19  C   UNL     1     -10.334   5.315  68.518  1.00  0.00    -0.182 A  
HETATM   20  C   UNL     1     -11.012   6.438  69.047  1.00  0.00    -0.410 A  
HETATM   21  C   UNL     1      -8.857   7.437  69.465  1.00  0.00    -0.137 A  
ENDBRANCH   2  15
TORSDOF 1
ENDMDL
MODEL       46
REMARK 921   NORMALIZED FREE ENERGY PREDICTED BY IDOCK:   -5.51 KCAL/MOL
REMARK 922        TOTAL FREE ENERGY PREDICTED BY IDOCK:   -6.33 KCAL/MOL
REMARK 923 INTER-LIGAND FREE ENERGY PREDICTED BY IDOCK:   -5.83 KCAL/MOL
REMARK 924 INTRA-LIGAND FREE ENERGY PREDICTED BY IDOCK:   -0.50 KCAL/MOL
REMARK 927      BINDING AFFINITY PREDICTED BY RF-SCORE:    0.00 PKD
ROOT
HETATM    1  O   UNL     1     -11.281   8.991  67.704  1.00  0.00    -0.434 OA 
HETATM    2  C   UNL     1     -10.420  10.009  68.221  1.00  0.00    -0.213 C  
HETATM    3  H   UNL     1     -11.918   8.798  68.381  1.00  0.00     0.000 HD 
HETATM    4  C   UNL     1     -11.173  11.342  68.136  1.00  0.00    -0.343 A  
HETATM    5  N   UNL     1      -9.449  10.303  67.190  1.00  0.00    -0.156 NA 
HETATM    6  C   UNL     1     -11.390  12.345  69.070  1.00  0.00    -0.336 A  
HETATM    7  C   UNL     1      -8.446   9.526  66.533  1.00  0.00    -0.126 C  
HETATM    8  C   UNL     1     -11.898  13.573  68.622  1.00  0.00    -0.404 A  
HETATM    9  C   UNL     1      -8.390  10.254  65.153  1.00  0.00    -0.161 C  
HETATM   10  N   UNL     1      -9.668  11.025  64.991  1.00  0.00    -0.237 NA 
HETATM   11  C   UNL     1     -12.213  13.790  67.265  1.00  0.00    -0.315 A  
HETATM   12  C   UNL     1     -11.868  12.839  66.313  1.00  0.00    -0.485 A  
HETATM   13  C   UNL     1     -10.115  11.013  66.211  1.00  0.00    -0.235 C  
HETATM   14  C   UNL     1     -11.268  11.701  66.783  1.00  0.00    -0.371 A  
ENDROOT
BRANCH   2  15
HETATM   15  C   UNL     1     -10.115   9.539  69.626  1.00  0.00    -0.228 A  
HETATM   16  C   UNL     1     -11.102   8.490  71.650  1.00  0.00    -0.360 A  
HETATM   17 CL   UNL     1      -9.648   7.702  73.765  1.00  0.00    -0.331 Cl 
HETATM   18  C   UNL     1      -9.837   8.429  72.218  1.00  0.00    -0.313 A  
HETATM   19  C   UNL     1      -8.727   8.933  71.529  1.00  0.00    -0.232 A  
HETATM   20  C   UNL     1      -8.858   9.489  70.235  1.00  0.00    -0.281 A  
HETATM   21  C   UNL     1     -11.224   9.042  70.372  1.00  0.00    -0.275 A  
ENDBRANCH   2  15
TORSDOF 1
ENDMDL
MODEL       47
REMARK 921   NORMALIZED FREE ENERGY PREDICTED BY IDOCK:   -5.47 KCAL/MOL
REMARK 922        TOTAL FREE ENERGY PREDICTED BY IDOCK:   -6.28 KCAL/MOL
REMARK 923 INTER-LIGAND FREE ENERGY PREDICTED BY IDOCK:   -5.74 KCAL/MOL
REMARK 924 INTRA-LIGAND FREE ENERGY PREDICTED BY IDOCK:   -0.54 KCAL/MOL
REMARK 927      BINDING AFFINITY PREDICTED BY RF-SCORE:    0.00 PKD
ROOT
HETATM    1  O   UNL     1     -10.052  17.500  68.820  1.00  0.00    -0.331 OA 
HETATM    2  C   UNL     1      -9.142  17.051  67.813  1.00  0.00    -0.228 C  
HETATM    3  H   UNL     1     -10.446  16.724  69.201  1.00  0.00     0.000 HD 
HETATM    4  C   UNL     1      -7.878  16.545  68.519  1.00  0.00    -0.210 A  
HETATM    5  N   UNL     1      -8.542  18.232  67.232  1.00  0.00    -0.251 NA 
HETATM    6  C   UNL     1      -7.153  15.369  68.391  1.00  0.00    -0.111 A  
HETATM    7  C   UNL     1      -9.068  19.355  66.521  1.00  0.00    -0.356 C  
HETATM    8  C   UNL     1      -5.887  15.300  68.989  1.00  0.00    -0.098 A  
HETATM    9  C   UNL     1      -8.021  20.445  66.909  1.00  0.00    -0.276 C  
HETATM   10  N   UNL     1      -7.315  19.980  68.150  1.00  0.00    -0.295 NA 
HETATM   11  C   UNL     1      -5.361  16.377  69.731  1.00  0.00    -0.143 A  
HETATM   12  C   UNL     1      -6.024  17.598  69.743  1.00  0.00    -0.245 A  
HETATM   13  C   UNL     1      -7.655  18.726  68.167  1.00  0.00    -0.272 C  
HETATM   14  C   UNL     1      -7.204  17.655  69.049  1.00  0.00    -0.214 A  
ENDROOT
BRANCH   2  15
HETATM   15  C   UNL     1      -9.924  15.990  67.071  1.00  0.00    -0.257 A  
HETATM   16  C   UNL     1     -11.895  14.485  67.210  1.00  0.00    -0.419 A  
HETATM   17 CL   UNL     1     -12.777  13.010  65.146  1.00  0.00    -0.536 Cl 
HETATM   18  C   UNL     1     -11.681  14.106  65.891  1.00  0.00    -0.365 A  
HETATM   19  C   UNL     1     -10.599  14.629  65.172  1.00  0.00    -0.441 A  
HETATM   20  C   UNL     1      -9.717  15.569  65.754  1.00  0.00    -0.383 A  
HETATM   21  C   UNL     1     -11.020  15.413  67.778  1.00  0.00    -0.311 A  
ENDBRANCH   2  15
TORSDOF 1
ENDMDL
MODEL       48
REMARK 921   NORMALIZED FREE ENERGY PREDICTED BY IDOCK:   -5.40 KCAL/MOL
REMARK 922        TOTAL FREE ENERGY PREDICTED BY IDOCK:   -6.21 KCAL/MOL
REMARK 923 INTER-LIGAND FREE ENERGY PREDICTED BY IDOCK:   -5.67 KCAL/MOL
REMARK 924 INTRA-LIGAND FREE ENERGY PREDICTED BY IDOCK:   -0.54 KCAL/MOL
REMARK 927      BINDING AFFINITY PREDICTED BY RF-SCORE:    0.00 PKD
ROOT
HETATM    1  O   UNL     1     -12.393  16.571  68.228  1.00  0.00     0.414 OA 
HETATM    2  C   UNL     1     -11.091  16.040  68.485  1.00  0.00    -0.347 C  
HETATM    3  H   UNL     1     -12.348  17.019  67.392  1.00  0.00     0.000 HD 
HETATM    4  C   UNL     1     -10.922  14.783  67.623  1.00  0.00    -0.292 A  
HETATM    5  N   UNL     1     -11.159  15.356  69.758  1.00  0.00    -0.265 NA 
HETATM    6  C   UNL     1      -9.908  14.376  66.768  1.00  0.00    -0.269 A  
HETATM    7  C   UNL     1     -11.454  15.784  71.090  1.00  0.00    -0.414 C  
HETATM    8  C   UNL     1      -9.912  13.049  66.315  1.00  0.00    -0.283 A  
HETATM    9  C   UNL     1     -12.049  14.468  71.679  1.00  0.00    -0.306 C  
HETATM   10  N   UNL     1     -12.479  13.605  70.528  1.00  0.00    -0.339 NA 
HETATM   11  C   UNL     1     -10.931  12.146  66.684  1.00  0.00    -0.325 A  
HETATM   12  C   UNL     1     -11.865  12.513  67.646  1.00  0.00    -0.381 A  
HETATM   13  C   UNL     1     -11.866  14.191  69.544  1.00  0.00    -0.322 C  
HETATM   14  C   UNL     1     -11.753  13.782  68.147  1.00  0.00    -0.392 A  
ENDROOT
BRANCH   2  15
HETATM   15  C   UNL     1     -10.163  17.182  68.134  1.00  0.00    -0.332 A  
HETATM   16  C   UNL     1      -7.897  18.119  68.522  1.00  0.00    -0.308 A  
HETATM   17 CL   UNL     1      -6.909  20.213  67.162  1.00  0.00    -0.254 Cl 
HETATM   18  C   UNL     1      -8.148  19.089  67.560  1.00  0.00    -0.267 A  
HETATM   19  C   UNL     1      -9.386  19.134  66.909  1.00  0.00    -0.363 A  
HETATM   20  C   UNL     1     -10.398  18.187  67.190  1.00  0.00    -0.391 A  
HETATM   21  C   UNL     1      -8.900  17.187  68.796  1.00  0.00    -0.235 A  
ENDBRANCH   2  15
TORSDOF 1
ENDMDL
MODEL       49
REMARK 921   NORMALIZED FREE ENERGY PREDICTED BY IDOCK:   -5.38 KCAL/MOL
REMARK 922        TOTAL FREE ENERGY PREDICTED BY IDOCK:   -6.19 KCAL/MOL
REMARK 923 INTER-LIGAND FREE ENERGY PREDICTED BY IDOCK:   -5.65 KCAL/MOL
REMARK 924 INTRA-LIGAND FREE ENERGY PREDICTED BY IDOCK:   -0.54 KCAL/MOL
REMARK 927      BINDING AFFINITY PREDICTED BY RF-SCORE:    0.00 PKD
ROOT
HETATM    1  O   UNL     1     -10.968  13.010  68.391  1.00  0.00    -0.240 OA 
HETATM    2  C   UNL     1     -10.294  13.684  67.325  1.00  0.00    -0.249 C  
HETATM    3  H   UNL     1     -11.686  13.570  68.661  1.00  0.00     0.000 HD 
HETATM    4  C   UNL     1     -11.137  13.508  66.056  1.00  0.00    -0.300 A  
HETATM    5  N   UNL     1      -9.201  12.831  66.913  1.00  0.00    -0.224 NA 
HETATM    6  C   UNL     1     -11.588  14.417  65.110  1.00  0.00    -0.361 A  
HETATM    7  C   UNL     1      -8.041  12.328  67.580  1.00  0.00    -0.165 C  
HETATM    8  C   UNL     1     -12.123  13.922  63.912  1.00  0.00    -0.387 A  
HETATM    9  C   UNL     1      -7.829  10.993  66.800  1.00  0.00    -0.149 C  
HETATM   10  N   UNL     1      -9.127  10.643  66.132  1.00  0.00    -0.164 NA 
HETATM   11  C   UNL     1     -12.235  12.537  63.672  1.00  0.00    -0.642 A  
HETATM   12  C   UNL     1     -11.660  11.632  64.556  1.00  0.00    -0.231 A  
HETATM   13  C   UNL     1      -9.760  11.774  66.226  1.00  0.00    -0.222 C  
HETATM   14  C   UNL     1     -11.046  12.167  65.657  1.00  0.00    -0.360 A  
ENDROOT
BRANCH   2  15
HETATM   15  C   UNL     1     -10.178  15.109  67.820  1.00  0.00    -0.236 A  
HETATM   16  C   UNL     1      -8.892  17.219  67.575  1.00  0.00    -0.219 A  
HETATM   17 CL   UNL     1      -9.608  19.530  68.741  1.00  0.00    -0.472 Cl 
HETATM   18  C   UNL     1      -9.796  17.851  68.420  1.00  0.00    -0.355 A  
HETATM   19  C   UNL     1     -10.858  17.133  68.982  1.00  0.00    -0.129 A  
HETATM   20  C   UNL     1     -11.055  15.764  68.689  1.00  0.00    -0.327 A  
HETATM   21  C   UNL     1      -9.092  15.867  67.290  1.00  0.00    -0.218 A  
ENDBRANCH   2  15
TORSDOF 1
ENDMDL
MODEL       50
REMARK 921   NORMALIZED FREE ENERGY PREDICTED BY IDOCK:   -5.37 KCAL/MOL
REMARK 922        TOTAL FREE ENERGY PREDICTED BY IDOCK:   -6.18 KCAL/MOL
REMARK 923 INTER-LIGAND FREE ENERGY PREDICTED BY IDOCK:   -5.70 KCAL/MOL
REMARK 924 INTRA-LIGAND FREE ENERGY PREDICTED BY IDOCK:   -0.48 KCAL/MOL
REMARK 927      BINDING AFFINITY PREDICTED BY RF-SCORE:    0.00 PKD
ROOT
HETATM    1  O   UNL     1     -11.141   8.324  68.546  1.00  0.00    -0.415 OA 
HETATM    2  C   UNL     1     -10.742   9.633  68.962  1.00  0.00    -0.211 C  
HETATM    3  H   UNL     1     -10.677   8.138  67.739  1.00  0.00     0.000 HD 
HETATM    4  C   UNL     1      -9.346   9.518  69.587  1.00  0.00    -0.213 A  
HETATM    5  N   UNL     1     -11.448   9.917  70.193  1.00  0.00    -0.256 NA 
HETATM    6  C   UNL     1      -8.176  10.233  69.378  1.00  0.00    -0.171 A  
HETATM    7  C   UNL     1     -12.832  10.027  70.529  1.00  0.00    -0.114 C  
HETATM    8  C   UNL     1      -7.123  10.068  70.289  1.00  0.00    -0.156 A  
HETATM    9  C   UNL     1     -12.789   9.595  72.028  1.00  0.00    -0.410 C  
HETATM   10  N   UNL     1     -11.515   8.833  72.248  1.00  0.00    -0.351 NA 
HETATM   11  C   UNL     1      -7.223   9.178  71.378  1.00  0.00    -0.019 A  
HETATM   12  C   UNL     1      -8.438   8.568  71.665  1.00  0.00    -0.235 A  
HETATM   13  C   UNL     1     -10.854   9.151  71.175  1.00  0.00    -0.311 C  
HETATM   14  C   UNL     1      -9.473   8.849  70.813  1.00  0.00    -0.280 A  
ENDROOT
BRANCH   2  15
HETATM   15  C   UNL     1     -10.804  10.447  67.688  1.00  0.00    -0.361 A  
HETATM   16  C   UNL     1     -10.270  10.422  65.264  1.00  0.00    -0.332 A  
HETATM   17 CL   UNL     1     -11.041  12.349  63.560  1.00  0.00    -0.514 Cl 
HETATM   18  C   UNL     1     -10.915  11.644  65.123  1.00  0.00    -0.266 A  
HETATM   19  C   UNL     1     -11.475  12.279  66.238  1.00  0.00    -0.435 A  
HETATM   20  C   UNL     1     -11.423  11.689  67.522  1.00  0.00    -0.360 A  
HETATM   21  C   UNL     1     -10.221   9.845  66.534  1.00  0.00    -0.292 A  
ENDBRANCH   2  15
TORSDOF 1
ENDMDL
MODEL       51
REMARK 921   NORMALIZED FREE ENERGY PREDICTED BY IDOCK:   -5.36 KCAL/MOL
REMARK 922        TOTAL FREE ENERGY PREDICTED BY IDOCK:   -6.17 KCAL/MOL
REMARK 923 INTER-LIGAND FREE ENERGY PREDICTED BY IDOCK:   -5.70 KCAL/MOL
REMARK 924 INTRA-LIGAND FREE ENERGY PREDICTED BY IDOCK:   -0.47 KCAL/MOL
REMARK 927      BINDING AFFINITY PREDICTED BY RF-SCORE:    0.00 PKD
ROOT
HETATM    1  O   UNL     1      -8.901  11.967  67.177  1.00  0.00    -0.167 OA 
HETATM    2  C   UNL     1     -10.108  11.278  66.841  1.00  0.00    -0.212 C  
HETATM    3  H   UNL     1      -8.245  11.701  66.543  1.00  0.00     0.000 HD 
HETATM    4  C   UNL     1     -10.732  11.993  65.636  1.00  0.00    -0.313 A  
HETATM    5  N   UNL     1     -11.106  11.683  67.806  1.00  0.00    -0.231 NA 
HETATM    6  C   UNL     1     -11.214  11.519  64.425  1.00  0.00    -0.327 A  
HETATM    7  C   UNL     1     -11.209  11.558  69.226  1.00  0.00    -0.272 C  
HETATM    8  C   UNL     1     -11.969  12.387  63.623  1.00  0.00    -0.626 A  
HETATM    9  C   UNL     1     -12.078  12.812  69.553  1.00  0.00    -0.205 C  
HETATM   10  N   UNL     1     -11.966  13.760  68.394  1.00  0.00    -0.368 NA 
HETATM   11  C   UNL     1     -12.214  13.721  64.009  1.00  0.00    -0.429 A  
HETATM   12  C   UNL     1     -11.851  14.153  65.278  1.00  0.00    -0.367 A  
HETATM   13  C   UNL     1     -11.461  12.978  67.488  1.00  0.00    -0.328 C  
HETATM   14  C   UNL     1     -11.217  13.235  66.073  1.00  0.00    -0.316 A  
ENDROOT
BRANCH   2  15
HETATM   15  C   UNL     1      -9.648   9.862  66.572  1.00  0.00    -0.243 A  
HETATM   16  C   UNL     1     -10.226   7.469  66.895  1.00  0.00    -0.359 A  
HETATM   17 CL   UNL     1      -8.868   5.452  65.754  1.00  0.00    -0.148 Cl 
HETATM   18  C   UNL     1      -9.145   7.114  66.097  1.00  0.00    -0.119 A  
HETATM   19  C   UNL     1      -8.309   8.101  65.563  1.00  0.00    -0.160 A  
HETATM   20  C   UNL     1      -8.552   9.474  65.795  1.00  0.00    -0.152 A  
HETATM   21  C   UNL     1     -10.459   8.827  67.122  1.00  0.00    -0.354 A  
ENDBRANCH   2  15
TORSDOF 1
ENDMDL
MODEL       52
REMARK 921   NORMALIZED FREE ENERGY PREDICTED BY IDOCK:   -5.34 KCAL/MOL
REMARK 922        TOTAL FREE ENERGY PREDICTED BY IDOCK:   -6.15 KCAL/MOL
REMARK 923 INTER-LIGAND FREE ENERGY PREDICTED BY IDOCK:   -5.74 KCAL/MOL
REMARK 924 INTRA-LIGAND FREE ENERGY PREDICTED BY IDOCK:   -0.41 KCAL/MOL
REMARK 927      BINDING AFFINITY PREDICTED BY RF-SCORE:    0.00 PKD
ROOT
HETATM    1  O   UNL     1     -11.559   5.973  71.915  1.00  0.00    -0.295 OA 
HETATM    2  C   UNL     1     -10.720   6.791  71.094  1.00  0.00    -0.229 C  
HETATM    3  H   UNL     1     -12.457   6.182  71.686  1.00  0.00     0.000 HD 
HETATM    4  C   UNL     1     -10.692   6.170  69.693  1.00  0.00    -0.385 A  
HETATM    5  N   UNL     1      -9.353   6.472  71.441  1.00  0.00    -0.152 NA 
HETATM    6  C   UNL     1     -10.888   6.717  68.433  1.00  0.00    -0.320 A  
HETATM    7  C   UNL     1      -8.594   6.578  72.648  1.00  0.00    -0.124 C  
HETATM    8  C   UNL     1     -10.541   5.949  67.312  1.00  0.00    -0.365 A  
HETATM    9  C   UNL     1      -7.575   5.414  72.438  1.00  0.00    -0.097 C  
HETATM   10  N   UNL     1      -8.149   4.484  71.409  1.00  0.00    -0.093 NA 
HETATM   11  C   UNL     1     -10.033   4.640  67.443  1.00  0.00    -0.190 A  
HETATM   12  C   UNL     1      -9.708   4.146  68.701  1.00  0.00    -0.157 A  
HETATM   13  C   UNL     1      -9.088   5.228  70.906  1.00  0.00    -0.138 C  
HETATM   14  C   UNL     1      -9.958   4.977  69.761  1.00  0.00    -0.319 A  
ENDROOT
BRANCH   2  15
HETATM   15  C   UNL     1     -11.367   8.156  71.172  1.00  0.00    -0.299 A  
HETATM   16  C   UNL     1     -13.234   9.437  72.192  1.00  0.00    -0.541 A  
HETATM   17 CL   UNL     1     -13.487  12.102  71.983  1.00  0.00    -0.505 Cl 
HETATM   18  C   UNL     1     -12.712  10.604  71.649  1.00  0.00    -0.426 A  
HETATM   19  C   UNL     1     -11.557  10.560  70.859  1.00  0.00    -0.385 A  
HETATM   20  C   UNL     1     -10.880   9.343  70.616  1.00  0.00    -0.346 A  
HETATM   21  C   UNL     1     -12.561   8.238  71.947  1.00  0.00    -0.379 A  
ENDBRANCH   2  15
TORSDOF 1
ENDMDL
MODEL       53
REMARK 921   NORMALIZED FREE ENERGY PREDICTED BY IDOCK:   -5.32 KCAL/MOL
REMARK 922        TOTAL FREE ENERGY PREDICTED BY IDOCK:   -6.13 KCAL/MOL
REMARK 923 INTER-LIGAND FREE ENERGY PREDICTED BY IDOCK:   -5.60 KCAL/MOL
REMARK 924 INTRA-LIGAND FREE ENERGY PREDICTED BY IDOCK:   -0.53 KCAL/MOL
REMARK 927      BINDING AFFINITY PREDICTED BY RF-SCORE:    0.00 PKD
ROOT
HETATM    1  O   UNL     1     -12.197  10.704  68.199  1.00  0.00    -0.719 OA 
HETATM    2  C   UNL     1     -11.328  11.353  69.131  1.00  0.00    -0.288 C  
HETATM    3  H   UNL     1     -11.966  11.027  67.336  1.00  0.00     0.000 HD 
HETATM    4  C   UNL     1      -9.960  10.666  69.049  1.00  0.00    -0.226 A  
HETATM    5  N   UNL     1     -11.679  10.861  70.446  1.00  0.00    -0.331 NA 
HETATM    6  C   UNL     1      -8.675  11.172  68.912  1.00  0.00    -0.086 A  
HETATM    7  C   UNL     1     -12.871  10.917  71.231  1.00  0.00    -0.433 C  
HETATM    8  C   UNL     1      -7.592  10.308  69.129  1.00  0.00    -0.111 A  
HETATM    9  C   UNL     1     -12.712   9.612  72.072  1.00  0.00    -0.385 C  
HETATM   10  N   UNL     1     -11.737   8.723  71.355  1.00  0.00    -0.288 NA 
HETATM   11  C   UNL     1      -7.786   8.949  69.449  1.00  0.00    -0.098 A  
HETATM   12  C   UNL     1      -9.065   8.476  69.720  1.00  0.00    -0.153 A  
HETATM   13  C   UNL     1     -11.205   9.567  70.523  1.00  0.00    -0.287 C  
HETATM   14  C   UNL     1     -10.083   9.385  69.608  1.00  0.00    -0.218 A  
ENDROOT
BRANCH   2  15
HETATM   15  C   UNL     1     -11.342  12.799  68.686  1.00  0.00    -0.333 A  
HETATM   16  C   UNL     1     -10.904  15.130  69.422  1.00  0.00    -0.265 A  
HETATM   17 CL   UNL     1     -10.922  17.235  67.755  1.00  0.00    -0.258 Cl 
HETATM   18  C   UNL     1     -11.116  15.566  68.121  1.00  0.00    -0.325 A  
HETATM   19  C   UNL     1     -11.462  14.653  67.117  1.00  0.00    -0.380 A  
HETATM   20  C   UNL     1     -11.578  13.271  67.391  1.00  0.00    -0.396 A  
HETATM   21  C   UNL     1     -11.020  13.763  69.686  1.00  0.00    -0.017 A  
ENDBRANCH   2  15
TORSDOF 1
ENDMDL
MODEL       54
REMARK 921   NORMALIZED FREE ENERGY PREDICTED BY IDOCK:   -5.29 KCAL/MOL
REMARK 922        TOTAL FREE ENERGY PREDICTED BY IDOCK:   -6.09 KCAL/MOL
REMARK 923 INTER-LIGAND FREE ENERGY PREDICTED BY IDOCK:   -5.67 KCAL/MOL
REMARK 924 INTRA-LIGAND FREE ENERGY PREDICTED BY IDOCK:   -0.42 KCAL/MOL
REMARK 927      BINDING AFFINITY PREDICTED BY RF-SCORE:    0.00 PKD
ROOT
HETATM    1  O   UNL     1     -11.143  17.108  67.861  1.00  0.00    -0.288 OA 
HETATM    2  C   UNL     1     -10.575  15.838  68.193  1.00  0.00    -0.275 C  
HETATM    3  H   UNL     1     -11.094  17.645  68.643  1.00  0.00     0.000 HD 
HETATM    4  C   UNL     1      -9.050  15.997  68.198  1.00  0.00    -0.187 A  
HETATM    5  N   UNL     1     -10.650  15.020  67.003  1.00  0.00    -0.287 NA 
HETATM    6  C   UNL     1      -8.084  15.635  69.125  1.00  0.00    -0.238 A  
HETATM    7  C   UNL     1     -11.735  14.538  66.207  1.00  0.00    -0.358 C  
HETATM    8  C   UNL     1      -6.737  15.676  68.735  1.00  0.00    -0.116 A  
HETATM    9  C   UNL     1     -11.033  14.429  64.817  1.00  0.00    -0.397 C  
HETATM   10  N   UNL     1      -9.810  15.299  64.853  1.00  0.00    -0.138 NA 
HETATM   11  C   UNL     1      -6.356  16.103  67.446  1.00  0.00    -0.210 A  
HETATM   12  C   UNL     1      -7.326  16.332  66.478  1.00  0.00    -0.118 A  
HETATM   13  C   UNL     1      -9.694  15.501  66.132  1.00  0.00    -0.319 C  
HETATM   14  C   UNL     1      -8.627  16.168  66.872  1.00  0.00    -0.253 A  
ENDROOT
BRANCH   2  15
HETATM   15  C   UNL     1     -11.186  15.515  69.539  1.00  0.00    -0.300 A  
HETATM   16  C   UNL     1     -11.665  16.430  71.797  1.00  0.00    -0.395 A  
HETATM   17 CL   UNL     1     -13.157  15.149  73.626  1.00  0.00    -0.507 Cl 
HETATM   18  C   UNL     1     -12.378  15.277  72.098  1.00  0.00    -0.365 A  
HETATM   19  C   UNL     1     -12.478  14.244  71.159  1.00  0.00    -0.433 A  
HETATM   20  C   UNL     1     -11.886  14.354  69.880  1.00  0.00    -0.382 A  
HETATM   21  C   UNL     1     -11.081  16.533  70.533  1.00  0.00    -0.104 A  
ENDBRANCH   2  15
TORSDOF 1
ENDMDL
MODEL       55
REMARK 921   NORMALIZED FREE ENERGY PREDICTED BY IDOCK:   -5.17 KCAL/MOL
REMARK 922        TOTAL FREE ENERGY PREDICTED BY IDOCK:   -5.97 KCAL/MOL
REMARK 923 INTER-LIGAND FREE ENERGY PREDICTED BY IDOCK:   -5.43 KCAL/MOL
REMARK 924 INTRA-LIGAND FREE ENERGY PREDICTED BY IDOCK:   -0.54 KCAL/MOL
REMARK 927      BINDING AFFINITY PREDICTED BY RF-SCORE:    0.00 PKD
ROOT
HETATM    1  O   UNL     1      -7.615  16.754  65.789  1.00  0.00    -0.082 OA 
HETATM    2  C   UNL     1      -8.625  16.744  66.802  1.00  0.00    -0.232 C  
HETATM    3  H   UNL     1      -8.063  16.735  64.952  1.00  0.00     0.000 HD 
HETATM    4  C   UNL     1      -9.212  18.157  66.888  1.00  0.00    -0.278 A  
HETATM    5  N   UNL     1      -7.943  16.773  68.077  1.00  0.00    -0.174 NA 
HETATM    6  C   UNL     1     -10.521  18.619  66.888  1.00  0.00    -0.449 A  
HETATM    7  C   UNL     1      -7.023  15.888  68.721  1.00  0.00    -0.132 C  
HETATM    8  C   UNL     1     -10.756  19.955  67.242  1.00  0.00    -0.460 A  
HETATM    9  C   UNL     1      -6.228  16.905  69.599  1.00  0.00    -0.225 C  
HETATM   10  N   UNL     1      -6.434  18.272  69.014  1.00  0.00    -0.238 NA 
HETATM   11  C   UNL     1      -9.698  20.830  67.564  1.00  0.00    -0.444 A  
HETATM   12  C   UNL     1      -8.407  20.335  67.698  1.00  0.00    -0.322 A  
HETATM   13  C   UNL     1      -7.448  18.051  68.232  1.00  0.00    -0.266 C  
HETATM   14  C   UNL     1      -8.242  18.997  67.454  1.00  0.00    -0.297 A  
ENDROOT
BRANCH   2  15
HETATM   15  C   UNL     1      -9.592  15.680  66.330  1.00  0.00    -0.316 A  
HETATM   16  C   UNL     1     -11.330  14.073  67.082  1.00  0.00    -0.348 A  
HETATM   17 CL   UNL     1     -12.860  12.653  65.392  1.00  0.00    -0.148 Cl 
HETATM   18  C   UNL     1     -11.601  13.767  65.754  1.00  0.00    -0.331 A  
HETATM   19  C   UNL     1     -10.873  14.377  64.726  1.00  0.00    -0.415 A  
HETATM   20  C   UNL     1      -9.868  15.332  65.005  1.00  0.00    -0.035 A  
HETATM   21  C   UNL     1     -10.336  15.016  67.350  1.00  0.00    -0.238 A  
ENDBRANCH   2  15
TORSDOF 1
ENDMDL
MODEL       56
REMARK 921   NORMALIZED FREE ENERGY PREDICTED BY IDOCK:   -5.16 KCAL/MOL
REMARK 922        TOTAL FREE ENERGY PREDICTED BY IDOCK:   -5.96 KCAL/MOL
REMARK 923 INTER-LIGAND FREE ENERGY PREDICTED BY IDOCK:   -5.49 KCAL/MOL
REMARK 924 INTRA-LIGAND FREE ENERGY PREDICTED BY IDOCK:   -0.48 KCAL/MOL
REMARK 927      BINDING AFFINITY PREDICTED BY RF-SCORE:    0.00 PKD
ROOT
HETATM    1  O   UNL     1     -10.630  14.221  65.853  1.00  0.00    -0.286 OA 
HETATM    2  C   UNL     1     -10.095  14.626  67.116  1.00  0.00    -0.244 C  
HETATM    3  H   UNL     1     -10.254  14.795  65.197  1.00  0.00     0.000 HD 
HETATM    4  C   UNL     1      -8.664  14.084  67.211  1.00  0.00    -0.227 A  
HETATM    5  N   UNL     1     -10.668  13.752  68.116  1.00  0.00    -0.242 NA 
HETATM    6  C   UNL     1      -7.464  14.691  67.550  1.00  0.00    -0.217 A  
HETATM    7  C   UNL     1     -12.005  13.499  68.552  1.00  0.00    -0.344 C  
HETATM    8  C   UNL     1      -6.352  13.874  67.803  1.00  0.00    -0.169 A  
HETATM    9  C   UNL     1     -11.868  12.020  69.028  1.00  0.00    -0.315 C  
HETATM   10  N   UNL     1     -10.643  11.443  68.379  1.00  0.00    -0.193 NA 
HETATM   11  C   UNL     1      -6.428  12.470  67.690  1.00  0.00    -0.138 A  
HETATM   12  C   UNL     1      -7.658  11.857  67.486  1.00  0.00    -0.140 A  
HETATM   13  C   UNL     1     -10.054  12.525  67.967  1.00  0.00    -0.220 C  
HETATM   14  C   UNL     1      -8.737  12.691  67.360  1.00  0.00    -0.191 A  
ENDROOT
BRANCH   2  15
HETATM   15  C   UNL     1     -10.203  16.135  67.082  1.00  0.00    -0.281 A  
HETATM   16  C   UNL     1     -10.069  18.188  68.472  1.00  0.00    -0.413 A  
HETATM   17 CL   UNL     1     -10.119  20.671  67.450  1.00  0.00    -0.467 Cl 
HETATM   18  C   UNL     1     -10.188  18.958  67.322  1.00  0.00    -0.390 A  
HETATM   19  C   UNL     1     -10.339  18.343  66.073  1.00  0.00    -0.397 A  
HETATM   20  C   UNL     1     -10.348  16.935  65.944  1.00  0.00    -0.327 A  
HETATM   21  C   UNL     1     -10.080  16.798  68.338  1.00  0.00    -0.285 A  
ENDBRANCH   2  15
TORSDOF 1
ENDMDL
MODEL       57
REMARK 921   NORMALIZED FREE ENERGY PREDICTED BY IDOCK:   -5.16 KCAL/MOL
REMARK 922        TOTAL FREE ENERGY PREDICTED BY IDOCK:   -5.96 KCAL/MOL
REMARK 923 INTER-LIGAND FREE ENERGY PREDICTED BY IDOCK:   -5.49 KCAL/MOL
REMARK 924 INTRA-LIGAND FREE ENERGY PREDICTED BY IDOCK:   -0.47 KCAL/MOL
REMARK 927      BINDING AFFINITY PREDICTED BY RF-SCORE:    0.00 PKD
ROOT
HETATM    1  O   UNL     1     -10.988   8.138  67.686  1.00  0.00    -0.508 OA 
HETATM    2  C   UNL     1     -10.322   9.045  68.569  1.00  0.00    -0.203 C  
HETATM    3  H   UNL     1     -11.770   7.841  68.135  1.00  0.00     0.000 HD 
HETATM    4  C   UNL     1     -11.071  10.382  68.514  1.00  0.00    -0.318 A  
HETATM    5  N   UNL     1      -9.131   9.499  67.885  1.00  0.00    -0.126 NA 
HETATM    6  C   UNL     1     -11.554  11.215  69.514  1.00  0.00    -0.392 A  
HETATM    7  C   UNL     1      -7.967   8.833  67.389  1.00  0.00    -0.098 C  
HETATM    8  C   UNL     1     -11.970  12.507  69.160  1.00  0.00    -0.287 A  
HETATM    9  C   UNL     1      -7.585   9.782  66.211  1.00  0.00    -0.100 C  
HETATM   10  N   UNL     1      -8.804  10.583  65.855  1.00  0.00    -0.159 NA 
HETATM   11  C   UNL     1     -11.936  12.953  67.823  1.00  0.00    -0.336 A  
HETATM   12  C   UNL     1     -11.327  12.172  66.848  1.00  0.00    -0.402 A  
HETATM   13  C   UNL     1      -9.547  10.370  66.900  1.00  0.00    -0.172 C  
HETATM   14  C   UNL     1     -10.830  10.965  67.261  1.00  0.00    -0.342 A  
ENDROOT
BRANCH   2  15
HETATM   15  C   UNL     1     -10.371   8.342  69.907  1.00  0.00    -0.210 A  
HETATM   16  C   UNL     1      -9.461   8.361  72.218  1.00  0.00    -0.367 A  
HETATM   17 CL   UNL     1     -10.387   6.782  74.184  1.00  0.00    -0.388 Cl 
HETATM   18  C   UNL     1     -10.350   7.349  72.561  1.00  0.00    -0.227 A  
HETATM   19  C   UNL     1     -11.218   6.817  71.601  1.00  0.00    -0.293 A  
HETATM   20  C   UNL     1     -11.235   7.306  70.274  1.00  0.00    -0.287 A  
HETATM   21  C   UNL     1      -9.482   8.839  70.906  1.00  0.00    -0.269 A  
ENDBRANCH   2  15
TORSDOF 1
ENDMDL
MODEL       58
REMARK 921   NORMALIZED FREE ENERGY PREDICTED BY IDOCK:   -5.13 KCAL/MOL
REMARK 922        TOTAL FREE ENERGY PREDICTED BY IDOCK:   -5.93 KCAL/MOL
REMARK 923 INTER-LIGAND FREE ENERGY PREDICTED BY IDOCK:   -5.40 KCAL/MOL
REMARK 924 INTRA-LIGAND FREE ENERGY PREDICTED BY IDOCK:   -0.53 KCAL/MOL
REMARK 927      BINDING AFFINITY PREDICTED BY RF-SCORE:    0.00 PKD
ROOT
HETATM    1  O   UNL     1      -9.172  13.558  68.987  1.00  0.00    -0.382 OA 
HETATM    2  C   UNL     1     -10.324  13.380  68.159  1.00  0.00    -0.247 C  
HETATM    3  H   UNL     1      -8.429  13.217  68.504  1.00  0.00     0.000 HD 
HETATM    4  C   UNL     1     -10.299  14.473  67.084  1.00  0.00    -0.265 A  
HETATM    5  N   UNL     1     -11.456  13.900  68.894  1.00  0.00    -0.279 NA 
HETATM    6  C   UNL     1     -10.441  14.421  65.705  1.00  0.00    -0.347 A  
HETATM    7  C   UNL     1     -12.065  13.551  70.138  1.00  0.00    -0.354 C  
HETATM    8  C   UNL     1     -10.633  15.623  65.009  1.00  0.00    -0.422 A  
HETATM    9  C   UNL     1     -12.649  14.935  70.560  1.00  0.00    -0.360 C  
HETATM   10  N   UNL     1     -11.914  15.995  69.791  1.00  0.00    -0.253 NA 
HETATM   11  C   UNL     1     -10.651  16.866  65.675  1.00  0.00    -0.231 A  
HETATM   12  C   UNL     1     -10.647  16.907  67.064  1.00  0.00    -0.230 A  
HETATM   13  C   UNL     1     -11.344  15.275  68.871  1.00  0.00    -0.305 C  
HETATM   14  C   UNL     1     -10.575  15.700  67.706  1.00  0.00    -0.281 A  
ENDROOT
BRANCH   2  15
HETATM   15  C   UNL     1     -10.171  11.969  67.635  1.00  0.00    -0.210 A  
HETATM   16  C   UNL     1      -8.518  10.275  66.885  1.00  0.00    -0.126 A  
HETATM   17 CL   UNL     1      -9.158   7.724  66.341  1.00  0.00    -0.202 Cl 
HETATM   18  C   UNL     1      -9.540   9.338  66.792  1.00  0.00    -0.183 A  
HETATM   19  C   UNL     1     -10.859   9.702  67.086  1.00  0.00    -0.184 A  
HETATM   20  C   UNL     1     -11.183  11.013  67.506  1.00  0.00    -0.372 A  
HETATM   21  C   UNL     1      -8.845  11.568  67.299  1.00  0.00    -0.160 A  
ENDBRANCH   2  15
TORSDOF 1
ENDMDL
MODEL       59
REMARK 921   NORMALIZED FREE ENERGY PREDICTED BY IDOCK:   -5.09 KCAL/MOL
REMARK 922        TOTAL FREE ENERGY PREDICTED BY IDOCK:   -5.89 KCAL/MOL
REMARK 923 INTER-LIGAND FREE ENERGY PREDICTED BY IDOCK:   -5.34 KCAL/MOL
REMARK 924 INTRA-LIGAND FREE ENERGY PREDICTED BY IDOCK:   -0.55 KCAL/MOL
REMARK 927      BINDING AFFINITY PREDICTED BY RF-SCORE:    0.00 PKD
ROOT
HETATM    1  O   UNL     1     -11.520   7.633  69.535  1.00  0.00    -0.442 OA 
HETATM    2  C   UNL     1     -10.947   8.872  69.959  1.00  0.00    -0.206 C  
HETATM    3  H   UNL     1     -10.906   7.238  68.927  1.00  0.00     0.000 HD 
HETATM    4  C   UNL     1      -9.860   8.553  70.993  1.00  0.00    -0.245 A  
HETATM    5  N   UNL     1     -11.882   9.472  70.886  1.00  0.00    -0.296 NA 
HETATM    6  C   UNL     1      -8.541   8.966  71.108  1.00  0.00    -0.263 A  
HETATM    7  C   UNL     1     -13.233   9.922  70.766  1.00  0.00    -0.172 C  
HETATM    8  C   UNL     1      -7.866   8.713  72.310  1.00  0.00    -0.062 A  
HETATM    9  C   UNL     1     -13.727   9.709  72.231  1.00  0.00    -0.305 C  
HETATM   10  N   UNL     1     -12.797   8.732  72.890  1.00  0.00    -0.242 NA 
HETATM   11  C   UNL     1      -8.488   8.029  73.375  1.00  0.00    -0.295 A  
HETATM   12  C   UNL     1      -9.845   7.739  73.313  1.00  0.00    -0.362 A  
HETATM   13  C   UNL     1     -11.800   8.747  72.056  1.00  0.00    -0.372 C  
HETATM   14  C   UNL     1     -10.492   8.109  72.164  1.00  0.00    -0.352 A  
ENDROOT
BRANCH   2  15
HETATM   15  C   UNL     1     -10.441   9.490  68.674  1.00  0.00    -0.237 A  
HETATM   16  C   UNL     1      -9.823   9.000  66.320  1.00  0.00    -0.361 A  
HETATM   17 CL   UNL     1      -9.244  10.904  64.516  1.00  0.00    -0.229 Cl 
HETATM   18  C   UNL     1      -9.659  10.361  66.094  1.00  0.00    -0.196 A  
HETATM   19  C   UNL     1      -9.852  11.277  67.135  1.00  0.00    -0.213 A  
HETATM   20  C   UNL     1     -10.242  10.851  68.425  1.00  0.00    -0.193 A  
HETATM   21  C   UNL     1     -10.207   8.586  67.597  1.00  0.00    -0.297 A  
ENDBRANCH   2  15
TORSDOF 1
ENDMDL
MODEL       60
REMARK 921   NORMALIZED FREE ENERGY PREDICTED BY IDOCK:   -5.05 KCAL/MOL
REMARK 922        TOTAL FREE ENERGY PREDICTED BY IDOCK:   -5.84 KCAL/MOL
REMARK 923 INTER-LIGAND FREE ENERGY PREDICTED BY IDOCK:   -5.35 KCAL/MOL
REMARK 924 INTRA-LIGAND FREE ENERGY PREDICTED BY IDOCK:   -0.49 KCAL/MOL
REMARK 927      BINDING AFFINITY PREDICTED BY RF-SCORE:    0.00 PKD
ROOT
HETATM    1  O   UNL     1      -8.428  11.924  66.137  1.00  0.00    -0.381 OA 
HETATM    2  C   UNL     1      -9.778  11.456  66.091  1.00  0.00    -0.219 C  
HETATM    3  H   UNL     1      -8.259  12.191  67.033  1.00  0.00     0.000 HD 
HETATM    4  C   UNL     1      -9.805  10.049  66.699  1.00  0.00    -0.259 A  
HETATM    5  N   UNL     1     -10.036  11.049  64.727  1.00  0.00    -0.283 NA 
HETATM    6  C   UNL     1     -10.613   9.473  67.669  1.00  0.00    -0.329 A  
HETATM    7  C   UNL     1     -10.035  11.741  63.477  1.00  0.00    -0.408 C  
HETATM    8  C   UNL     1     -10.568   8.082  67.834  1.00  0.00    -0.210 A  
HETATM    9  C   UNL     1      -9.654  10.574  62.513  1.00  0.00    -0.202 C  
HETATM   10  N   UNL     1      -9.012   9.494  63.335  1.00  0.00    -0.220 NA 
HETATM   11  C   UNL     1      -9.705   7.276  67.063  1.00  0.00    -0.235 A  
HETATM   12  C   UNL     1      -9.000   7.832  66.003  1.00  0.00    -0.185 A  
HETATM   13  C   UNL     1      -9.355   9.864  64.533  1.00  0.00    -0.275 C  
HETATM   14  C   UNL     1      -9.164   9.178  65.806  1.00  0.00    -0.294 A  
ENDROOT
BRANCH   2  15
HETATM   15  C   UNL     1     -10.545  12.501  66.871  1.00  0.00    -0.255 A  
HETATM   16  C   UNL     1     -10.490  13.931  68.900  1.00  0.00    -0.199 A  
HETATM   17 CL   UNL     1     -12.296  15.855  69.403  1.00  0.00    -0.106 Cl 
HETATM   18  C   UNL     1     -11.651  14.562  68.470  1.00  0.00    -0.313 A  
HETATM   19  C   UNL     1     -12.272  14.163  67.281  1.00  0.00    -0.314 A  
HETATM   20  C   UNL     1     -11.728  13.135  66.478  1.00  0.00    -0.433 A  
HETATM   21  C   UNL     1      -9.958  12.916  68.103  1.00  0.00    -0.234 A  
ENDBRANCH   2  15
TORSDOF 1
ENDMDL
MODEL       61
REMARK 921   NORMALIZED FREE ENERGY PREDICTED BY IDOCK:   -5.04 KCAL/MOL
REMARK 922        TOTAL FREE ENERGY PREDICTED BY IDOCK:   -5.83 KCAL/MOL
REMARK 923 INTER-LIGAND FREE ENERGY PREDICTED BY IDOCK:   -5.27 KCAL/MOL
REMARK 924 INTRA-LIGAND FREE ENERGY PREDICTED BY IDOCK:   -0.56 KCAL/MOL
REMARK 927      BINDING AFFINITY PREDICTED BY RF-SCORE:    0.00 PKD
ROOT
HETATM    1  O   UNL     1      -9.448   9.898  70.931  1.00  0.00    -0.295 OA 
HETATM    2  C   UNL     1     -10.603   9.413  70.242  1.00  0.00    -0.250 C  
HETATM    3  H   UNL     1      -8.851   9.165  71.020  1.00  0.00     0.000 HD 
HETATM    4  C   UNL     1     -10.245   9.300  68.756  1.00  0.00    -0.223 A  
HETATM    5  N   UNL     1     -11.512  10.530  70.106  1.00  0.00    -0.301 NA 
HETATM    6  C   UNL     1     -10.406   8.270  67.840  1.00  0.00    -0.278 A  
HETATM    7  C   UNL     1     -12.192  11.365  71.046  1.00  0.00    -0.285 C  
HETATM    8  C   UNL     1     -10.218   8.553  66.479  1.00  0.00    -0.286 A  
HETATM    9  C   UNL     1     -12.312  12.680  70.213  1.00  0.00    -0.195 C  
HETATM   10  N   UNL     1     -11.289  12.621  69.116  1.00  0.00    -0.280 NA 
HETATM   11  C   UNL     1      -9.844   9.839  66.039  1.00  0.00    -0.342 A  
HETATM   12  C   UNL     1      -9.818  10.899  66.937  1.00  0.00    -0.222 A  
HETATM   13  C   UNL     1     -10.977  11.360  69.142  1.00  0.00    -0.236 C  
HETATM   14  C   UNL     1     -10.122  10.598  68.239  1.00  0.00    -0.176 A  
ENDROOT
BRANCH   2  15
HETATM   15  C   UNL     1     -10.901   8.097  70.928  1.00  0.00    -0.254 A  
HETATM   16  C   UNL     1      -9.876   6.194  72.149  1.00  0.00    -0.174 A  
HETATM   17 CL   UNL     1     -11.308   4.266  73.352  1.00  0.00    -0.366 Cl 
HETATM   18  C   UNL     1     -11.146   5.692  72.404  1.00  0.00    -0.271 A  
HETATM   19  C   UNL     1     -12.278   6.354  71.915  1.00  0.00    -0.332 A  
HETATM   20  C   UNL     1     -12.165   7.554  71.176  1.00  0.00    -0.330 A  
HETATM   21  C   UNL     1      -9.771   7.379  71.418  1.00  0.00    -0.175 A  
ENDBRANCH   2  15
TORSDOF 1
ENDMDL
MODEL       62
REMARK 921   NORMALIZED FREE ENERGY PREDICTED BY IDOCK:   -5.00 KCAL/MOL
REMARK 922        TOTAL FREE ENERGY PREDICTED BY IDOCK:   -5.79 KCAL/MOL
REMARK 923 INTER-LIGAND FREE ENERGY PREDICTED BY IDOCK:   -5.64 KCAL/MOL
REMARK 924 INTRA-LIGAND FREE ENERGY PREDICTED BY IDOCK:   -0.15 KCAL/MOL
REMARK 927      BINDING AFFINITY PREDICTED BY RF-SCORE:    0.00 PKD
ROOT
HETATM    1  O   UNL     1     -12.409   6.386  72.234  1.00  0.00    -0.510 OA 
HETATM    2  C   UNL     1     -11.178   6.947  71.770  1.00  0.00    -0.252 C  
HETATM    3  H   UNL     1     -13.084   6.661  71.625  1.00  0.00     0.000 HD 
HETATM    4  C   UNL     1     -10.698   6.100  70.586  1.00  0.00    -0.336 A  
HETATM    5  N   UNL     1     -10.150   6.529  72.698  1.00  0.00    -0.172 NA 
HETATM    6  C   UNL     1     -10.265   6.447  69.314  1.00  0.00    -0.229 A  
HETATM    7  C   UNL     1      -9.939   6.744  74.095  1.00  0.00    -0.342 C  
HETATM    8  C   UNL     1      -9.639   5.466  68.533  1.00  0.00    -0.169 A  
HETATM    9  C   UNL     1      -9.150   5.447  74.459  1.00  0.00    -0.121 C  
HETATM   10  N   UNL     1      -9.416   4.433  73.384  1.00  0.00    -0.117 NA 
HETATM   11  C   UNL     1      -9.472   4.146  69.001  1.00  0.00    -0.244 A  
HETATM   12  C   UNL     1      -9.779   3.835  70.320  1.00  0.00    -0.222 A  
HETATM   13  C   UNL     1      -9.920   5.190  72.456  1.00  0.00    -0.172 C  
HETATM   14  C   UNL     1     -10.282   4.856  71.082  1.00  0.00    -0.261 A  
ENDROOT
BRANCH   2  15
HETATM   15  C   UNL     1     -11.544   8.374  71.426  1.00  0.00    -0.332 A  
HETATM   16  C   UNL     1     -10.728  10.444  70.322  1.00  0.00    -0.249 A  
HETATM   17 CL   UNL     1     -12.273  12.598  69.893  1.00  0.00    -0.288 Cl 
HETATM   18  C   UNL     1     -11.980  11.017  70.503  1.00  0.00    -0.379 A  
HETATM   19  C   UNL     1     -12.995  10.307  71.155  1.00  0.00    -0.503 A  
HETATM   20  C   UNL     1     -12.785   8.988  71.619  1.00  0.00    -0.421 A  
HETATM   21  C   UNL     1     -10.527   9.141  70.784  1.00  0.00    -0.322 A  
ENDBRANCH   2  15
TORSDOF 1
ENDMDL
MODEL       63
REMARK 921   NORMALIZED FREE ENERGY PREDICTED BY IDOCK:   -4.96 KCAL/MOL
REMARK 922        TOTAL FREE ENERGY PREDICTED BY IDOCK:   -5.75 KCAL/MOL
REMARK 923 INTER-LIGAND FREE ENERGY PREDICTED BY IDOCK:   -5.23 KCAL/MOL
REMARK 924 INTRA-LIGAND FREE ENERGY PREDICTED BY IDOCK:   -0.51 KCAL/MOL
REMARK 927      BINDING AFFINITY PREDICTED BY RF-SCORE:    0.00 PKD
ROOT
HETATM    1  O   UNL     1     -11.056   9.349  67.709  1.00  0.00    -0.504 OA 
HETATM    2  C   UNL     1     -10.496   9.495  69.017  1.00  0.00    -0.213 C  
HETATM    3  H   UNL     1     -11.722   8.675  67.768  1.00  0.00     0.000 HD 
HETATM    4  C   UNL     1     -11.488  10.305  69.861  1.00  0.00    -0.340 A  
HETATM    5  N   UNL     1      -9.482  10.523  68.927  1.00  0.00    -0.185 NA 
HETATM    6  C   UNL     1     -12.024  10.088  71.122  1.00  0.00    -0.484 A  
HETATM    7  C   UNL     1      -8.265  10.642  68.188  1.00  0.00    -0.116 C  
HETATM    8  C   UNL     1     -12.711  11.140  71.744  1.00  0.00    -0.396 A  
HETATM    9  C   UNL     1      -8.182  12.193  68.037  1.00  0.00    -0.158 C  
HETATM   10  N   UNL     1      -9.559  12.748  68.260  1.00  0.00    -0.221 NA 
HETATM   11  C   UNL     1     -12.887  12.385  71.105  1.00  0.00    -0.299 A  
HETATM   12  C   UNL     1     -12.235  12.647  69.906  1.00  0.00    -0.238 A  
HETATM   13  C   UNL     1     -10.147  11.726  68.806  1.00  0.00    -0.140 C  
HETATM   14  C   UNL     1     -11.480  11.626  69.391  1.00  0.00    -0.372 A  
ENDROOT
BRANCH   2  15
HETATM   15  C   UNL     1     -10.285   8.069  69.476  1.00  0.00    -0.209 A  
HETATM   16  C   UNL     1      -9.094   6.649  71.128  1.00  0.00    -0.152 A  
HETATM   17 CL   UNL     1      -9.556   4.020  71.424  1.00  0.00    -0.230 Cl 
HETATM   18  C   UNL     1      -9.799   5.545  70.667  1.00  0.00    -0.192 A  
HETATM   19  C   UNL     1     -10.712   5.680  69.614  1.00  0.00    -0.398 A  
HETATM   20  C   UNL     1     -10.959   6.935  69.014  1.00  0.00    -0.225 A  
HETATM   21  C   UNL     1      -9.342   7.887  70.530  1.00  0.00    -0.162 A  
ENDBRANCH   2  15
TORSDOF 1
ENDMDL
MODEL       64
REMARK 921   NORMALIZED FREE ENERGY PREDICTED BY IDOCK:   -4.94 KCAL/MOL
REMARK 922        TOTAL FREE ENERGY PREDICTED BY IDOCK:   -5.72 KCAL/MOL
REMARK 923 INTER-LIGAND FREE ENERGY PREDICTED BY IDOCK:   -5.18 KCAL/MOL
REMARK 924 INTRA-LIGAND FREE ENERGY PREDICTED BY IDOCK:   -0.54 KCAL/MOL
REMARK 927      BINDING AFFINITY PREDICTED BY RF-SCORE:    0.00 PKD
ROOT
HETATM    1  O   UNL     1      -9.430   8.347  70.700  1.00  0.00    -0.160 OA 
HETATM    2  C   UNL     1     -10.496   8.263  69.751  1.00  0.00    -0.220 C  
HETATM    3  H   UNL     1      -8.627   8.456  70.204  1.00  0.00     0.000 HD 
HETATM    4  C   UNL     1     -10.791   9.684  69.255  1.00  0.00    -0.227 A  
HETATM    5  N   UNL     1     -11.719   8.097  70.505  1.00  0.00    -0.140 NA 
HETATM    6  C   UNL     1     -10.931  10.210  67.979  1.00  0.00    -0.326 A  
HETATM    7  C   UNL     1     -12.191   7.092  71.405  1.00  0.00    -0.366 C  
HETATM    8  C   UNL     1     -11.460  11.502  67.845  1.00  0.00    -0.372 A  
HETATM    9  C   UNL     1     -13.132   7.947  72.309  1.00  0.00    -0.073 C  
HETATM   10  N   UNL     1     -12.732   9.386  72.153  1.00  0.00    -0.389 NA 
HETATM   11  C   UNL     1     -11.816  12.273  68.971  1.00  0.00    -0.358 A  
HETATM   12  C   UNL     1     -11.806  11.698  70.236  1.00  0.00    -0.414 A  
HETATM   13  C   UNL     1     -11.996   9.318  71.084  1.00  0.00    -0.322 C  
HETATM   14  C   UNL     1     -11.391  10.394  70.306  1.00  0.00    -0.406 A  
ENDROOT
BRANCH   2  15
HETATM   15  C   UNL     1      -9.962   7.319  68.696  1.00  0.00    -0.169 A  
HETATM   16  C   UNL     1     -10.615   5.610  67.017  1.00  0.00    -0.358 A  
HETATM   17 CL   UNL     1      -8.903   4.558  65.235  1.00  0.00    -0.134 Cl 
HETATM   18  C   UNL     1      -9.302   5.571  66.567  1.00  0.00    -0.147 A  
HETATM   19  C   UNL     1      -8.322   6.363  67.176  1.00  0.00    -0.112 A  
HETATM   20  C   UNL     1      -8.643   7.238  68.240  1.00  0.00    -0.123 A  
HETATM   21  C   UNL     1     -10.925   6.476  68.068  1.00  0.00    -0.368 A  
ENDBRANCH   2  15
TORSDOF 1
ENDMDL
MODEL       65
REMARK 921   NORMALIZED FREE ENERGY PREDICTED BY IDOCK:   -4.91 KCAL/MOL
REMARK 922        TOTAL FREE ENERGY PREDICTED BY IDOCK:   -5.69 KCAL/MOL
REMARK 923 INTER-LIGAND FREE ENERGY PREDICTED BY IDOCK:   -5.19 KCAL/MOL
REMARK 924 INTRA-LIGAND FREE ENERGY PREDICTED BY IDOCK:   -0.50 KCAL/MOL
REMARK 927      BINDING AFFINITY PREDICTED BY RF-SCORE:    0.00 PKD
ROOT
HETATM    1  O   UNL     1     -11.147  16.955  66.371  1.00  0.00     0.089 OA 
HETATM    2  C   UNL     1     -10.530  15.756  66.846  1.00  0.00    -0.315 C  
HETATM    3  H   UNL     1     -12.017  16.718  66.071  1.00  0.00     0.000 HD 
HETATM    4  C   UNL     1     -11.113  15.449  68.230  1.00  0.00    -0.309 A  
HETATM    5  N   UNL     1      -9.206  16.117  67.303  1.00  0.00    -0.206 NA 
HETATM    6  C   UNL     1     -11.648  14.290  68.774  1.00  0.00    -0.357 A  
HETATM    7  C   UNL     1      -8.060  16.674  66.656  1.00  0.00    -0.274 C  
HETATM    8  C   UNL     1     -11.864  14.242  70.159  1.00  0.00    -0.379 A  
HETATM    9  C   UNL     1      -7.401  17.426  67.855  1.00  0.00    -0.190 C  
HETATM   10  N   UNL     1      -8.457  17.629  68.902  1.00  0.00    -0.190 NA 
HETATM   11  C   UNL     1     -11.577  15.346  70.988  1.00  0.00    -0.410 A  
HETATM   12  C   UNL     1     -10.915  16.451  70.467  1.00  0.00    -0.164 A  
HETATM   13  C   UNL     1      -9.370  16.800  68.490  1.00  0.00    -0.246 C  
HETATM   14  C   UNL     1     -10.621  16.406  69.130  1.00  0.00    -0.308 A  
ENDROOT
BRANCH   2  15
HETATM   15  C   UNL     1     -10.859  14.738  65.776  1.00  0.00    -0.334 A  
HETATM   16  C   UNL     1     -10.263  12.495  64.890  1.00  0.00    -0.301 A  
HETATM   17 CL   UNL     1     -11.666  11.244  62.973  1.00  0.00     0.231 Cl 
HETATM   18  C   UNL     1     -11.333  12.576  64.008  1.00  0.00    -0.405 A  
HETATM   19  C   UNL     1     -12.141  13.718  63.980  1.00  0.00    -0.448 A  
HETATM   20  C   UNL     1     -11.911  14.802  64.858  1.00  0.00    -0.377 A  
HETATM   21  C   UNL     1     -10.041  13.570  65.755  1.00  0.00    -0.298 A  
ENDBRANCH   2  15
TORSDOF 1
ENDMDL
MODEL       66
REMARK 921   NORMALIZED FREE ENERGY PREDICTED BY IDOCK:   -4.90 KCAL/MOL
REMARK 922        TOTAL FREE ENERGY PREDICTED BY IDOCK:   -5.69 KCAL/MOL
REMARK 923 INTER-LIGAND FREE ENERGY PREDICTED BY IDOCK:   -5.17 KCAL/MOL
REMARK 924 INTRA-LIGAND FREE ENERGY PREDICTED BY IDOCK:   -0.52 KCAL/MOL
REMARK 927      BINDING AFFINITY PREDICTED BY RF-SCORE:    0.00 PKD
ROOT
HETATM    1  O   UNL     1     -10.822   7.097  73.746  1.00  0.00    -0.518 OA 
HETATM    2  C   UNL     1      -9.968   7.228  72.607  1.00  0.00    -0.184 C  
HETATM    3  H   UNL     1     -11.716   7.149  73.428  1.00  0.00     0.000 HD 
HETATM    4  C   UNL     1      -9.969   5.885  71.867  1.00  0.00    -0.203 A  
HETATM    5  N   UNL     1      -8.607   7.148  73.089  1.00  0.00    -0.119 NA 
HETATM    6  C   UNL     1     -10.160   5.564  70.531  1.00  0.00    -0.293 A  
HETATM    7  C   UNL     1      -7.836   7.941  73.994  1.00  0.00    -0.201 C  
HETATM    8  C   UNL     1      -9.843   4.265  70.106  1.00  0.00    -0.271 A  
HETATM    9  C   UNL     1      -6.851   6.861  74.541  1.00  0.00    -0.091 C  
HETATM   10  N   UNL     1      -7.460   5.513  74.279  1.00  0.00    -0.089 NA 
HETATM   11  C   UNL     1      -9.371   3.289  71.008  1.00  0.00    -0.213 A  
HETATM   12  C   UNL     1      -9.050   3.648  72.311  1.00  0.00    -0.149 A  
HETATM   13  C   UNL     1      -8.381   5.827  73.419  1.00  0.00    -0.115 C  
HETATM   14  C   UNL     1      -9.267   4.958  72.651  1.00  0.00    -0.145 A  
ENDROOT
BRANCH   2  15
HETATM   15  C   UNL     1     -10.576   8.380  71.836  1.00  0.00    -0.370 A  
HETATM   16  C   UNL     1     -10.132  10.069  70.071  1.00  0.00    -0.289 A  
HETATM   17 CL   UNL     1     -12.028  11.675  69.051  1.00  0.00    -0.383 Cl 
HETATM   18  C   UNL     1     -11.464  10.457  70.126  1.00  0.00    -0.319 A  
HETATM   19  C   UNL     1     -12.341   9.847  71.032  1.00  0.00    -0.451 A  
HETATM   20  C   UNL     1     -11.905   8.810  71.889  1.00  0.00    -0.437 A  
HETATM   21  C   UNL     1      -9.708   9.045  70.921  1.00  0.00    -0.329 A  
ENDBRANCH   2  15
TORSDOF 1
ENDMDL
MODEL       67
REMARK 921   NORMALIZED FREE ENERGY PREDICTED BY IDOCK:   -4.86 KCAL/MOL
REMARK 922        TOTAL FREE ENERGY PREDICTED BY IDOCK:   -5.64 KCAL/MOL
REMARK 923 INTER-LIGAND FREE ENERGY PREDICTED BY IDOCK:   -5.12 KCAL/MOL
REMARK 924 INTRA-LIGAND FREE ENERGY PREDICTED BY IDOCK:   -0.52 KCAL/MOL
REMARK 927      BINDING AFFINITY PREDICTED BY RF-SCORE:    0.00 PKD
ROOT
HETATM    1  O   UNL     1      -8.737  12.612  68.597  1.00  0.00    -0.357 OA 
HETATM    2  C   UNL     1      -9.914  11.876  68.255  1.00  0.00    -0.202 C  
HETATM    3  H   UNL     1      -7.997  12.035  68.444  1.00  0.00     0.000 HD 
HETATM    4  C   UNL     1     -10.023  11.855  66.726  1.00  0.00    -0.215 A  
HETATM    5  N   UNL     1     -11.041  12.753  68.487  1.00  0.00    -0.251 NA 
HETATM    6  C   UNL     1     -10.233  10.821  65.825  1.00  0.00    -0.319 A  
HETATM    7  C   UNL     1     -11.558  13.404  69.649  1.00  0.00    -0.268 C  
HETATM    8  C   UNL     1     -10.546  11.146  64.498  1.00  0.00    -0.397 A  
HETATM    9  C   UNL     1     -12.216  14.658  68.996  1.00  0.00    -0.164 C  
HETATM   10  N   UNL     1     -11.600  14.844  67.639  1.00  0.00    -0.346 NA 
HETATM   11  C   UNL     1     -10.619  12.486  64.065  1.00  0.00    -0.451 A  
HETATM   12  C   UNL     1     -10.545  13.519  64.992  1.00  0.00    -0.382 A  
HETATM   13  C   UNL     1     -11.029  13.689  67.473  1.00  0.00    -0.268 C  
HETATM   14  C   UNL     1     -10.354  13.149  66.297  1.00  0.00    -0.291 A  
ENDROOT
BRANCH   2  15
HETATM   15  C   UNL     1      -9.689  10.523  68.895  1.00  0.00    -0.206 A  
HETATM   16  C   UNL     1     -10.819   8.440  69.635  1.00  0.00    -0.153 A  
HETATM   17 CL   UNL     1      -9.498   6.262  70.484  1.00  0.00    -0.171 Cl 
HETATM   18  C   UNL     1      -9.579   7.884  69.920  1.00  0.00    -0.168 A  
HETATM   19  C   UNL     1      -8.410   8.630  69.727  1.00  0.00    -0.123 A  
HETATM   20  C   UNL     1      -8.456   9.948  69.217  1.00  0.00    -0.158 A  
HETATM   21  C   UNL     1     -10.858   9.742  69.133  1.00  0.00    -0.231 A  
ENDBRANCH   2  15
TORSDOF 1
ENDMDL
MODEL       68
REMARK 921   NORMALIZED FREE ENERGY PREDICTED BY IDOCK:   -4.85 KCAL/MOL
REMARK 922        TOTAL FREE ENERGY PREDICTED BY IDOCK:   -5.63 KCAL/MOL
REMARK 923 INTER-LIGAND FREE ENERGY PREDICTED BY IDOCK:   -5.22 KCAL/MOL
REMARK 924 INTRA-LIGAND FREE ENERGY PREDICTED BY IDOCK:   -0.41 KCAL/MOL
REMARK 927      BINDING AFFINITY PREDICTED BY RF-SCORE:    0.00 PKD
ROOT
HETATM    1  O   UNL     1     -10.188   7.790  66.354  1.00  0.00    -0.474 OA 
HETATM    2  C   UNL     1      -9.820   8.786  67.312  1.00  0.00    -0.201 C  
HETATM    3  H   UNL     1     -11.052   7.479  66.599  1.00  0.00     0.000 HD 
HETATM    4  C   UNL     1     -10.575  10.073  66.959  1.00  0.00    -0.279 A  
HETATM    5  N   UNL     1      -8.505   9.261  66.940  1.00  0.00    -0.126 NA 
HETATM    6  C   UNL     1     -11.340  10.939  67.728  1.00  0.00    -0.366 A  
HETATM    7  C   UNL     1      -7.228   8.631  66.825  1.00  0.00    -0.078 C  
HETATM    8  C   UNL     1     -11.692  12.181  67.180  1.00  0.00    -0.372 A  
HETATM    9  C   UNL     1      -6.576   9.524  65.724  1.00  0.00    -0.075 C  
HETATM   10  N   UNL     1      -7.681  10.233  64.996  1.00  0.00    -0.141 NA 
HETATM   11  C   UNL     1     -11.313  12.544  65.871  1.00  0.00    -0.380 A  
HETATM   12  C   UNL     1     -10.435  11.739  65.156  1.00  0.00    -0.330 A  
HETATM   13  C   UNL     1      -8.671  10.045  65.817  1.00  0.00    -0.145 C  
HETATM   14  C   UNL     1     -10.025  10.589  65.777  1.00  0.00    -0.318 A  
ENDROOT
BRANCH   2  15
HETATM   15  C   UNL     1     -10.204   8.166  68.638  1.00  0.00    -0.226 A  
HETATM   16  C   UNL     1     -11.155   6.134  69.702  1.00  0.00    -0.489 A  
HETATM   17 CL   UNL     1     -11.228   5.753  72.359  1.00  0.00    -0.328 Cl 
HETATM   18  C   UNL     1     -10.879   6.675  70.951  1.00  0.00    -0.252 A  
HETATM   19  C   UNL     1     -10.302   7.947  71.057  1.00  0.00    -0.221 A  
HETATM   20  C   UNL     1      -9.963   8.698  69.908  1.00  0.00    -0.189 A  
HETATM   21  C   UNL     1     -10.818   6.881  68.571  1.00  0.00    -0.234 A  
ENDBRANCH   2  15
TORSDOF 1
ENDMDL
MODEL       69
REMARK 921   NORMALIZED FREE ENERGY PREDICTED BY IDOCK:   -4.81 KCAL/MOL
REMARK 922        TOTAL FREE ENERGY PREDICTED BY IDOCK:   -5.59 KCAL/MOL
REMARK 923 INTER-LIGAND FREE ENERGY PREDICTED BY IDOCK:   -5.16 KCAL/MOL
REMARK 924 INTRA-LIGAND FREE ENERGY PREDICTED BY IDOCK:   -0.44 KCAL/MOL
REMARK 927      BINDING AFFINITY PREDICTED BY RF-SCORE:    0.00 PKD
ROOT
HETATM    1  O   UNL     1      -8.647   8.943  71.715  1.00  0.00    -0.318 OA 
HETATM    2  C   UNL     1      -9.509   9.041  70.579  1.00  0.00    -0.221 C  
HETATM    3  H   UNL     1      -8.287   9.810  71.864  1.00  0.00     0.000 HD 
HETATM    4  C   UNL     1     -10.817   9.694  71.041  1.00  0.00    -0.412 A  
HETATM    5  N   UNL     1     -10.057   7.722  70.352  1.00  0.00    -0.193 NA 
HETATM    6  C   UNL     1     -11.553  10.755  70.532  1.00  0.00    -0.425 A  
HETATM    7  C   UNL     1      -9.475   6.455  70.037  1.00  0.00    -0.156 C  
HETATM    8  C   UNL     1     -12.851  10.959  71.022  1.00  0.00    -0.472 A  
HETATM    9  C   UNL     1     -10.523   5.498  70.684  1.00  0.00    -0.272 C  
HETATM   10  N   UNL     1     -11.303   6.290  71.694  1.00  0.00    -0.283 NA 
HETATM   11  C   UNL     1     -13.398  10.137  72.028  1.00  0.00    -0.492 A  
HETATM   12  C   UNL     1     -12.717   8.997  72.437  1.00  0.00    -0.433 A  
HETATM   13  C   UNL     1     -10.984   7.502  71.350  1.00  0.00    -0.231 C  
HETATM   14  C   UNL     1     -11.501   8.773  71.847  1.00  0.00    -0.428 A  
ENDROOT
BRANCH   2  15
HETATM   15  C   UNL     1      -8.705   9.856  69.590  1.00  0.00    -0.218 A  
HETATM   16  C   UNL     1      -6.555  11.053  69.254  1.00  0.00    -0.091 A  
HETATM   17 CL   UNL     1      -5.783  12.070  66.892  1.00  0.00    -0.123 Cl 
HETATM   18  C   UNL     1      -6.898  11.268  67.925  1.00  0.00    -0.068 A  
HETATM   19  C   UNL     1      -8.128  10.816  67.431  1.00  0.00    -0.112 A  
HETATM   20  C   UNL     1      -9.036  10.112  68.255  1.00  0.00    -0.120 A  
HETATM   21  C   UNL     1      -7.456  10.357  70.062  1.00  0.00    -0.088 A  
ENDBRANCH   2  15
TORSDOF 1
ENDMDL
MODEL       70
REMARK 921   NORMALIZED FREE ENERGY PREDICTED BY IDOCK:   -4.78 KCAL/MOL
REMARK 922        TOTAL FREE ENERGY PREDICTED BY IDOCK:   -5.56 KCAL/MOL
REMARK 923 INTER-LIGAND FREE ENERGY PREDICTED BY IDOCK:   -5.03 KCAL/MOL
REMARK 924 INTRA-LIGAND FREE ENERGY PREDICTED BY IDOCK:   -0.53 KCAL/MOL
REMARK 927      BINDING AFFINITY PREDICTED BY RF-SCORE:    0.00 PKD
ROOT
HETATM    1  O   UNL     1     -10.421  11.904  69.375  1.00  0.00    -0.435 OA 
HETATM    2  C   UNL     1      -9.800  11.310  68.231  1.00  0.00    -0.197 C  
HETATM    3  H   UNL     1     -11.341  12.010  69.165  1.00  0.00     0.000 HD 
HETATM    4  C   UNL     1     -10.152   9.817  68.233  1.00  0.00    -0.189 A  
HETATM    5  N   UNL     1      -8.399  11.147  68.550  1.00  0.00    -0.148 NA 
HETATM    6  C   UNL     1     -10.652   8.982  67.244  1.00  0.00    -0.301 A  
HETATM    7  C   UNL     1      -7.352  12.063  68.877  1.00  0.00    -0.067 C  
HETATM    8  C   UNL     1     -10.627   7.598  67.467  1.00  0.00    -0.323 A  
HETATM    9  C   UNL     1      -6.454  11.152  69.771  1.00  0.00    -0.137 C  
HETATM   10  N   UNL     1      -7.300  10.009  70.254  1.00  0.00    -0.191 NA 
HETATM   11  C   UNL     1     -10.139   7.053  68.672  1.00  0.00    -0.168 A  
HETATM   12  C   UNL     1      -9.515   7.877  69.601  1.00  0.00    -0.160 A  
HETATM   13  C   UNL     1      -8.316  10.103  69.449  1.00  0.00    -0.168 C  
HETATM   14  C   UNL     1      -9.459   9.209  69.290  1.00  0.00    -0.158 A  
ENDROOT
BRANCH   2  15
HETATM   15  C   UNL     1     -10.367  12.096  67.069  1.00  0.00    -0.232 A  
HETATM   16  C   UNL     1     -12.147  13.695  66.406  1.00  0.00    -0.478 A  
HETATM   17 CL   UNL     1     -12.248  14.880  63.998  1.00  0.00    -0.310 Cl 
HETATM   18  C   UNL     1     -11.564  13.802  65.150  1.00  0.00    -0.331 A  
HETATM   19  C   UNL     1     -10.422  13.056  64.836  1.00  0.00    -0.358 A  
HETATM   20  C   UNL     1      -9.818  12.202  65.788  1.00  0.00    -0.264 A  
HETATM   21  C   UNL     1     -11.546  12.849  67.341  1.00  0.00    -0.414 A  
ENDBRANCH   2  15
TORSDOF 1
ENDMDL
MODEL       71
REMARK 921   NORMALIZED FREE ENERGY PREDICTED BY IDOCK:   -4.73 KCAL/MOL
REMARK 922        TOTAL FREE ENERGY PREDICTED BY IDOCK:   -5.51 KCAL/MOL
REMARK 923 INTER-LIGAND FREE ENERGY PREDICTED BY IDOCK:   -5.14 KCAL/MOL
REMARK 924 INTRA-LIGAND FREE ENERGY PREDICTED BY IDOCK:   -0.37 KCAL/MOL
REMARK 927      BINDING AFFINITY PREDICTED BY RF-SCORE:    0.00 PKD
ROOT
HETATM    1  O   UNL     1      -8.991  14.629  69.690  1.00  0.00    -0.406 OA 
HETATM    2  C   UNL     1      -9.114  14.371  68.289  1.00  0.00    -0.193 C  
HETATM    3  H   UNL     1      -9.776  15.094  69.955  1.00  0.00     0.000 HD 
HETATM    4  C   UNL     1     -10.080  13.193  68.116  1.00  0.00    -0.237 A  
HETATM    5  N   UNL     1      -7.920  13.663  67.885  1.00  0.00    -0.145 NA 
HETATM    6  C   UNL     1     -11.194  13.019  67.306  1.00  0.00    -0.325 A  
HETATM    7  C   UNL     1      -6.529  13.994  67.892  1.00  0.00    -0.162 C  
HETATM    8  C   UNL     1     -11.726  11.729  67.174  1.00  0.00    -0.267 A  
HETATM    9  C   UNL     1      -5.905  12.572  68.046  1.00  0.00    -0.082 C  
HETATM   10  N   UNL     1      -6.968  11.663  68.591  1.00  0.00    -0.081 NA 
HETATM   11  C   UNL     1     -11.176  10.630  67.865  1.00  0.00    -0.376 A  
HETATM   12  C   UNL     1      -9.984  10.777  68.563  1.00  0.00    -0.186 A  
HETATM   13  C   UNL     1      -8.031  12.381  68.385  1.00  0.00    -0.149 C  
HETATM   14  C   UNL     1      -9.436  12.033  68.569  1.00  0.00    -0.136 A  
ENDROOT
BRANCH   2  15
HETATM   15  C   UNL     1      -9.607  15.686  67.726  1.00  0.00    -0.209 A  
HETATM   16  C   UNL     1     -10.105  18.052  68.294  1.00  0.00    -0.390 A  
HETATM   17 CL   UNL     1     -10.727  19.913  66.462  1.00  0.00    -0.533 Cl 
HETATM   18  C   UNL     1     -10.341  18.310  66.950  1.00  0.00    -0.385 A  
HETATM   19  C   UNL     1     -10.242  17.282  66.005  1.00  0.00    -0.314 A  
HETATM   20  C   UNL     1      -9.877  15.970  66.384  1.00  0.00    -0.308 A  
HETATM   21  C   UNL     1      -9.745  16.753  68.662  1.00  0.00    -0.259 A  
ENDBRANCH   2  15
TORSDOF 1
ENDMDL
MODEL       72
REMARK 921   NORMALIZED FREE ENERGY PREDICTED BY IDOCK:   -4.70 KCAL/MOL
REMARK 922        TOTAL FREE ENERGY PREDICTED BY IDOCK:   -5.48 KCAL/MOL
REMARK 923 INTER-LIGAND FREE ENERGY PREDICTED BY IDOCK:   -4.98 KCAL/MOL
REMARK 924 INTRA-LIGAND FREE ENERGY PREDICTED BY IDOCK:   -0.50 KCAL/MOL
REMARK 927      BINDING AFFINITY PREDICTED BY RF-SCORE:    0.00 PKD
ROOT
HETATM    1  O   UNL     1     -12.087   8.808  70.384  1.00  0.00    -0.477 OA 
HETATM    2  C   UNL     1     -10.781   8.914  69.812  1.00  0.00    -0.225 C  
HETATM    3  H   UNL     1     -12.696   9.174  69.753  1.00  0.00     0.000 HD 
HETATM    4  C   UNL     1     -10.638   7.801  68.767  1.00  0.00    -0.161 A  
HETATM    5  N   UNL     1      -9.855   8.356  70.772  1.00  0.00    -0.178 NA 
HETATM    6  C   UNL     1     -10.210   7.818  67.448  1.00  0.00    -0.320 A  
HETATM    7  C   UNL     1      -9.500   8.702  72.113  1.00  0.00    -0.303 C  
HETATM    8  C   UNL     1      -9.939   6.594  66.820  1.00  0.00    -0.238 A  
HETATM    9  C   UNL     1      -9.088   7.301  72.662  1.00  0.00    -0.139 C  
HETATM   10  N   UNL     1      -9.700   6.261  71.768  1.00  0.00    -0.154 NA 
HETATM   11  C   UNL     1     -10.122   5.366  67.488  1.00  0.00    -0.220 A  
HETATM   12  C   UNL     1     -10.417   5.353  68.845  1.00  0.00    -0.238 A  
HETATM   13  C   UNL     1     -10.029   6.988  70.742  1.00  0.00    -0.190 C  
HETATM   14  C   UNL     1     -10.560   6.576  69.446  1.00  0.00    -0.291 A  
ENDROOT
BRANCH   2  15
HETATM   15  C   UNL     1     -10.750  10.320  69.253  1.00  0.00    -0.265 A  
HETATM   16  C   UNL     1      -9.252  12.104  68.393  1.00  0.00    -0.154 A  
HETATM   17 CL   UNL     1     -10.148  14.366  67.257  1.00  0.00    -0.250 Cl 
HETATM   18  C   UNL     1     -10.368  12.854  68.046  1.00  0.00    -0.227 A  
HETATM   19  C   UNL     1     -11.654  12.373  68.315  1.00  0.00    -0.384 A  
HETATM   20  C   UNL     1     -11.854  11.109  68.918  1.00  0.00    -0.406 A  
HETATM   21  C   UNL     1      -9.456  10.857  68.989  1.00  0.00    -0.160 A  
ENDBRANCH   2  15
TORSDOF 1
ENDMDL
MODEL       73
REMARK 921   NORMALIZED FREE ENERGY PREDICTED BY IDOCK:   -4.70 KCAL/MOL
REMARK 922        TOTAL FREE ENERGY PREDICTED BY IDOCK:   -5.47 KCAL/MOL
REMARK 923 INTER-LIGAND FREE ENERGY PREDICTED BY IDOCK:   -4.98 KCAL/MOL
REMARK 924 INTRA-LIGAND FREE ENERGY PREDICTED BY IDOCK:   -0.50 KCAL/MOL
REMARK 927      BINDING AFFINITY PREDICTED BY RF-SCORE:    0.00 PKD
ROOT
HETATM    1  O   UNL     1      -8.663  15.064  69.299  1.00  0.00    -0.277 OA 
HETATM    2  C   UNL     1      -8.483  15.210  67.888  1.00  0.00    -0.149 C  
HETATM    3  H   UNL     1      -9.171  15.812  69.591  1.00  0.00     0.000 HD 
HETATM    4  C   UNL     1      -9.796  14.806  67.207  1.00  0.00    -0.230 A  
HETATM    5  N   UNL     1      -7.711  14.071  67.442  1.00  0.00    -0.178 NA 
HETATM    6  C   UNL     1     -10.569  15.432  66.240  1.00  0.00    -0.311 A  
HETATM    7  C   UNL     1      -6.401  13.590  67.749  1.00  0.00    -0.161 C  
HETATM    8  C   UNL     1     -11.588  14.693  65.621  1.00  0.00    -0.328 A  
HETATM    9  C   UNL     1      -6.603  12.061  67.512  1.00  0.00    -0.123 C  
HETATM   10  N   UNL     1      -8.076  11.779  67.578  1.00  0.00    -0.143 NA 
HETATM   11  C   UNL     1     -11.853  13.356  65.982  1.00  0.00    -0.423 A  
HETATM   12  C   UNL     1     -10.995  12.689  66.847  1.00  0.00    -0.297 A  
HETATM   13  C   UNL     1      -8.558  12.982  67.474  1.00  0.00    -0.192 C  
HETATM   14  C   UNL     1      -9.944  13.417  67.339  1.00  0.00    -0.230 A  
ENDROOT
BRANCH   2  15
HETATM   15  C   UNL     1      -8.104  16.666  67.725  1.00  0.00    -0.185 A  
HETATM   16  C   UNL     1      -7.137  18.323  66.148  1.00  0.00    -0.304 A  
HETATM   17 CL   UNL     1      -7.083  20.964  66.629  1.00  0.00    -0.280 Cl 
HETATM   18  C   UNL     1      -7.432  19.335  67.053  1.00  0.00    -0.222 A  
HETATM   19  C   UNL     1      -8.025  19.031  68.284  1.00  0.00    -0.350 A  
HETATM   20  C   UNL     1      -8.363  17.701  68.628  1.00  0.00    -0.267 A  
HETATM   21  C   UNL     1      -7.473  17.012  66.494  1.00  0.00    -0.327 A  
ENDBRANCH   2  15
TORSDOF 1
ENDMDL
MODEL       74
REMARK 921   NORMALIZED FREE ENERGY PREDICTED BY IDOCK:   -4.69 KCAL/MOL
REMARK 922        TOTAL FREE ENERGY PREDICTED BY IDOCK:   -5.46 KCAL/MOL
REMARK 923 INTER-LIGAND FREE ENERGY PREDICTED BY IDOCK:   -5.20 KCAL/MOL
REMARK 924 INTRA-LIGAND FREE ENERGY PREDICTED BY IDOCK:   -0.26 KCAL/MOL
REMARK 927      BINDING AFFINITY PREDICTED BY RF-SCORE:    0.00 PKD
ROOT
HETATM    1  O   UNL     1     -10.732  15.762  67.956  1.00  0.00    -0.276 OA 
HETATM    2  C   UNL     1      -9.575  15.994  67.148  1.00  0.00    -0.218 C  
HETATM    3  H   UNL     1     -10.471  15.899  68.859  1.00  0.00     0.000 HD 
HETATM    4  C   UNL     1      -9.379  17.511  67.042  1.00  0.00    -0.262 A  
HETATM    5  N   UNL     1      -9.973  15.786  65.773  1.00  0.00    -0.338 NA 
HETATM    6  C   UNL     1      -8.267  18.317  67.238  1.00  0.00    -0.239 A  
HETATM    7  C   UNL     1     -10.478  14.657  65.056  1.00  0.00    -0.421 C  
HETATM    8  C   UNL     1      -8.328  19.652  66.812  1.00  0.00    -0.338 A  
HETATM    9  C   UNL     1     -11.323  15.380  63.961  1.00  0.00     0.270 C  
HETATM   10  N   UNL     1     -11.608  16.771  64.447  1.00  0.00    -0.870 NA 
HETATM   11  C   UNL     1      -9.495  20.186  66.227  1.00  0.00    -0.450 A  
HETATM   12  C   UNL     1     -10.555  19.348  65.907  1.00  0.00    -0.551 A  
HETATM   13  C   UNL     1     -10.749  16.870  65.417  1.00  0.00    -0.150 C  
HETATM   14  C   UNL     1     -10.405  18.027  66.237  1.00  0.00    -0.384 A  
ENDROOT
BRANCH   2  15
HETATM   15  C   UNL     1      -8.474  15.259  67.881  1.00  0.00    -0.151 A  
HETATM   16  C   UNL     1      -7.243  15.119  70.033  1.00  0.00    -0.008 A  
HETATM   17 CL   UNL     1      -5.483  13.173  70.605  1.00  0.00    -0.154 Cl 
HETATM   18  C   UNL     1      -6.586  13.987  69.567  1.00  0.00    -0.115 A  
HETATM   19  C   UNL     1      -6.838  13.505  68.277  1.00  0.00    -0.108 A  
HETATM   20  C   UNL     1      -7.778  14.135  67.429  1.00  0.00    -0.189 A  
HETATM   21  C   UNL     1      -8.169  15.737  69.190  1.00  0.00    -0.247 A  
ENDBRANCH   2  15
TORSDOF 1
ENDMDL
MODEL       75
REMARK 921   NORMALIZED FREE ENERGY PREDICTED BY IDOCK:   -4.66 KCAL/MOL
REMARK 922        TOTAL FREE ENERGY PREDICTED BY IDOCK:   -5.43 KCAL/MOL
REMARK 923 INTER-LIGAND FREE ENERGY PREDICTED BY IDOCK:   -5.14 KCAL/MOL
REMARK 924 INTRA-LIGAND FREE ENERGY PREDICTED BY IDOCK:   -0.30 KCAL/MOL
REMARK 927      BINDING AFFINITY PREDICTED BY RF-SCORE:    0.00 PKD
ROOT
HETATM    1  O   UNL     1      -9.891  10.313  67.718  1.00  0.00    -0.163 OA 
HETATM    2  C   UNL     1      -9.663  11.567  67.070  1.00  0.00    -0.184 C  
HETATM    3  H   UNL     1     -10.828  10.238  67.854  1.00  0.00     0.000 HD 
HETATM    4  C   UNL     1     -10.041  11.404  65.593  1.00  0.00    -0.293 A  
HETATM    5  N   UNL     1      -8.236  11.680  66.862  1.00  0.00    -0.166 NA 
HETATM    6  C   UNL     1     -10.840  12.165  64.752  1.00  0.00    -0.351 A  
HETATM    7  C   UNL     1      -7.113  11.719  67.745  1.00  0.00    -0.096 C  
HETATM    8  C   UNL     1     -10.789  11.909  63.374  1.00  0.00    -0.469 A  
HETATM    9  C   UNL     1      -6.014  11.104  66.824  1.00  0.00    -0.116 C  
HETATM   10  N   UNL     1      -6.707  10.347  65.728  1.00  0.00    -0.120 NA 
HETATM   11  C   UNL     1      -9.975  10.888  62.843  1.00  0.00    -0.251 A  
HETATM   12  C   UNL     1      -9.075  10.222  63.666  1.00  0.00    -0.284 A  
HETATM   13  C   UNL     1      -7.915  10.811  65.840  1.00  0.00    -0.140 C  
HETATM   14  C   UNL     1      -9.077  10.585  64.987  1.00  0.00    -0.231 A  
ENDROOT
BRANCH   2  15
HETATM   15  C   UNL     1     -10.532  12.532  67.847  1.00  0.00    -0.226 A  
HETATM   16  C   UNL     1     -11.880  12.800  69.915  1.00  0.00    -0.371 A  
HETATM   17 CL   UNL     1     -12.945  15.140  70.693  1.00  0.00    -0.428 Cl 
HETATM   18  C   UNL     1     -12.066  14.141  69.603  1.00  0.00    -0.349 A  
HETATM   19  C   UNL     1     -11.525  14.674  68.427  1.00  0.00    -0.335 A  
HETATM   20  C   UNL     1     -10.759  13.878  67.545  1.00  0.00    -0.271 A  
HETATM   21  C   UNL     1     -11.123  12.019  69.039  1.00  0.00    -0.291 A  
ENDBRANCH   2  15
TORSDOF 1
ENDMDL
MODEL       76
REMARK 921   NORMALIZED FREE ENERGY PREDICTED BY IDOCK:   -4.66 KCAL/MOL
REMARK 922        TOTAL FREE ENERGY PREDICTED BY IDOCK:   -5.43 KCAL/MOL
REMARK 923 INTER-LIGAND FREE ENERGY PREDICTED BY IDOCK:   -4.87 KCAL/MOL
REMARK 924 INTRA-LIGAND FREE ENERGY PREDICTED BY IDOCK:   -0.56 KCAL/MOL
REMARK 927      BINDING AFFINITY PREDICTED BY RF-SCORE:    0.00 PKD
ROOT
HETATM    1  O   UNL     1     -11.987   6.370  69.123  1.00  0.00    -0.372 OA 
HETATM    2  C   UNL     1     -10.626   6.394  69.559  1.00  0.00    -0.253 C  
HETATM    3  H   UNL     1     -12.088   5.599  68.577  1.00  0.00     0.000 HD 
HETATM    4  C   UNL     1     -10.480   5.364  70.686  1.00  0.00    -0.329 A  
HETATM    5  N   UNL     1     -10.471   7.568  70.391  1.00  0.00    -0.218 NA 
HETATM    6  C   UNL     1      -9.562   4.345  70.897  1.00  0.00    -0.255 A  
HETATM    7  C   UNL     1     -10.616   8.969  70.150  1.00  0.00    -0.224 C  
HETATM    8  C   UNL     1      -9.528   3.730  72.157  1.00  0.00    -0.194 A  
HETATM    9  C   UNL     1     -11.026   9.455  71.575  1.00  0.00    -0.359 C  
HETATM   10  N   UNL     1     -11.541   8.266  72.333  1.00  0.00    -0.385 NA 
HETATM   11  C   UNL     1     -10.417   4.105  73.185  1.00  0.00    -0.248 A  
HETATM   12  C   UNL     1     -11.238   5.214  73.020  1.00  0.00    -0.390 A  
HETATM   13  C   UNL     1     -11.111   7.296  71.583  1.00  0.00    -0.233 C  
HETATM   14  C   UNL     1     -11.156   5.855  71.813  1.00  0.00    -0.324 A  
ENDROOT
BRANCH   2  15
HETATM   15  C   UNL     1      -9.842   6.079  68.304  1.00  0.00    -0.152 A  
HETATM   16  C   UNL     1      -9.980   5.004  66.070  1.00  0.00    -0.220 A  
HETATM   17 CL   UNL     1      -8.031   5.165  64.229  1.00  0.00    -0.101 Cl 
HETATM   18  C   UNL     1      -8.706   5.475  65.780  1.00  0.00    -0.151 A  
HETATM   19  C   UNL     1      -7.991   6.210  66.733  1.00  0.00    -0.105 A  
HETATM   20  C   UNL     1      -8.551   6.516  67.995  1.00  0.00    -0.118 A  
HETATM   21  C   UNL     1     -10.527   5.308  67.318  1.00  0.00    -0.236 A  
ENDBRANCH   2  15
TORSDOF 1
ENDMDL
MODEL       77
REMARK 921   NORMALIZED FREE ENERGY PREDICTED BY IDOCK:   -4.65 KCAL/MOL
REMARK 922        TOTAL FREE ENERGY PREDICTED BY IDOCK:   -5.42 KCAL/MOL
REMARK 923 INTER-LIGAND FREE ENERGY PREDICTED BY IDOCK:   -5.59 KCAL/MOL
REMARK 924 INTRA-LIGAND FREE ENERGY PREDICTED BY IDOCK:    0.17 KCAL/MOL
REMARK 927      BINDING AFFINITY PREDICTED BY RF-SCORE:    0.00 PKD
ROOT
HETATM    1  O   UNL     1      -8.814  10.973  67.741  1.00  0.00    -0.130 OA 
HETATM    2  C   UNL     1     -10.140  10.464  67.578  1.00  0.00    -0.192 C  
HETATM    3  H   UNL     1      -8.579  10.845  68.653  1.00  0.00     0.000 HD 
HETATM    4  C   UNL     1     -10.048   8.934  67.520  1.00  0.00    -0.285 A  
HETATM    5  N   UNL     1     -10.497  10.658  66.190  1.00  0.00    -0.225 NA 
HETATM    6  C   UNL     1     -10.741   7.938  68.193  1.00  0.00    -0.101 A  
HETATM    7  C   UNL     1     -10.638  11.815  65.363  1.00  0.00    -0.277 C  
HETATM    8  C   UNL     1     -10.618   6.618  67.738  1.00  0.00    -0.311 A  
HETATM    9  C   UNL     1     -10.289  11.205  63.970  1.00  0.00    -0.376 C  
HETATM   10  N   UNL     1      -9.529   9.932  64.205  1.00  0.00    -0.269 NA 
HETATM   11  C   UNL     1      -9.790   6.288  66.646  1.00  0.00    -0.201 A  
HETATM   12  C   UNL     1      -9.207   7.298  65.889  1.00  0.00    -0.004 A  
HETATM   13  C   UNL     1      -9.783   9.728  65.463  1.00  0.00    -0.312 C  
HETATM   14  C   UNL     1      -9.449   8.581  66.302  1.00  0.00    -0.299 A  
ENDROOT
BRANCH   2  15
HETATM   15  C   UNL     1     -10.883  11.012  68.777  1.00  0.00    -0.253 A  
HETATM   16  C   UNL     1     -12.015  13.026  69.687  1.00  0.00    -0.367 A  
HETATM   17 CL   UNL     1     -13.418  13.026  71.977  1.00  0.00    -0.596 Cl 
HETATM   18  C   UNL     1     -12.428  12.281  70.784  1.00  0.00    -0.265 A  
HETATM   19  C   UNL     1     -12.062  10.936  70.902  1.00  0.00    -0.455 A  
HETATM   20  C   UNL     1     -11.290  10.295  69.905  1.00  0.00    -0.354 A  
HETATM   21  C   UNL     1     -11.252  12.388  68.706  1.00  0.00    -0.318 A  
ENDBRANCH   2  15
TORSDOF 1
ENDMDL
MODEL       78
REMARK 921   NORMALIZED FREE ENERGY PREDICTED BY IDOCK:   -4.64 KCAL/MOL
REMARK 922        TOTAL FREE ENERGY PREDICTED BY IDOCK:   -5.41 KCAL/MOL
REMARK 923 INTER-LIGAND FREE ENERGY PREDICTED BY IDOCK:   -5.10 KCAL/MOL
REMARK 924 INTRA-LIGAND FREE ENERGY PREDICTED BY IDOCK:   -0.30 KCAL/MOL
REMARK 927      BINDING AFFINITY PREDICTED BY RF-SCORE:    0.00 PKD
ROOT
HETATM    1  O   UNL     1      -8.609  12.549  68.237  1.00  0.00    -0.180 OA 
HETATM    2  C   UNL     1      -9.744  12.566  67.368  1.00  0.00    -0.194 C  
HETATM    3  H   UNL     1      -7.838  12.596  67.684  1.00  0.00     0.000 HD 
HETATM    4  C   UNL     1      -9.953  14.013  66.903  1.00  0.00    -0.263 A  
HETATM    5  N   UNL     1     -10.919  12.495  68.210  1.00  0.00    -0.227 NA 
HETATM    6  C   UNL     1     -10.140  14.563  65.643  1.00  0.00    -0.384 A  
HETATM    7  C   UNL     1     -11.407  11.523  69.136  1.00  0.00    -0.286 C  
HETATM    8  C   UNL     1     -10.566  15.896  65.556  1.00  0.00    -0.419 A  
HETATM    9  C   UNL     1     -12.205  12.444  70.111  1.00  0.00    -0.229 C  
HETATM   10  N   UNL     1     -11.697  13.846  69.934  1.00  0.00    -0.292 NA 
HETATM   11  C   UNL     1     -10.773  16.682  66.708  1.00  0.00    -0.133 A  
HETATM   12  C   UNL     1     -10.719  16.093  67.966  1.00  0.00    -0.321 A  
HETATM   13  C   UNL     1     -11.048  13.729  68.814  1.00  0.00    -0.266 C  
HETATM   14  C   UNL     1     -10.413  14.759  67.998  1.00  0.00    -0.246 A  
ENDROOT
BRANCH   2  15
HETATM   15  C   UNL     1      -9.371  11.593  66.272  1.00  0.00    -0.228 A  
HETATM   16  C   UNL     1     -10.148  10.568  64.148  1.00  0.00    -0.351 A  
HETATM   17 CL   UNL     1      -8.594   9.019  62.599  1.00  0.00    -0.214 Cl 
HETATM   18  C   UNL     1      -8.907   9.962  64.002  1.00  0.00    -0.228 A  
HETATM   19  C   UNL     1      -7.917  10.136  64.977  1.00  0.00    -0.146 A  
HETATM   20  C   UNL     1      -8.141  10.948  66.113  1.00  0.00    -0.160 A  
HETATM   21  C   UNL     1     -10.362  11.368  65.272  1.00  0.00    -0.336 A  
ENDBRANCH   2  15
TORSDOF 1
ENDMDL
MODEL       79
REMARK 921   NORMALIZED FREE ENERGY PREDICTED BY IDOCK:   -4.61 KCAL/MOL
REMARK 922        TOTAL FREE ENERGY PREDICTED BY IDOCK:   -5.38 KCAL/MOL
REMARK 923 INTER-LIGAND FREE ENERGY PREDICTED BY IDOCK:   -5.05 KCAL/MOL
REMARK 924 INTRA-LIGAND FREE ENERGY PREDICTED BY IDOCK:   -0.34 KCAL/MOL
REMARK 927      BINDING AFFINITY PREDICTED BY RF-SCORE:    0.00 PKD
ROOT
HETATM    1  O   UNL     1      -7.766   9.785  66.461  1.00  0.00    -0.103 OA 
HETATM    2  C   UNL     1      -8.943   9.349  65.777  1.00  0.00    -0.186 C  
HETATM    3  H   UNL     1      -8.055  10.241  67.243  1.00  0.00     0.000 HD 
HETATM    4  C   UNL     1      -9.477   8.113  66.510  1.00  0.00    -0.286 A  
HETATM    5  N   UNL     1      -8.504   8.654  64.586  1.00  0.00    -0.161 NA 
HETATM    6  C   UNL     1     -10.743   7.785  66.973  1.00  0.00    -0.316 A  
HETATM    7  C   UNL     1      -7.755   9.052  63.435  1.00  0.00    -0.124 C  
HETATM    8  C   UNL     1     -10.983   6.464  67.378  1.00  0.00    -0.463 A  
HETATM    9  C   UNL     1      -7.092   7.692  63.053  1.00  0.00    -0.075 C  
HETATM   10  N   UNL     1      -7.130   6.807  64.265  1.00  0.00    -0.058 NA 
HETATM   11  C   UNL     1      -9.966   5.488  67.350  1.00  0.00    -0.189 A  
HETATM   12  C   UNL     1      -8.742   5.780  66.760  1.00  0.00    -0.116 A  
HETATM   13  C   UNL     1      -7.993   7.442  65.001  1.00  0.00    -0.129 C  
HETATM   14  C   UNL     1      -8.591   7.051  66.273  1.00  0.00    -0.142 A  
ENDROOT
BRANCH   2  15
HETATM   15  C   UNL     1      -9.852  10.558  65.822  1.00  0.00    -0.295 A  
HETATM   16  C   UNL     1     -11.257  12.064  64.436  1.00  0.00    -0.406 A  
HETATM   17 CL   UNL     1     -12.877  13.941  65.469  1.00  0.00    -0.537 Cl 
HETATM   18  C   UNL     1     -11.706  12.688  65.593  1.00  0.00    -0.412 A  
HETATM   19  C   UNL     1     -11.226  12.284  66.844  1.00  0.00    -0.367 A  
HETATM   20  C   UNL     1     -10.300  11.222  66.967  1.00  0.00    -0.263 A  
HETATM   21  C   UNL     1     -10.342  11.017  64.564  1.00  0.00    -0.420 A  
ENDBRANCH   2  15
TORSDOF 1
ENDMDL
MODEL       80
REMARK 921   NORMALIZED FREE ENERGY PREDICTED BY IDOCK:   -4.61 KCAL/MOL
REMARK 922        TOTAL FREE ENERGY PREDICTED BY IDOCK:   -5.38 KCAL/MOL
REMARK 923 INTER-LIGAND FREE ENERGY PREDICTED BY IDOCK:   -4.83 KCAL/MOL
REMARK 924 INTRA-LIGAND FREE ENERGY PREDICTED BY IDOCK:   -0.55 KCAL/MOL
REMARK 927      BINDING AFFINITY PREDICTED BY RF-SCORE:    0.00 PKD
ROOT
HETATM    1  O   UNL     1     -11.537  11.321  66.780  1.00  0.00    -0.433 OA 
HETATM    2  C   UNL     1     -10.403  11.784  66.041  1.00  0.00    -0.239 C  
HETATM    3  H   UNL     1     -11.230  10.623  67.347  1.00  0.00     0.000 HD 
HETATM    4  C   UNL     1      -9.570  12.672  66.973  1.00  0.00    -0.219 A  
HETATM    5  N   UNL     1     -10.870  12.847  65.178  1.00  0.00    -0.289 NA 
HETATM    6  C   UNL     1      -8.216  12.684  67.275  1.00  0.00    -0.184 A  
HETATM    7  C   UNL     1     -11.823  12.903  64.114  1.00  0.00    -0.414 C  
HETATM    8  C   UNL     1      -7.699  13.787  67.970  1.00  0.00    -0.152 A  
HETATM    9  C   UNL     1     -12.286  14.389  64.234  1.00  0.00    -0.423 C  
HETATM   10  N   UNL     1     -11.933  14.867  65.613  1.00  0.00    -0.150 NA 
HETATM   11  C   UNL     1      -8.526  14.850  68.386  1.00  0.00    -0.153 A  
HETATM   12  C   UNL     1      -9.849  14.904  67.965  1.00  0.00    -0.216 A  
HETATM   13  C   UNL     1     -11.103  13.940  65.986  1.00  0.00    -0.289 C  
HETATM   14  C   UNL     1     -10.282  13.861  67.190  1.00  0.00    -0.258 A  
ENDROOT
BRANCH   2  15
HETATM   15  C   UNL     1      -9.720  10.508  65.598  1.00  0.00    -0.289 A  
HETATM   16  C   UNL     1      -8.235   9.524  63.869  1.00  0.00    -0.161 A  
HETATM   17 CL   UNL     1      -7.224   7.041  64.028  1.00  0.00    -0.064 Cl 
HETATM   18  C   UNL     1      -8.196   8.341  64.596  1.00  0.00    -0.142 A  
HETATM   19  C   UNL     1      -8.920   8.220  65.788  1.00  0.00    -0.185 A  
HETATM   20  C   UNL     1      -9.684   9.296  66.294  1.00  0.00    -0.340 A  
HETATM   21  C   UNL     1      -8.992  10.583  64.375  1.00  0.00    -0.232 A  
ENDBRANCH   2  15
TORSDOF 1
ENDMDL
MODEL       81
REMARK 921   NORMALIZED FREE ENERGY PREDICTED BY IDOCK:   -4.61 KCAL/MOL
REMARK 922        TOTAL FREE ENERGY PREDICTED BY IDOCK:   -5.38 KCAL/MOL
REMARK 923 INTER-LIGAND FREE ENERGY PREDICTED BY IDOCK:   -4.82 KCAL/MOL
REMARK 924 INTRA-LIGAND FREE ENERGY PREDICTED BY IDOCK:   -0.56 KCAL/MOL
REMARK 927      BINDING AFFINITY PREDICTED BY RF-SCORE:    0.00 PKD
ROOT
HETATM    1  O   UNL     1      -8.418  10.695  69.923  1.00  0.00    -0.355 OA 
HETATM    2  C   UNL     1      -9.493  10.716  68.981  1.00  0.00    -0.191 C  
HETATM    3  H   UNL     1      -8.521   9.906  70.442  1.00  0.00     0.000 HD 
HETATM    4  C   UNL     1      -9.151   9.725  67.861  1.00  0.00    -0.126 A  
HETATM    5  N   UNL     1      -9.336  11.916  68.190  1.00  0.00    -0.187 NA 
HETATM    6  C   UNL     1      -9.881   8.702  67.275  1.00  0.00    -0.256 A  
HETATM    7  C   UNL     1      -9.337  13.310  68.507  1.00  0.00    -0.091 C  
HETATM    8  C   UNL     1      -9.396   8.132  66.089  1.00  0.00    -0.232 A  
HETATM    9  C   UNL     1      -8.407  13.852  67.377  1.00  0.00    -0.198 C  
HETATM   10  N   UNL     1      -7.602  12.698  66.854  1.00  0.00     0.031 NA 
HETATM   11  C   UNL     1      -8.182   8.556  65.511  1.00  0.00    -0.138 A  
HETATM   12  C   UNL     1      -7.524   9.669  66.019  1.00  0.00    -0.099 A  
HETATM   13  C   UNL     1      -8.269  11.696  67.344  1.00  0.00    -0.153 C  
HETATM   14  C   UNL     1      -8.097  10.266  67.111  1.00  0.00    -0.121 A  
ENDROOT
BRANCH   2  15
HETATM   15  C   UNL     1     -10.702  10.345  69.811  1.00  0.00    -0.325 A  
HETATM   16  C   UNL     1     -11.455   9.056  71.796  1.00  0.00    -0.442 A  
HETATM   17 CL   UNL     1     -13.946   9.193  72.790  1.00  0.00    -0.377 Cl 
HETATM   18  C   UNL     1     -12.726   9.594  71.646  1.00  0.00    -0.407 A  
HETATM   19  C   UNL     1     -13.003  10.469  70.589  1.00  0.00    -0.362 A  
HETATM   20  C   UNL     1     -11.999  10.848  69.669  1.00  0.00    -0.414 A  
HETATM   21  C   UNL     1     -10.468   9.434  70.883  1.00  0.00    -0.381 A  
ENDBRANCH   2  15
TORSDOF 1
ENDMDL
MODEL       82
REMARK 921   NORMALIZED FREE ENERGY PREDICTED BY IDOCK:   -4.59 KCAL/MOL
REMARK 922        TOTAL FREE ENERGY PREDICTED BY IDOCK:   -5.36 KCAL/MOL
REMARK 923 INTER-LIGAND FREE ENERGY PREDICTED BY IDOCK:   -4.82 KCAL/MOL
REMARK 924 INTRA-LIGAND FREE ENERGY PREDICTED BY IDOCK:   -0.54 KCAL/MOL
REMARK 927      BINDING AFFINITY PREDICTED BY RF-SCORE:    0.00 PKD
ROOT
HETATM    1  O   UNL     1     -11.276   7.250  66.883  1.00  0.00    -0.543 OA 
HETATM    2  C   UNL     1     -10.210   7.875  67.602  1.00  0.00    -0.226 C  
HETATM    3  H   UNL     1     -11.897   6.935  67.529  1.00  0.00     0.000 HD 
HETATM    4  C   UNL     1     -10.701   9.254  68.057  1.00  0.00    -0.231 A  
HETATM    5  N   UNL     1      -9.264   8.355  66.618  1.00  0.00    -0.167 NA 
HETATM    6  C   UNL     1     -10.670   9.888  69.290  1.00  0.00    -0.247 A  
HETATM    7  C   UNL     1      -8.466   7.709  65.624  1.00  0.00    -0.142 C  
HETATM    8  C   UNL     1     -10.962  11.259  69.342  1.00  0.00    -0.282 A  
HETATM    9  C   UNL     1      -8.356   8.855  64.569  1.00  0.00    -0.170 C  
HETATM   10  N   UNL     1      -9.472   9.824  64.829  1.00  0.00    -0.279 NA 
HETATM   11  C   UNL     1     -11.311  11.983  68.184  1.00  0.00    -0.349 A  
HETATM   12  C   UNL     1     -11.208  11.383  66.935  1.00  0.00    -0.331 A  
HETATM   13  C   UNL     1      -9.840   9.457  66.020  1.00  0.00    -0.296 C  
HETATM   14  C   UNL     1     -10.807  10.073  66.923  1.00  0.00    -0.152 A  
ENDROOT
BRANCH   2  15
HETATM   15  C   UNL     1      -9.916   6.902  68.723  1.00  0.00    -0.153 A  
HETATM   16  C   UNL     1      -8.118   6.007  70.183  1.00  0.00    -0.114 A  
HETATM   17 CL   UNL     1      -8.580   4.369  72.261  1.00  0.00    -0.113 Cl 
HETATM   18  C   UNL     1      -9.073   5.298  70.900  1.00  0.00    -0.138 A  
HETATM   19  C   UNL     1     -10.422   5.358  70.531  1.00  0.00    -0.335 A  
HETATM   20  C   UNL     1     -10.851   6.156  69.446  1.00  0.00    -0.420 A  
HETATM   21  C   UNL     1      -8.548   6.792  69.111  1.00  0.00    -0.131 A  
ENDBRANCH   2  15
TORSDOF 1
ENDMDL
MODEL       83
REMARK 921   NORMALIZED FREE ENERGY PREDICTED BY IDOCK:   -4.58 KCAL/MOL
REMARK 922        TOTAL FREE ENERGY PREDICTED BY IDOCK:   -5.35 KCAL/MOL
REMARK 923 INTER-LIGAND FREE ENERGY PREDICTED BY IDOCK:   -4.82 KCAL/MOL
REMARK 924 INTRA-LIGAND FREE ENERGY PREDICTED BY IDOCK:   -0.53 KCAL/MOL
REMARK 927      BINDING AFFINITY PREDICTED BY RF-SCORE:    0.00 PKD
ROOT
HETATM    1  O   UNL     1     -11.171   7.722  68.815  1.00  0.00    -0.397 OA 
HETATM    2  C   UNL     1     -10.790   8.499  69.953  1.00  0.00    -0.205 C  
HETATM    3  H   UNL     1     -10.851   8.181  68.048  1.00  0.00     0.000 HD 
HETATM    4  C   UNL     1      -9.299   8.248  70.211  1.00  0.00    -0.159 A  
HETATM    5  N   UNL     1     -11.277   7.799  71.122  1.00  0.00    -0.259 NA 
HETATM    6  C   UNL     1      -8.236   9.114  70.420  1.00  0.00    -0.188 A  
HETATM    7  C   UNL     1     -12.582   7.431  71.575  1.00  0.00    -0.367 C  
HETATM    8  C   UNL     1      -7.026   8.583  70.889  1.00  0.00    -0.057 A  
HETATM    9  C   UNL     1     -12.238   6.151  72.399  1.00  0.00    -0.074 C  
HETATM   10  N   UNL     1     -10.897   5.656  71.938  1.00  0.00    -0.244 NA 
HETATM   11  C   UNL     1      -6.868   7.201  71.119  1.00  0.00    -0.060 A  
HETATM   12  C   UNL     1      -7.967   6.355  71.042  1.00  0.00    -0.115 A  
HETATM   13  C   UNL     1     -10.465   6.696  71.290  1.00  0.00    -0.215 C  
HETATM   14  C   UNL     1      -9.157   6.938  70.691  1.00  0.00    -0.155 A  
ENDROOT
BRANCH   2  15
HETATM   15  C   UNL     1     -11.137   9.916  69.551  1.00  0.00    -0.255 A  
HETATM   16  C   UNL     1     -11.912  12.112  70.410  1.00  0.00    -0.360 A  
HETATM   17 CL   UNL     1     -11.993  14.340  68.913  1.00  0.00    -0.367 Cl 
HETATM   18  C   UNL     1     -11.708  12.662  69.151  1.00  0.00    -0.321 A  
HETATM   19  C   UNL     1     -11.254  11.860  68.096  1.00  0.00    -0.316 A  
HETATM   20  C   UNL     1     -10.967  10.489  68.287  1.00  0.00    -0.314 A  
HETATM   21  C   UNL     1     -11.628  10.757  70.592  1.00  0.00    -0.388 A  
ENDBRANCH   2  15
TORSDOF 1
ENDMDL
MODEL       84
REMARK 921   NORMALIZED FREE ENERGY PREDICTED BY IDOCK:   -4.52 KCAL/MOL
REMARK 922        TOTAL FREE ENERGY PREDICTED BY IDOCK:   -5.28 KCAL/MOL
REMARK 923 INTER-LIGAND FREE ENERGY PREDICTED BY IDOCK:   -4.72 KCAL/MOL
REMARK 924 INTRA-LIGAND FREE ENERGY PREDICTED BY IDOCK:   -0.55 KCAL/MOL
REMARK 927      BINDING AFFINITY PREDICTED BY RF-SCORE:    0.00 PKD
ROOT
HETATM    1  O   UNL     1      -8.204  14.441  67.470  1.00  0.00    -0.161 OA 
HETATM    2  C   UNL     1      -9.586  14.130  67.666  1.00  0.00    -0.216 C  
HETATM    3  H   UNL     1      -7.807  13.684  67.056  1.00  0.00     0.000 HD 
HETATM    4  C   UNL     1     -10.293  14.281  66.314  1.00  0.00    -0.297 A  
HETATM    5  N   UNL     1     -10.191  15.283  68.295  1.00  0.00    -0.224 NA 
HETATM    6  C   UNL     1     -11.156  13.443  65.621  1.00  0.00    -0.298 A  
HETATM    7  C   UNL     1      -9.971  15.953  69.539  1.00  0.00    -0.274 C  
HETATM    8  C   UNL     1     -11.851  13.966  64.521  1.00  0.00    -0.449 A  
HETATM    9  C   UNL     1     -10.406  17.402  69.154  1.00  0.00    -0.271 C  
HETATM   10  N   UNL     1     -10.355  17.512  67.658  1.00  0.00    -0.346 NA 
HETATM   11  C   UNL     1     -11.666  15.298  64.097  1.00  0.00    -0.115 A  
HETATM   12  C   UNL     1     -10.911  16.172  64.869  1.00  0.00    -0.364 A  
HETATM   13  C   UNL     1     -10.290  16.258  67.324  1.00  0.00    -0.285 C  
HETATM   14  C   UNL     1     -10.343  15.647  66.000  1.00  0.00    -0.351 A  
ENDROOT
BRANCH   2  15
HETATM   15  C   UNL     1      -9.560  12.721  68.217  1.00  0.00    -0.211 A  
HETATM   16  C   UNL     1      -8.195  10.653  68.376  1.00  0.00    -0.125 A  
HETATM   17 CL   UNL     1      -8.865   8.554  69.910  1.00  0.00    -0.135 Cl 
HETATM   18  C   UNL     1      -9.141  10.112  69.238  1.00  0.00    -0.198 A  
HETATM   19  C   UNL     1     -10.291  10.838  69.570  1.00  0.00    -0.178 A  
HETATM   20  C   UNL     1     -10.508  12.140  69.065  1.00  0.00    -0.072 A  
HETATM   21  C   UNL     1      -8.416  11.940  67.880  1.00  0.00    -0.154 A  
ENDBRANCH   2  15
TORSDOF 1
ENDMDL
MODEL       85
REMARK 921   NORMALIZED FREE ENERGY PREDICTED BY IDOCK:   -4.51 KCAL/MOL
REMARK 922        TOTAL FREE ENERGY PREDICTED BY IDOCK:   -5.27 KCAL/MOL
REMARK 923 INTER-LIGAND FREE ENERGY PREDICTED BY IDOCK:   -4.73 KCAL/MOL
REMARK 924 INTRA-LIGAND FREE ENERGY PREDICTED BY IDOCK:   -0.54 KCAL/MOL
REMARK 927      BINDING AFFINITY PREDICTED BY RF-SCORE:    0.00 PKD
ROOT
HETATM    1  O   UNL     1      -8.374   8.707  69.876  1.00  0.00    -0.116 OA 
HETATM    2  C   UNL     1      -9.486   8.776  68.981  1.00  0.00    -0.160 C  
HETATM    3  H   UNL     1      -7.860   9.494  69.738  1.00  0.00     0.000 HD 
HETATM    4  C   UNL     1     -10.504   9.755  69.577  1.00  0.00    -0.250 A  
HETATM    5  N   UNL     1     -10.270   7.578  69.191  1.00  0.00    -0.197 NA 
HETATM    6  C   UNL     1     -11.181  10.836  69.029  1.00  0.00    -0.322 A  
HETATM    7  C   UNL     1      -9.995   6.184  69.041  1.00  0.00    -0.153 C  
HETATM    8  C   UNL     1     -12.250  11.386  69.750  1.00  0.00    -0.332 A  
HETATM    9  C   UNL     1     -10.962   5.593  70.113  1.00  0.00    -0.233 C  
HETATM   10  N   UNL     1     -11.309   6.694  71.073  1.00  0.00    -0.297 NA 
HETATM   11  C   UNL     1     -12.623  10.886  71.014  1.00  0.00    -0.517 A  
HETATM   12  C   UNL     1     -12.038   9.722  71.498  1.00  0.00    -0.493 A  
HETATM   13  C   UNL     1     -10.914   7.734  70.401  1.00  0.00    -0.249 C  
HETATM   14  C   UNL     1     -11.077   9.152  70.706  1.00  0.00    -0.336 A  
ENDROOT
BRANCH   2  15
HETATM   15  C   UNL     1      -8.866   9.219  67.674  1.00  0.00    -0.122 A  
HETATM   16  C   UNL     1      -9.153   9.200  65.208  1.00  0.00    -0.252 A  
HETATM   17 CL   UNL     1      -7.582  10.583  63.525  1.00  0.00    -0.034 Cl 
HETATM   18  C   UNL     1      -8.049  10.034  65.086  1.00  0.00    -0.144 A  
HETATM   19  C   UNL     1      -7.342  10.439  66.224  1.00  0.00    -0.128 A  
HETATM   20  C   UNL     1      -7.742  10.036  67.519  1.00  0.00    -0.091 A  
HETATM   21  C   UNL     1      -9.543   8.805  66.489  1.00  0.00    -0.302 A  
ENDBRANCH   2  15
TORSDOF 1
ENDMDL
MODEL       86
REMARK 921   NORMALIZED FREE ENERGY PREDICTED BY IDOCK:   -4.50 KCAL/MOL
REMARK 922        TOTAL FREE ENERGY PREDICTED BY IDOCK:   -5.27 KCAL/MOL
REMARK 923 INTER-LIGAND FREE ENERGY PREDICTED BY IDOCK:   -4.73 KCAL/MOL
REMARK 924 INTRA-LIGAND FREE ENERGY PREDICTED BY IDOCK:   -0.53 KCAL/MOL
REMARK 927      BINDING AFFINITY PREDICTED BY RF-SCORE:    0.00 PKD
ROOT
HETATM    1  O   UNL     1      -9.179   7.518  69.580  1.00  0.00    -0.147 OA 
HETATM    2  C   UNL     1      -9.350   8.282  70.777  1.00  0.00    -0.161 C  
HETATM    3  H   UNL     1      -9.900   6.901  69.541  1.00  0.00     0.000 HD 
HETATM    4  C   UNL     1     -10.450   9.318  70.515  1.00  0.00    -0.312 A  
HETATM    5  N   UNL     1      -8.253   9.222  70.836  1.00  0.00    -0.268 NA 
HETATM    6  C   UNL     1     -11.587   9.663  71.231  1.00  0.00    -0.466 A  
HETATM    7  C   UNL     1      -6.833   9.074  70.911  1.00  0.00    -0.088 C  
HETATM    8  C   UNL     1     -12.270  10.835  70.873  1.00  0.00    -0.487 A  
HETATM    9  C   UNL     1      -6.379  10.387  70.201  1.00  0.00    -0.123 C  
HETATM   10  N   UNL     1      -7.534  10.888  69.383  1.00  0.00    -0.127 NA 
HETATM   11  C   UNL     1     -11.843  11.636  69.794  1.00  0.00    -0.428 A  
HETATM   12  C   UNL     1     -10.633  11.366  69.167  1.00  0.00    -0.196 A  
HETATM   13  C   UNL     1      -8.507  10.189  69.885  1.00  0.00    -0.081 C  
HETATM   14  C   UNL     1      -9.941  10.277  69.627  1.00  0.00    -0.240 A  
ENDROOT
BRANCH   2  15
HETATM   15  C   UNL     1      -9.692   7.240  71.819  1.00  0.00    -0.167 A  
HETATM   16  C   UNL     1     -10.415   4.887  72.143  1.00  0.00    -0.257 A  
HETATM   17 CL   UNL     1     -10.515   3.687  74.543  1.00  0.00    -0.250 Cl 
HETATM   18  C   UNL     1     -10.242   5.037  73.513  1.00  0.00    -0.191 A  
HETATM   19  C   UNL     1      -9.829   6.265  74.042  1.00  0.00    -0.249 A  
HETATM   20  C   UNL     1      -9.554   7.370  73.204  1.00  0.00    -0.259 A  
HETATM   21  C   UNL     1     -10.142   5.982  71.321  1.00  0.00    -0.237 A  
ENDBRANCH   2  15
TORSDOF 1
ENDMDL
MODEL       87
REMARK 921   NORMALIZED FREE ENERGY PREDICTED BY IDOCK:   -4.46 KCAL/MOL
REMARK 922        TOTAL FREE ENERGY PREDICTED BY IDOCK:   -5.22 KCAL/MOL
REMARK 923 INTER-LIGAND FREE ENERGY PREDICTED BY IDOCK:   -4.95 KCAL/MOL
REMARK 924 INTRA-LIGAND FREE ENERGY PREDICTED BY IDOCK:   -0.27 KCAL/MOL
REMARK 927      BINDING AFFINITY PREDICTED BY RF-SCORE:    0.00 PKD
ROOT
HETATM    1  O   UNL     1     -10.285  15.601  68.523  1.00  0.00    -0.206 OA 
HETATM    2  C   UNL     1      -9.370  14.984  67.614  1.00  0.00    -0.194 C  
HETATM    3  H   UNL     1     -10.901  14.930  68.794  1.00  0.00     0.000 HD 
HETATM    4  C   UNL     1      -8.376  14.161  68.442  1.00  0.00    -0.161 A  
HETATM    5  N   UNL     1      -8.433  16.006  67.203  1.00  0.00    -0.182 NA 
HETATM    6  C   UNL     1      -7.936  12.850  68.326  1.00  0.00    -0.151 A  
HETATM    7  C   UNL     1      -8.573  17.249  66.512  1.00  0.00    -0.264 C  
HETATM    8  C   UNL     1      -6.821  12.452  69.077  1.00  0.00    -0.093 A  
HETATM    9  C   UNL     1      -7.366  18.037  67.109  1.00  0.00    -0.195 C  
HETATM   10  N   UNL     1      -6.975  17.368  68.395  1.00  0.00    -0.193 NA 
HETATM   11  C   UNL     1      -6.170  13.342  69.957  1.00  0.00    -0.079 A  
HETATM   12  C   UNL     1      -6.522  14.686  69.969  1.00  0.00    -0.168 A  
HETATM   13  C   UNL     1      -7.599  16.234  68.278  1.00  0.00    -0.153 C  
HETATM   14  C   UNL     1      -7.543  15.053  69.133  1.00  0.00    -0.176 A  
ENDROOT
BRANCH   2  15
HETATM   15  C   UNL     1     -10.265  14.173  66.702  1.00  0.00    -0.270 A  
HETATM   16  C   UNL     1     -10.903  13.799  64.332  1.00  0.00    -0.343 A  
HETATM   17 CL   UNL     1     -12.509  11.801  63.531  1.00  0.00    -0.594 Cl 
HETATM   18  C   UNL     1     -11.689  12.724  64.728  1.00  0.00    -0.352 A  
HETATM   19  C   UNL     1     -11.792  12.386  66.082  1.00  0.00    -0.442 A  
HETATM   20  C   UNL     1     -11.086  13.104  67.074  1.00  0.00    -0.305 A  
HETATM   21  C   UNL     1     -10.208  14.505  65.317  1.00  0.00    -0.431 A  
ENDBRANCH   2  15
TORSDOF 1
ENDMDL
MODEL       88
REMARK 921   NORMALIZED FREE ENERGY PREDICTED BY IDOCK:   -4.45 KCAL/MOL
REMARK 922        TOTAL FREE ENERGY PREDICTED BY IDOCK:   -5.21 KCAL/MOL
REMARK 923 INTER-LIGAND FREE ENERGY PREDICTED BY IDOCK:   -4.69 KCAL/MOL
REMARK 924 INTRA-LIGAND FREE ENERGY PREDICTED BY IDOCK:   -0.51 KCAL/MOL
REMARK 927      BINDING AFFINITY PREDICTED BY RF-SCORE:    0.00 PKD
ROOT
HETATM    1  O   UNL     1     -10.001   5.039  71.126  1.00  0.00    -0.186 OA 
HETATM    2  C   UNL     1      -9.715   6.113  70.227  1.00  0.00    -0.164 C  
HETATM    3  H   UNL     1     -10.942   5.032  71.257  1.00  0.00     0.000 HD 
HETATM    4  C   UNL     1     -10.083   5.648  68.813  1.00  0.00    -0.245 A  
HETATM    5  N   UNL     1      -8.282   6.124  70.027  1.00  0.00    -0.121 NA 
HETATM    6  C   UNL     1     -10.842   6.237  67.812  1.00  0.00    -0.424 A  
HETATM    7  C   UNL     1      -7.168   6.311  70.902  1.00  0.00    -0.071 C  
HETATM    8  C   UNL     1     -10.787   5.687  66.524  1.00  0.00    -0.239 A  
HETATM    9  C   UNL     1      -6.085   5.469  70.157  1.00  0.00    -0.025 C  
HETATM   10  N   UNL     1      -6.798   4.519  69.238  1.00  0.00    -0.048 NA 
HETATM   11  C   UNL     1     -10.010   4.544  66.242  1.00  0.00    -0.268 A  
HETATM   12  C   UNL     1      -9.147   4.039  67.207  1.00  0.00    -0.169 A  
HETATM   13  C   UNL     1      -7.987   5.042  69.224  1.00  0.00    -0.079 C  
HETATM   14  C   UNL     1      -9.149   4.680  68.418  1.00  0.00    -0.154 A  
ENDROOT
BRANCH   2  15
HETATM   15  C   UNL     1     -10.551   7.257  70.759  1.00  0.00    -0.237 A  
HETATM   16  C   UNL     1     -10.853   9.721  70.696  1.00  0.00    -0.396 A  
HETATM   17 CL   UNL     1     -12.937  10.984  71.822  1.00  0.00    -0.574 Cl 
HETATM   18  C   UNL     1     -12.011   9.584  71.450  1.00  0.00    -0.386 A  
HETATM   19  C   UNL     1     -12.429   8.319  71.880  1.00  0.00    -0.376 A  
HETATM   20  C   UNL     1     -11.706   7.153  71.540  1.00  0.00    -0.324 A  
HETATM   21  C   UNL     1     -10.142   8.565  70.365  1.00  0.00    -0.208 A  
ENDBRANCH   2  15
TORSDOF 1
ENDMDL
MODEL       89
REMARK 921   NORMALIZED FREE ENERGY PREDICTED BY IDOCK:   -4.35 KCAL/MOL
REMARK 922        TOTAL FREE ENERGY PREDICTED BY IDOCK:   -5.10 KCAL/MOL
REMARK 923 INTER-LIGAND FREE ENERGY PREDICTED BY IDOCK:   -4.58 KCAL/MOL
REMARK 924 INTRA-LIGAND FREE ENERGY PREDICTED BY IDOCK:   -0.52 KCAL/MOL
REMARK 927      BINDING AFFINITY PREDICTED BY RF-SCORE:    0.00 PKD
ROOT
HETATM    1  O   UNL     1     -11.755   6.874  69.462  1.00  0.00    -0.585 OA 
HETATM    2  C   UNL     1     -10.370   7.087  69.746  1.00  0.00    -0.212 C  
HETATM    3  H   UNL     1     -11.833   6.790  68.519  1.00  0.00     0.000 HD 
HETATM    4  C   UNL     1      -9.658   5.734  69.633  1.00  0.00    -0.193 A  
HETATM    5  N   UNL     1     -10.250   7.215  71.182  1.00  0.00    -0.192 NA 
HETATM    6  C   UNL     1      -8.509   5.345  68.959  1.00  0.00    -0.100 A  
HETATM    7  C   UNL     1     -10.781   8.138  72.135  1.00  0.00    -0.293 C  
HETATM    8  C   UNL     1      -7.956   4.091  69.255  1.00  0.00    -0.057 A  
HETATM    9  C   UNL     1     -10.845   7.226  73.399  1.00  0.00    -0.324 C  
HETATM   10  N   UNL     1     -10.818   5.799  72.935  1.00  0.00    -0.244 NA 
HETATM   11  C   UNL     1      -8.557   3.222  70.188  1.00  0.00    -0.107 A  
HETATM   12  C   UNL     1      -9.623   3.665  70.960  1.00  0.00    -0.246 A  
HETATM   13  C   UNL     1     -10.420   5.951  71.707  1.00  0.00    -0.227 C  
HETATM   14  C   UNL     1     -10.059   4.941  70.718  1.00  0.00    -0.303 A  
ENDROOT
BRANCH   2  15
HETATM   15  C   UNL     1      -9.949   8.116  68.719  1.00  0.00    -0.198 A  
HETATM   16  C   UNL     1     -10.257   8.843  66.365  1.00  0.00    -0.273 A  
HETATM   17 CL   UNL     1      -9.247  11.128  65.379  1.00  0.00    -0.229 Cl 
HETATM   18  C   UNL     1      -9.484   9.968  66.626  1.00  0.00    -0.171 A  
HETATM   19  C   UNL     1      -8.926  10.162  67.895  1.00  0.00    -0.128 A  
HETATM   20  C   UNL     1      -9.153   9.242  68.945  1.00  0.00    -0.139 A  
HETATM   21  C   UNL     1     -10.475   7.938  67.406  1.00  0.00    -0.360 A  
ENDBRANCH   2  15
TORSDOF 1
ENDMDL
MODEL       90
REMARK 921   NORMALIZED FREE ENERGY PREDICTED BY IDOCK:   -4.31 KCAL/MOL
REMARK 922        TOTAL FREE ENERGY PREDICTED BY IDOCK:   -5.06 KCAL/MOL
REMARK 923 INTER-LIGAND FREE ENERGY PREDICTED BY IDOCK:   -4.51 KCAL/MOL
REMARK 924 INTRA-LIGAND FREE ENERGY PREDICTED BY IDOCK:   -0.54 KCAL/MOL
REMARK 927      BINDING AFFINITY PREDICTED BY RF-SCORE:    0.00 PKD
ROOT
HETATM    1  O   UNL     1     -11.812   6.595  69.118  1.00  0.00    -0.592 OA 
HETATM    2  C   UNL     1     -10.477   6.944  69.494  1.00  0.00    -0.223 C  
HETATM    3  H   UNL     1     -11.842   5.648  69.055  1.00  0.00     0.000 HD 
HETATM    4  C   UNL     1     -10.329   6.667  70.995  1.00  0.00    -0.234 A  
HETATM    5  N   UNL     1     -10.430   8.387  69.590  1.00  0.00    -0.220 NA 
HETATM    6  C   UNL     1      -9.366   5.978  71.719  1.00  0.00    -0.158 A  
HETATM    7  C   UNL     1     -10.642   9.442  68.649  1.00  0.00    -0.200 C  
HETATM    8  C   UNL     1      -9.359   6.114  73.115  1.00  0.00    -0.138 A  
HETATM    9  C   UNL     1     -11.149  10.568  69.604  1.00  0.00    -0.283 C  
HETATM   10  N   UNL     1     -11.632   9.913  70.866  1.00  0.00    -0.343 NA 
HETATM   11  C   UNL     1     -10.318   6.903  73.784  1.00  0.00    -0.409 A  
HETATM   12  C   UNL     1     -11.191   7.699  73.053  1.00  0.00    -0.388 A  
HETATM   13  C   UNL     1     -11.111   8.729  70.740  1.00  0.00    -0.260 C  
HETATM   14  C   UNL     1     -11.086   7.621  71.689  1.00  0.00    -0.274 A  
ENDROOT
BRANCH   2  15
HETATM   15  C   UNL     1      -9.616   6.080  68.599  1.00  0.00    -0.141 A  
HETATM   16  C   UNL     1      -7.421   5.949  67.445  1.00  0.00    -0.078 A  
HETATM   17 CL   UNL     1      -6.539   3.744  66.192  1.00  0.00    -0.037 Cl 
HETATM   18  C   UNL     1      -7.712   4.644  67.068  1.00  0.00    -0.091 A  
HETATM   19  C   UNL     1      -8.938   4.065  67.419  1.00  0.00    -0.146 A  
HETATM   20  C   UNL     1      -9.893   4.775  68.182  1.00  0.00    -0.182 A  
HETATM   21  C   UNL     1      -8.370   6.645  68.198  1.00  0.00    -0.117 A  
ENDBRANCH   2  15
TORSDOF 1
ENDMDL
MODEL       91
REMARK 921   NORMALIZED FREE ENERGY PREDICTED BY IDOCK:   -4.26 KCAL/MOL
REMARK 922        TOTAL FREE ENERGY PREDICTED BY IDOCK:   -5.01 KCAL/MOL
REMARK 923 INTER-LIGAND FREE ENERGY PREDICTED BY IDOCK:   -4.47 KCAL/MOL
REMARK 924 INTRA-LIGAND FREE ENERGY PREDICTED BY IDOCK:   -0.53 KCAL/MOL
REMARK 927      BINDING AFFINITY PREDICTED BY RF-SCORE:    0.00 PKD
ROOT
HETATM    1  O   UNL     1     -10.462   4.967  71.359  1.00  0.00    -0.204 OA 
HETATM    2  C   UNL     1     -10.295   6.064  70.457  1.00  0.00    -0.221 C  
HETATM    3  H   UNL     1      -9.824   4.308  71.113  1.00  0.00     0.000 HD 
HETATM    4  C   UNL     1      -9.055   6.848  70.901  1.00  0.00    -0.153 A  
HETATM    5  N   UNL     1     -11.266   7.069  70.832  1.00  0.00    -0.268 NA 
HETATM    6  C   UNL     1      -7.947   7.305  70.202  1.00  0.00    -0.112 A  
HETATM    7  C   UNL     1     -12.694   7.085  70.884  1.00  0.00    -0.167 C  
HETATM    8  C   UNL     1      -7.094   8.224  70.830  1.00  0.00    -0.053 A  
HETATM    9  C   UNL     1     -12.918   8.126  72.025  1.00  0.00    -0.305 C  
HETATM   10  N   UNL     1     -11.645   8.219  72.815  1.00  0.00    -0.354 NA 
HETATM   11  C   UNL     1      -7.325   8.659  72.151  1.00  0.00    -0.061 A  
HETATM   12  C   UNL     1      -8.504   8.311  72.800  1.00  0.00    -0.248 A  
HETATM   13  C   UNL     1     -10.813   7.639  72.003  1.00  0.00    -0.238 C  
HETATM   14  C   UNL     1      -9.363   7.504  72.102  1.00  0.00    -0.176 A  
ENDROOT
BRANCH   2  15
HETATM   15  C   UNL     1     -10.176   5.398  69.103  1.00  0.00    -0.302 A  
HETATM   16  C   UNL     1     -10.675   5.664  66.685  1.00  0.00    -0.339 A  
HETATM   17 CL   UNL     1      -9.788   3.972  64.798  1.00  0.00    -0.189 Cl 
HETATM   18  C   UNL     1      -9.970   4.496  66.425  1.00  0.00    -0.245 A  
HETATM   19  C   UNL     1      -9.397   3.768  67.475  1.00  0.00    -0.238 A  
HETATM   20  C   UNL     1      -9.496   4.211  68.815  1.00  0.00    -0.231 A  
HETATM   21  C   UNL     1     -10.770   6.095  68.010  1.00  0.00    -0.370 A  
ENDBRANCH   2  15
TORSDOF 1
ENDMDL
MODEL       92
REMARK 921   NORMALIZED FREE ENERGY PREDICTED BY IDOCK:   -4.25 KCAL/MOL
REMARK 922        TOTAL FREE ENERGY PREDICTED BY IDOCK:   -5.00 KCAL/MOL
REMARK 923 INTER-LIGAND FREE ENERGY PREDICTED BY IDOCK:   -4.63 KCAL/MOL
REMARK 924 INTRA-LIGAND FREE ENERGY PREDICTED BY IDOCK:   -0.36 KCAL/MOL
REMARK 927      BINDING AFFINITY PREDICTED BY RF-SCORE:    0.00 PKD
ROOT
HETATM    1  O   UNL     1     -10.156   8.254  66.200  1.00  0.00    -0.470 OA 
HETATM    2  C   UNL     1      -9.593   9.447  66.751  1.00  0.00    -0.179 C  
HETATM    3  H   UNL     1     -10.158   8.361  65.256  1.00  0.00     0.000 HD 
HETATM    4  C   UNL     1      -8.073   9.374  66.565  1.00  0.00    -0.111 A  
HETATM    5  N   UNL     1      -9.589   9.286  68.188  1.00  0.00    -0.141 NA 
HETATM    6  C   UNL     1      -7.157  10.282  66.052  1.00  0.00    -0.128 A  
HETATM    7  C   UNL     1     -10.620   9.099  69.160  1.00  0.00    -0.208 C  
HETATM    8  C   UNL     1      -5.791  10.034  66.251  1.00  0.00    -0.061 A  
HETATM    9  C   UNL     1      -9.839   8.293  70.243  1.00  0.00    -0.184 C  
HETATM   10  N   UNL     1      -8.630   7.693  69.584  1.00  0.00    -0.135 NA 
HETATM   11  C   UNL     1      -5.341   8.880  66.924  1.00  0.00    -0.040 A  
HETATM   12  C   UNL     1      -6.256   8.045  67.555  1.00  0.00    -0.052 A  
HETATM   13  C   UNL     1      -8.590   8.380  68.482  1.00  0.00    -0.136 C  
HETATM   14  C   UNL     1      -7.576   8.390  67.432  1.00  0.00    -0.098 A  
ENDROOT
BRANCH   2  15
HETATM   15  C   UNL     1     -10.276  10.555  65.978  1.00  0.00    -0.310 A  
HETATM   16  C   UNL     1     -10.793  11.385  63.696  1.00  0.00    -0.459 A  
HETATM   17 CL   UNL     1     -12.431  13.458  63.213  1.00  0.00    -0.337 Cl 
HETATM   18  C   UNL     1     -11.584  12.382  64.253  1.00  0.00    -0.368 A  
HETATM   19  C   UNL     1     -11.706  12.492  65.643  1.00  0.00    -0.473 A  
HETATM   20  C   UNL     1     -11.056  11.585  66.511  1.00  0.00    -0.341 A  
HETATM   21  C   UNL     1     -10.153  10.493  64.559  1.00  0.00    -0.402 A  
ENDBRANCH   2  15
TORSDOF 1
ENDMDL
MODEL       93
REMARK 921   NORMALIZED FREE ENERGY PREDICTED BY IDOCK:   -4.17 KCAL/MOL
REMARK 922        TOTAL FREE ENERGY PREDICTED BY IDOCK:   -4.91 KCAL/MOL
REMARK 923 INTER-LIGAND FREE ENERGY PREDICTED BY IDOCK:   -4.44 KCAL/MOL
REMARK 924 INTRA-LIGAND FREE ENERGY PREDICTED BY IDOCK:   -0.47 KCAL/MOL
REMARK 927      BINDING AFFINITY PREDICTED BY RF-SCORE:    0.00 PKD
ROOT
HETATM    1  O   UNL     1     -10.330   7.463  66.695  1.00  0.00    -0.433 OA 
HETATM    2  C   UNL     1      -9.877   8.227  67.815  1.00  0.00    -0.170 C  
HETATM    3  H   UNL     1     -10.163   7.985  65.919  1.00  0.00     0.000 HD 
HETATM    4  C   UNL     1      -8.348   8.122  67.863  1.00  0.00    -0.129 A  
HETATM    5  N   UNL     1     -10.132   7.432  68.997  1.00  0.00    -0.187 NA 
HETATM    6  C   UNL     1      -7.357   9.085  67.980  1.00  0.00    -0.084 A  
HETATM    7  C   UNL     1     -11.321   6.911  69.594  1.00  0.00    -0.203 C  
HETATM    8  C   UNL     1      -6.048   8.664  68.258  1.00  0.00    -0.050 A  
HETATM    9  C   UNL     1     -10.746   5.641  70.295  1.00  0.00    -0.294 C  
HETATM   10  N   UNL     1      -9.438   5.308  69.637  1.00  0.00    -0.132 NA 
HETATM   11  C   UNL     1      -5.726   7.298  68.388  1.00  0.00    -0.023 A  
HETATM   12  C   UNL     1      -6.738   6.346  68.408  1.00  0.00    -0.068 A  
HETATM   13  C   UNL     1      -9.201   6.414  68.997  1.00  0.00    -0.129 C  
HETATM   14  C   UNL     1      -8.015   6.815  68.248  1.00  0.00    -0.111 A  
ENDROOT
BRANCH   2  15
HETATM   15  C   UNL     1     -10.412   9.615  67.540  1.00  0.00    -0.321 A  
HETATM   16  C   UNL     1     -10.711  11.337  65.776  1.00  0.00    -0.284 A  
HETATM   17 CL   UNL     1     -12.129  13.590  66.134  1.00  0.00    -0.459 Cl 
HETATM   18  C   UNL     1     -11.446  12.105  66.670  1.00  0.00    -0.365 A  
HETATM   19  C   UNL     1     -11.645  11.664  67.983  1.00  0.00    -0.383 A  
HETATM   20  C   UNL     1     -11.132  10.423  68.426  1.00  0.00    -0.322 A  
HETATM   21  C   UNL     1     -10.206  10.113  66.220  1.00  0.00    -0.288 A  
ENDBRANCH   2  15
TORSDOF 1
ENDMDL
MODEL       94
REMARK 921   NORMALIZED FREE ENERGY PREDICTED BY IDOCK:   -4.14 KCAL/MOL
REMARK 922        TOTAL FREE ENERGY PREDICTED BY IDOCK:   -4.88 KCAL/MOL
REMARK 923 INTER-LIGAND FREE ENERGY PREDICTED BY IDOCK:   -4.34 KCAL/MOL
REMARK 924 INTRA-LIGAND FREE ENERGY PREDICTED BY IDOCK:   -0.53 KCAL/MOL
REMARK 927      BINDING AFFINITY PREDICTED BY RF-SCORE:    0.00 PKD
ROOT
HETATM    1  O   UNL     1     -11.234   8.984  68.082  1.00  0.00    -0.469 OA 
HETATM    2  C   UNL     1      -9.897   9.393  67.787  1.00  0.00    -0.170 C  
HETATM    3  H   UNL     1     -11.790   9.347  67.403  1.00  0.00     0.000 HD 
HETATM    4  C   UNL     1      -9.379   8.507  66.647  1.00  0.00    -0.243 A  
HETATM    5  N   UNL     1      -9.049   8.840  68.821  1.00  0.00    -0.138 NA 
HETATM    6  C   UNL     1      -8.754   8.813  65.447  1.00  0.00    -0.217 A  
HETATM    7  C   UNL     1      -8.989   9.011  70.238  1.00  0.00    -0.198 C  
HETATM    8  C   UNL     1      -8.159   7.770  64.722  1.00  0.00    -0.131 A  
HETATM    9  C   UNL     1      -8.414   7.623  70.661  1.00  0.00    -0.127 C  
HETATM   10  N   UNL     1      -8.666   6.662  69.535  1.00  0.00    -0.135 NA 
HETATM   11  C   UNL     1      -8.213   6.435  65.171  1.00  0.00    -0.134 A  
HETATM   12  C   UNL     1      -8.717   6.149  66.435  1.00  0.00    -0.138 A  
HETATM   13  C   UNL     1      -8.956   7.486  68.573  1.00  0.00    -0.128 C  
HETATM   14  C   UNL     1      -9.182   7.216  67.157  1.00  0.00    -0.153 A  
ENDROOT
BRANCH   2  15
HETATM   15  C   UNL     1     -10.040  10.859  67.439  1.00  0.00    -0.223 A  
HETATM   16  C   UNL     1     -11.674  12.622  66.815  1.00  0.00    -0.460 A  
HETATM   17 CL   UNL     1     -11.043  15.226  66.640  1.00  0.00    -0.309 Cl 
HETATM   18  C   UNL     1     -10.663  13.570  66.903  1.00  0.00    -0.274 A  
HETATM   19  C   UNL     1      -9.357  13.182  67.224  1.00  0.00    -0.225 A  
HETATM   20  C   UNL     1      -9.037  11.831  67.492  1.00  0.00    -0.175 A  
HETATM   21  C   UNL     1     -11.352  11.289  67.080  1.00  0.00    -0.295 A  
ENDBRANCH   2  15
TORSDOF 1
ENDMDL
MODEL       95
REMARK 921   NORMALIZED FREE ENERGY PREDICTED BY IDOCK:   -4.13 KCAL/MOL
REMARK 922        TOTAL FREE ENERGY PREDICTED BY IDOCK:   -4.86 KCAL/MOL
REMARK 923 INTER-LIGAND FREE ENERGY PREDICTED BY IDOCK:   -4.30 KCAL/MOL
REMARK 924 INTRA-LIGAND FREE ENERGY PREDICTED BY IDOCK:   -0.56 KCAL/MOL
REMARK 927      BINDING AFFINITY PREDICTED BY RF-SCORE:    0.00 PKD
ROOT
HETATM    1  O   UNL     1      -9.368  12.840  65.930  1.00  0.00    -0.442 OA 
HETATM    2  C   UNL     1      -9.102  13.231  67.280  1.00  0.00    -0.221 C  
HETATM    3  H   UNL     1      -9.006  13.516  65.370  1.00  0.00     0.000 HD 
HETATM    4  C   UNL     1      -7.628  12.926  67.571  1.00  0.00    -0.164 A  
HETATM    5  N   UNL     1      -9.653  12.200  68.132  1.00  0.00    -0.204 NA 
HETATM    6  C   UNL     1      -6.615  13.695  68.124  1.00  0.00    -0.124 A  
HETATM    7  C   UNL     1     -10.975  11.698  68.340  1.00  0.00    -0.220 C  
HETATM    8  C   UNL     1      -5.427  13.056  68.507  1.00  0.00    -0.066 A  
HETATM    9  C   UNL     1     -10.652  10.229  68.757  1.00  0.00    -0.209 C  
HETATM   10  N   UNL     1      -9.264   9.913  68.280  1.00  0.00    -0.129 NA 
HETATM   11  C   UNL     1      -5.238  11.672  68.313  1.00  0.00    -0.043 A  
HETATM   12  C   UNL     1      -6.299  10.881  67.889  1.00  0.00    -0.057 A  
HETATM   13  C   UNL     1      -8.819  11.106  68.021  1.00  0.00    -0.142 C  
HETATM   14  C   UNL     1      -7.478  11.533  67.636  1.00  0.00    -0.110 A  
ENDROOT
BRANCH   2  15
HETATM   15  C   UNL     1      -9.466  14.699  67.304  1.00  0.00    -0.221 A  
HETATM   16  C   UNL     1      -9.681  16.737  65.901  1.00  0.00    -0.247 A  
HETATM   17 CL   UNL     1     -10.744  19.037  66.789  1.00  0.00    -0.484 Cl 
HETATM   18  C   UNL     1     -10.224  17.410  66.988  1.00  0.00    -0.323 A  
HETATM   19  C   UNL     1     -10.366  16.763  68.221  1.00  0.00    -0.319 A  
HETATM   20  C   UNL     1      -9.989  15.411  68.388  1.00  0.00    -0.215 A  
HETATM   21  C   UNL     1      -9.310  15.401  66.073  1.00  0.00    -0.364 A  
ENDBRANCH   2  15
TORSDOF 1
ENDMDL
MODEL       96
REMARK 921   NORMALIZED FREE ENERGY PREDICTED BY IDOCK:   -4.10 KCAL/MOL
REMARK 922        TOTAL FREE ENERGY PREDICTED BY IDOCK:   -4.84 KCAL/MOL
REMARK 923 INTER-LIGAND FREE ENERGY PREDICTED BY IDOCK:   -4.33 KCAL/MOL
REMARK 924 INTRA-LIGAND FREE ENERGY PREDICTED BY IDOCK:   -0.51 KCAL/MOL
REMARK 927      BINDING AFFINITY PREDICTED BY RF-SCORE:    0.00 PKD
ROOT
HETATM    1  O   UNL     1     -11.107   7.570  67.345  1.00  0.00    -0.547 OA 
HETATM    2  C   UNL     1     -10.079   8.053  68.212  1.00  0.00    -0.196 C  
HETATM    3  H   UNL     1     -11.469   6.791  67.752  1.00  0.00     0.000 HD 
HETATM    4  C   UNL     1     -10.758   8.771  69.384  1.00  0.00    -0.180 A  
HETATM    5  N   UNL     1      -9.529   9.239  67.592  1.00  0.00    -0.131 NA 
HETATM    6  C   UNL     1     -10.588   8.669  70.758  1.00  0.00    -0.254 A  
HETATM    7  C   UNL     1      -8.857   9.479  66.354  1.00  0.00    -0.144 C  
HETATM    8  C   UNL     1     -11.172   9.647  71.576  1.00  0.00    -0.377 A  
HETATM    9  C   UNL     1      -9.267  10.963  66.099  1.00  0.00    -0.184 C  
HETATM   10  N   UNL     1     -10.487  11.249  66.927  1.00  0.00    -0.234 NA 
HETATM   11  C   UNL     1     -11.941  10.697  71.035  1.00  0.00    -0.442 A  
HETATM   12  C   UNL     1     -11.996  10.878  69.659  1.00  0.00    -0.414 A  
HETATM   13  C   UNL     1     -10.470  10.236  67.741  1.00  0.00    -0.226 C  
HETATM   14  C   UNL     1     -11.315   9.964  68.899  1.00  0.00    -0.060 A  
ENDROOT
BRANCH   2  15
HETATM   15  C   UNL     1      -9.313   6.804  68.589  1.00  0.00    -0.131 A  
HETATM   16  C   UNL     1      -9.551   4.399  69.157  1.00  0.00    -0.252 A  
HETATM   17 CL   UNL     1      -7.464   2.732  69.438  1.00  0.00    -0.044 Cl 
HETATM   18  C   UNL     1      -8.167   4.276  69.156  1.00  0.00    -0.070 A  
HETATM   19  C   UNL     1      -7.359   5.391  68.904  1.00  0.00    -0.070 A  
HETATM   20  C   UNL     1      -7.923   6.656  68.621  1.00  0.00    -0.118 A  
HETATM   21  C   UNL     1     -10.101   5.652  68.878  1.00  0.00    -0.254 A  
ENDBRANCH   2  15
TORSDOF 1
ENDMDL
MODEL       97
REMARK 921   NORMALIZED FREE ENERGY PREDICTED BY IDOCK:   -4.07 KCAL/MOL
REMARK 922        TOTAL FREE ENERGY PREDICTED BY IDOCK:   -4.80 KCAL/MOL
REMARK 923 INTER-LIGAND FREE ENERGY PREDICTED BY IDOCK:   -4.31 KCAL/MOL
REMARK 924 INTRA-LIGAND FREE ENERGY PREDICTED BY IDOCK:   -0.49 KCAL/MOL
REMARK 927      BINDING AFFINITY PREDICTED BY RF-SCORE:    0.00 PKD
ROOT
HETATM    1  O   UNL     1      -8.280   6.876  68.538  1.00  0.00    -0.119 OA 
HETATM    2  C   UNL     1      -9.516   6.988  67.828  1.00  0.00    -0.124 C  
HETATM    3  H   UNL     1      -7.586   6.896  67.890  1.00  0.00     0.000 HD 
HETATM    4  C   UNL     1      -9.693   8.458  67.430  1.00  0.00    -0.222 A  
HETATM    5  N   UNL     1     -10.573   6.958  68.815  1.00  0.00    -0.211 NA 
HETATM    6  C   UNL     1     -10.008   9.060  66.220  1.00  0.00    -0.352 A  
HETATM    7  C   UNL     1     -10.995   5.986  69.774  1.00  0.00    -0.401 C  
HETATM    8  C   UNL     1     -10.358  10.418  66.222  1.00  0.00    -0.270 A  
HETATM    9  C   UNL     1     -11.600   6.921  70.868  1.00  0.00    -0.337 C  
HETATM   10  N   UNL     1     -11.034   8.295  70.660  1.00  0.00    -0.237 NA 
HETATM   11  C   UNL     1     -10.363  11.176  67.411  1.00  0.00    -0.231 A  
HETATM   12  C   UNL     1     -10.183  10.544  68.636  1.00  0.00    -0.197 A  
HETATM   13  C   UNL     1     -10.545   8.177  69.461  1.00  0.00    -0.213 C  
HETATM   14  C   UNL     1      -9.958   9.194  68.595  1.00  0.00    -0.185 A  
ENDROOT
BRANCH   2  15
HETATM   15  C   UNL     1      -9.349   6.031  66.668  1.00  0.00    -0.156 A  
HETATM   16  C   UNL     1     -10.529   4.359  65.261  1.00  0.00    -0.204 A  
HETATM   17 CL   UNL     1      -9.452   3.252  63.064  1.00  0.00    -0.094 Cl 
HETATM   18  C   UNL     1      -9.406   4.271  64.449  1.00  0.00    -0.157 A  
HETATM   19  C   UNL     1      -8.261   5.021  64.743  1.00  0.00    -0.130 A  
HETATM   20  C   UNL     1      -8.224   5.901  65.849  1.00  0.00    -0.127 A  
HETATM   21  C   UNL     1     -10.485   5.229  66.353  1.00  0.00    -0.347 A  
ENDBRANCH   2  15
TORSDOF 1
ENDMDL
MODEL       98
REMARK 921   NORMALIZED FREE ENERGY PREDICTED BY IDOCK:   -4.04 KCAL/MOL
REMARK 922        TOTAL FREE ENERGY PREDICTED BY IDOCK:   -4.78 KCAL/MOL
REMARK 923 INTER-LIGAND FREE ENERGY PREDICTED BY IDOCK:   -4.25 KCAL/MOL
REMARK 924 INTRA-LIGAND FREE ENERGY PREDICTED BY IDOCK:   -0.53 KCAL/MOL
REMARK 927      BINDING AFFINITY PREDICTED BY RF-SCORE:    0.00 PKD
ROOT
HETATM    1  O   UNL     1     -10.748   6.088  69.010  1.00  0.00    -0.258 OA 
HETATM    2  C   UNL     1     -10.226   7.028  69.953  1.00  0.00    -0.201 C  
HETATM    3  H   UNL     1     -10.469   6.377  68.150  1.00  0.00     0.000 HD 
HETATM    4  C   UNL     1      -8.736   6.720  70.141  1.00  0.00    -0.141 A  
HETATM    5  N   UNL     1     -10.650   6.588  71.264  1.00  0.00    -0.223 NA 
HETATM    6  C   UNL     1      -7.610   7.531  70.106  1.00  0.00    -0.088 A  
HETATM    7  C   UNL     1     -11.929   6.402  71.874  1.00  0.00    -0.329 C  
HETATM    8  C   UNL     1      -6.397   7.007  70.575  1.00  0.00    -0.039 A  
HETATM    9  C   UNL     1     -11.590   5.271  72.893  1.00  0.00    -0.219 C  
HETATM   10  N   UNL     1     -10.325   4.605  72.434  1.00  0.00    -0.198 NA 
HETATM   11  C   UNL     1      -6.299   5.681  71.044  1.00  0.00    -0.035 A  
HETATM   12  C   UNL     1      -7.448   4.917  71.207  1.00  0.00    -0.077 A  
HETATM   13  C   UNL     1      -9.891   5.477  71.573  1.00  0.00    -0.171 C  
HETATM   14  C   UNL     1      -8.628   5.511  70.844  1.00  0.00    -0.129 A  
ENDROOT
BRANCH   2  15
HETATM   15  C   UNL     1     -10.524   8.370  69.322  1.00  0.00    -0.223 A  
HETATM   16  C   UNL     1     -10.658   9.585  67.161  1.00  0.00    -0.295 A  
HETATM   17 CL   UNL     1     -11.613  12.085  66.927  1.00  0.00    -0.406 Cl 
HETATM   18  C   UNL     1     -11.164  10.692  67.830  1.00  0.00    -0.308 A  
HETATM   19  C   UNL     1     -11.327  10.663  69.220  1.00  0.00    -0.346 A  
HETATM   20  C   UNL     1     -11.009   9.509  69.972  1.00  0.00    -0.284 A  
HETATM   21  C   UNL     1     -10.346   8.449  67.909  1.00  0.00    -0.279 A  
ENDBRANCH   2  15
TORSDOF 1
ENDMDL
MODEL       99
REMARK 921   NORMALIZED FREE ENERGY PREDICTED BY IDOCK:   -4.02 KCAL/MOL
REMARK 922        TOTAL FREE ENERGY PREDICTED BY IDOCK:   -4.75 KCAL/MOL
REMARK 923 INTER-LIGAND FREE ENERGY PREDICTED BY IDOCK:   -4.92 KCAL/MOL
REMARK 924 INTRA-LIGAND FREE ENERGY PREDICTED BY IDOCK:    0.17 KCAL/MOL
REMARK 927      BINDING AFFINITY PREDICTED BY RF-SCORE:    0.00 PKD
ROOT
HETATM    1  O   UNL     1      -9.394  12.291  66.799  1.00  0.00    -0.205 OA 
HETATM    2  C   UNL     1      -9.461  12.884  68.098  1.00  0.00    -0.218 C  
HETATM    3  H   UNL     1     -10.272  12.001  66.583  1.00  0.00     0.000 HD 
HETATM    4  C   UNL     1     -10.071  14.282  67.941  1.00  0.00    -0.233 A  
HETATM    5  N   UNL     1      -8.123  13.326  68.428  1.00  0.00    -0.146 NA 
HETATM    6  C   UNL     1     -11.105  14.923  68.609  1.00  0.00    -0.272 A  
HETATM    7  C   UNL     1      -6.877  12.648  68.596  1.00  0.00    -0.091 C  
HETATM    8  C   UNL     1     -11.267  16.302  68.418  1.00  0.00    -0.349 A  
HETATM    9  C   UNL     1      -5.886  13.782  68.186  1.00  0.00    -0.123 C  
HETATM   10  N   UNL     1      -6.653  14.790  67.380  1.00  0.00    -0.301 NA 
HETATM   11  C   UNL     1     -10.428  17.030  67.550  1.00  0.00    -0.334 A  
HETATM   12  C   UNL     1      -9.312  16.419  66.990  1.00  0.00    -0.241 A  
HETATM   13  C   UNL     1      -7.874  14.443  67.656  1.00  0.00    -0.181 C  
HETATM   14  C   UNL     1      -9.128  15.097  67.296  1.00  0.00    -0.210 A  
ENDROOT
BRANCH   2  15
HETATM   15  C   UNL     1     -10.301  11.909  68.894  1.00  0.00    -0.131 A  
HETATM   16  C   UNL     1     -10.235   9.778  70.167  1.00  0.00    -0.328 A  
HETATM   17 CL   UNL     1     -12.306   8.850  71.603  1.00  0.00    -0.379 Cl 
HETATM   18  C   UNL     1     -11.555   9.982  70.549  1.00  0.00    -0.323 A  
HETATM   19  C   UNL     1     -12.255  11.108  70.099  1.00  0.00    -0.417 A  
HETATM   20  C   UNL     1     -11.636  12.074  69.271  1.00  0.00    -0.380 A  
HETATM   21  C   UNL     1      -9.631  10.736  69.350  1.00  0.00    -0.056 A  
ENDBRANCH   2  15
TORSDOF 1
ENDMDL
MODEL      100
REMARK 921   NORMALIZED FREE ENERGY PREDICTED BY IDOCK:   -4.02 KCAL/MOL
REMARK 922        TOTAL FREE ENERGY PREDICTED BY IDOCK:   -4.75 KCAL/MOL
REMARK 923 INTER-LIGAND FREE ENERGY PREDICTED BY IDOCK:   -4.20 KCAL/MOL
REMARK 924 INTRA-LIGAND FREE ENERGY PREDICTED BY IDOCK:   -0.55 KCAL/MOL
REMARK 927      BINDING AFFINITY PREDICTED BY RF-SCORE:    0.00 PKD
ROOT
HETATM    1  O   UNL     1     -11.259  12.109  69.101  1.00  0.00    -0.239 OA 
HETATM    2  C   UNL     1     -10.206  12.380  68.173  1.00  0.00    -0.225 C  
HETATM    3  H   UNL     1     -10.850  11.804  69.902  1.00  0.00     0.000 HD 
HETATM    4  C   UNL     1      -9.573  13.721  68.566  1.00  0.00    -0.176 A  
HETATM    5  N   UNL     1     -10.829  12.846  66.954  1.00  0.00    -0.254 NA 
HETATM    6  C   UNL     1      -8.252  14.101  68.757  1.00  0.00    -0.074 A  
HETATM    7  C   UNL     1     -11.745  12.255  66.029  1.00  0.00    -0.388 C  
HETATM    8  C   UNL     1      -7.961  15.469  68.859  1.00  0.00    -0.187 A  
HETATM    9  C   UNL     1     -12.469  13.532  65.500  1.00  0.00    -0.491 C  
HETATM   10  N   UNL     1     -12.248  14.630  66.500  1.00  0.00    -0.240 NA 
HETATM   11  C   UNL     1      -8.977  16.445  68.802  1.00  0.00    -0.245 A  
HETATM   12  C   UNL     1     -10.275  16.075  68.474  1.00  0.00    -0.236 A  
HETATM   13  C   UNL     1     -11.278  14.127  67.202  1.00  0.00    -0.317 C  
HETATM   14  C   UNL     1     -10.491  14.738  68.269  1.00  0.00    -0.241 A  
ENDROOT
BRANCH   2  15
HETATM   15  C   UNL     1      -9.293  11.181  68.309  1.00  0.00    -0.176 A  
HETATM   16  C   UNL     1      -8.672   9.290  69.793  1.00  0.00    -0.168 A  
HETATM   17 CL   UNL     1      -7.002   7.320  69.057  1.00  0.00    -0.075 Cl 
HETATM   18  C   UNL     1      -7.841   8.798  68.795  1.00  0.00    -0.101 A  
HETATM   19  C   UNL     1      -7.707   9.487  67.584  1.00  0.00    -0.095 A  
HETATM   20  C   UNL     1      -8.427  10.678  67.333  1.00  0.00    -0.122 A  
HETATM   21  C   UNL     1      -9.380  10.466  69.539  1.00  0.00    -0.150 A  
ENDBRANCH   2  15
TORSDOF 1
ENDMDL
MODEL      101
REMARK 921   NORMALIZED FREE ENERGY PREDICTED BY IDOCK:   -4.01 KCAL/MOL
REMARK 922        TOTAL FREE ENERGY PREDICTED BY IDOCK:   -4.74 KCAL/MOL
REMARK 923 INTER-LIGAND FREE ENERGY PREDICTED BY IDOCK:   -4.44 KCAL/MOL
REMARK 924 INTRA-LIGAND FREE ENERGY PREDICTED BY IDOCK:   -0.30 KCAL/MOL
REMARK 927      BINDING AFFINITY PREDICTED BY RF-SCORE:    0.00 PKD
ROOT
HETATM    1  O   UNL     1      -8.508   6.596  70.374  1.00  0.00    -0.131 OA 
HETATM    2  C   UNL     1      -9.194   7.311  69.342  1.00  0.00    -0.148 C  
HETATM    3  H   UNL     1      -9.164   6.098  70.847  1.00  0.00     0.000 HD 
HETATM    4  C   UNL     1      -9.504   6.318  68.215  1.00  0.00    -0.117 A  
HETATM    5  N   UNL     1      -8.195   8.069  68.621  1.00  0.00    -0.125 NA 
HETATM    6  C   UNL     1     -10.673   6.039  67.522  1.00  0.00    -0.383 A  
HETATM    7  C   UNL     1      -7.288   9.107  68.996  1.00  0.00    -0.073 C  
HETATM    8  C   UNL     1     -10.589   5.259  66.360  1.00  0.00    -0.338 A  
HETATM    9  C   UNL     1      -6.134   8.849  67.978  1.00  0.00    -0.051 C  
HETATM   10  N   UNL     1      -6.271   7.440  67.479  1.00  0.00    -0.046 NA 
HETATM   11  C   UNL     1      -9.359   4.737  65.911  1.00  0.00    -0.160 A  
HETATM   12  C   UNL     1      -8.175   5.129  66.523  1.00  0.00    -0.108 A  
HETATM   13  C   UNL     1      -7.481   7.163  67.864  1.00  0.00    -0.099 C  
HETATM   14  C   UNL     1      -8.296   5.985  67.585  1.00  0.00    -0.108 A  
ENDROOT
BRANCH   2  15
HETATM   15  C   UNL     1     -10.408   7.875  70.046  1.00  0.00    -0.221 A  
HETATM   16  C   UNL     1     -12.415   7.273  71.379  1.00  0.00    -0.418 A  
HETATM   17 CL   UNL     1     -14.011   9.088  72.550  1.00  0.00    -0.517 Cl 
HETATM   18  C   UNL     1     -12.674   8.624  71.574  1.00  0.00    -0.316 A  
HETATM   19  C   UNL     1     -11.842   9.592  70.999  1.00  0.00    -0.428 A  
HETATM   20  C   UNL     1     -10.710   9.227  70.235  1.00  0.00    -0.284 A  
HETATM   21  C   UNL     1     -11.296   6.919  70.623  1.00  0.00    -0.366 A  
ENDBRANCH   2  15
TORSDOF 1
ENDMDL
MODEL      102
REMARK 921   NORMALIZED FREE ENERGY PREDICTED BY IDOCK:   -3.99 KCAL/MOL
REMARK 922        TOTAL FREE ENERGY PREDICTED BY IDOCK:   -4.72 KCAL/MOL
REMARK 923 INTER-LIGAND FREE ENERGY PREDICTED BY IDOCK:   -4.20 KCAL/MOL
REMARK 924 INTRA-LIGAND FREE ENERGY PREDICTED BY IDOCK:   -0.52 KCAL/MOL
REMARK 927      BINDING AFFINITY PREDICTED BY RF-SCORE:    0.00 PKD
ROOT
HETATM    1  O   UNL     1     -11.104   8.331  67.774  1.00  0.00    -0.481 OA 
HETATM    2  C   UNL     1     -10.031   8.758  68.617  1.00  0.00    -0.182 C  
HETATM    3  H   UNL     1     -10.723   7.785  67.097  1.00  0.00     0.000 HD 
HETATM    4  C   UNL     1      -9.661   7.583  69.530  1.00  0.00    -0.156 A  
HETATM    5  N   UNL     1     -10.612   9.589  69.649  1.00  0.00    -0.218 NA 
HETATM    6  C   UNL     1      -8.441   6.997  69.837  1.00  0.00    -0.140 A  
HETATM    7  C   UNL     1     -11.336  10.821  69.628  1.00  0.00    -0.294 C  
HETATM    8  C   UNL     1      -8.385   6.099  70.912  1.00  0.00    -0.127 A  
HETATM    9  C   UNL     1     -12.208  10.654  70.912  1.00  0.00    -0.395 C  
HETATM   10  N   UNL     1     -12.257   9.190  71.243  1.00  0.00    -0.317 NA 
HETATM   11  C   UNL     1      -9.537   5.765  71.654  1.00  0.00    -0.178 A  
HETATM   12  C   UNL     1     -10.724   6.453  71.437  1.00  0.00    -0.290 A  
HETATM   13  C   UNL     1     -11.282   8.743  70.508  1.00  0.00    -0.247 C  
HETATM   14  C   UNL     1     -10.702   7.405  70.452  1.00  0.00    -0.250 A  
ENDROOT
BRANCH   2  15
HETATM   15  C   UNL     1      -8.952   9.170  67.641  1.00  0.00    -0.130 A  
HETATM   16  C   UNL     1      -8.259   9.074  65.258  1.00  0.00    -0.139 A  
HETATM   17 CL   UNL     1      -6.157  10.426  64.274  1.00  0.00    -0.116 Cl 
HETATM   18  C   UNL     1      -7.194   9.918  65.548  1.00  0.00    -0.122 A  
HETATM   19  C   UNL     1      -6.984  10.365  66.858  1.00  0.00    -0.093 A  
HETATM   20  C   UNL     1      -7.856   9.996  67.908  1.00  0.00    -0.090 A  
HETATM   21  C   UNL     1      -9.116   8.713  66.300  1.00  0.00    -0.233 A  
ENDBRANCH   2  15
TORSDOF 1
ENDMDL
MODEL      103
REMARK 921   NORMALIZED FREE ENERGY PREDICTED BY IDOCK:   -3.94 KCAL/MOL
REMARK 922        TOTAL FREE ENERGY PREDICTED BY IDOCK:   -4.66 KCAL/MOL
REMARK 923 INTER-LIGAND FREE ENERGY PREDICTED BY IDOCK:   -4.27 KCAL/MOL
REMARK 924 INTRA-LIGAND FREE ENERGY PREDICTED BY IDOCK:   -0.39 KCAL/MOL
REMARK 927      BINDING AFFINITY PREDICTED BY RF-SCORE:    0.00 PKD
ROOT
HETATM    1  O   UNL     1      -7.816   9.527  70.963  1.00  0.00    -0.316 OA 
HETATM    2  C   UNL     1      -8.804   9.222  69.975  1.00  0.00    -0.197 C  
HETATM    3  H   UNL     1      -7.974   8.948  71.699  1.00  0.00     0.000 HD 
HETATM    4  C   UNL     1      -8.376   7.928  69.272  1.00  0.00    -0.136 A  
HETATM    5  N   UNL     1      -8.563  10.104  68.853  1.00  0.00    -0.132 NA 
HETATM    6  C   UNL     1      -9.064   6.757  68.988  1.00  0.00    -0.137 A  
HETATM    7  C   UNL     1      -8.575  11.524  68.699  1.00  0.00    -0.109 C  
HETATM    8  C   UNL     1      -8.482   5.842  68.099  1.00  0.00    -0.109 A  
HETATM    9  C   UNL     1      -7.543  11.687  67.540  1.00  0.00    -0.128 C  
HETATM   10  N   UNL     1      -6.708  10.439  67.493  1.00  0.00    -0.070 NA 
HETATM   11  C   UNL     1      -7.217   6.076  67.523  1.00  0.00    -0.076 A  
HETATM   12  C   UNL     1      -6.593   7.305  67.698  1.00  0.00    -0.057 A  
HETATM   13  C   UNL     1      -7.427   9.639  68.222  1.00  0.00    -0.077 C  
HETATM   14  C   UNL     1      -7.253   8.214  68.482  1.00  0.00    -0.088 A  
ENDROOT
BRANCH   2  15
HETATM   15  C   UNL     1     -10.086   9.120  70.771  1.00  0.00    -0.333 A  
HETATM   16  C   UNL     1     -12.466   9.823  70.841  1.00  0.00    -0.366 A  
HETATM   17 CL   UNL     1     -14.237   8.874  72.622  1.00  0.00    -0.415 Cl 
HETATM   18  C   UNL     1     -12.663   9.000  71.942  1.00  0.00    -0.382 A  
HETATM   19  C   UNL     1     -11.596   8.267  72.475  1.00  0.00    -0.454 A  
HETATM   20  C   UNL     1     -10.307   8.322  71.898  1.00  0.00    -0.324 A  
HETATM   21  C   UNL     1     -11.190   9.874  70.275  1.00  0.00    -0.364 A  
ENDBRANCH   2  15
TORSDOF 1
ENDMDL
MODEL      104
REMARK 921   NORMALIZED FREE ENERGY PREDICTED BY IDOCK:   -3.90 KCAL/MOL
REMARK 922        TOTAL FREE ENERGY PREDICTED BY IDOCK:   -4.63 KCAL/MOL
REMARK 923 INTER-LIGAND FREE ENERGY PREDICTED BY IDOCK:   -4.08 KCAL/MOL
REMARK 924 INTRA-LIGAND FREE ENERGY PREDICTED BY IDOCK:   -0.55 KCAL/MOL
REMARK 927      BINDING AFFINITY PREDICTED BY RF-SCORE:    0.00 PKD
ROOT
HETATM    1  O   UNL     1      -7.436  16.421  69.547  1.00  0.00    -0.189 OA 
HETATM    2  C   UNL     1      -7.882  16.623  68.203  1.00  0.00    -0.175 C  
HETATM    3  H   UNL     1      -6.820  15.698  69.528  1.00  0.00     0.000 HD 
HETATM    4  C   UNL     1      -6.769  17.363  67.450  1.00  0.00    -0.179 A  
HETATM    5  N   UNL     1      -8.819  17.725  68.232  1.00  0.00    -0.271 NA 
HETATM    6  C   UNL     1      -6.156  17.119  66.230  1.00  0.00    -0.101 A  
HETATM    7  C   UNL     1     -10.077  17.929  68.879  1.00  0.00    -0.348 C  
HETATM    8  C   UNL     1      -5.346  18.122  65.679  1.00  0.00    -0.223 A  
HETATM    9  C   UNL     1     -10.053  19.480  69.048  1.00  0.00    -0.364 C  
HETATM   10  N   UNL     1      -8.625  19.931  68.939  1.00  0.00    -0.088 NA 
HETATM   11  C   UNL     1      -5.126  19.343  66.349  1.00  0.00    -0.165 A  
HETATM   12  C   UNL     1      -5.846  19.641  67.499  1.00  0.00    -0.194 A  
HETATM   13  C   UNL     1      -8.076  18.872  68.423  1.00  0.00    -0.341 C  
HETATM   14  C   UNL     1      -6.713  18.676  67.939  1.00  0.00    -0.222 A  
ENDROOT
BRANCH   2  15
HETATM   15  C   UNL     1      -8.164  15.223  67.706  1.00  0.00    -0.157 A  
HETATM   16  C   UNL     1      -7.696  12.818  68.110  1.00  0.00    -0.137 A  
HETATM   17 CL   UNL     1      -8.941  10.829  66.803  1.00  0.00    -0.151 Cl 
HETATM   18  C   UNL     1      -8.615  12.487  67.123  1.00  0.00    -0.200 A  
HETATM   19  C   UNL     1      -9.283  13.493  66.414  1.00  0.00    -0.136 A  
HETATM   20  C   UNL     1      -9.063  14.861  66.698  1.00  0.00    -0.309 A  
HETATM   21  C   UNL     1      -7.483  14.170  68.385  1.00  0.00    -0.124 A  
ENDBRANCH   2  15
TORSDOF 1
ENDMDL
MODEL      105
REMARK 921   NORMALIZED FREE ENERGY PREDICTED BY IDOCK:   -3.90 KCAL/MOL
REMARK 922        TOTAL FREE ENERGY PREDICTED BY IDOCK:   -4.63 KCAL/MOL
REMARK 923 INTER-LIGAND FREE ENERGY PREDICTED BY IDOCK:   -4.14 KCAL/MOL
REMARK 924 INTRA-LIGAND FREE ENERGY PREDICTED BY IDOCK:   -0.48 KCAL/MOL
REMARK 927      BINDING AFFINITY PREDICTED BY RF-SCORE:    0.00 PKD
ROOT
HETATM    1  O   UNL     1      -9.861   5.535  70.146  1.00  0.00    -0.172 OA 
HETATM    2  C   UNL     1      -9.610   6.921  69.899  1.00  0.00    -0.156 C  
HETATM    3  H   UNL     1     -10.777   5.381  69.947  1.00  0.00     0.000 HD 
HETATM    4  C   UNL     1      -9.492   7.109  68.382  1.00  0.00    -0.138 A  
HETATM    5  N   UNL     1      -8.215   7.156  70.201  1.00  0.00    -0.133 NA 
HETATM    6  C   UNL     1     -10.086   8.012  67.512  1.00  0.00    -0.281 A  
HETATM    7  C   UNL     1      -7.432   7.033  71.391  1.00  0.00    -0.081 C  
HETATM    8  C   UNL     1      -9.582   8.108  66.206  1.00  0.00    -0.248 A  
HETATM    9  C   UNL     1      -6.033   6.723  70.772  1.00  0.00    -0.028 C  
HETATM   10  N   UNL     1      -6.253   6.226  69.372  1.00  0.00    -0.032 NA 
HETATM   11  C   UNL     1      -8.520   7.294  65.764  1.00  0.00    -0.148 A  
HETATM   12  C   UNL     1      -7.837   6.492  66.671  1.00  0.00    -0.104 A  
HETATM   13  C   UNL     1      -7.486   6.584  69.178  1.00  0.00    -0.095 C  
HETATM   14  C   UNL     1      -8.292   6.517  67.963  1.00  0.00    -0.116 A  
ENDROOT
BRANCH   2  15
HETATM   15  C   UNL     1     -10.792   7.617  70.537  1.00  0.00    -0.249 A  
HETATM   16  C   UNL     1     -12.988   7.244  71.633  1.00  0.00    -0.417 A  
HETATM   17 CL   UNL     1     -14.407   9.200  72.806  1.00  0.00    -0.167 Cl 
HETATM   18  C   UNL     1     -13.062   8.602  71.916  1.00  0.00    -0.373 A  
HETATM   19  C   UNL     1     -12.043   9.466  71.500  1.00  0.00    -0.456 A  
HETATM   20  C   UNL     1     -10.907   8.983  70.811  1.00  0.00    -0.310 A  
HETATM   21  C   UNL     1     -11.864   6.773  70.952  1.00  0.00    -0.438 A  
ENDBRANCH   2  15
TORSDOF 1
ENDMDL
MODEL      106
REMARK 921   NORMALIZED FREE ENERGY PREDICTED BY IDOCK:   -3.89 KCAL/MOL
REMARK 922        TOTAL FREE ENERGY PREDICTED BY IDOCK:   -4.62 KCAL/MOL
REMARK 923 INTER-LIGAND FREE ENERGY PREDICTED BY IDOCK:   -4.09 KCAL/MOL
REMARK 924 INTRA-LIGAND FREE ENERGY PREDICTED BY IDOCK:   -0.53 KCAL/MOL
REMARK 927      BINDING AFFINITY PREDICTED BY RF-SCORE:    0.00 PKD
ROOT
HETATM    1  O   UNL     1      -8.778   9.610  70.646  1.00  0.00    -0.250 OA 
HETATM    2  C   UNL     1      -9.707   9.134  69.669  1.00  0.00    -0.176 C  
HETATM    3  H   UNL     1      -7.988   9.092  70.551  1.00  0.00     0.000 HD 
HETATM    4  C   UNL     1      -9.287   9.706  68.310  1.00  0.00    -0.138 A  
HETATM    5  N   UNL     1     -10.910   9.924  69.813  1.00  0.00    -0.252 NA 
HETATM    6  C   UNL     1      -9.096   9.108  67.072  1.00  0.00    -0.147 A  
HETATM    7  C   UNL     1     -11.841  10.112  70.880  1.00  0.00    -0.374 C  
HETATM    8  C   UNL     1      -8.963   9.934  65.947  1.00  0.00    -0.183 A  
HETATM    9  C   UNL     1     -12.334  11.560  70.567  1.00  0.00    -0.342 C  
HETATM   10  N   UNL     1     -11.310  12.210  69.684  1.00  0.00    -0.201 NA 
HETATM   11  C   UNL     1      -8.989  11.340  66.057  1.00  0.00    -0.209 A  
HETATM   12  C   UNL     1      -9.316  11.934  67.270  1.00  0.00    -0.177 A  
HETATM   13  C   UNL     1     -10.627  11.173  69.300  1.00  0.00    -0.175 C  
HETATM   14  C   UNL     1      -9.552  11.083  68.317  1.00  0.00    -0.172 A  
ENDROOT
BRANCH   2  15
HETATM   15  C   UNL     1      -9.607   7.629  69.785  1.00  0.00    -0.163 A  
HETATM   16  C   UNL     1     -10.893   5.513  69.599  1.00  0.00    -0.279 A  
HETATM   17 CL   UNL     1      -9.761   3.080  69.706  1.00  0.00    -0.093 Cl 
HETATM   18  C   UNL     1      -9.715   4.798  69.773  1.00  0.00    -0.202 A  
HETATM   19  C   UNL     1      -8.504   5.471  69.977  1.00  0.00    -0.120 A  
HETATM   20  C   UNL     1      -8.442   6.883  69.985  1.00  0.00    -0.140 A  
HETATM   21  C   UNL     1     -10.825   6.908  69.609  1.00  0.00    -0.294 A  
ENDBRANCH   2  15
TORSDOF 1
ENDMDL
MODEL      107
REMARK 921   NORMALIZED FREE ENERGY PREDICTED BY IDOCK:   -3.86 KCAL/MOL
REMARK 922        TOTAL FREE ENERGY PREDICTED BY IDOCK:   -4.58 KCAL/MOL
REMARK 923 INTER-LIGAND FREE ENERGY PREDICTED BY IDOCK:   -4.05 KCAL/MOL
REMARK 924 INTRA-LIGAND FREE ENERGY PREDICTED BY IDOCK:   -0.53 KCAL/MOL
REMARK 927      BINDING AFFINITY PREDICTED BY RF-SCORE:    0.00 PKD
ROOT
HETATM    1  O   UNL     1      -8.398  11.160  68.616  1.00  0.00    -0.146 OA 
HETATM    2  C   UNL     1      -9.420  10.416  67.949  1.00  0.00    -0.138 C  
HETATM    3  H   UNL     1      -7.574  10.926  68.205  1.00  0.00     0.000 HD 
HETATM    4  C   UNL     1      -9.696  11.103  66.607  1.00  0.00    -0.224 A  
HETATM    5  N   UNL     1     -10.675  10.772  68.575  1.00  0.00    -0.195 NA 
HETATM    6  C   UNL     1      -9.781  10.609  65.313  1.00  0.00    -0.315 A  
HETATM    7  C   UNL     1     -11.184  10.640  69.904  1.00  0.00    -0.308 C  
HETATM    8  C   UNL     1     -10.306  11.442  64.315  1.00  0.00    -0.383 A  
HETATM    9  C   UNL     1     -12.167  11.851  69.947  1.00  0.00    -0.199 C  
HETATM   10  N   UNL     1     -11.763  12.806  68.861  1.00  0.00    -0.310 NA 
HETATM   11  C   UNL     1     -10.714  12.763  64.595  1.00  0.00    -0.361 A  
HETATM   12  C   UNL     1     -10.758  13.209  65.911  1.00  0.00    -0.287 A  
HETATM   13  C   UNL     1     -10.980  12.049  68.152  1.00  0.00    -0.230 C  
HETATM   14  C   UNL     1     -10.344  12.320  66.867  1.00  0.00    -0.236 A  
ENDROOT
BRANCH   2  15
HETATM   15  C   UNL     1      -8.838   9.024  67.844  1.00  0.00    -0.129 A  
HETATM   16  C   UNL     1      -6.742   7.705  68.036  1.00  0.00    -0.063 A  
HETATM   17 CL   UNL     1      -6.671   5.022  67.951  1.00  0.00    -0.050 Cl 
HETATM   18  C   UNL     1      -7.478   6.538  67.874  1.00  0.00    -0.094 A  
HETATM   19  C   UNL     1      -8.862   6.598  67.673  1.00  0.00    -0.116 A  
HETATM   20  C   UNL     1      -9.548   7.834  67.656  1.00  0.00    -0.177 A  
HETATM   21  C   UNL     1      -7.426   8.923  68.017  1.00  0.00    -0.092 A  
ENDBRANCH   2  15
TORSDOF 1
ENDMDL
MODEL      108
REMARK 921   NORMALIZED FREE ENERGY PREDICTED BY IDOCK:   -3.86 KCAL/MOL
REMARK 922        TOTAL FREE ENERGY PREDICTED BY IDOCK:   -4.58 KCAL/MOL
REMARK 923 INTER-LIGAND FREE ENERGY PREDICTED BY IDOCK:   -4.31 KCAL/MOL
REMARK 924 INTRA-LIGAND FREE ENERGY PREDICTED BY IDOCK:   -0.27 KCAL/MOL
REMARK 927      BINDING AFFINITY PREDICTED BY RF-SCORE:    0.00 PKD
ROOT
HETATM    1  O   UNL     1      -6.575  15.038  66.808  1.00  0.00    -0.139 OA 
HETATM    2  C   UNL     1      -7.603  15.208  67.787  1.00  0.00    -0.155 C  
HETATM    3  H   UNL     1      -6.910  15.391  65.992  1.00  0.00     0.000 HD 
HETATM    4  C   UNL     1      -7.596  16.680  68.219  1.00  0.00    -0.181 A  
HETATM    5  N   UNL     1      -7.094  14.671  69.029  1.00  0.00    -0.120 NA 
HETATM    6  C   UNL     1      -8.613  17.617  68.333  1.00  0.00    -0.284 A  
HETATM    7  C   UNL     1      -6.663  13.370  69.435  1.00  0.00    -0.037 C  
HETATM    8  C   UNL     1      -8.340  18.816  69.007  1.00  0.00    -0.146 A  
HETATM    9  C   UNL     1      -5.624  13.752  70.535  1.00  0.00    -0.150 C  
HETATM   10  N   UNL     1      -5.219  15.180  70.306  1.00  0.00    -0.112 NA 
HETATM   11  C   UNL     1      -7.061  19.092  69.533  1.00  0.00    -0.172 A  
HETATM   12  C   UNL     1      -6.086  18.102  69.540  1.00  0.00    -0.248 A  
HETATM   13  C   UNL     1      -6.156  15.570  69.494  1.00  0.00    -0.138 C  
HETATM   14  C   UNL     1      -6.435  16.904  68.974  1.00  0.00    -0.202 A  
ENDROOT
BRANCH   2  15
HETATM   15  C   UNL     1      -8.858  14.762  67.069  1.00  0.00    -0.258 A  
HETATM   16  C   UNL     1     -10.304  15.198  65.097  1.00  0.00    -0.416 A  
HETATM   17 CL   UNL     1     -12.351  13.612  64.386  1.00  0.00    -0.410 Cl 
HETATM   18  C   UNL     1     -11.054  14.073  65.416  1.00  0.00    -0.318 A  
HETATM   19  C   UNL     1     -10.742  13.315  66.551  1.00  0.00    -0.290 A  
HETATM   20  C   UNL     1      -9.648  13.652  67.381  1.00  0.00    -0.226 A  
HETATM   21  C   UNL     1      -9.225  15.526  65.922  1.00  0.00    -0.305 A  
ENDBRANCH   2  15
TORSDOF 1
ENDMDL
MODEL      109
REMARK 921   NORMALIZED FREE ENERGY PREDICTED BY IDOCK:   -3.86 KCAL/MOL
REMARK 922        TOTAL FREE ENERGY PREDICTED BY IDOCK:   -4.58 KCAL/MOL
REMARK 923 INTER-LIGAND FREE ENERGY PREDICTED BY IDOCK:   -4.58 KCAL/MOL
REMARK 924 INTRA-LIGAND FREE ENERGY PREDICTED BY IDOCK:   -0.00 KCAL/MOL
REMARK 927      BINDING AFFINITY PREDICTED BY RF-SCORE:    0.00 PKD
ROOT
HETATM    1  O   UNL     1     -11.263   9.091  69.117  1.00  0.00    -0.441 OA 
HETATM    2  C   UNL     1     -10.190   9.952  68.726  1.00  0.00    -0.189 C  
HETATM    3  H   UNL     1     -12.065   9.491  68.804  1.00  0.00     0.000 HD 
HETATM    4  C   UNL     1      -9.928   9.721  67.233  1.00  0.00    -0.242 A  
HETATM    5  N   UNL     1      -8.967   9.343  69.202  1.00  0.00    -0.142 NA 
HETATM    6  C   UNL     1      -9.794  10.601  66.169  1.00  0.00    -0.268 A  
HETATM    7  C   UNL     1      -8.475   9.009  70.502  1.00  0.00    -0.200 C  
HETATM    8  C   UNL     1      -9.297  10.107  64.954  1.00  0.00    -0.310 A  
HETATM    9  C   UNL     1      -7.560   7.796  70.150  1.00  0.00    -0.085 C  
HETATM   10  N   UNL     1      -7.994   7.268  68.813  1.00  0.00    -0.121 NA 
HETATM   11  C   UNL     1      -8.966   8.747  64.792  1.00  0.00    -0.016 A  
HETATM   12  C   UNL     1      -8.968   7.897  65.892  1.00  0.00    -0.166 A  
HETATM   13  C   UNL     1      -8.723   8.256  68.388  1.00  0.00    -0.133 C  
HETATM   14  C   UNL     1      -9.351   8.451  67.085  1.00  0.00    -0.192 A  
ENDROOT
BRANCH   2  15
HETATM   15  C   UNL     1     -10.695  11.334  69.077  1.00  0.00    -0.257 A  
HETATM   16  C   UNL     1     -10.369  13.758  68.650  1.00  0.00    -0.225 A  
HETATM   17 CL   UNL     1     -12.034  15.657  69.562  1.00  0.00    -0.384 Cl 
HETATM   18  C   UNL     1     -11.501  14.030  69.407  1.00  0.00    -0.290 A  
HETATM   19  C   UNL     1     -12.211  12.988  70.015  1.00  0.00    -0.306 A  
HETATM   20  C   UNL     1     -11.815  11.640  69.857  1.00  0.00    -0.434 A  
HETATM   21  C   UNL     1      -9.983  12.425  68.498  1.00  0.00    -0.175 A  
ENDBRANCH   2  15
TORSDOF 1
ENDMDL
MODEL      110
REMARK 921   NORMALIZED FREE ENERGY PREDICTED BY IDOCK:   -3.85 KCAL/MOL
REMARK 922        TOTAL FREE ENERGY PREDICTED BY IDOCK:   -4.57 KCAL/MOL
REMARK 923 INTER-LIGAND FREE ENERGY PREDICTED BY IDOCK:   -4.15 KCAL/MOL
REMARK 924 INTRA-LIGAND FREE ENERGY PREDICTED BY IDOCK:   -0.42 KCAL/MOL
REMARK 927      BINDING AFFINITY PREDICTED BY RF-SCORE:    0.00 PKD
ROOT
HETATM    1  O   UNL     1      -9.208   7.933  64.912  1.00  0.00    -0.129 OA 
HETATM    2  C   UNL     1      -8.825   9.187  65.483  1.00  0.00    -0.191 C  
HETATM    3  H   UNL     1      -9.907   7.585  65.453  1.00  0.00     0.000 HD 
HETATM    4  C   UNL     1      -9.883  10.222  65.085  1.00  0.00    -0.389 A  
HETATM    5  N   UNL     1      -7.761   9.716  64.659  1.00  0.00    -0.123 NA 
HETATM    6  C   UNL     1     -10.596  11.151  65.829  1.00  0.00    -0.289 A  
HETATM    7  C   UNL     1      -6.450   9.253  64.328  1.00  0.00    -0.086 C  
HETATM    8  C   UNL     1     -11.310  12.146  65.146  1.00  0.00    -0.379 A  
HETATM    9  C   UNL     1      -6.274   9.901  62.919  1.00  0.00    -0.119 C  
HETATM   10  N   UNL     1      -7.641  10.239  62.398  1.00  0.00    -0.131 NA 
HETATM   11  C   UNL     1     -11.339  12.196  63.737  1.00  0.00    -0.529 A  
HETATM   12  C   UNL     1     -10.518  11.354  62.997  1.00  0.00    -0.224 A  
HETATM   13  C   UNL     1      -8.345  10.146  63.486  1.00  0.00    -0.169 C  
HETATM   14  C   UNL     1      -9.749  10.475  63.712  1.00  0.00    -0.385 A  
ENDROOT
BRANCH   2  15
HETATM   15  C   UNL     1      -8.746   8.895  66.966  1.00  0.00    -0.130 A  
HETATM   16  C   UNL     1      -9.953   7.862  68.874  1.00  0.00    -0.194 A  
HETATM   17 CL   UNL     1      -8.859   7.516  71.302  1.00  0.00    -0.133 Cl 
HETATM   18  C   UNL     1      -8.836   8.068  69.674  1.00  0.00    -0.141 A  
HETATM   19  C   UNL     1      -7.700   8.699  69.152  1.00  0.00    -0.097 A  
HETATM   20  C   UNL     1      -7.647   9.115  67.802  1.00  0.00    -0.085 A  
HETATM   21  C   UNL     1      -9.894   8.276  67.542  1.00  0.00    -0.231 A  
ENDBRANCH   2  15
TORSDOF 1
ENDMDL
MODEL      111
REMARK 921   NORMALIZED FREE ENERGY PREDICTED BY IDOCK:   -3.84 KCAL/MOL
REMARK 922        TOTAL FREE ENERGY PREDICTED BY IDOCK:   -4.57 KCAL/MOL
REMARK 923 INTER-LIGAND FREE ENERGY PREDICTED BY IDOCK:   -4.05 KCAL/MOL
REMARK 924 INTRA-LIGAND FREE ENERGY PREDICTED BY IDOCK:   -0.52 KCAL/MOL
REMARK 927      BINDING AFFINITY PREDICTED BY RF-SCORE:    0.00 PKD
ROOT
HETATM    1  O   UNL     1      -7.255  12.731  66.612  1.00  0.00    -0.262 OA 
HETATM    2  C   UNL     1      -8.377  12.631  67.493  1.00  0.00    -0.177 C  
HETATM    3  H   UNL     1      -7.253  11.946  66.078  1.00  0.00     0.000 HD 
HETATM    4  C   UNL     1      -9.636  12.968  66.685  1.00  0.00    -0.259 A  
HETATM    5  N   UNL     1      -8.381  13.828  68.306  1.00  0.00    -0.156 NA 
HETATM    6  C   UNL     1     -10.854  12.317  66.553  1.00  0.00    -0.297 A  
HETATM    7  C   UNL     1      -7.456  14.383  69.244  1.00  0.00    -0.060 C  
HETATM    8  C   UNL     1     -11.914  13.004  65.944  1.00  0.00    -0.491 A  
HETATM    9  C   UNL     1      -7.781  15.901  69.088  1.00  0.00    -0.220 C  
HETATM   10  N   UNL     1      -8.477  16.087  67.771  1.00  0.00    -0.160 NA 
HETATM   11  C   UNL     1     -11.753  14.313  65.443  1.00  0.00    -0.354 A  
HETATM   12  C   UNL     1     -10.579  15.012  65.696  1.00  0.00    -0.360 A  
HETATM   13  C   UNL     1      -8.797  14.859  67.490  1.00  0.00    -0.188 C  
HETATM   14  C   UNL     1      -9.613  14.340  66.397  1.00  0.00    -0.317 A  
ENDROOT
BRANCH   2  15
HETATM   15  C   UNL     1      -8.308  11.207  68.000  1.00  0.00    -0.134 A  
HETATM   16  C   UNL     1      -7.788   8.869  67.346  1.00  0.00    -0.097 A  
HETATM   17 CL   UNL     1      -7.648   6.840  69.100  1.00  0.00    -0.098 Cl 
HETATM   18  C   UNL     1      -7.933   8.481  68.672  1.00  0.00    -0.116 A  
HETATM   19  C   UNL     1      -8.285   9.420  69.648  1.00  0.00    -0.136 A  
HETATM   20  C   UNL     1      -8.474  10.783  69.321  1.00  0.00    -0.058 A  
HETATM   21  C   UNL     1      -7.977  10.216  67.030  1.00  0.00    -0.110 A  
ENDBRANCH   2  15
TORSDOF 1
ENDMDL
MODEL      112
REMARK 921   NORMALIZED FREE ENERGY PREDICTED BY IDOCK:   -3.81 KCAL/MOL
REMARK 922        TOTAL FREE ENERGY PREDICTED BY IDOCK:   -4.53 KCAL/MOL
REMARK 923 INTER-LIGAND FREE ENERGY PREDICTED BY IDOCK:   -3.98 KCAL/MOL
REMARK 924 INTRA-LIGAND FREE ENERGY PREDICTED BY IDOCK:   -0.55 KCAL/MOL
REMARK 927      BINDING AFFINITY PREDICTED BY RF-SCORE:    0.00 PKD
ROOT
HETATM    1  O   UNL     1     -11.654   6.830  67.712  1.00  0.00    -0.597 OA 
HETATM    2  C   UNL     1     -10.237   7.020  67.765  1.00  0.00    -0.180 C  
HETATM    3  H   UNL     1     -11.803   5.898  67.603  1.00  0.00     0.000 HD 
HETATM    4  C   UNL     1      -9.764   6.604  69.162  1.00  0.00    -0.148 A  
HETATM    5  N   UNL     1     -10.009   8.439  67.931  1.00  0.00    -0.174 NA 
HETATM    6  C   UNL     1      -8.737   5.770  69.583  1.00  0.00    -0.122 A  
HETATM    7  C   UNL     1     -10.323   9.585  67.137  1.00  0.00    -0.253 C  
HETATM    8  C   UNL     1      -8.379   5.787  70.938  1.00  0.00    -0.125 A  
HETATM    9  C   UNL     1     -10.457  10.668  68.252  1.00  0.00    -0.187 C  
HETATM   10  N   UNL     1     -10.691   9.957  69.554  1.00  0.00    -0.228 NA 
HETATM   11  C   UNL     1      -9.054   6.602  71.870  1.00  0.00    -0.143 A  
HETATM   12  C   UNL     1      -9.984   7.534  71.428  1.00  0.00    -0.200 A  
HETATM   13  C   UNL     1     -10.350   8.744  69.232  1.00  0.00    -0.214 C  
HETATM   14  C   UNL     1     -10.220   7.563  70.078  1.00  0.00    -0.215 A  
ENDROOT
BRANCH   2  15
HETATM   15  C   UNL     1      -9.719   6.158  66.634  1.00  0.00    -0.196 A  
HETATM   16  C   UNL     1     -10.132   4.075  65.347  1.00  0.00    -0.157 A  
HETATM   17 CL   UNL     1      -8.754   3.401  63.143  1.00  0.00    -0.092 Cl 
HETATM   18  C   UNL     1      -9.098   4.419  64.485  1.00  0.00    -0.152 A  
HETATM   19  C   UNL     1      -8.363   5.591  64.697  1.00  0.00    -0.131 A  
HETATM   20  C   UNL     1      -8.666   6.464  65.767  1.00  0.00    -0.135 A  
HETATM   21  C   UNL     1     -10.426   4.941  66.403  1.00  0.00    -0.325 A  
ENDBRANCH   2  15
TORSDOF 1
ENDMDL
MODEL      113
REMARK 921   NORMALIZED FREE ENERGY PREDICTED BY IDOCK:   -3.78 KCAL/MOL
REMARK 922        TOTAL FREE ENERGY PREDICTED BY IDOCK:   -4.50 KCAL/MOL
REMARK 923 INTER-LIGAND FREE ENERGY PREDICTED BY IDOCK:   -3.94 KCAL/MOL
REMARK 924 INTRA-LIGAND FREE ENERGY PREDICTED BY IDOCK:   -0.55 KCAL/MOL
REMARK 927      BINDING AFFINITY PREDICTED BY RF-SCORE:    0.00 PKD
ROOT
HETATM    1  O   UNL     1      -8.969   6.421  73.824  1.00  0.00    -0.123 OA 
HETATM    2  C   UNL     1      -8.831   6.575  72.409  1.00  0.00    -0.133 C  
HETATM    3  H   UNL     1      -9.898   6.337  74.003  1.00  0.00     0.000 HD 
HETATM    4  C   UNL     1      -9.006   5.192  71.771  1.00  0.00    -0.148 A  
HETATM    5  N   UNL     1      -7.416   6.703  72.136  1.00  0.00    -0.093 NA 
HETATM    6  C   UNL     1      -9.791   4.751  70.715  1.00  0.00    -0.280 A  
HETATM    7  C   UNL     1      -6.421   7.651  72.526  1.00  0.00    -0.060 C  
HETATM    8  C   UNL     1      -9.544   3.475  70.189  1.00  0.00    -0.225 A  
HETATM    9  C   UNL     1      -5.149   6.747  72.498  1.00  0.00    -0.032 C  
HETATM   10  N   UNL     1      -5.602   5.318  72.580  1.00  0.00    -0.017 NA 
HETATM   11  C   UNL     1      -8.547   2.636  70.727  1.00  0.00    -0.106 A  
HETATM   12  C   UNL     1      -7.672   3.128  71.688  1.00  0.00    -0.052 A  
HETATM   13  C   UNL     1      -6.866   5.449  72.305  1.00  0.00    -0.078 C  
HETATM   14  C   UNL     1      -7.879   4.421  72.091  1.00  0.00    -0.090 A  
ENDROOT
BRANCH   2  15
HETATM   15  C   UNL     1      -9.904   7.581  72.053  1.00  0.00    -0.200 A  
HETATM   16  C   UNL     1     -12.151   8.426  72.686  1.00  0.00    -0.324 A  
HETATM   17 CL   UNL     1     -13.274  10.604  71.587  1.00  0.00    -0.511 Cl 
HETATM   18  C   UNL     1     -12.021   9.437  71.741  1.00  0.00    -0.382 A  
HETATM   19  C   UNL     1     -10.874   9.514  70.943  1.00  0.00    -0.407 A  
HETATM   20  C   UNL     1      -9.813   8.592  71.091  1.00  0.00    -0.263 A  
HETATM   21  C   UNL     1     -11.100   7.518  72.826  1.00  0.00    -0.416 A  
ENDBRANCH   2  15
TORSDOF 1
ENDMDL
MODEL      114
REMARK 921   NORMALIZED FREE ENERGY PREDICTED BY IDOCK:   -3.77 KCAL/MOL
REMARK 922        TOTAL FREE ENERGY PREDICTED BY IDOCK:   -4.49 KCAL/MOL
REMARK 923 INTER-LIGAND FREE ENERGY PREDICTED BY IDOCK:   -3.95 KCAL/MOL
REMARK 924 INTRA-LIGAND FREE ENERGY PREDICTED BY IDOCK:   -0.54 KCAL/MOL
REMARK 927      BINDING AFFINITY PREDICTED BY RF-SCORE:    0.00 PKD
ROOT
HETATM    1  O   UNL     1      -7.634   8.541  68.349  1.00  0.00    -0.093 OA 
HETATM    2  C   UNL     1      -9.035   8.573  68.631  1.00  0.00    -0.139 C  
HETATM    3  H   UNL     1      -7.265   9.346  68.693  1.00  0.00     0.000 HD 
HETATM    4  C   UNL     1      -9.220   8.229  70.113  1.00  0.00    -0.155 A  
HETATM    5  N   UNL     1      -9.598   7.348  68.107  1.00  0.00    -0.141 NA 
HETATM    6  C   UNL     1      -9.942   8.845  71.125  1.00  0.00    -0.342 A  
HETATM    7  C   UNL     1      -9.684   6.787  66.796  1.00  0.00    -0.171 C  
HETATM    8  C   UNL     1     -10.132   8.149  72.328  1.00  0.00    -0.338 A  
HETATM    9  C   UNL     1      -9.702   5.266  67.145  1.00  0.00    -0.151 C  
HETATM   10  N   UNL     1      -9.143   5.108  68.530  1.00  0.00    -0.109 NA 
HETATM   11  C   UNL     1      -9.583   6.866  72.531  1.00  0.00    -0.165 A  
HETATM   12  C   UNL     1      -8.981   6.195  71.474  1.00  0.00    -0.143 A  
HETATM   13  C   UNL     1      -9.197   6.335  68.954  1.00  0.00    -0.123 C  
HETATM   14  C   UNL     1      -8.920   6.869  70.283  1.00  0.00    -0.152 A  
ENDROOT
BRANCH   2  15
HETATM   15  C   UNL     1      -9.444   9.979  68.248  1.00  0.00    -0.147 A  
HETATM   16  C   UNL     1     -11.370  11.396  67.577  1.00  0.00    -0.362 A  
HETATM   17 CL   UNL     1     -11.229  14.067  67.344  1.00  0.00    -0.314 Cl 
HETATM   18  C   UNL     1     -10.552  12.516  67.648  1.00  0.00    -0.217 A  
HETATM   19  C   UNL     1      -9.200  12.384  67.984  1.00  0.00    -0.203 A  
HETATM   20  C   UNL     1      -8.639  11.121  68.284  1.00  0.00    -0.146 A  
HETATM   21  C   UNL     1     -10.809  10.152  67.874  1.00  0.00    -0.336 A  
ENDBRANCH   2  15
TORSDOF 1
ENDMDL
MODEL      115
REMARK 921   NORMALIZED FREE ENERGY PREDICTED BY IDOCK:   -3.74 KCAL/MOL
REMARK 922        TOTAL FREE ENERGY PREDICTED BY IDOCK:   -4.45 KCAL/MOL
REMARK 923 INTER-LIGAND FREE ENERGY PREDICTED BY IDOCK:   -3.98 KCAL/MOL
REMARK 924 INTRA-LIGAND FREE ENERGY PREDICTED BY IDOCK:   -0.47 KCAL/MOL
REMARK 927      BINDING AFFINITY PREDICTED BY RF-SCORE:    0.00 PKD
ROOT
HETATM    1  O   UNL     1      -8.277  11.169  69.299  1.00  0.00    -0.354 OA 
HETATM    2  C   UNL     1      -9.077   9.996  69.470  1.00  0.00    -0.220 C  
HETATM    3  H   UNL     1      -7.373  10.908  69.431  1.00  0.00     0.000 HD 
HETATM    4  C   UNL     1      -8.951   9.156  68.193  1.00  0.00    -0.129 A  
HETATM    5  N   UNL     1     -10.453  10.393  69.268  1.00  0.00    -0.220 NA 
HETATM    6  C   UNL     1      -8.670   7.812  67.992  1.00  0.00    -0.125 A  
HETATM    7  C   UNL     1     -11.321  11.310  69.938  1.00  0.00    -0.249 C  
HETATM    8  C   UNL     1      -8.879   7.271  66.715  1.00  0.00    -0.143 A  
HETATM    9  C   UNL     1     -12.260  11.715  68.759  1.00  0.00     0.015 C  
HETATM   10  N   UNL     1     -11.553  11.385  67.477  1.00  0.00    -0.558 NA 
HETATM   11  C   UNL     1      -9.333   8.067  65.643  1.00  0.00     0.086 A  
HETATM   12  C   UNL     1      -9.744   9.373  65.876  1.00  0.00    -0.355 A  
HETATM   13  C   UNL     1     -10.609  10.605  67.914  1.00  0.00    -0.228 C  
HETATM   14  C   UNL     1      -9.630   9.824  67.165  1.00  0.00    -0.211 A  
ENDROOT
BRANCH   2  15
HETATM   15  C   UNL     1      -8.506   9.352  70.714  1.00  0.00    -0.188 A  
HETATM   16  C   UNL     1      -9.101   8.163  72.811  1.00  0.00    -0.328 A  
HETATM   17 CL   UNL     1      -7.285   7.040  74.440  1.00  0.00    -0.103 Cl 
HETATM   18  C   UNL     1      -7.751   7.946  73.055  1.00  0.00    -0.127 A  
HETATM   19  C   UNL     1      -6.785   8.439  72.169  1.00  0.00    -0.090 A  
HETATM   20  C   UNL     1      -7.153   9.143  71.000  1.00  0.00    -0.106 A  
HETATM   21  C   UNL     1      -9.458   8.859  71.654  1.00  0.00    -0.351 A  
ENDBRANCH   2  15
TORSDOF 1
ENDMDL
MODEL      116
REMARK 921   NORMALIZED FREE ENERGY PREDICTED BY IDOCK:   -3.73 KCAL/MOL
REMARK 922        TOTAL FREE ENERGY PREDICTED BY IDOCK:   -4.45 KCAL/MOL
REMARK 923 INTER-LIGAND FREE ENERGY PREDICTED BY IDOCK:   -4.92 KCAL/MOL
REMARK 924 INTRA-LIGAND FREE ENERGY PREDICTED BY IDOCK:    0.47 KCAL/MOL
REMARK 927      BINDING AFFINITY PREDICTED BY RF-SCORE:    0.00 PKD
ROOT
HETATM    1  O   UNL     1      -8.503  10.485  69.130  1.00  0.00    -0.146 OA 
HETATM    2  C   UNL     1      -9.910  10.261  69.012  1.00  0.00    -0.207 C  
HETATM    3  H   UNL     1      -8.388  11.188  69.758  1.00  0.00     0.000 HD 
HETATM    4  C   UNL     1     -10.361   9.468  70.244  1.00  0.00    -0.321 A  
HETATM    5  N   UNL     1     -10.087   9.190  68.056  1.00  0.00    -0.185 NA 
HETATM    6  C   UNL     1     -11.402   9.660  71.140  1.00  0.00    -0.456 A  
HETATM    7  C   UNL     1      -9.757   9.041  66.673  1.00  0.00    -0.230 C  
HETATM    8  C   UNL     1     -11.724   8.618  72.021  1.00  0.00    -0.439 A  
HETATM    9  C   UNL     1      -9.557   7.495  66.599  1.00  0.00    -0.200 C  
HETATM   10  N   UNL     1      -9.312   6.999  67.995  1.00  0.00    -0.128 NA 
HETATM   11  C   UNL     1     -10.998   7.410  72.031  1.00  0.00    -0.273 A  
HETATM   12  C   UNL     1     -10.049   7.164  71.046  1.00  0.00    -0.199 A  
HETATM   13  C   UNL     1      -9.701   8.026  68.689  1.00  0.00    -0.159 C  
HETATM   14  C   UNL     1      -9.848   8.167  70.134  1.00  0.00    -0.184 A  
ENDROOT
BRANCH   2  15
HETATM   15  C   UNL     1     -10.487  11.656  68.907  1.00  0.00    -0.201 A  
HETATM   16  C   UNL     1     -12.117  13.234  69.916  1.00  0.00    -0.377 A  
HETATM   17 CL   UNL     1     -12.306  15.818  69.208  1.00  0.00    -0.138 Cl 
HETATM   18  C   UNL     1     -11.649  14.234  69.073  1.00  0.00    -0.305 A  
HETATM   19  C   UNL     1     -10.640  13.959  68.142  1.00  0.00    -0.258 A  
HETATM   20  C   UNL     1     -10.056  12.675  68.052  1.00  0.00    -0.229 A  
HETATM   21  C   UNL     1     -11.536  11.968  69.821  1.00  0.00    -0.284 A  
ENDBRANCH   2  15
TORSDOF 1
ENDMDL
MODEL      117
REMARK 921   NORMALIZED FREE ENERGY PREDICTED BY IDOCK:   -3.69 KCAL/MOL
REMARK 922        TOTAL FREE ENERGY PREDICTED BY IDOCK:   -4.41 KCAL/MOL
REMARK 923 INTER-LIGAND FREE ENERGY PREDICTED BY IDOCK:   -3.87 KCAL/MOL
REMARK 924 INTRA-LIGAND FREE ENERGY PREDICTED BY IDOCK:   -0.54 KCAL/MOL
REMARK 927      BINDING AFFINITY PREDICTED BY RF-SCORE:    0.00 PKD
ROOT
HETATM    1  O   UNL     1      -6.994  13.788  66.860  1.00  0.00    -0.331 OA 
HETATM    2  C   UNL     1      -7.698  13.985  68.089  1.00  0.00    -0.143 C  
HETATM    3  H   UNL     1      -6.458  14.561  66.722  1.00  0.00     0.000 HD 
HETATM    4  C   UNL     1      -6.715  13.721  69.236  1.00  0.00    -0.101 A  
HETATM    5  N   UNL     1      -8.513  12.808  68.300  1.00  0.00    -0.172 NA 
HETATM    6  C   UNL     1      -6.399  14.453  70.372  1.00  0.00    -0.144 A  
HETATM    7  C   UNL     1      -9.582  12.208  67.565  1.00  0.00    -0.179 C  
HETATM    8  C   UNL     1      -5.646  13.830  71.377  1.00  0.00    -0.226 A  
HETATM    9  C   UNL     1      -9.394  10.713  67.973  1.00  0.00    -0.147 C  
HETATM   10  N   UNL     1      -7.990  10.550  68.479  1.00  0.00    -0.111 NA 
HETATM   11  C   UNL     1      -5.187  12.504  71.240  1.00  0.00    -0.133 A  
HETATM   12  C   UNL     1      -5.617  11.729  70.170  1.00  0.00    -0.131 A  
HETATM   13  C   UNL     1      -7.654  11.792  68.664  1.00  0.00    -0.125 C  
HETATM   14  C   UNL     1      -6.447  12.345  69.271  1.00  0.00    -0.107 A  
ENDROOT
BRANCH   2  15
HETATM   15  C   UNL     1      -8.195  15.410  67.992  1.00  0.00    -0.146 A  
HETATM   16  C   UNL     1      -9.907  17.000  68.833  1.00  0.00    -0.272 A  
HETATM   17 CL   UNL     1      -9.877  19.629  68.289  1.00  0.00    -0.490 Cl 
HETATM   18  C   UNL     1      -9.269  18.027  68.150  1.00  0.00    -0.279 A  
HETATM   19  C   UNL     1      -8.132  17.762  67.378  1.00  0.00    -0.217 A  
HETATM   20  C   UNL     1      -7.590  16.459  67.293  1.00  0.00    -0.198 A  
HETATM   21  C   UNL     1      -9.368  15.715  68.744  1.00  0.00    -0.213 A  
ENDBRANCH   2  15
TORSDOF 1
ENDMDL
MODEL      118
REMARK 921   NORMALIZED FREE ENERGY PREDICTED BY IDOCK:   -3.64 KCAL/MOL
REMARK 922        TOTAL FREE ENERGY PREDICTED BY IDOCK:   -4.35 KCAL/MOL
REMARK 923 INTER-LIGAND FREE ENERGY PREDICTED BY IDOCK:   -3.80 KCAL/MOL
REMARK 924 INTRA-LIGAND FREE ENERGY PREDICTED BY IDOCK:   -0.54 KCAL/MOL
REMARK 927      BINDING AFFINITY PREDICTED BY RF-SCORE:    0.00 PKD
ROOT
HETATM    1  O   UNL     1      -9.018   7.416  71.248  1.00  0.00    -0.138 OA 
HETATM    2  C   UNL     1      -9.817   7.042  70.123  1.00  0.00    -0.175 C  
HETATM    3  H   UNL     1      -8.115   7.233  71.018  1.00  0.00     0.000 HD 
HETATM    4  C   UNL     1      -9.680   8.146  69.067  1.00  0.00    -0.163 A  
HETATM    5  N   UNL     1     -11.193   7.322  70.472  1.00  0.00    -0.274 NA 
HETATM    6  C   UNL     1      -9.395   8.100  67.710  1.00  0.00    -0.149 A  
HETATM    7  C   UNL     1     -12.067   6.834  71.493  1.00  0.00    -0.363 C  
HETATM    8  C   UNL     1      -9.594   9.261  66.948  1.00  0.00    -0.229 A  
HETATM    9  C   UNL     1     -12.998   8.072  71.676  1.00  0.00    -0.328 C  
HETATM   10  N   UNL     1     -12.281   9.270  71.123  1.00  0.00    -0.304 NA 
HETATM   11  C   UNL     1     -10.042  10.461  67.536  1.00  0.00    -0.231 A  
HETATM   12  C   UNL     1     -10.457  10.470  68.862  1.00  0.00    -0.226 A  
HETATM   13  C   UNL     1     -11.340   8.693  70.438  1.00  0.00    -0.187 C  
HETATM   14  C   UNL     1     -10.354   9.283  69.538  1.00  0.00    -0.223 A  
ENDROOT
BRANCH   2  15
HETATM   15  C   UNL     1      -9.254   5.699  69.715  1.00  0.00    -0.165 A  
HETATM   16  C   UNL     1      -7.175   4.347  69.597  1.00  0.00    -0.050 A  
HETATM   17 CL   UNL     1      -7.139   1.743  68.939  1.00  0.00    -0.039 Cl 
HETATM   18  C   UNL     1      -7.927   3.250  69.197  1.00  0.00    -0.049 A  
HETATM   19  C   UNL     1      -9.312   3.367  69.029  1.00  0.00    -0.239 A  
HETATM   20  C   UNL     1      -9.982   4.585  69.284  1.00  0.00    -0.192 A  
HETATM   21  C   UNL     1      -7.843   5.548  69.847  1.00  0.00    -0.082 A  
ENDBRANCH   2  15
TORSDOF 1
ENDMDL
MODEL      119
REMARK 921   NORMALIZED FREE ENERGY PREDICTED BY IDOCK:   -3.62 KCAL/MOL
REMARK 922        TOTAL FREE ENERGY PREDICTED BY IDOCK:   -4.33 KCAL/MOL
REMARK 923 INTER-LIGAND FREE ENERGY PREDICTED BY IDOCK:   -4.09 KCAL/MOL
REMARK 924 INTRA-LIGAND FREE ENERGY PREDICTED BY IDOCK:   -0.24 KCAL/MOL
REMARK 927      BINDING AFFINITY PREDICTED BY RF-SCORE:    0.00 PKD
ROOT
HETATM    1  O   UNL     1     -10.588   7.930  67.222  1.00  0.00    -0.317 OA 
HETATM    2  C   UNL     1      -9.582   8.527  68.043  1.00  0.00    -0.149 C  
HETATM    3  H   UNL     1     -11.201   8.618  66.992  1.00  0.00     0.000 HD 
HETATM    4  C   UNL     1      -8.632   9.305  67.125  1.00  0.00    -0.130 A  
HETATM    5  N   UNL     1      -8.648   7.479  68.393  1.00  0.00    -0.125 NA 
HETATM    6  C   UNL     1      -8.141  10.602  67.184  1.00  0.00    -0.121 A  
HETATM    7  C   UNL     1      -8.772   6.250  69.113  1.00  0.00    -0.123 C  
HETATM    8  C   UNL     1      -7.079  10.951  66.338  1.00  0.00    -0.133 A  
HETATM    9  C   UNL     1      -7.645   5.414  68.431  1.00  0.00    -0.080 C  
HETATM   10  N   UNL     1      -7.338   6.052  67.107  1.00  0.00    -0.075 NA 
HETATM   11  C   UNL     1      -6.532  10.029  65.422  1.00  0.00    -0.106 A  
HETATM   12  C   UNL     1      -6.928   8.697  65.459  1.00  0.00    -0.078 A  
HETATM   13  C   UNL     1      -7.913   7.208  67.257  1.00  0.00    -0.111 C  
HETATM   14  C   UNL     1      -7.888   8.376  66.382  1.00  0.00    -0.098 A  
ENDROOT
BRANCH   2  15
HETATM   15  C   UNL     1     -10.371   9.380  69.012  1.00  0.00    -0.224 A  
HETATM   16  C   UNL     1     -11.951  11.288  69.178  1.00  0.00    -0.405 A  
HETATM   17 CL   UNL     1     -13.158  12.013  71.465  1.00  0.00    -0.447 Cl 
HETATM   18  C   UNL     1     -12.078  11.046  70.540  1.00  0.00    -0.377 A  
HETATM   19  C   UNL     1     -11.352  10.013  71.145  1.00  0.00    -0.397 A  
HETATM   20  C   UNL     1     -10.498   9.177  70.390  1.00  0.00    -0.268 A  
HETATM   21  C   UNL     1     -11.104  10.460  68.439  1.00  0.00    -0.322 A  
ENDBRANCH   2  15
TORSDOF 1
ENDMDL
MODEL      120
REMARK 921   NORMALIZED FREE ENERGY PREDICTED BY IDOCK:   -3.61 KCAL/MOL
REMARK 922        TOTAL FREE ENERGY PREDICTED BY IDOCK:   -4.32 KCAL/MOL
REMARK 923 INTER-LIGAND FREE ENERGY PREDICTED BY IDOCK:   -4.05 KCAL/MOL
REMARK 924 INTRA-LIGAND FREE ENERGY PREDICTED BY IDOCK:   -0.27 KCAL/MOL
REMARK 927      BINDING AFFINITY PREDICTED BY RF-SCORE:    0.00 PKD
ROOT
HETATM    1  O   UNL     1      -7.801  10.047  66.366  1.00  0.00    -0.109 OA 
HETATM    2  C   UNL     1      -9.067   9.487  66.008  1.00  0.00    -0.176 C  
HETATM    3  H   UNL     1      -7.723   9.972  67.310  1.00  0.00     0.000 HD 
HETATM    4  C   UNL     1      -8.929   7.960  66.049  1.00  0.00    -0.195 A  
HETATM    5  N   UNL     1      -9.186   9.601  64.571  1.00  0.00    -0.245 NA 
HETATM    6  C   UNL     1      -9.702   6.976  66.647  1.00  0.00    -0.226 A  
HETATM    7  C   UNL     1      -9.212  10.712  63.672  1.00  0.00    -0.259 C  
HETATM    8  C   UNL     1      -9.470   5.639  66.291  1.00  0.00    -0.171 A  
HETATM    9  C   UNL     1      -8.615  10.046  62.392  1.00  0.00    -0.193 C  
HETATM   10  N   UNL     1      -7.875   8.812  62.822  1.00  0.00    -0.131 NA 
HETATM   11  C   UNL     1      -8.460   5.285  65.374  1.00  0.00    -0.145 A  
HETATM   12  C   UNL     1      -7.781   6.275  64.675  1.00  0.00    -0.105 A  
HETATM   13  C   UNL     1      -8.335   8.661  64.028  1.00  0.00    -0.120 C  
HETATM   14  C   UNL     1      -8.122   7.569  64.971  1.00  0.00    -0.127 A  
ENDROOT
BRANCH   2  15
HETATM   15  C   UNL     1     -10.017  10.068  67.033  1.00  0.00    -0.257 A  
HETATM   16  C   UNL     1     -10.492  10.229  69.465  1.00  0.00    -0.268 A  
HETATM   17 CL   UNL     1     -12.386  11.828  70.499  1.00  0.00    -0.410 Cl 
HETATM   18  C   UNL     1     -11.513  11.131  69.192  1.00  0.00    -0.298 A  
HETATM   19  C   UNL     1     -11.809  11.482  67.869  1.00  0.00    -0.255 A  
HETATM   20  C   UNL     1     -11.068  10.956  66.786  1.00  0.00    -0.196 A  
HETATM   21  C   UNL     1      -9.765   9.712  68.390  1.00  0.00    -0.163 A  
ENDBRANCH   2  15
TORSDOF 1
ENDMDL
MODEL      121
REMARK 921   NORMALIZED FREE ENERGY PREDICTED BY IDOCK:   -3.48 KCAL/MOL
REMARK 922        TOTAL FREE ENERGY PREDICTED BY IDOCK:   -4.18 KCAL/MOL
REMARK 923 INTER-LIGAND FREE ENERGY PREDICTED BY IDOCK:   -3.65 KCAL/MOL
REMARK 924 INTRA-LIGAND FREE ENERGY PREDICTED BY IDOCK:   -0.53 KCAL/MOL
REMARK 927      BINDING AFFINITY PREDICTED BY RF-SCORE:    0.00 PKD
ROOT
HETATM    1  O   UNL     1      -7.744   8.709  68.438  1.00  0.00    -0.097 OA 
HETATM    2  C   UNL     1      -8.989   8.406  67.804  1.00  0.00    -0.136 C  
HETATM    3  H   UNL     1      -7.057   8.442  67.838  1.00  0.00     0.000 HD 
HETATM    4  C   UNL     1      -9.250   9.488  66.749  1.00  0.00    -0.184 A  
HETATM    5  N   UNL     1     -10.035   8.813  68.717  1.00  0.00    -0.180 NA 
HETATM    6  C   UNL     1      -9.608   9.409  65.411  1.00  0.00    -0.296 A  
HETATM    7  C   UNL     1     -10.396   8.412  70.041  1.00  0.00    -0.211 C  
HETATM    8  C   UNL     1     -10.032  10.580  64.765  1.00  0.00    -0.412 A  
HETATM    9  C   UNL     1     -11.044   9.732  70.563  1.00  0.00    -0.321 C  
HETATM   10  N   UNL     1     -10.556  10.856  69.695  1.00  0.00    -0.181 NA 
HETATM   11  C   UNL     1     -10.071  11.819  65.436  1.00  0.00    -0.291 A  
HETATM   12  C   UNL     1      -9.846  11.872  66.807  1.00  0.00    -0.214 A  
HETATM   13  C   UNL     1     -10.071  10.192  68.689  1.00  0.00    -0.172 C  
HETATM   14  C   UNL     1      -9.548  10.684  67.419  1.00  0.00    -0.180 A  
ENDROOT
BRANCH   2  15
HETATM   15  C   UNL     1      -8.778   7.014  67.250  1.00  0.00    -0.120 A  
HETATM   16  C   UNL     1      -7.058   5.301  66.730  1.00  0.00    -0.069 A  
HETATM   17 CL   UNL     1      -7.650   2.797  65.961  1.00  0.00    -0.075 Cl 
HETATM   18  C   UNL     1      -8.069   4.402  66.412  1.00  0.00    -0.102 A  
HETATM   19  C   UNL     1      -9.410   4.796  66.481  1.00  0.00    -0.145 A  
HETATM   20  C   UNL     1      -9.773   6.097  66.897  1.00  0.00    -0.178 A  
HETATM   21  C   UNL     1      -7.423   6.585  67.139  1.00  0.00    -0.088 A  
ENDBRANCH   2  15
TORSDOF 1
ENDMDL
MODEL      122
REMARK 921   NORMALIZED FREE ENERGY PREDICTED BY IDOCK:   -3.04 KCAL/MOL
REMARK 922        TOTAL FREE ENERGY PREDICTED BY IDOCK:   -3.72 KCAL/MOL
REMARK 923 INTER-LIGAND FREE ENERGY PREDICTED BY IDOCK:   -3.79 KCAL/MOL
REMARK 924 INTRA-LIGAND FREE ENERGY PREDICTED BY IDOCK:    0.07 KCAL/MOL
REMARK 927      BINDING AFFINITY PREDICTED BY RF-SCORE:    0.00 PKD
ROOT
HETATM    1  O   UNL     1      -7.739   9.548  67.874  1.00  0.00    -0.087 OA 
HETATM    2  C   UNL     1      -8.974   9.237  67.225  1.00  0.00    -0.123 C  
HETATM    3  H   UNL     1      -7.138   9.838  67.198  1.00  0.00     0.000 HD 
HETATM    4  C   UNL     1      -9.685  10.560  66.919  1.00  0.00    -0.218 A  
HETATM    5  N   UNL     1      -9.890   8.795  68.254  1.00  0.00    -0.159 NA 
HETATM    6  C   UNL     1     -10.266  11.053  65.759  1.00  0.00    -0.316 A  
HETATM    7  C   UNL     1      -9.882   7.701  69.175  1.00  0.00    -0.171 C  
HETATM    8  C   UNL     1     -11.074  12.195  65.852  1.00  0.00    -0.360 A  
HETATM    9  C   UNL     1     -10.711   8.317  70.344  1.00  0.00    -0.232 C  
HETATM   10  N   UNL     1     -10.683   9.810  70.189  1.00  0.00    -0.266 NA 
HETATM   11  C   UNL     1     -11.276  12.857  67.081  1.00  0.00    -0.329 A  
HETATM   12  C   UNL     1     -10.810  12.287  68.259  1.00  0.00    -0.254 A  
HETATM   13  C   UNL     1     -10.258   9.918  68.966  1.00  0.00    -0.200 C  
HETATM   14  C   UNL     1     -10.124  11.109  68.133  1.00  0.00    -0.193 A  
ENDROOT
BRANCH   2  15
HETATM   15  C   UNL     1      -8.549   8.445  66.008  1.00  0.00    -0.164 A  
HETATM   16  C   UNL     1      -8.245   6.149  65.113  1.00  0.00    -0.141 A  
HETATM   17 CL   UNL     1      -7.669   5.629  62.542  1.00  0.00    -0.067 Cl 
HETATM   18  C   UNL     1      -7.965   6.688  63.864  1.00  0.00    -0.075 A  
HETATM   19  C   UNL     1      -7.947   8.076  63.681  1.00  0.00    -0.130 A  
HETATM   20  C   UNL     1      -8.236   8.960  64.746  1.00  0.00    -0.164 A  
HETATM   21  C   UNL     1      -8.529   7.028  66.160  1.00  0.00    -0.136 A  
ENDBRANCH   2  15
TORSDOF 1
ENDMDL
MODEL      123
REMARK 921   NORMALIZED FREE ENERGY PREDICTED BY IDOCK:   -3.03 KCAL/MOL
REMARK 922        TOTAL FREE ENERGY PREDICTED BY IDOCK:   -3.70 KCAL/MOL
REMARK 923 INTER-LIGAND FREE ENERGY PREDICTED BY IDOCK:   -3.85 KCAL/MOL
REMARK 924 INTRA-LIGAND FREE ENERGY PREDICTED BY IDOCK:    0.14 KCAL/MOL
REMARK 927      BINDING AFFINITY PREDICTED BY RF-SCORE:    0.00 PKD
ROOT
HETATM    1  O   UNL     1      -8.206   8.381  70.382  1.00  0.00    -0.106 OA 
HETATM    2  C   UNL     1      -9.472   7.741  70.202  1.00  0.00    -0.160 C  
HETATM    3  H   UNL     1      -8.187   8.706  71.275  1.00  0.00     0.000 HD 
HETATM    4  C   UNL     1      -9.402   6.370  70.884  1.00  0.00    -0.168 A  
HETATM    5  N   UNL     1      -9.502   7.245  68.843  1.00  0.00    -0.144 NA 
HETATM    6  C   UNL     1     -10.250   5.737  71.781  1.00  0.00    -0.245 A  
HETATM    7  C   UNL     1      -9.428   7.878  67.563  1.00  0.00    -0.145 C  
HETATM    8  C   UNL     1     -10.055   4.371  72.032  1.00  0.00    -0.256 A  
HETATM    9  C   UNL     1      -8.786   6.730  66.723  1.00  0.00    -0.124 C  
HETATM   10  N   UNL     1      -8.127   5.778  67.678  1.00  0.00    -0.102 NA 
HETATM   11  C   UNL     1      -9.009   3.651  71.419  1.00  0.00    -0.160 A  
HETATM   12  C   UNL     1      -8.249   4.248  70.421  1.00  0.00    -0.073 A  
HETATM   13  C   UNL     1      -8.662   6.152  68.802  1.00  0.00    -0.119 C  
HETATM   14  C   UNL     1      -8.551   5.551  70.127  1.00  0.00    -0.122 A  
ENDROOT
BRANCH   2  15
HETATM   15  C   UNL     1     -10.455   8.711  70.821  1.00  0.00    -0.249 A  
HETATM   16  C   UNL     1     -11.341  11.027  70.691  1.00  0.00     0.025 A  
HETATM   17 CL   UNL     1     -13.447  11.886  72.118  1.00  0.00    -0.472 Cl 
HETATM   18  C   UNL     1     -12.290  10.703  71.652  1.00  0.00    -0.234 A  
HETATM   19  C   UNL     1     -12.316   9.421  72.215  1.00  0.00    -0.298 A  
HETATM   20  C   UNL     1     -11.403   8.422  71.806  1.00  0.00    -0.366 A  
HETATM   21  C   UNL     1     -10.442  10.035  70.292  1.00  0.00    -0.331 A  
ENDBRANCH   2  15
TORSDOF 1
ENDMDL
MODEL      124
REMARK 921   NORMALIZED FREE ENERGY PREDICTED BY IDOCK:   -3.01 KCAL/MOL
REMARK 922        TOTAL FREE ENERGY PREDICTED BY IDOCK:   -3.68 KCAL/MOL
REMARK 923 INTER-LIGAND FREE ENERGY PREDICTED BY IDOCK:   -3.12 KCAL/MOL
REMARK 924 INTRA-LIGAND FREE ENERGY PREDICTED BY IDOCK:   -0.56 KCAL/MOL
REMARK 927      BINDING AFFINITY PREDICTED BY RF-SCORE:    0.00 PKD
ROOT
HETATM    1  O   UNL     1      -7.327   6.457  69.989  1.00  0.00    -0.081 OA 
HETATM    2  C   UNL     1      -8.667   6.330  69.508  1.00  0.00    -0.132 C  
HETATM    3  H   UNL     1      -6.767   6.544  69.226  1.00  0.00     0.000 HD 
HETATM    4  C   UNL     1      -9.149   7.727  69.097  1.00  0.00    -0.145 A  
HETATM    5  N   UNL     1      -9.520   6.200  70.670  1.00  0.00    -0.167 NA 
HETATM    6  C   UNL     1      -9.762   8.193  67.943  1.00  0.00    -0.191 A  
HETATM    7  C   UNL     1      -9.606   5.237  71.723  1.00  0.00    -0.150 C  
HETATM    8  C   UNL     1     -10.324   9.478  67.960  1.00  0.00    -0.260 A  
HETATM    9  C   UNL     1     -10.159   6.134  72.874  1.00  0.00    -0.182 C  
HETATM   10  N   UNL     1      -9.870   7.564  72.519  1.00  0.00    -0.165 NA 
HETATM   11  C   UNL     1     -10.250  10.300  69.103  1.00  0.00    -0.234 A  
HETATM   12  C   UNL     1      -9.761   9.784  70.297  1.00  0.00    -0.279 A  
HETATM   13  C   UNL     1      -9.582   7.447  71.257  1.00  0.00    -0.161 C  
HETATM   14  C   UNL     1      -9.328   8.485  70.264  1.00  0.00    -0.171 A  
ENDROOT
BRANCH   2  15
HETATM   15  C   UNL     1      -8.548   5.339  68.372  1.00  0.00    -0.095 A  
HETATM   16  C   UNL     1      -6.990   4.410  66.676  1.00  0.00    -0.059 A  
HETATM   17 CL   UNL     1      -7.587   2.307  65.115  1.00  0.00    -0.070 Cl 
HETATM   18  C   UNL     1      -7.957   3.479  66.318  1.00  0.00    -0.089 A  
HETATM   19  C   UNL     1      -9.208   3.483  66.947  1.00  0.00    -0.208 A  
HETATM   20  C   UNL     1      -9.511   4.408  67.972  1.00  0.00    -0.208 A  
HETATM   21  C   UNL     1      -7.296   5.321  67.688  1.00  0.00    -0.076 A  
ENDBRANCH   2  15
TORSDOF 1
ENDMDL
MODEL      125
REMARK 921   NORMALIZED FREE ENERGY PREDICTED BY IDOCK:   -3.00 KCAL/MOL
REMARK 922        TOTAL FREE ENERGY PREDICTED BY IDOCK:   -3.68 KCAL/MOL
REMARK 923 INTER-LIGAND FREE ENERGY PREDICTED BY IDOCK:   -3.14 KCAL/MOL
REMARK 924 INTRA-LIGAND FREE ENERGY PREDICTED BY IDOCK:   -0.54 KCAL/MOL
REMARK 927      BINDING AFFINITY PREDICTED BY RF-SCORE:    0.00 PKD
ROOT
HETATM    1  O   UNL     1      -7.533  11.028  65.448  1.00  0.00    -0.363 OA 
HETATM    2  C   UNL     1      -8.392  11.594  66.441  1.00  0.00    -0.084 C  
HETATM    3  H   UNL     1      -6.726  10.786  65.887  1.00  0.00     0.000 HD 
HETATM    4  C   UNL     1      -8.981  10.440  67.260  1.00  0.00    -0.142 A  
HETATM    5  N   UNL     1      -9.621  11.963  65.773  1.00  0.00    -0.237 NA 
HETATM    6  C   UNL     1      -9.072  10.227  68.628  1.00  0.00    -0.152 A  
HETATM    7  C   UNL     1      -9.931  12.873  64.716  1.00  0.00    -0.129 C  
HETATM    8  C   UNL     1      -9.901   9.193  69.088  1.00  0.00    -0.171 A  
HETATM    9  C   UNL     1     -11.185  12.173  64.105  1.00  0.00    -0.368 C  
HETATM   10  N   UNL     1     -11.165  10.737  64.541  1.00  0.00     0.346 NA 
HETATM   11  C   UNL     1     -10.606   8.361  68.194  1.00  0.00    -0.175 A  
HETATM   12  C   UNL     1     -10.623   8.660  66.837  1.00  0.00    -0.270 A  
HETATM   13  C   UNL     1     -10.292  10.788  65.503  1.00  0.00    -0.241 C  
HETATM   14  C   UNL     1      -9.891   9.750  66.446  1.00  0.00    -0.298 A  
ENDROOT
BRANCH   2  15
HETATM   15  C   UNL     1      -7.482  12.524  67.213  1.00  0.00    -0.125 A  
HETATM   16  C   UNL     1      -7.436  14.532  68.672  1.00  0.00    -0.128 A  
HETATM   17 CL   UNL     1      -5.224  15.400  69.924  1.00  0.00    -0.099 Cl 
HETATM   18  C   UNL     1      -6.075  14.340  68.871  1.00  0.00    -0.087 A  
HETATM   19  C   UNL     1      -5.412  13.281  68.239  1.00  0.00    -0.092 A  
HETATM   20  C   UNL     1      -6.106  12.371  67.409  1.00  0.00    -0.158 A  
HETATM   21  C   UNL     1      -8.116  13.630  67.851  1.00  0.00    -0.164 A  
ENDBRANCH   2  15
TORSDOF 1
ENDMDL
MODEL      126
REMARK 921   NORMALIZED FREE ENERGY PREDICTED BY IDOCK:   -2.95 KCAL/MOL
REMARK 922        TOTAL FREE ENERGY PREDICTED BY IDOCK:   -3.62 KCAL/MOL
REMARK 923 INTER-LIGAND FREE ENERGY PREDICTED BY IDOCK:   -3.07 KCAL/MOL
REMARK 924 INTRA-LIGAND FREE ENERGY PREDICTED BY IDOCK:   -0.56 KCAL/MOL
REMARK 927      BINDING AFFINITY PREDICTED BY RF-SCORE:    0.00 PKD
ROOT
HETATM    1  O   UNL     1      -7.417  12.431  68.701  1.00  0.00    -0.111 OA 
HETATM    2  C   UNL     1      -8.594  11.873  68.110  1.00  0.00    -0.165 C  
HETATM    3  H   UNL     1      -7.699  13.154  69.248  1.00  0.00     0.000 HD 
HETATM    4  C   UNL     1      -9.290  11.021  69.178  1.00  0.00    -0.039 A  
HETATM    5  N   UNL     1      -8.164  10.772  67.277  1.00  0.00    -0.120 NA 
HETATM    6  C   UNL     1     -10.607  10.976  69.614  1.00  0.00    -0.132 A  
HETATM    7  C   UNL     1      -7.317  10.679  66.129  1.00  0.00    -0.138 C  
HETATM    8  C   UNL     1     -11.002   9.905  70.428  1.00  0.00    -0.379 A  
HETATM    9  C   UNL     1      -6.777   9.224  66.300  1.00  0.00    -0.074 C  
HETATM   10  N   UNL     1      -6.972   8.830  67.736  1.00  0.00    -0.074 NA 
HETATM   11  C   UNL     1     -10.090   8.907  70.829  1.00  0.00    -0.282 A  
HETATM   12  C   UNL     1      -8.813   8.877  70.283  1.00  0.00    -0.191 A  
HETATM   13  C   UNL     1      -7.803   9.748  68.129  1.00  0.00    -0.085 C  
HETATM   14  C   UNL     1      -8.507   9.879  69.401  1.00  0.00    -0.169 A  
ENDROOT
BRANCH   2  15
HETATM   15  C   UNL     1      -9.375  13.086  67.655  1.00  0.00    -0.202 A  
HETATM   16  C   UNL     1      -9.801  15.488  68.119  1.00  0.00    -0.216 A  
HETATM   17 CL   UNL     1     -11.247  17.072  66.503  1.00  0.00     0.400 Cl 
HETATM   18  C   UNL     1     -10.569  15.561  66.964  1.00  0.00    -0.311 A  
HETATM   19  C   UNL     1     -10.767  14.422  66.175  1.00  0.00    -0.304 A  
HETATM   20  C   UNL     1     -10.175  13.183  66.513  1.00  0.00    -0.277 A  
HETATM   21  C   UNL     1      -9.221  14.261  68.448  1.00  0.00    -0.196 A  
ENDBRANCH   2  15
TORSDOF 1
ENDMDL
MODEL      127
REMARK 921   NORMALIZED FREE ENERGY PREDICTED BY IDOCK:   -2.68 KCAL/MOL
REMARK 922        TOTAL FREE ENERGY PREDICTED BY IDOCK:   -3.33 KCAL/MOL
REMARK 923 INTER-LIGAND FREE ENERGY PREDICTED BY IDOCK:   -3.69 KCAL/MOL
REMARK 924 INTRA-LIGAND FREE ENERGY PREDICTED BY IDOCK:    0.36 KCAL/MOL
REMARK 927      BINDING AFFINITY PREDICTED BY RF-SCORE:    0.00 PKD
ROOT
HETATM    1  O   UNL     1      -7.391   8.803  67.047  1.00  0.00    -0.079 OA 
HETATM    2  C   UNL     1      -8.743   8.373  66.870  1.00  0.00    -0.130 C  
HETATM    3  H   UNL     1      -7.068   8.382  67.835  1.00  0.00     0.000 HD 
HETATM    4  C   UNL     1      -8.707   6.948  66.303  1.00  0.00    -0.149 A  
HETATM    5  N   UNL     1      -9.234   9.013  65.670  1.00  0.00    -0.229 NA 
HETATM    6  C   UNL     1      -9.360   5.784  66.682  1.00  0.00    -0.155 A  
HETATM    7  C   UNL     1      -9.421  10.378  65.289  1.00  0.00    -0.237 C  
HETATM    8  C   UNL     1      -9.327   4.688  65.809  1.00  0.00    -0.158 A  
HETATM    9  C   UNL     1      -9.238  10.263  63.744  1.00  0.00    -0.275 C  
HETATM   10  N   UNL     1      -8.500   8.985  63.465  1.00  0.00    -0.190 NA 
HETATM   11  C   UNL     1      -8.627   4.740  64.586  1.00  0.00    -0.147 A  
HETATM   12  C   UNL     1      -8.092   5.944  64.145  1.00  0.00    -0.110 A  
HETATM   13  C   UNL     1      -8.629   8.377  64.605  1.00  0.00    -0.018 C  
HETATM   14  C   UNL     1      -8.248   7.019  64.980  1.00  0.00    -0.091 A  
ENDROOT
BRANCH   2  15
HETATM   15  C   UNL     1      -9.340   8.492  68.255  1.00  0.00    -0.143 A  
HETATM   16  C   UNL     1     -10.833   7.382  69.899  1.00  0.00    -0.259 A  
HETATM   17 CL   UNL     1     -11.137   8.229  72.429  1.00  0.00    -0.428 Cl 
HETATM   18  C   UNL     1     -10.491   8.345  70.839  1.00  0.00    -0.196 A  
HETATM   19  C   UNL     1      -9.614   9.382  70.501  1.00  0.00    -0.330 A  
HETATM   20  C   UNL     1      -9.035   9.463  69.214  1.00  0.00    -0.154 A  
HETATM   21  C   UNL     1     -10.259   7.468  68.629  1.00  0.00    -0.210 A  
ENDBRANCH   2  15
TORSDOF 1
ENDMDL
MODEL      128
REMARK 921   NORMALIZED FREE ENERGY PREDICTED BY IDOCK:   -2.68 KCAL/MOL
REMARK 922        TOTAL FREE ENERGY PREDICTED BY IDOCK:   -3.33 KCAL/MOL
REMARK 923 INTER-LIGAND FREE ENERGY PREDICTED BY IDOCK:   -2.85 KCAL/MOL
REMARK 924 INTRA-LIGAND FREE ENERGY PREDICTED BY IDOCK:   -0.48 KCAL/MOL
REMARK 927      BINDING AFFINITY PREDICTED BY RF-SCORE:    0.00 PKD
ROOT
HETATM    1  O   UNL     1     -10.650  17.705  65.488  1.00  0.00    -0.622 OA 
HETATM    2  C   UNL     1      -9.841  16.834  66.283  1.00  0.00    -0.309 C  
HETATM    3  H   UNL     1     -11.516  17.316  65.446  1.00  0.00     0.000 HD 
HETATM    4  C   UNL     1     -10.209  17.070  67.753  1.00  0.00    -0.312 A  
HETATM    5  N   UNL     1      -8.523  17.426  66.347  1.00  0.00    -0.333 NA 
HETATM    6  C   UNL     1     -10.533  16.194  68.779  1.00  0.00    -0.264 A  
HETATM    7  C   UNL     1      -7.540  17.747  65.361  1.00  0.00     0.918 C  
HETATM    8  C   UNL     1     -10.568  16.689  70.091  1.00  0.00    -0.022 A  
HETATM    9  C   UNL     1      -6.832  18.951  66.056  1.00  0.00    -0.252 C  
HETATM   10  N   UNL     1      -7.767  19.492  67.099  1.00  0.00    -0.249 NA 
HETATM   11  C   UNL     1     -10.314  18.047  70.374  1.00  0.00     1.616 A  
HETATM   12  C   UNL     1      -9.857  18.890  69.368  1.00  0.00    -0.049 A  
HETATM   13  C   UNL     1      -8.619  18.515  67.190  1.00  0.00    -0.269 C  
HETATM   14  C   UNL     1      -9.726  18.334  68.123  1.00  0.00    -0.341 A  
ENDROOT
BRANCH   2  15
HETATM   15  C   UNL     1     -10.177  15.456  65.756  1.00  0.00    -0.378 A  
HETATM   16  C   UNL     1     -11.670  14.205  64.216  1.00  0.00    -0.365 A  
HETATM   17 CL   UNL     1     -11.360  11.599  63.648  1.00  0.00    -0.510 Cl 
HETATM   18  C   UNL     1     -10.942  13.050  64.470  1.00  0.00    -0.358 A  
HETATM   19  C   UNL     1      -9.867  13.076  65.367  1.00  0.00    -0.127 A  
HETATM   20  C   UNL     1      -9.480  14.272  66.014  1.00  0.00    -0.213 A  
HETATM   21  C   UNL     1     -11.283  15.383  64.859  1.00  0.00    -0.410 A  
ENDBRANCH   2  15
TORSDOF 1
ENDMDL
MODEL      129
REMARK 921   NORMALIZED FREE ENERGY PREDICTED BY IDOCK:   -2.27 KCAL/MOL
REMARK 922        TOTAL FREE ENERGY PREDICTED BY IDOCK:   -2.90 KCAL/MOL
REMARK 923 INTER-LIGAND FREE ENERGY PREDICTED BY IDOCK:   -2.38 KCAL/MOL
REMARK 924 INTRA-LIGAND FREE ENERGY PREDICTED BY IDOCK:   -0.52 KCAL/MOL
REMARK 927      BINDING AFFINITY PREDICTED BY RF-SCORE:    0.00 PKD
ROOT
HETATM    1  O   UNL     1     -10.840  11.820  71.359  1.00  0.00     2.925 OA 
HETATM    2  C   UNL     1     -12.051  11.582  70.639  1.00  0.00    -0.353 C  
HETATM    3  H   UNL     1     -10.280  11.067  71.214  1.00  0.00     0.000 HD 
HETATM    4  C   UNL     1     -11.773  11.857  69.156  1.00  0.00    -0.380 A  
HETATM    5  N   UNL     1     -12.904  12.730  70.859  1.00  0.00    -0.172 NA 
HETATM    6  C   UNL     1     -12.034  11.117  68.012  1.00  0.00    -0.076 A  
HETATM    7  C   UNL     1     -13.491  13.309  72.027  1.00  0.00    -0.507 C  
HETATM    8  C   UNL     1     -11.897  11.746  66.766  1.00  0.00    -0.067 A  
HETATM    9  C   UNL     1     -13.581  14.802  71.581  1.00  0.00    -0.405 C  
HETATM   10  N   UNL     1     -12.617  14.999  70.447  1.00  0.00    -0.355 NA 
HETATM   11  C   UNL     1     -11.476  13.088  66.660  1.00  0.00    -0.382 A  
HETATM   12  C   UNL     1     -11.349  13.866  67.804  1.00  0.00    -0.335 A  
HETATM   13  C   UNL     1     -12.373  13.766  70.119  1.00  0.00    -0.323 C  
HETATM   14  C   UNL     1     -11.605  13.240  68.995  1.00  0.00    -0.359 A  
ENDROOT
BRANCH   2  15
HETATM   15  C   UNL     1     -12.386  10.144  70.968  1.00  0.00    -0.474 A  
HETATM   16  C   UNL     1     -11.491   8.053  71.963  1.00  0.00    -0.364 A  
HETATM   17 CL   UNL     1     -12.993   5.877  72.431  1.00  0.00     0.273 Cl 
HETATM   18  C   UNL     1     -12.748   7.475  71.846  1.00  0.00    -0.289 A  
HETATM   19  C   UNL     1     -13.806   8.195  71.278  1.00  0.00    -0.227 A  
HETATM   20  C   UNL     1     -13.634   9.527  70.837  1.00  0.00    -0.049 A  
HETATM   21  C   UNL     1     -11.327   9.369  71.524  1.00  0.00    -0.464 A  
ENDBRANCH   2  15
TORSDOF 1
ENDMDL
MODEL      130
REMARK 921   NORMALIZED FREE ENERGY PREDICTED BY IDOCK:   -1.39 KCAL/MOL
REMARK 922        TOTAL FREE ENERGY PREDICTED BY IDOCK:   -1.97 KCAL/MOL
REMARK 923 INTER-LIGAND FREE ENERGY PREDICTED BY IDOCK:   -2.22 KCAL/MOL
REMARK 924 INTRA-LIGAND FREE ENERGY PREDICTED BY IDOCK:    0.25 KCAL/MOL
REMARK 927      BINDING AFFINITY PREDICTED BY RF-SCORE:    0.00 PKD
ROOT
HETATM    1  O   UNL     1      -9.855  16.422  69.495  1.00  0.00    -0.216 OA 
HETATM    2  C   UNL     1      -9.557  16.049  68.147  1.00  0.00    -0.209 C  
HETATM    3  H   UNL     1     -10.706  16.842  69.483  1.00  0.00     0.000 HD 
HETATM    4  C   UNL     1     -10.367  14.788  67.824  1.00  0.00    -0.244 A  
HETATM    5  N   UNL     1      -8.260  15.408  68.165  1.00  0.00    -0.141 NA 
HETATM    6  C   UNL     1     -11.190  14.465  66.754  1.00  0.00    -0.340 A  
HETATM    7  C   UNL     1      -6.950  15.849  68.531  1.00  0.00    -0.122 C  
HETATM    8  C   UNL     1     -11.592  13.130  66.603  1.00  0.00    -0.403 A  
HETATM    9  C   UNL     1      -6.320  14.497  68.990  1.00  0.00    -0.095 C  
HETATM   10  N   UNL     1      -7.444  13.550  69.299  1.00  0.00     0.127 NA 
HETATM   11  C   UNL     1     -11.204  12.134  67.523  1.00  0.00    -0.357 A  
HETATM   12  C   UNL     1     -10.272  12.429  68.510  1.00  0.00    -0.213 A  
HETATM   13  C   UNL     1      -8.440  14.165  68.734  1.00  0.00    -0.069 C  
HETATM   14  C   UNL     1      -9.818  13.721  68.549  1.00  0.00    -0.204 A  
ENDROOT
BRANCH   2  15
HETATM   15  C   UNL     1      -9.937  17.274  67.345  1.00  0.00    -0.278 A  
HETATM   16  C   UNL     1     -10.850  18.042  65.167  1.00  0.00     0.633 A  
HETATM   17 CL   UNL     1     -11.507  20.595  64.658  1.00  0.00     1.452 Cl 
HETATM   18  C   UNL     1     -10.880  19.342  65.654  1.00  0.00    -0.230 A  
HETATM   19  C   UNL     1     -10.426  19.622  66.948  1.00  0.00    -0.606 A  
HETATM   20  C   UNL     1      -9.953  18.596  67.798  1.00  0.00    -0.381 A  
HETATM   21  C   UNL     1     -10.381  17.033  66.011  1.00  0.00    -0.324 A  
ENDBRANCH   2  15
TORSDOF 1
ENDMDL
MODEL      131
REMARK 921   NORMALIZED FREE ENERGY PREDICTED BY IDOCK:    0.03 KCAL/MOL
REMARK 922        TOTAL FREE ENERGY PREDICTED BY IDOCK:   -0.47 KCAL/MOL
REMARK 923 INTER-LIGAND FREE ENERGY PREDICTED BY IDOCK:   -0.92 KCAL/MOL
REMARK 924 INTRA-LIGAND FREE ENERGY PREDICTED BY IDOCK:    0.45 KCAL/MOL
REMARK 927      BINDING AFFINITY PREDICTED BY RF-SCORE:    0.00 PKD
ROOT
HETATM    1  O   UNL     1     -10.730  12.762  71.420  1.00  0.00     4.087 OA 
HETATM    2  C   UNL     1     -11.613  12.795  70.296  1.00  0.00     0.035 C  
HETATM    3  H   UNL     1      -9.911  12.388  71.117  1.00  0.00     0.000 HD 
HETATM    4  C   UNL     1     -11.198  13.977  69.412  1.00  0.00    -0.283 A  
HETATM    5  N   UNL     1     -12.859  13.366  70.757  1.00  0.00    -0.204 NA 
HETATM    6  C   UNL     1     -10.952  14.074  68.050  1.00  0.00    -0.266 A  
HETATM    7  C   UNL     1     -13.820  12.969  71.739  1.00  0.00     0.057 C  
HETATM    8  C   UNL     1     -10.842  15.352  67.483  1.00  0.00    -0.305 A  
HETATM    9  C   UNL     1     -14.384  14.363  72.155  1.00  0.00    -0.519 C  
HETATM   10  N   UNL     1     -13.379  15.402  71.750  1.00  0.00    -0.441 NA 
HETATM   11  C   UNL     1     -10.946  16.519  68.267  1.00  0.00    -0.346 A  
HETATM   12  C   UNL     1     -11.328  16.425  69.600  1.00  0.00    -0.188 A  
HETATM   13  C   UNL     1     -12.634  14.715  70.937  1.00  0.00    -0.342 C  
HETATM   14  C   UNL     1     -11.537  15.161  70.084  1.00  0.00    -0.326 A  
ENDROOT
BRANCH   2  15
HETATM   15  C   UNL     1     -11.435  11.433  69.662  1.00  0.00    -0.380 A  
HETATM   16  C   UNL     1     -10.961  10.261  67.525  1.00  0.00    -0.344 A  
HETATM   17 CL   UNL     1     -10.514   7.619  67.355  1.00  0.00    -0.348 Cl 
HETATM   18  C   UNL     1     -10.899   9.057  68.215  1.00  0.00    -0.017 A  
HETATM   19  C   UNL     1     -11.124   9.022  69.596  1.00  0.00    -0.080 A  
HETATM   20  C   UNL     1     -11.393  10.203  70.326  1.00  0.00    -0.387 A  
HETATM   21  C   UNL     1     -11.228  11.423  68.251  1.00  0.00    -0.326 A  
ENDBRANCH   2  15
TORSDOF 1
ENDMDL
MODEL      132
REMARK 921   NORMALIZED FREE ENERGY PREDICTED BY IDOCK:    1.05 KCAL/MOL
REMARK 922        TOTAL FREE ENERGY PREDICTED BY IDOCK:    0.62 KCAL/MOL
REMARK 923 INTER-LIGAND FREE ENERGY PREDICTED BY IDOCK:    1.07 KCAL/MOL
REMARK 924 INTRA-LIGAND FREE ENERGY PREDICTED BY IDOCK:   -0.45 KCAL/MOL
REMARK 927      BINDING AFFINITY PREDICTED BY RF-SCORE:    0.00 PKD
ROOT
HETATM    1  O   UNL     1     -10.621  12.977  66.291  1.00  0.00    -0.266 OA 
HETATM    2  C   UNL     1      -9.575  12.265  66.958  1.00  0.00    -0.208 C  
HETATM    3  H   UNL     1     -10.205  13.547  65.656  1.00  0.00     0.000 HD 
HETATM    4  C   UNL     1      -9.094  11.154  66.016  1.00  0.00    -0.217 A  
HETATM    5  N   UNL     1     -10.208  11.395  67.925  1.00  0.00    -0.179 NA 
HETATM    6  C   UNL     1      -7.825  10.778  65.599  1.00  0.00    -0.076 A  
HETATM    7  C   UNL     1     -11.032  11.631  69.069  1.00  0.00    -0.233 C  
HETATM    8  C   UNL     1      -7.679   9.552  64.934  1.00  0.00    -0.115 A  
HETATM    9  C   UNL     1     -11.867  10.313  69.086  1.00  0.00     0.033 C  
HETATM   10  N   UNL     1     -11.789   9.705  67.715  1.00  0.00     1.213 NA 
HETATM   11  C   UNL     1      -8.787   8.725  64.661  1.00  0.00    -0.054 A  
HETATM   12  C   UNL     1     -10.031   9.034  65.198  1.00  0.00     0.705 A  
HETATM   13  C   UNL     1     -10.792  10.369  67.212  1.00  0.00    -0.264 C  
HETATM   14  C   UNL     1     -10.103  10.184  65.939  1.00  0.00    -0.325 A  
ENDROOT
BRANCH   2  15
HETATM   15  C   UNL     1      -8.548  13.336  67.256  1.00  0.00    -0.211 A  
HETATM   16  C   UNL     1      -6.976  14.182  68.981  1.00  0.00    -0.112 A  
HETATM   17 CL   UNL     1      -5.189  16.134  68.522  1.00  0.00    -0.094 Cl 
HETATM   18  C   UNL     1      -6.483  15.100  68.062  1.00  0.00    -0.144 A  
HETATM   19  C   UNL     1      -7.021  15.165  66.771  1.00  0.00     0.797 A  
HETATM   20  C   UNL     1      -8.053  14.288  66.361  1.00  0.00     0.913 A  
HETATM   21  C   UNL     1      -7.995  13.320  68.570  1.00  0.00    -0.097 A  
ENDBRANCH   2  15
TORSDOF 1
ENDMDL
MODEL      133
REMARK 921   NORMALIZED FREE ENERGY PREDICTED BY IDOCK:    3.29 KCAL/MOL
REMARK 922        TOTAL FREE ENERGY PREDICTED BY IDOCK:    2.98 KCAL/MOL
REMARK 923 INTER-LIGAND FREE ENERGY PREDICTED BY IDOCK:    2.98 KCAL/MOL
REMARK 924 INTRA-LIGAND FREE ENERGY PREDICTED BY IDOCK:    0.00 KCAL/MOL
REMARK 927      BINDING AFFINITY PREDICTED BY RF-SCORE:    0.00 PKD
ROOT
HETATM    1  O   UNL     1      -8.723  13.797  64.065  1.00  0.00     3.804 OA 
HETATM    2  C   UNL     1      -9.658  13.600  65.128  1.00  0.00     0.221 C  
HETATM    3  H   UNL     1      -8.327  12.952  63.885  1.00  0.00     0.000 HD 
HETATM    4  C   UNL     1     -10.910  12.946  64.532  1.00  0.00    -0.385 A  
HETATM    5  N   UNL     1     -10.261  14.886  65.402  1.00  0.00    -0.363 NA 
HETATM    6  C   UNL     1     -11.648  11.835  64.916  1.00  0.00    -0.226 A  
HETATM    7  C   UNL     1      -9.741  16.143  65.841  1.00  0.00    -0.340 C  
HETATM    8  C   UNL     1     -12.902  11.630  64.323  1.00  0.00     0.278 A  
HETATM    9  C   UNL     1     -10.771  17.114  65.185  1.00  0.00     0.004 C  
HETATM   10  N   UNL     1     -11.454  16.373  64.072  1.00  0.00    -1.073 NA 
HETATM   11  C   UNL     1     -13.402  12.505  63.337  1.00  0.00     0.855 A  
HETATM   12  C   UNL     1     -12.730  13.687  63.053  1.00  0.00     0.873 A  
HETATM   13  C   UNL     1     -11.123  15.149  64.357  1.00  0.00    -0.107 C  
HETATM   14  C   UNL     1     -11.565  13.902  63.742  1.00  0.00    -0.032 A  
ENDROOT
BRANCH   2  15
HETATM   15  C   UNL     1      -8.900  12.740  66.116  1.00  0.00     0.232 A  
HETATM   16  C   UNL     1      -7.673  12.771  68.274  1.00  0.00    -0.136 A  
HETATM   17 CL   UNL     1      -6.821  10.552  69.523  1.00  0.00    -0.083 Cl 
HETATM   18  C   UNL     1      -7.572  11.387  68.221  1.00  0.00    -0.113 A  
HETATM   19  C   UNL     1      -8.095  10.682  67.131  1.00  0.00    -0.121 A  
HETATM   20  C   UNL     1      -8.759  11.350  66.076  1.00  0.00    -0.131 A  
HETATM   21  C   UNL     1      -8.329  13.425  67.229  1.00  0.00    -0.183 A  
ENDBRANCH   2  15
TORSDOF 1
ENDMDL
MODEL      134
REMARK 921   NORMALIZED FREE ENERGY PREDICTED BY IDOCK:    3.30 KCAL/MOL
REMARK 922        TOTAL FREE ENERGY PREDICTED BY IDOCK:    2.99 KCAL/MOL
REMARK 923 INTER-LIGAND FREE ENERGY PREDICTED BY IDOCK:    2.93 KCAL/MOL
REMARK 924 INTRA-LIGAND FREE ENERGY PREDICTED BY IDOCK:    0.06 KCAL/MOL
REMARK 927      BINDING AFFINITY PREDICTED BY RF-SCORE:    0.00 PKD
ROOT
HETATM    1  O   UNL     1     -11.278  17.143  68.466  1.00  0.00    -0.202 OA 
HETATM    2  C   UNL     1      -9.998  16.538  68.664  1.00  0.00    -0.248 C  
HETATM    3  H   UNL     1     -11.133  17.941  67.971  1.00  0.00     0.000 HD 
HETATM    4  C   UNL     1      -9.599  15.854  67.351  1.00  0.00    -0.221 A  
HETATM    5  N   UNL     1     -10.219  15.323  69.418  1.00  0.00    -0.243 NA 
HETATM    6  C   UNL     1      -8.433  15.900  66.600  1.00  0.00    -0.322 A  
HETATM    7  C   UNL     1     -10.755  15.056  70.716  1.00  0.00     0.014 C  
HETATM    8  C   UNL     1      -8.264  14.959  65.574  1.00  0.00     3.346 A  
HETATM    9  C   UNL     1     -11.338  13.626  70.486  1.00  0.00     0.381 C  
HETATM   10  N   UNL     1     -11.511  13.435  69.007  1.00  0.00    -0.281 NA 
HETATM   11  C   UNL     1      -9.259  14.004  65.278  1.00  0.00     0.908 A  
HETATM   12  C   UNL     1     -10.360  13.870  66.115  1.00  0.00    -0.303 A  
HETATM   13  C   UNL     1     -10.793  14.417  68.550  1.00  0.00    -0.251 C  
HETATM   14  C   UNL     1     -10.426  14.736  67.174  1.00  0.00    -0.265 A  
ENDROOT
BRANCH   2  15
HETATM   15  C   UNL     1      -9.115  17.695  69.074  1.00  0.00    -0.034 A  
HETATM   16  C   UNL     1      -6.761  18.480  69.191  1.00  0.00    -0.280 A  
HETATM   17 CL   UNL     1      -6.071  20.989  69.855  1.00  0.00     0.296 Cl 
HETATM   18  C   UNL     1      -7.213  19.730  69.595  1.00  0.00    -0.085 A  
HETATM   19  C   UNL     1      -8.582  19.965  69.765  1.00  0.00     0.755 A  
HETATM   20  C   UNL     1      -9.538  18.955  69.507  1.00  0.00     0.172 A  
HETATM   21  C   UNL     1      -7.710  17.486  68.940  1.00  0.00    -0.207 A  
ENDBRANCH   2  15
TORSDOF 1
ENDMDL
MODEL      135
REMARK 921   NORMALIZED FREE ENERGY PREDICTED BY IDOCK:    6.55 KCAL/MOL
REMARK 922        TOTAL FREE ENERGY PREDICTED BY IDOCK:    6.43 KCAL/MOL
REMARK 923 INTER-LIGAND FREE ENERGY PREDICTED BY IDOCK:    6.98 KCAL/MOL
REMARK 924 INTRA-LIGAND FREE ENERGY PREDICTED BY IDOCK:   -0.55 KCAL/MOL
REMARK 927      BINDING AFFINITY PREDICTED BY RF-SCORE:    0.00 PKD
ROOT
HETATM    1  O   UNL     1      -8.056  17.908  69.097  1.00  0.00    -0.102 OA 
HETATM    2  C   UNL     1      -8.516  17.556  67.789  1.00  0.00    -0.225 C  
HETATM    3  H   UNL     1      -8.822  17.951  69.657  1.00  0.00     0.000 HD 
HETATM    4  C   UNL     1      -8.815  16.052  67.790  1.00  0.00    -0.177 A  
HETATM    5  N   UNL     1      -7.350  17.490  66.936  1.00  0.00    -0.190 NA 
HETATM    6  C   UNL     1      -9.920  15.327  67.367  1.00  0.00    -0.223 A  
HETATM    7  C   UNL     1      -6.367  18.448  66.537  1.00  0.00    -0.184 C  
HETATM    8  C   UNL     1      -9.799  13.934  67.253  1.00  0.00    -0.244 A  
HETATM    9  C   UNL     1      -5.143  17.509  66.301  1.00  0.00    -0.181 C  
HETATM   10  N   UNL     1      -5.400  16.228  67.041  1.00  0.00    -0.347 NA 
HETATM   11  C   UNL     1      -8.601  13.269  67.586  1.00  0.00    -0.196 A  
HETATM   12  C   UNL     1      -7.458  14.004  67.876  1.00  0.00    -0.153 A  
HETATM   13  C   UNL     1      -6.673  16.338  67.280  1.00  0.00    -0.193 C  
HETATM   14  C   UNL     1      -7.593  15.367  67.863  1.00  0.00    -0.149 A  
ENDROOT
BRANCH   2  15
HETATM   15  C   UNL     1      -9.723  18.445  67.585  1.00  0.00    -0.306 A  
HETATM   16  C   UNL     1     -11.117  19.572  65.866  1.00  0.00    -0.085 A  
HETATM   17 CL   UNL     1     -13.425  20.826  66.424  1.00  0.00     6.017 Cl 
HETATM   18  C   UNL     1     -12.006  19.959  66.861  1.00  0.00     2.303 A  
HETATM   19  C   UNL     1     -11.758  19.627  68.198  1.00  0.00     2.066 A  
HETATM   20  C   UNL     1     -10.621  18.872  68.568  1.00  0.00    -0.035 A  
HETATM   21  C   UNL     1      -9.995  18.828  66.238  1.00  0.00    -0.418 A  
ENDBRANCH   2  15
TORSDOF 1
ENDMDL
MODEL      136
REMARK 921   NORMALIZED FREE ENERGY PREDICTED BY IDOCK:   13.05 KCAL/MOL
REMARK 922        TOTAL FREE ENERGY PREDICTED BY IDOCK:   13.32 KCAL/MOL
REMARK 923 INTER-LIGAND FREE ENERGY PREDICTED BY IDOCK:   13.24 KCAL/MOL
REMARK 924 INTRA-LIGAND FREE ENERGY PREDICTED BY IDOCK:    0.08 KCAL/MOL
REMARK 927      BINDING AFFINITY PREDICTED BY RF-SCORE:    0.00 PKD
ROOT
HETATM    1  O   UNL     1     -11.501  17.113  68.452  1.00  0.00     0.019 OA 
HETATM    2  C   UNL     1     -10.980  15.803  68.210  1.00  0.00    -0.325 C  
HETATM    3  H   UNL     1     -11.189  17.669  67.748  1.00  0.00     0.000 HD 
HETATM    4  C   UNL     1     -11.823  15.165  67.099  1.00  0.00    -0.052 A  
HETATM    5  N   UNL     1     -11.456  14.956  69.282  1.00  0.00    -0.285 NA 
HETATM    6  C   UNL     1     -11.470  14.518  65.924  1.00  0.00    -0.345 A  
HETATM    7  C   UNL     1     -11.276  14.969  70.699  1.00  0.00    -0.242 C  
HETATM    8  C   UNL     1     -12.461  13.807  65.231  1.00  0.00    -0.512 A  
HETATM    9  C   UNL     1     -12.608  14.297  71.155  1.00  0.00    -0.362 C  
HETATM   10  N   UNL     1     -13.591  14.420  70.027  1.00  0.00     0.898 NA 
HETATM   11  C   UNL     1     -13.794  13.767  65.687  1.00  0.00     2.486 A  
HETATM   12  C   UNL     1     -14.117  14.297  66.930  1.00  0.00     8.444 A  
HETATM   13  C   UNL     1     -12.798  14.738  69.048  1.00  0.00     0.736 C  
HETATM   14  C   UNL     1     -13.092  14.881  67.626  1.00  0.00     2.819 A  
ENDROOT
BRANCH   2  15
HETATM   15  C   UNL     1      -9.534  16.056  67.846  1.00  0.00    -0.210 A  
HETATM   16  C   UNL     1      -7.571  15.113  66.653  1.00  0.00     0.417 A  
HETATM   17 CL   UNL     1      -5.296  16.479  66.239  1.00  0.00     0.568 Cl 
HETATM   18  C   UNL     1      -6.883  16.299  66.876  1.00  0.00    -0.160 A  
HETATM   19  C   UNL     1      -7.485  17.341  67.592  1.00  0.00    -0.187 A  
HETATM   20  C   UNL     1      -8.807  17.227  68.080  1.00  0.00    -0.238 A  
HETATM   21  C   UNL     1      -8.876  15.008  67.138  1.00  0.00    -0.233 A  
ENDBRANCH   2  15
TORSDOF 1
ENDMDL
MODEL      137
REMARK 921   NORMALIZED FREE ENERGY PREDICTED BY IDOCK:   16.34 KCAL/MOL
REMARK 922        TOTAL FREE ENERGY PREDICTED BY IDOCK:   16.80 KCAL/MOL
REMARK 923 INTER-LIGAND FREE ENERGY PREDICTED BY IDOCK:   16.85 KCAL/MOL
REMARK 924 INTRA-LIGAND FREE ENERGY PREDICTED BY IDOCK:   -0.06 KCAL/MOL
REMARK 927      BINDING AFFINITY PREDICTED BY RF-SCORE:    0.00 PKD
ROOT
HETATM    1  O   UNL     1     -10.418  19.228  68.763  1.00  0.00    -0.488 OA 
HETATM    2  C   UNL     1      -9.831  18.040  69.301  1.00  0.00    -0.041 C  
HETATM    3  H   UNL     1     -11.279  18.988  68.441  1.00  0.00     0.000 HD 
HETATM    4  C   UNL     1     -10.465  17.788  70.674  1.00  0.00     1.841 A  
HETATM    5  N   UNL     1      -8.520  18.404  69.792  1.00  0.00     0.940 NA 
HETATM    6  C   UNL     1     -11.033  16.654  71.238  1.00  0.00     0.584 A  
HETATM    7  C   UNL     1      -7.345  18.927  69.167  1.00  0.00    -0.229 C  
HETATM    8  C   UNL     1     -11.297  16.657  72.615  1.00  0.00     0.563 A  
HETATM    9  C   UNL     1      -6.721  19.713  70.362  1.00  0.00     0.073 C  
HETATM   10  N   UNL     1      -7.811  19.964  71.363  1.00  0.00     1.719 NA 
HETATM   11  C   UNL     1     -11.028  17.786  73.416  1.00  0.00     2.527 A  
HETATM   12  C   UNL     1     -10.335  18.865  72.880  1.00  0.00     3.772 A  
HETATM   13  C   UNL     1      -8.718  19.130  70.949  1.00  0.00     3.636 C  
HETATM   14  C   UNL     1      -9.995  18.771  71.557  1.00  0.00     4.138 A  
ENDROOT
BRANCH   2  15
HETATM   15  C   UNL     1     -10.133  16.987  68.257  1.00  0.00    -0.306 A  
HETATM   16  C   UNL     1     -10.405  16.599  65.820  1.00  0.00    -0.338 A  
HETATM   17 CL   UNL     1     -10.686  14.159  64.733  1.00  0.00    -0.432 Cl 
HETATM   18  C   UNL     1     -10.515  15.236  66.063  1.00  0.00    -0.317 A  
HETATM   19  C   UNL     1     -10.464  14.746  67.373  1.00  0.00    -0.256 A  
HETATM   20  C   UNL     1     -10.274  15.614  68.474  1.00  0.00    -0.211 A  
HETATM   21  C   UNL     1     -10.219  17.450  66.911  1.00  0.00    -0.322 A  
ENDBRANCH   2  15
TORSDOF 1
ENDMDL
MODEL      138
REMARK 921   NORMALIZED FREE ENERGY PREDICTED BY IDOCK:   25.80 KCAL/MOL
REMARK 922        TOTAL FREE ENERGY PREDICTED BY IDOCK:   26.81 KCAL/MOL
REMARK 923 INTER-LIGAND FREE ENERGY PREDICTED BY IDOCK:   26.33 KCAL/MOL
REMARK 924 INTRA-LIGAND FREE ENERGY PREDICTED BY IDOCK:    0.48 KCAL/MOL
REMARK 927      BINDING AFFINITY PREDICTED BY RF-SCORE:    0.00 PKD
ROOT
HETATM    1  O   UNL     1     -13.325  14.836  65.953  1.00  0.00     0.019 OA 
HETATM    2  C   UNL     1     -12.061  14.170  66.011  1.00  0.00    -0.432 C  
HETATM    3  H   UNL     1     -13.331  15.477  66.654  1.00  0.00     0.000 HD 
HETATM    4  C   UNL     1     -11.013  15.107  65.398  1.00  0.00    -0.381 A  
HETATM    5  N   UNL     1     -12.050  13.194  64.943  1.00  0.00    -0.378 NA 
HETATM    6  C   UNL     1      -9.770  15.528  65.849  1.00  0.00    -0.392 A  
HETATM    7  C   UNL     1     -12.852  12.048  64.651  1.00  0.00     0.251 C  
HETATM    8  C   UNL     1      -8.921  16.186  64.946  1.00  0.00     2.991 A  
HETATM    9  C   UNL     1     -12.737  12.018  63.094  1.00  0.00    -0.148 C  
HETATM   10  N   UNL     1     -12.312  13.385  62.641  1.00  0.00     0.160 NA 
HETATM   11  C   UNL     1      -9.318  16.448  63.619  1.00  0.00    11.620 A  
HETATM   12  C   UNL     1     -10.501  15.907  63.130  1.00  0.00     7.778 A  
HETATM   13  C   UNL     1     -11.908  13.898  63.765  1.00  0.00    -0.198 C  
HETATM   14  C   UNL     1     -11.244  15.173  64.016  1.00  0.00     0.421 A  
ENDROOT
BRANCH   2  15
HETATM   15  C   UNL     1     -11.875  13.884  67.485  1.00  0.00    -0.431 A  
HETATM   16  C   UNL     1     -10.366  14.245  69.424  1.00  0.00     0.007 A  
HETATM   17 CL   UNL     1     -11.006  13.564  71.941  1.00  0.00     4.047 Cl 
HETATM   18  C   UNL     1     -11.312  13.654  70.252  1.00  0.00     0.152 A  
HETATM   19  C   UNL     1     -12.507  13.159  69.717  1.00  0.00    -0.039 A  
HETATM   20  C   UNL     1     -12.796  13.269  68.338  1.00  0.00     1.529 A  
HETATM   21  C   UNL     1     -10.657  14.350  68.062  1.00  0.00    -0.241 A  
ENDBRANCH   2  15
TORSDOF 1
ENDMDL
MODEL      139
REMARK 921   NORMALIZED FREE ENERGY PREDICTED BY IDOCK:   26.08 KCAL/MOL
REMARK 922        TOTAL FREE ENERGY PREDICTED BY IDOCK:   27.11 KCAL/MOL
REMARK 923 INTER-LIGAND FREE ENERGY PREDICTED BY IDOCK:   27.55 KCAL/MOL
REMARK 924 INTRA-LIGAND FREE ENERGY PREDICTED BY IDOCK:   -0.44 KCAL/MOL
REMARK 927      BINDING AFFINITY PREDICTED BY RF-SCORE:    0.00 PKD
ROOT
HETATM    1  O   UNL     1      -9.988  18.070  66.874  1.00  0.00    -0.308 OA 
HETATM    2  C   UNL     1      -8.598  17.877  66.596  1.00  0.00    -0.262 C  
HETATM    3  H   UNL     1     -10.150  17.706  67.736  1.00  0.00     0.000 HD 
HETATM    4  C   UNL     1      -7.815  18.936  67.382  1.00  0.00    -0.255 A  
HETATM    5  N   UNL     1      -8.350  18.432  65.284  1.00  0.00     0.787 NA 
HETATM    6  C   UNL     1      -6.713  18.841  68.220  1.00  0.00    -0.248 A  
HETATM    7  C   UNL     1      -8.846  18.128  63.978  1.00  0.00    11.882 C  
HETATM    8  C   UNL     1      -6.056  20.022  68.591  1.00  0.00    -0.312 A  
HETATM    9  C   UNL     1      -8.731  19.531  63.304  1.00  0.00    14.100 C  
HETATM   10  N   UNL     1      -8.657  20.558  64.397  1.00  0.00     1.760 NA 
HETATM   11  C   UNL     1      -6.508  21.285  68.158  1.00  0.00    -0.037 A  
HETATM   12  C   UNL     1      -7.522  21.371  67.213  1.00  0.00     0.185 A  
HETATM   13  C   UNL     1      -8.389  19.804  65.420  1.00  0.00     0.590 C  
HETATM   14  C   UNL     1      -8.059  20.184  66.790  1.00  0.00    -0.350 A  
ENDROOT
BRANCH   2  15
HETATM   15  C   UNL     1      -8.344  16.448  67.025  1.00  0.00    -0.230 A  
HETATM   16  C   UNL     1      -6.675  14.610  66.990  1.00  0.00     0.698 A  
HETATM   17 CL   UNL     1      -6.977  12.313  68.347  1.00  0.00    -0.076 Cl 
HETATM   18  C   UNL     1      -7.504  13.860  67.814  1.00  0.00    -0.167 A  
HETATM   19  C   UNL     1      -8.743  14.369  68.221  1.00  0.00    -0.180 A  
HETATM   20  C   UNL     1      -9.170  15.660  67.831  1.00  0.00    -0.190 A  
HETATM   21  C   UNL     1      -7.103  15.883  66.608  1.00  0.00     0.163 A  
ENDBRANCH   2  15
TORSDOF 1
ENDMDL
MODEL      140
REMARK 921   NORMALIZED FREE ENERGY PREDICTED BY IDOCK:   29.06 KCAL/MOL
REMARK 922        TOTAL FREE ENERGY PREDICTED BY IDOCK:   30.26 KCAL/MOL
REMARK 923 INTER-LIGAND FREE ENERGY PREDICTED BY IDOCK:   30.71 KCAL/MOL
REMARK 924 INTRA-LIGAND FREE ENERGY PREDICTED BY IDOCK:   -0.45 KCAL/MOL
REMARK 927      BINDING AFFINITY PREDICTED BY RF-SCORE:    0.00 PKD
ROOT
HETATM    1  O   UNL     1     -12.369  17.497  71.519  1.00  0.00     3.105 OA 
HETATM    2  C   UNL     1     -11.658  16.569  70.696  1.00  0.00     0.074 C  
HETATM    3  H   UNL     1     -12.790  18.117  70.935  1.00  0.00     0.000 HD 
HETATM    4  C   UNL     1     -12.681  15.588  70.110  1.00  0.00    -0.232 A  
HETATM    5  N   UNL     1     -11.017  15.624  71.584  1.00  0.00    -0.121 NA 
HETATM    6  C   UNL     1     -12.905  15.147  68.813  1.00  0.00     0.924 A  
HETATM    7  C   UNL     1     -10.033  15.753  72.613  1.00  0.00     5.537 C  
HETATM    8  C   UNL     1     -13.748  14.044  68.621  1.00  0.00     6.237 A  
HETATM    9  C   UNL     1     -10.431  14.555  73.530  1.00  0.00     4.713 C  
HETATM   10  N   UNL     1     -11.850  14.184  73.207  1.00  0.00     0.561 NA 
HETATM   11  C   UNL     1     -14.386  13.406  69.705  1.00  0.00     7.515 A  
HETATM   12  C   UNL     1     -14.055  13.757  71.008  1.00  0.00     0.546 A  
HETATM   13  C   UNL     1     -12.013  14.807  72.078  1.00  0.00    -0.294 C  
HETATM   14  C   UNL     1     -13.137  14.765  71.149  1.00  0.00    -0.443 A  
ENDROOT
BRANCH   2  15
HETATM   15  C   UNL     1     -10.966  17.450  69.679  1.00  0.00     0.620 A  
HETATM   16  C   UNL     1      -8.837  17.809  68.453  1.00  0.00    -0.285 A  
HETATM   17 CL   UNL     1      -8.557  19.594  66.467  1.00  0.00    -0.363 Cl 
HETATM   18  C   UNL     1      -9.451  18.807  67.707  1.00  0.00    -0.301 A  
HETATM   19  C   UNL     1     -10.786  19.149  67.949  1.00  0.00    -0.302 A  
HETATM   20  C   UNL     1     -11.550  18.478  68.932  1.00  0.00     3.118 A  
HETATM   21  C   UNL     1      -9.596  17.150  69.422  1.00  0.00     0.097 A  
ENDBRANCH   2  15
TORSDOF 1
ENDMDL
