MODEL        1
REMARK 921   NORMALIZED FREE ENERGY PREDICTED BY IDOCK:   -5.89 KCAL/MOL
REMARK 922        TOTAL FREE ENERGY PREDICTED BY IDOCK:  -13.49 KCAL/MOL
REMARK 923 INTER-LIGAND FREE ENERGY PREDICTED BY IDOCK:  -10.70 KCAL/MOL
REMARK 924 INTRA-LIGAND FREE ENERGY PREDICTED BY IDOCK:   -2.79 KCAL/MOL
REMARK 927      BINDING AFFINITY PREDICTED BY RF-SCORE:    0.00 PKD
ROOT
HETATM    1  C   UNL     1     -10.490   8.759  67.218  1.00  0.00    -0.353 C  
HETATM    2  C   UNL     1     -10.234   9.660  66.016  1.00  0.00    -0.185 C  
ENDROOT
BRANCH   2   3
HETATM    3  N   UNL     1      -9.690  10.997  66.279  1.00  0.00    -0.200 NA 
BRANCH   3   4
HETATM    4  C   UNL     1      -9.835  11.962  65.173  1.00  0.00    -0.218 C  
BRANCH   4   5
HETATM    5  C   UNL     1     -10.846  11.536  64.096  1.00  0.00    -0.435 C  
BRANCH   5   6
HETATM    6  C   UNL     1     -12.195  12.232  64.281  1.00  0.00    -0.514 C  
BRANCH   6   7
HETATM    7  C   UNL     1     -12.114  13.676  63.797  1.00  0.00    -0.382 C  
BRANCH   7   8
HETATM    8  O   UNL     1     -12.101  14.565  64.921  1.00  0.00    -0.402 OA 
BRANCH   8   9
HETATM    9  C   UNL     1     -11.496  15.759  64.704  1.00  0.00    -0.282 C  
HETATM   10  O   UNL     1     -11.645  16.486  63.736  1.00  0.00    -1.109 OA 
BRANCH   9  11
HETATM   11  C   UNL     1     -10.562  16.057  65.815  1.00  0.00    -0.366 A  
HETATM   12  C   UNL     1     -10.873  16.991  66.811  1.00  0.00     0.014 A  
HETATM   13  C   UNL     1      -9.955  17.265  67.829  1.00  0.00    -0.301 A  
HETATM   14  C   UNL     1      -8.419  15.651  66.858  1.00  0.00    -0.286 A  
HETATM   15  C   UNL     1      -8.716  16.587  67.854  1.00  0.00    -0.188 A  
HETATM   16  C   UNL     1      -9.333  15.394  65.834  1.00  0.00    -0.329 A  
BRANCH  13  17
HETATM   17  O   UNL     1     -10.167  18.177  68.834  1.00  0.00    -0.379 OA 
HETATM   18  C   UNL     1     -10.199  19.553  68.484  1.00  0.00    -0.416 C  
ENDBRANCH  13  17
BRANCH  15  19
HETATM   19  O   UNL     1      -7.869  16.913  68.882  1.00  0.00    -0.244 OA 
HETATM   20  C   UNL     1      -7.051  15.878  69.410  1.00  0.00    -0.215 C  
ENDBRANCH  15  19
ENDBRANCH   9  11
ENDBRANCH   8   9
ENDBRANCH   7   8
ENDBRANCH   6   7
ENDBRANCH   5   6
ENDBRANCH   4   5
ENDBRANCH   3   4
BRANCH   3  21
HETATM   21  C   UNL     1      -9.990  11.598  67.603  1.00  0.00    -0.188 C  
HETATM   22  C   UNL     1      -8.781  12.218  68.326  1.00  0.00    -0.178 C  
BRANCH  21  23
HETATM   23  C   UNL     1     -11.151  12.638  67.599  1.00  0.00    -0.303 C  
BRANCH  23  24
HETATM   24  C   UNL     1     -11.717  12.997  68.957  1.00  0.00    -0.376 A  
HETATM   25  C   UNL     1     -12.621  12.316  71.115  1.00  0.00    -0.353 A  
HETATM   26  C   UNL     1     -12.825  13.649  71.467  1.00  0.00    -0.359 A  
HETATM   27  C   UNL     1     -11.937  14.333  69.315  1.00  0.00    -0.375 A  
HETATM   28  C   UNL     1     -12.475  14.653  70.564  1.00  0.00    -0.408 A  
HETATM   29  C   UNL     1     -12.072  11.994  69.868  1.00  0.00    -0.334 A  
BRANCH  26  30
HETATM   30  O   UNL     1     -13.299  14.091  72.672  1.00  0.00    -0.494 OA 
HETATM   31  C   UNL     1     -13.785  15.428  72.704  1.00  0.00    -0.542 C  
ENDBRANCH  26  30
ENDBRANCH  23  24
ENDBRANCH  21  23
ENDBRANCH   3  21
ENDBRANCH   2   3
TORSDOF 14
ENDMDL
MODEL        2
REMARK 921   NORMALIZED FREE ENERGY PREDICTED BY IDOCK:   -5.67 KCAL/MOL
REMARK 922        TOTAL FREE ENERGY PREDICTED BY IDOCK:  -13.10 KCAL/MOL
REMARK 923 INTER-LIGAND FREE ENERGY PREDICTED BY IDOCK:  -10.89 KCAL/MOL
REMARK 924 INTRA-LIGAND FREE ENERGY PREDICTED BY IDOCK:   -2.22 KCAL/MOL
REMARK 927      BINDING AFFINITY PREDICTED BY RF-SCORE:    0.00 PKD
ROOT
HETATM    1  C   UNL     1      -8.929   8.996  65.402  1.00  0.00    -0.249 C  
HETATM    2  C   UNL     1      -8.510  10.437  65.668  1.00  0.00    -0.165 C  
ENDROOT
BRANCH   2   3
HETATM    3  N   UNL     1      -9.577  11.424  65.871  1.00  0.00    -0.220 NA 
BRANCH   3   4
HETATM    4  C   UNL     1     -10.713  11.320  64.936  1.00  0.00    -0.271 C  
BRANCH   4   5
HETATM    5  C   UNL     1     -10.656  12.313  63.765  1.00  0.00    -0.488 C  
BRANCH   5   6
HETATM    6  C   UNL     1     -12.012  12.976  63.520  1.00  0.00    -0.615 C  
BRANCH   6   7
HETATM    7  C   UNL     1     -12.298  14.008  64.606  1.00  0.00    -0.397 C  
BRANCH   7   8
HETATM    8  O   UNL     1     -11.085  14.681  64.967  1.00  0.00    -0.350 OA 
BRANCH   8   9
HETATM    9  C   UNL     1     -11.085  16.021  64.756  1.00  0.00    -0.365 C  
HETATM   10  O   UNL     1     -11.628  16.613  63.839  1.00  0.00    -1.204 OA 
BRANCH   9  11
HETATM   11  C   UNL     1     -10.274  16.693  65.798  1.00  0.00    -0.328 A  
HETATM   12  C   UNL     1      -9.267  16.018  66.500  1.00  0.00    -0.307 A  
HETATM   13  C   UNL     1      -8.540  16.680  67.494  1.00  0.00    -0.189 A  
HETATM   14  C   UNL     1      -9.821  18.700  67.067  1.00  0.00    -0.351 A  
HETATM   15  C   UNL     1      -8.819  18.035  67.780  1.00  0.00    -0.255 A  
HETATM   16  C   UNL     1     -10.556  18.030  66.087  1.00  0.00    -0.269 A  
BRANCH  13  17
HETATM   17  O   UNL     1      -7.550  16.094  68.245  1.00  0.00    -0.139 OA 
HETATM   18  C   UNL     1      -6.556  15.344  67.561  1.00  0.00    -0.161 C  
ENDBRANCH  13  17
BRANCH  15  19
HETATM   19  O   UNL     1      -8.065  18.612  68.770  1.00  0.00    -0.323 OA 
HETATM   20  C   UNL     1      -7.384  19.819  68.456  1.00  0.00    -0.316 C  
ENDBRANCH  15  19
ENDBRANCH   9  11
ENDBRANCH   8   9
ENDBRANCH   7   8
ENDBRANCH   6   7
ENDBRANCH   5   6
ENDBRANCH   4   5
ENDBRANCH   3   4
BRANCH   3  21
HETATM   21  C   UNL     1     -10.010  11.672  67.269  1.00  0.00    -0.191 C  
HETATM   22  C   UNL     1      -9.130  12.658  68.058  1.00  0.00    -0.207 C  
BRANCH  21  23
HETATM   23  C   UNL     1     -11.499  12.104  67.424  1.00  0.00    -0.415 C  
BRANCH  23  24
HETATM   24  C   UNL     1     -11.779  13.123  68.509  1.00  0.00    -0.387 A  
HETATM   25  C   UNL     1     -12.413  13.645  70.803  1.00  0.00    -0.432 A  
HETATM   26  C   UNL     1     -12.359  15.009  70.524  1.00  0.00    -0.356 A  
HETATM   27  C   UNL     1     -11.740  14.495  68.234  1.00  0.00    -0.368 A  
HETATM   28  C   UNL     1     -12.016  15.428  69.238  1.00  0.00    -0.335 A  
HETATM   29  C   UNL     1     -12.126  12.709  69.801  1.00  0.00    -0.301 A  
BRANCH  26  30
HETATM   30  O   UNL     1     -12.563  16.015  71.428  1.00  0.00    -0.443 OA 
HETATM   31  C   UNL     1     -12.114  15.768  72.755  1.00  0.00    -0.490 C  
ENDBRANCH  26  30
ENDBRANCH  23  24
ENDBRANCH  21  23
ENDBRANCH   3  21
ENDBRANCH   2   3
TORSDOF 14
ENDMDL
MODEL        3
REMARK 921   NORMALIZED FREE ENERGY PREDICTED BY IDOCK:   -5.66 KCAL/MOL
REMARK 922        TOTAL FREE ENERGY PREDICTED BY IDOCK:  -13.09 KCAL/MOL
REMARK 923 INTER-LIGAND FREE ENERGY PREDICTED BY IDOCK:  -10.80 KCAL/MOL
REMARK 924 INTRA-LIGAND FREE ENERGY PREDICTED BY IDOCK:   -2.29 KCAL/MOL
REMARK 927      BINDING AFFINITY PREDICTED BY RF-SCORE:    0.00 PKD
ROOT
HETATM    1  C   UNL     1      -7.955  12.883  67.245  1.00  0.00    -0.151 C  
HETATM    2  C   UNL     1      -8.663  12.006  68.271  1.00  0.00    -0.178 C  
ENDROOT
BRANCH   2   3
HETATM    3  N   UNL     1      -9.410  10.848  67.768  1.00  0.00    -0.155 NA 
BRANCH   3   4
HETATM    4  C   UNL     1      -9.009  10.377  66.430  1.00  0.00    -0.149 C  
BRANCH   4   5
HETATM    5  C   UNL     1     -10.160  10.313  65.414  1.00  0.00    -0.354 C  
BRANCH   5   6
HETATM    6  C   UNL     1      -9.663  10.521  63.983  1.00  0.00    -0.383 C  
BRANCH   6   7
HETATM    7  C   UNL     1     -10.385  11.700  63.340  1.00  0.00    -0.435 C  
BRANCH   7   8
HETATM    8  O   UNL     1     -11.611  11.957  64.037  1.00  0.00    -0.378 OA 
BRANCH   8   9
HETATM    9  C   UNL     1     -12.091  13.219  63.912  1.00  0.00    -0.468 C  
HETATM   10  O   UNL     1     -12.782  13.649  63.003  1.00  0.00    -0.681 OA 
BRANCH   9  11
HETATM   11  C   UNL     1     -11.615  14.051  65.040  1.00  0.00    -0.351 A  
HETATM   12  C   UNL     1     -10.929  15.255  64.833  1.00  0.00    -0.445 A  
HETATM   13  C   UNL     1     -10.472  16.000  65.925  1.00  0.00    -0.359 A  
HETATM   14  C   UNL     1     -11.408  14.339  67.432  1.00  0.00    -0.349 A  
HETATM   15  C   UNL     1     -10.716  15.538  67.237  1.00  0.00    -0.308 A  
HETATM   16  C   UNL     1     -11.848  13.591  66.339  1.00  0.00    -0.435 A  
BRANCH  13  17
HETATM   17  O   UNL     1      -9.776  17.179  65.817  1.00  0.00    -0.527 OA 
HETATM   18  C   UNL     1     -10.486  18.390  66.036  1.00  0.00    -0.374 C  
ENDBRANCH  13  17
BRANCH  15  19
HETATM   19  O   UNL     1     -10.234  16.324  68.254  1.00  0.00    -0.239 OA 
HETATM   20  C   UNL     1      -9.703  15.665  69.396  1.00  0.00    -0.292 C  
ENDBRANCH  15  19
ENDBRANCH   9  11
ENDBRANCH   8   9
ENDBRANCH   7   8
ENDBRANCH   6   7
ENDBRANCH   5   6
ENDBRANCH   4   5
ENDBRANCH   3   4
BRANCH   3  21
HETATM   21  C   UNL     1      -9.646   9.733  68.719  1.00  0.00    -0.154 C  
HETATM   22  C   UNL     1      -8.921   9.864  70.069  1.00  0.00    -0.206 C  
BRANCH  21  23
HETATM   23  C   UNL     1     -11.147   9.415  68.991  1.00  0.00    -0.014 C  
BRANCH  23  24
HETATM   24  C   UNL     1     -11.838  10.315  69.994  1.00  0.00    -0.305 A  
HETATM   25  C   UNL     1     -13.136  10.593  72.038  1.00  0.00    -0.501 A  
HETATM   26  C   UNL     1     -13.180  11.972  71.840  1.00  0.00    -0.364 A  
HETATM   27  C   UNL     1     -11.899  11.699  69.797  1.00  0.00    -0.428 A  
HETATM   28  C   UNL     1     -12.553  12.519  70.720  1.00  0.00    -0.299 A  
HETATM   29  C   UNL     1     -12.471   9.771  71.120  1.00  0.00    -0.443 A  
BRANCH  26  30
HETATM   30  O   UNL     1     -13.748  12.881  72.691  1.00  0.00    -0.573 OA 
HETATM   31  C   UNL     1     -13.552  14.252  72.367  1.00  0.00    -0.500 C  
ENDBRANCH  26  30
ENDBRANCH  23  24
ENDBRANCH  21  23
ENDBRANCH   3  21
ENDBRANCH   2   3
TORSDOF 14
ENDMDL
MODEL        4
REMARK 921   NORMALIZED FREE ENERGY PREDICTED BY IDOCK:   -5.61 KCAL/MOL
REMARK 922        TOTAL FREE ENERGY PREDICTED BY IDOCK:  -12.99 KCAL/MOL
REMARK 923 INTER-LIGAND FREE ENERGY PREDICTED BY IDOCK:  -11.32 KCAL/MOL
REMARK 924 INTRA-LIGAND FREE ENERGY PREDICTED BY IDOCK:   -1.67 KCAL/MOL
REMARK 927      BINDING AFFINITY PREDICTED BY RF-SCORE:    0.00 PKD
ROOT
HETATM    1  C   UNL     1     -12.485  16.131  73.766  1.00  0.00    -0.694 C  
HETATM    2  C   UNL     1     -11.934  16.206  72.347  1.00  0.00    -0.554 C  
ENDROOT
BRANCH   2   3
HETATM    3  N   UNL     1     -12.604  15.399  71.321  1.00  0.00    -0.376 NA 
BRANCH   3   4
HETATM    4  C   UNL     1     -12.105  15.592  69.947  1.00  0.00    -0.341 C  
BRANCH   4   5
HETATM    5  C   UNL     1     -10.734  16.282  69.867  1.00  0.00    -0.322 C  
BRANCH   5   6
HETATM    6  C   UNL     1     -10.712  17.376  68.799  1.00  0.00    -0.197 C  
BRANCH   6   7
HETATM    7  C   UNL     1      -9.301  17.547  68.248  1.00  0.00    -0.281 C  
BRANCH   7   8
HETATM    8  O   UNL     1      -8.839  16.304  67.703  1.00  0.00    -0.188 OA 
BRANCH   8   9
HETATM    9  C   UNL     1      -9.373  15.969  66.501  1.00  0.00    -0.268 C  
HETATM   10  O   UNL     1      -9.431  16.675  65.508  1.00  0.00    -0.482 OA 
BRANCH   9  11
HETATM   11  C   UNL     1      -9.935  14.600  66.566  1.00  0.00    -0.292 A  
HETATM   12  C   UNL     1     -11.011  14.205  65.761  1.00  0.00    -0.301 A  
HETATM   13  C   UNL     1     -11.531  12.912  65.869  1.00  0.00    -0.346 A  
HETATM   14  C   UNL     1      -9.881  12.406  67.580  1.00  0.00    -0.198 A  
HETATM   15  C   UNL     1     -10.959  12.003  66.787  1.00  0.00    -0.285 A  
HETATM   16  C   UNL     1      -9.376  13.704  67.480  1.00  0.00    -0.223 A  
BRANCH  13  17
HETATM   17  O   UNL     1     -12.593  12.443  65.135  1.00  0.00    -0.622 OA 
HETATM   18  C   UNL     1     -12.381  12.182  63.755  1.00  0.00    -0.532 C  
ENDBRANCH  13  17
BRANCH  15  19
HETATM   19  O   UNL     1     -11.527  10.755  66.835  1.00  0.00    -0.304 OA 
HETATM   20  C   UNL     1     -10.651   9.639  66.919  1.00  0.00    -0.171 C  
ENDBRANCH  15  19
ENDBRANCH   9  11
ENDBRANCH   8   9
ENDBRANCH   7   8
ENDBRANCH   6   7
ENDBRANCH   5   6
ENDBRANCH   4   5
ENDBRANCH   3   4
BRANCH   3  21
HETATM   21  C   UNL     1     -12.853  13.971  71.641  1.00  0.00    -0.352 C  
HETATM   22  C   UNL     1     -14.285  13.646  72.101  1.00  0.00    -0.481 C  
BRANCH  21  23
HETATM   23  C   UNL     1     -12.455  12.971  70.514  1.00  0.00    -0.306 C  
BRANCH  23  24
HETATM   24  C   UNL     1     -12.346  11.519  70.931  1.00  0.00    -0.460 A  
HETATM   25  C   UNL     1     -11.247   9.350  70.762  1.00  0.00    -0.367 A  
HETATM   26  C   UNL     1     -12.164   8.799  71.654  1.00  0.00    -0.339 A  
HETATM   27  C   UNL     1     -13.270  10.953  71.817  1.00  0.00    -0.513 A  
HETATM   28  C   UNL     1     -13.170   9.608  72.183  1.00  0.00    -0.535 A  
HETATM   29  C   UNL     1     -11.339  10.701  70.402  1.00  0.00    -0.389 A  
BRANCH  26  30
HETATM   30  O   UNL     1     -12.145   7.514  72.123  1.00  0.00    -0.294 OA 
HETATM   31  C   UNL     1     -11.968   6.492  71.148  1.00  0.00    -0.306 C  
ENDBRANCH  26  30
ENDBRANCH  23  24
ENDBRANCH  21  23
ENDBRANCH   3  21
ENDBRANCH   2   3
TORSDOF 14
ENDMDL
MODEL        5
REMARK 921   NORMALIZED FREE ENERGY PREDICTED BY IDOCK:   -5.58 KCAL/MOL
REMARK 922        TOTAL FREE ENERGY PREDICTED BY IDOCK:  -12.94 KCAL/MOL
REMARK 923 INTER-LIGAND FREE ENERGY PREDICTED BY IDOCK:  -10.02 KCAL/MOL
REMARK 924 INTRA-LIGAND FREE ENERGY PREDICTED BY IDOCK:   -2.92 KCAL/MOL
REMARK 927      BINDING AFFINITY PREDICTED BY RF-SCORE:    0.00 PKD
ROOT
HETATM    1  C   UNL     1      -7.044   9.405  67.813  1.00  0.00    -0.082 C  
HETATM    2  C   UNL     1      -7.621   9.347  66.403  1.00  0.00    -0.097 C  
ENDROOT
BRANCH   2   3
HETATM    3  N   UNL     1      -8.616  10.361  66.039  1.00  0.00    -0.145 NA 
BRANCH   3   4
HETATM    4  C   UNL     1      -9.648   9.913  65.086  1.00  0.00    -0.300 C  
BRANCH   4   5
HETATM    5  C   UNL     1      -9.483  10.481  63.668  1.00  0.00    -0.347 C  
BRANCH   5   6
HETATM    6  C   UNL     1     -10.106  11.871  63.540  1.00  0.00    -0.464 C  
BRANCH   6   7
HETATM    7  C   UNL     1     -11.627  11.766  63.499  1.00  0.00    -0.387 C  
BRANCH   7   8
HETATM    8  O   UNL     1     -12.193  12.498  64.595  1.00  0.00    -0.417 OA 
BRANCH   8   9
HETATM    9  C   UNL     1     -12.248  13.842  64.422  1.00  0.00    -0.413 C  
HETATM   10  O   UNL     1     -12.547  14.433  63.397  1.00  0.00    -0.729 OA 
BRANCH   9  11
HETATM   11  C   UNL     1     -11.842  14.526  65.671  1.00  0.00    -0.326 A  
HETATM   12  C   UNL     1     -11.004  15.648  65.660  1.00  0.00    -0.276 A  
HETATM   13  C   UNL     1     -10.622  16.251  66.862  1.00  0.00    -0.270 A  
HETATM   14  C   UNL     1     -11.937  14.613  68.086  1.00  0.00    -0.281 A  
HETATM   15  C   UNL     1     -11.095  15.729  68.087  1.00  0.00    -0.341 A  
HETATM   16  C   UNL     1     -12.302  14.005  66.883  1.00  0.00    -0.321 A  
BRANCH  13  17
HETATM   17  O   UNL     1      -9.791  17.341  66.949  1.00  0.00    -0.265 OA 
HETATM   18  C   UNL     1     -10.202  18.540  66.307  1.00  0.00    -0.418 C  
ENDBRANCH  13  17
BRANCH  15  19
HETATM   19  O   UNL     1     -10.673  16.375  69.222  1.00  0.00    -0.282 OA 
HETATM   20  C   UNL     1     -11.209  15.937  70.463  1.00  0.00    -0.377 C  
ENDBRANCH  15  19
ENDBRANCH   9  11
ENDBRANCH   8   9
ENDBRANCH   7   8
ENDBRANCH   6   7
ENDBRANCH   5   6
ENDBRANCH   4   5
ENDBRANCH   3   4
BRANCH   3  21
HETATM   21  C   UNL     1      -9.176  11.182  67.142  1.00  0.00    -0.158 C  
HETATM   22  C   UNL     1      -8.880  12.689  67.047  1.00  0.00    -0.212 C  
BRANCH  21  23
HETATM   23  C   UNL     1     -10.704  10.992  67.386  1.00  0.00    -0.303 C  
BRANCH  23  24
HETATM   24  C   UNL     1     -11.086  10.379  68.717  1.00  0.00    -0.298 A  
HETATM   25  C   UNL     1     -12.249  10.527  70.853  1.00  0.00    -0.490 A  
HETATM   26  C   UNL     1     -11.760   9.275  71.223  1.00  0.00    -0.346 A  
HETATM   27  C   UNL     1     -10.589   9.129  69.102  1.00  0.00    -0.224 A  
HETATM   28  C   UNL     1     -10.935   8.578  70.339  1.00  0.00    -0.254 A  
HETATM   29  C   UNL     1     -11.913  11.075  69.609  1.00  0.00    -0.424 A  
BRANCH  26  30
HETATM   30  O   UNL     1     -12.060   8.613  72.382  1.00  0.00    -0.375 OA 
HETATM   31  C   UNL     1     -11.063   7.727  72.876  1.00  0.00    -0.398 C  
ENDBRANCH  26  30
ENDBRANCH  23  24
ENDBRANCH  21  23
ENDBRANCH   3  21
ENDBRANCH   2   3
TORSDOF 14
ENDMDL
MODEL        6
REMARK 921   NORMALIZED FREE ENERGY PREDICTED BY IDOCK:   -5.57 KCAL/MOL
REMARK 922        TOTAL FREE ENERGY PREDICTED BY IDOCK:  -12.91 KCAL/MOL
REMARK 923 INTER-LIGAND FREE ENERGY PREDICTED BY IDOCK:  -10.62 KCAL/MOL
REMARK 924 INTRA-LIGAND FREE ENERGY PREDICTED BY IDOCK:   -2.29 KCAL/MOL
REMARK 927      BINDING AFFINITY PREDICTED BY RF-SCORE:    0.00 PKD
ROOT
HETATM    1  C   UNL     1      -7.449   7.919  64.952  1.00  0.00    -0.082 C  
HETATM    2  C   UNL     1      -7.985   8.208  66.349  1.00  0.00    -0.104 C  
ENDROOT
BRANCH   2   3
HETATM    3  N   UNL     1      -9.168   9.070  66.453  1.00  0.00    -0.174 NA 
BRANCH   3   4
HETATM    4  C   UNL     1      -9.658   9.619  65.175  1.00  0.00    -0.254 C  
BRANCH   4   5
HETATM    5  C   UNL     1     -10.222  11.044  65.278  1.00  0.00    -0.344 C  
BRANCH   5   6
HETATM    6  C   UNL     1     -10.398  11.683  63.900  1.00  0.00    -0.417 C  
BRANCH   6   7
HETATM    7  C   UNL     1     -11.852  12.093  63.691  1.00  0.00    -0.516 C  
BRANCH   7   8
HETATM    8  O   UNL     1     -12.307  12.858  64.815  1.00  0.00    -0.417 OA 
BRANCH   8   9
HETATM    9  C   UNL     1     -12.132  14.199  64.707  1.00  0.00    -0.441 C  
HETATM   10  O   UNL     1     -12.574  14.923  63.831  1.00  0.00    -0.831 OA 
BRANCH   9  11
HETATM   11  C   UNL     1     -11.265  14.682  65.807  1.00  0.00    -0.336 A  
HETATM   12  C   UNL     1     -11.619  14.519  67.152  1.00  0.00    -0.406 A  
HETATM   13  C   UNL     1     -10.787  15.012  68.162  1.00  0.00    -0.263 A  
HETATM   14  C   UNL     1      -9.236  15.816  66.473  1.00  0.00    -0.314 A  
HETATM   15  C   UNL     1      -9.583  15.665  67.818  1.00  0.00    -0.209 A  
HETATM   16  C   UNL     1     -10.078  15.337  65.468  1.00  0.00    -0.408 A  
BRANCH  13  17
HETATM   17  O   UNL     1     -11.062  14.914  69.504  1.00  0.00    -0.260 OA 
HETATM   18  C   UNL     1     -12.124  15.703  70.022  1.00  0.00    -0.359 C  
ENDBRANCH  13  17
BRANCH  15  19
HETATM   19  O   UNL     1      -8.823  16.122  68.866  1.00  0.00    -0.222 OA 
HETATM   20  C   UNL     1      -7.538  15.541  69.046  1.00  0.00    -0.180 C  
ENDBRANCH  15  19
ENDBRANCH   9  11
ENDBRANCH   8   9
ENDBRANCH   7   8
ENDBRANCH   6   7
ENDBRANCH   5   6
ENDBRANCH   4   5
ENDBRANCH   3   4
BRANCH   3  21
HETATM   21  C   UNL     1     -10.269   8.601  67.332  1.00  0.00    -0.262 C  
HETATM   22  C   UNL     1     -10.838   7.215  66.980  1.00  0.00    -0.382 C  
BRANCH  21  23
HETATM   23  C   UNL     1      -9.944   8.631  68.855  1.00  0.00    -0.197 C  
BRANCH  23  24
HETATM   24  C   UNL     1     -10.869   9.475  69.708  1.00  0.00    -0.264 A  
HETATM   25  C   UNL     1     -11.960  11.605  70.169  1.00  0.00    -0.441 A  
HETATM   26  C   UNL     1     -12.541  11.076  71.319  1.00  0.00    -0.412 A  
HETATM   27  C   UNL     1     -11.447   8.956  70.873  1.00  0.00    -0.339 A  
HETATM   28  C   UNL     1     -12.286   9.748  71.662  1.00  0.00    -0.488 A  
HETATM   29  C   UNL     1     -11.128  10.810  69.370  1.00  0.00    -0.324 A  
BRANCH  26  30
HETATM   30  O   UNL     1     -13.412  11.732  72.146  1.00  0.00    -0.446 OA 
HETATM   31  C   UNL     1     -13.296  13.150  72.181  1.00  0.00    -0.524 C  
ENDBRANCH  26  30
ENDBRANCH  23  24
ENDBRANCH  21  23
ENDBRANCH   3  21
ENDBRANCH   2   3
TORSDOF 14
ENDMDL
MODEL        7
REMARK 921   NORMALIZED FREE ENERGY PREDICTED BY IDOCK:   -5.55 KCAL/MOL
REMARK 922        TOTAL FREE ENERGY PREDICTED BY IDOCK:  -12.89 KCAL/MOL
REMARK 923 INTER-LIGAND FREE ENERGY PREDICTED BY IDOCK:  -10.21 KCAL/MOL
REMARK 924 INTRA-LIGAND FREE ENERGY PREDICTED BY IDOCK:   -2.67 KCAL/MOL
REMARK 927      BINDING AFFINITY PREDICTED BY RF-SCORE:    0.00 PKD
ROOT
HETATM    1  C   UNL     1      -8.452  13.080  67.439  1.00  0.00    -0.200 C  
HETATM    2  C   UNL     1      -7.739  11.759  67.177  1.00  0.00    -0.162 C  
ENDROOT
BRANCH   2   3
HETATM    3  N   UNL     1      -8.560  10.624  66.742  1.00  0.00    -0.127 NA 
BRANCH   3   4
HETATM    4  C   UNL     1      -8.328  10.177  65.356  1.00  0.00    -0.157 C  
BRANCH   4   5
HETATM    5  C   UNL     1      -9.609  10.018  64.523  1.00  0.00    -0.346 C  
BRANCH   5   6
HETATM    6  C   UNL     1     -10.594  11.160  64.777  1.00  0.00    -0.371 C  
BRANCH   6   7
HETATM    7  C   UNL     1     -10.395  12.266  63.747  1.00  0.00    -0.435 C  
BRANCH   7   8
HETATM    8  O   UNL     1     -10.385  13.542  64.400  1.00  0.00    -0.433 OA 
BRANCH   8   9
HETATM    9  C   UNL     1     -11.604  14.012  64.765  1.00  0.00    -0.381 C  
HETATM   10  O   UNL     1     -12.591  14.105  64.055  1.00  0.00    -0.691 OA 
BRANCH   9  11
HETATM   11  C   UNL     1     -11.569  14.452  66.179  1.00  0.00    -0.372 A  
HETATM   12  C   UNL     1     -10.968  15.658  66.562  1.00  0.00    -0.206 A  
HETATM   13  C   UNL     1     -10.932  16.028  67.910  1.00  0.00    -0.327 A  
HETATM   14  C   UNL     1     -12.120  13.987  68.487  1.00  0.00    -0.329 A  
HETATM   15  C   UNL     1     -11.516  15.185  68.882  1.00  0.00    -0.320 A  
HETATM   16  C   UNL     1     -12.138  13.615  67.141  1.00  0.00    -0.404 A  
BRANCH  13  17
HETATM   17  O   UNL     1     -10.349  17.179  68.379  1.00  0.00    -0.318 OA 
HETATM   18  C   UNL     1     -10.626  18.390  67.690  1.00  0.00    -0.408 C  
ENDBRANCH  13  17
BRANCH  15  19
HETATM   19  O   UNL     1     -11.438  15.616  70.182  1.00  0.00    -0.289 OA 
HETATM   20  C   UNL     1     -12.633  15.600  70.951  1.00  0.00    -0.449 C  
ENDBRANCH  15  19
ENDBRANCH   9  11
ENDBRANCH   8   9
ENDBRANCH   7   8
ENDBRANCH   6   7
ENDBRANCH   5   6
ENDBRANCH   4   5
ENDBRANCH   3   4
BRANCH   3  21
HETATM   21  C   UNL     1      -8.702   9.491  67.690  1.00  0.00    -0.122 C  
HETATM   22  C   UNL     1      -7.776   8.293  67.417  1.00  0.00    -0.102 C  
BRANCH  21  23
HETATM   23  C   UNL     1      -8.578   9.881  69.194  1.00  0.00    -0.157 C  
BRANCH  23  24
HETATM   24  C   UNL     1      -9.868   9.863  69.987  1.00  0.00    -0.291 A  
HETATM   25  C   UNL     1     -11.202   8.989  71.830  1.00  0.00    -0.448 A  
HETATM   26  C   UNL     1     -12.284   9.776  71.439  1.00  0.00    -0.397 A  
HETATM   27  C   UNL     1     -10.965  10.639  69.594  1.00  0.00    -0.331 A  
HETATM   28  C   UNL     1     -12.157  10.603  70.323  1.00  0.00    -0.423 A  
HETATM   29  C   UNL     1     -10.003   9.032  71.107  1.00  0.00    -0.365 A  
BRANCH  26  30
HETATM   30  O   UNL     1     -13.483   9.862  72.093  1.00  0.00    -0.429 OA 
HETATM   31  C   UNL     1     -14.301   8.698  72.063  1.00  0.00    -0.422 C  
ENDBRANCH  26  30
ENDBRANCH  23  24
ENDBRANCH  21  23
ENDBRANCH   3  21
ENDBRANCH   2   3
TORSDOF 14
ENDMDL
MODEL        8
REMARK 921   NORMALIZED FREE ENERGY PREDICTED BY IDOCK:   -5.55 KCAL/MOL
REMARK 922        TOTAL FREE ENERGY PREDICTED BY IDOCK:  -12.88 KCAL/MOL
REMARK 923 INTER-LIGAND FREE ENERGY PREDICTED BY IDOCK:  -10.60 KCAL/MOL
REMARK 924 INTRA-LIGAND FREE ENERGY PREDICTED BY IDOCK:   -2.28 KCAL/MOL
REMARK 927      BINDING AFFINITY PREDICTED BY RF-SCORE:    0.00 PKD
ROOT
HETATM    1  C   UNL     1      -6.965  19.543  69.081  1.00  0.00    -0.392 C  
HETATM    2  C   UNL     1      -7.011  18.026  68.942  1.00  0.00    -0.260 C  
ENDROOT
BRANCH   2   3
HETATM    3  N   UNL     1      -8.246  17.434  68.413  1.00  0.00    -0.254 NA 
BRANCH   3   4
HETATM    4  C   UNL     1      -9.465  18.236  68.625  1.00  0.00    -0.327 C  
BRANCH   4   5
HETATM    5  C   UNL     1     -10.718  17.666  67.941  1.00  0.00    -0.341 C  
BRANCH   5   6
HETATM    6  C   UNL     1     -11.276  16.460  68.698  1.00  0.00    -0.332 C  
BRANCH   6   7
HETATM    7  C   UNL     1     -11.184  16.693  70.202  1.00  0.00     0.009 C  
BRANCH   7   8
HETATM    8  O   UNL     1     -11.338  15.448  70.896  1.00  0.00    -0.305 OA 
BRANCH   8   9
HETATM    9  C   UNL     1     -12.605  14.964  70.935  1.00  0.00    -0.341 C  
HETATM   10  O   UNL     1     -13.634  15.617  70.936  1.00  0.00    -0.568 OA 
BRANCH   9  11
HETATM   11  C   UNL     1     -12.575  13.486  71.021  1.00  0.00    -0.438 A  
HETATM   12  C   UNL     1     -11.849  12.707  70.111  1.00  0.00    -0.326 A  
HETATM   13  C   UNL     1     -11.866  11.312  70.210  1.00  0.00    -0.357 A  
HETATM   14  C   UNL     1     -13.324  11.481  72.147  1.00  0.00    -0.284 A  
HETATM   15  C   UNL     1     -12.610  10.693  71.239  1.00  0.00    -0.427 A  
HETATM   16  C   UNL     1     -13.317  12.873  72.034  1.00  0.00    -0.579 A  
BRANCH  13  17
HETATM   17  O   UNL     1     -11.201  10.470  69.352  1.00  0.00    -0.235 OA 
HETATM   18  C   UNL     1      -9.786  10.572  69.289  1.00  0.00    -0.196 C  
ENDBRANCH  13  17
BRANCH  15  19
HETATM   19  O   UNL     1     -12.578   9.322  71.267  1.00  0.00    -0.314 OA 
HETATM   20  C   UNL     1     -13.740   8.649  71.732  1.00  0.00    -0.417 C  
ENDBRANCH  15  19
ENDBRANCH   9  11
ENDBRANCH   8   9
ENDBRANCH   7   8
ENDBRANCH   6   7
ENDBRANCH   5   6
ENDBRANCH   4   5
ENDBRANCH   3   4
BRANCH   3  21
HETATM   21  C   UNL     1      -8.181  16.843  67.053  1.00  0.00    -0.199 C  
HETATM   22  C   UNL     1      -7.030  17.359  66.172  1.00  0.00    -0.298 C  
BRANCH  21  23
HETATM   23  C   UNL     1      -8.171  15.285  67.019  1.00  0.00    -0.267 C  
BRANCH  23  24
HETATM   24  C   UNL     1      -9.414  14.631  66.454  1.00  0.00    -0.325 A  
HETATM   25  C   UNL     1     -11.244  14.611  64.845  1.00  0.00    -0.400 A  
HETATM   26  C   UNL     1     -11.763  13.456  65.426  1.00  0.00    -0.331 A  
HETATM   27  C   UNL     1      -9.950  13.478  67.039  1.00  0.00    -0.247 A  
HETATM   28  C   UNL     1     -11.107  12.891  66.520  1.00  0.00    -0.318 A  
HETATM   29  C   UNL     1     -10.078  15.195  65.357  1.00  0.00    -0.384 A  
BRANCH  26  30
HETATM   30  O   UNL     1     -12.858  12.765  64.984  1.00  0.00    -0.743 OA 
HETATM   31  C   UNL     1     -12.694  12.035  63.773  1.00  0.00    -0.400 C  
ENDBRANCH  26  30
ENDBRANCH  23  24
ENDBRANCH  21  23
ENDBRANCH   3  21
ENDBRANCH   2   3
TORSDOF 14
ENDMDL
MODEL        9
REMARK 921   NORMALIZED FREE ENERGY PREDICTED BY IDOCK:   -5.51 KCAL/MOL
REMARK 922        TOTAL FREE ENERGY PREDICTED BY IDOCK:  -12.80 KCAL/MOL
REMARK 923 INTER-LIGAND FREE ENERGY PREDICTED BY IDOCK:  -11.14 KCAL/MOL
REMARK 924 INTRA-LIGAND FREE ENERGY PREDICTED BY IDOCK:   -1.66 KCAL/MOL
REMARK 927      BINDING AFFINITY PREDICTED BY RF-SCORE:    0.00 PKD
ROOT
HETATM    1  C   UNL     1     -12.646  15.714  70.232  1.00  0.00    -0.319 C  
HETATM    2  C   UNL     1     -11.700  14.521  70.163  1.00  0.00    -0.297 C  
ENDROOT
BRANCH   2   3
HETATM    3  N   UNL     1     -12.289  13.211  69.863  1.00  0.00    -0.196 NA 
BRANCH   3   4
HETATM    4  C   UNL     1     -11.887  12.624  68.571  1.00  0.00    -0.300 C  
BRANCH   4   5
HETATM    5  C   UNL     1     -12.135  13.539  67.361  1.00  0.00    -0.360 C  
BRANCH   5   6
HETATM    6  C   UNL     1     -12.003  12.778  66.041  1.00  0.00    -0.491 C  
BRANCH   6   7
HETATM    7  C   UNL     1     -12.234  13.720  64.865  1.00  0.00    -0.415 C  
BRANCH   7   8
HETATM    8  O   UNL     1     -11.024  14.428  64.565  1.00  0.00    -0.363 OA 
BRANCH   8   9
HETATM    9  C   UNL     1     -11.115  15.780  64.640  1.00  0.00    -0.361 C  
HETATM   10  O   UNL     1     -11.736  16.510  63.887  1.00  0.00    -1.148 OA 
BRANCH   9  11
HETATM   11  C   UNL     1     -10.296  16.276  65.771  1.00  0.00    -0.393 A  
HETATM   12  C   UNL     1     -10.507  17.539  66.336  1.00  0.00    -0.277 A  
HETATM   13  C   UNL     1      -9.696  17.983  67.385  1.00  0.00    -0.296 A  
HETATM   14  C   UNL     1      -8.476  15.883  67.313  1.00  0.00    -0.207 A  
HETATM   15  C   UNL     1      -8.672  17.146  67.880  1.00  0.00    -0.222 A  
HETATM   16  C   UNL     1      -9.277  15.451  66.254  1.00  0.00    -0.354 A  
BRANCH  13  17
HETATM   17  O   UNL     1      -9.817  19.212  67.987  1.00  0.00    -0.319 OA 
HETATM   18  C   UNL     1      -9.644  20.366  67.177  1.00  0.00    -0.447 C  
ENDBRANCH  13  17
BRANCH  15  19
HETATM   19  O   UNL     1      -7.919  17.654  68.908  1.00  0.00    -0.262 OA 
HETATM   20  C   UNL     1      -6.524  17.384  68.894  1.00  0.00    -0.208 C  
ENDBRANCH  15  19
ENDBRANCH   9  11
ENDBRANCH   8   9
ENDBRANCH   7   8
ENDBRANCH   6   7
ENDBRANCH   5   6
ENDBRANCH   4   5
ENDBRANCH   3   4
BRANCH   3  21
HETATM   21  C   UNL     1     -12.307  12.213  70.961  1.00  0.00    -0.230 C  
HETATM   22  C   UNL     1     -13.297  12.515  72.100  1.00  0.00    -0.540 C  
BRANCH  21  23
HETATM   23  C   UNL     1     -12.518  10.739  70.500  1.00  0.00    -0.447 C  
BRANCH  23  24
HETATM   24  C   UNL     1     -11.669   9.701  71.204  1.00  0.00    -0.450 A  
HETATM   25  C   UNL     1      -9.515   8.612  71.545  1.00  0.00    -0.320 A  
HETATM   26  C   UNL     1     -10.087   7.736  72.465  1.00  0.00    -0.242 A  
HETATM   27  C   UNL     1     -12.237   8.808  72.120  1.00  0.00    -0.448 A  
HETATM   28  C   UNL     1     -11.448   7.843  72.752  1.00  0.00    -0.428 A  
HETATM   29  C   UNL     1     -10.302   9.587  70.918  1.00  0.00    -0.372 A  
BRANCH  26  30
HETATM   30  O   UNL     1      -9.415   6.782  73.180  1.00  0.00    -0.140 OA 
HETATM   31  C   UNL     1     -10.203   5.979  74.050  1.00  0.00    -0.288 C  
ENDBRANCH  26  30
ENDBRANCH  23  24
ENDBRANCH  21  23
ENDBRANCH   3  21
ENDBRANCH   2   3
TORSDOF 14
ENDMDL
MODEL       10
REMARK 921   NORMALIZED FREE ENERGY PREDICTED BY IDOCK:   -5.49 KCAL/MOL
REMARK 922        TOTAL FREE ENERGY PREDICTED BY IDOCK:  -12.77 KCAL/MOL
REMARK 923 INTER-LIGAND FREE ENERGY PREDICTED BY IDOCK:  -10.39 KCAL/MOL
REMARK 924 INTRA-LIGAND FREE ENERGY PREDICTED BY IDOCK:   -2.37 KCAL/MOL
REMARK 927      BINDING AFFINITY PREDICTED BY RF-SCORE:    0.00 PKD
ROOT
HETATM    1  C   UNL     1     -12.399  13.107  64.284  1.00  0.00    -0.421 C  
HETATM    2  C   UNL     1     -12.164  13.497  65.738  1.00  0.00    -0.461 C  
ENDROOT
BRANCH   2   3
HETATM    3  N   UNL     1     -11.207  12.693  66.506  1.00  0.00    -0.281 NA 
BRANCH   3   4
HETATM    4  C   UNL     1     -10.106  12.108  65.719  1.00  0.00    -0.247 C  
BRANCH   4   5
HETATM    5  C   UNL     1     -10.062  10.572  65.745  1.00  0.00    -0.329 C  
BRANCH   5   6
HETATM    6  C   UNL     1      -8.629  10.047  65.647  1.00  0.00    -0.166 C  
BRANCH   6   7
HETATM    7  C   UNL     1      -8.100   9.697  67.034  1.00  0.00    -0.113 C  
BRANCH   7   8
HETATM    8  O   UNL     1      -9.182   9.669  67.973  1.00  0.00    -0.126 OA 
BRANCH   8   9
HETATM    9  C   UNL     1      -8.861  10.055  69.233  1.00  0.00    -0.178 C  
HETATM   10  O   UNL     1      -7.812  10.562  69.594  1.00  0.00    -0.149 OA 
BRANCH   9  11
HETATM   11  C   UNL     1      -9.972   9.730  70.157  1.00  0.00    -0.315 A  
HETATM   12  C   UNL     1      -9.793   8.886  71.260  1.00  0.00    -0.361 A  
HETATM   13  C   UNL     1     -10.872   8.582  72.095  1.00  0.00    -0.357 A  
HETATM   14  C   UNL     1     -12.308   9.987  70.727  1.00  0.00    -0.396 A  
HETATM   15  C   UNL     1     -12.142   9.139  71.826  1.00  0.00    -0.376 A  
HETATM   16  C   UNL     1     -11.230  10.274  69.887  1.00  0.00    -0.360 A  
BRANCH  13  17
HETATM   17  O   UNL     1     -10.794   7.751  73.186  1.00  0.00    -0.389 OA 
HETATM   18  C   UNL     1      -9.503   7.451  73.699  1.00  0.00    -0.272 C  
ENDBRANCH  13  17
BRANCH  15  19
HETATM   19  O   UNL     1     -13.150   8.791  72.689  1.00  0.00    -0.391 OA 
HETATM   20  C   UNL     1     -14.409   8.451  72.124  1.00  0.00    -0.427 C  
ENDBRANCH  15  19
ENDBRANCH   9  11
ENDBRANCH   8   9
ENDBRANCH   7   8
ENDBRANCH   6   7
ENDBRANCH   5   6
ENDBRANCH   4   5
ENDBRANCH   3   4
BRANCH   3  21
HETATM   21  C   UNL     1     -10.747  13.249  67.803  1.00  0.00    -0.244 C  
HETATM   22  C   UNL     1      -9.227  13.459  67.920  1.00  0.00    -0.216 C  
BRANCH  21  23
HETATM   23  C   UNL     1     -11.463  14.563  68.240  1.00  0.00    -0.336 C  
BRANCH  23  24
HETATM   24  C   UNL     1     -11.841  14.651  69.704  1.00  0.00    -0.367 A  
HETATM   25  C   UNL     1     -12.881  13.672  71.679  1.00  0.00    -0.427 A  
HETATM   26  C   UNL     1     -12.602  14.822  72.414  1.00  0.00    -0.339 A  
HETATM   27  C   UNL     1     -11.577  15.807  70.447  1.00  0.00    -0.376 A  
HETATM   28  C   UNL     1     -11.944  15.885  71.793  1.00  0.00    -0.573 A  
HETATM   29  C   UNL     1     -12.503  13.588  70.333  1.00  0.00    -0.345 A  
BRANCH  26  30
HETATM   30  O   UNL     1     -12.869  15.002  73.744  1.00  0.00    -0.509 OA 
HETATM   31  C   UNL     1     -12.371  16.199  74.329  1.00  0.00    -0.551 C  
ENDBRANCH  26  30
ENDBRANCH  23  24
ENDBRANCH  21  23
ENDBRANCH   3  21
ENDBRANCH   2   3
TORSDOF 14
ENDMDL
MODEL       11
REMARK 921   NORMALIZED FREE ENERGY PREDICTED BY IDOCK:   -5.44 KCAL/MOL
REMARK 922        TOTAL FREE ENERGY PREDICTED BY IDOCK:  -12.69 KCAL/MOL
REMARK 923 INTER-LIGAND FREE ENERGY PREDICTED BY IDOCK:   -9.96 KCAL/MOL
REMARK 924 INTRA-LIGAND FREE ENERGY PREDICTED BY IDOCK:   -2.72 KCAL/MOL
REMARK 927      BINDING AFFINITY PREDICTED BY RF-SCORE:    0.00 PKD
ROOT
HETATM    1  C   UNL     1      -9.779   6.832  73.992  1.00  0.00    -0.308 C  
HETATM    2  C   UNL     1     -11.033   7.076  73.162  1.00  0.00    -0.281 C  
ENDROOT
BRANCH   2   3
HETATM    3  N   UNL     1     -11.147   8.367  72.474  1.00  0.00    -0.361 NA 
BRANCH   3   4
HETATM    4  C   UNL     1      -9.885   8.898  71.925  1.00  0.00    -0.294 C  
BRANCH   4   5
HETATM    5  C   UNL     1      -9.729   8.703  70.408  1.00  0.00    -0.200 C  
BRANCH   5   6
HETATM    6  C   UNL     1      -8.835   9.778  69.790  1.00  0.00    -0.241 C  
BRANCH   6   7
HETATM    7  C   UNL     1      -7.841   9.144  68.822  1.00  0.00    -0.096 C  
BRANCH   7   8
HETATM    8  O   UNL     1      -7.716   9.961  67.651  1.00  0.00    -0.091 OA 
BRANCH   8   9
HETATM    9  C   UNL     1      -8.701   9.803  66.731  1.00  0.00    -0.131 C  
HETATM   10  O   UNL     1      -8.961   8.786  66.110  1.00  0.00    -0.160 OA 
BRANCH   9  11
HETATM   11  C   UNL     1      -9.418  11.085  66.539  1.00  0.00    -0.211 A  
HETATM   12  C   UNL     1     -10.698  11.138  65.975  1.00  0.00    -0.272 A  
HETATM   13  C   UNL     1     -11.332  12.369  65.786  1.00  0.00    -0.352 A  
HETATM   14  C   UNL     1      -9.404  13.494  66.746  1.00  0.00    -0.262 A  
HETATM   15  C   UNL     1     -10.679  13.559  66.177  1.00  0.00    -0.289 A  
HETATM   16  C   UNL     1      -8.768  12.263  66.918  1.00  0.00    -0.197 A  
BRANCH  13  17
HETATM   17  O   UNL     1     -12.577  12.518  65.224  1.00  0.00    -0.645 OA 
HETATM   18  C   UNL     1     -12.702  12.305  63.825  1.00  0.00    -0.405 C  
ENDBRANCH  13  17
BRANCH  15  19
HETATM   19  O   UNL     1     -11.366  14.726  65.956  1.00  0.00    -0.342 OA 
HETATM   20  C   UNL     1     -10.808  15.650  65.031  1.00  0.00    -0.450 C  
ENDBRANCH  15  19
ENDBRANCH   9  11
ENDBRANCH   8   9
ENDBRANCH   7   8
ENDBRANCH   6   7
ENDBRANCH   5   6
ENDBRANCH   4   5
ENDBRANCH   3   4
BRANCH   3  21
HETATM   21  C   UNL     1     -12.290   8.538  71.544  1.00  0.00    -0.314 C  
HETATM   22  C   UNL     1     -13.133   7.272  71.309  1.00  0.00    -0.363 C  
BRANCH  21  23
HETATM   23  C   UNL     1     -13.250   9.713  71.899  1.00  0.00    -0.538 C  
BRANCH  23  24
HETATM   24  C   UNL     1     -12.906  11.053  71.283  1.00  0.00    -0.528 A  
HETATM   25  C   UNL     1     -11.935  12.355  69.466  1.00  0.00    -0.324 A  
HETATM   26  C   UNL     1     -12.205  13.538  70.150  1.00  0.00    -0.330 A  
HETATM   27  C   UNL     1     -13.162  12.247  71.968  1.00  0.00    -0.508 A  
HETATM   28  C   UNL     1     -12.825  13.477  71.399  1.00  0.00    -0.440 A  
HETATM   29  C   UNL     1     -12.282  11.121  70.031  1.00  0.00    -0.402 A  
BRANCH  26  30
HETATM   30  O   UNL     1     -11.966  14.801  69.681  1.00  0.00    -0.290 OA 
HETATM   31  C   UNL     1     -11.058  15.592  70.439  1.00  0.00    -0.337 C  
ENDBRANCH  26  30
ENDBRANCH  23  24
ENDBRANCH  21  23
ENDBRANCH   3  21
ENDBRANCH   2   3
TORSDOF 14
ENDMDL
MODEL       12
REMARK 921   NORMALIZED FREE ENERGY PREDICTED BY IDOCK:   -5.43 KCAL/MOL
REMARK 922        TOTAL FREE ENERGY PREDICTED BY IDOCK:  -12.66 KCAL/MOL
REMARK 923 INTER-LIGAND FREE ENERGY PREDICTED BY IDOCK:  -10.63 KCAL/MOL
REMARK 924 INTRA-LIGAND FREE ENERGY PREDICTED BY IDOCK:   -2.04 KCAL/MOL
REMARK 927      BINDING AFFINITY PREDICTED BY RF-SCORE:    0.00 PKD
ROOT
HETATM    1  C   UNL     1      -8.522   8.616  65.314  1.00  0.00    -0.196 C  
HETATM    2  C   UNL     1      -8.513   9.980  64.635  1.00  0.00    -0.176 C  
ENDROOT
BRANCH   2   3
HETATM    3  N   UNL     1      -9.369  11.025  65.208  1.00  0.00    -0.211 NA 
BRANCH   3   4
HETATM    4  C   UNL     1     -10.750  11.057  64.692  1.00  0.00    -0.248 C  
BRANCH   4   5
HETATM    5  C   UNL     1     -10.936  11.943  63.450  1.00  0.00    -0.470 C  
BRANCH   5   6
HETATM    6  C   UNL     1     -12.256  12.714  63.499  1.00  0.00    -0.638 C  
BRANCH   6   7
HETATM    7  C   UNL     1     -12.221  13.749  64.618  1.00  0.00    -0.406 C  
BRANCH   7   8
HETATM    8  O   UNL     1     -10.976  14.460  64.582  1.00  0.00    -0.390 OA 
BRANCH   8   9
HETATM    9  C   UNL     1     -11.081  15.809  64.673  1.00  0.00    -0.361 C  
HETATM   10  O   UNL     1     -11.751  16.537  63.961  1.00  0.00    -1.111 OA 
BRANCH   9  11
HETATM   11  C   UNL     1     -10.211  16.308  65.763  1.00  0.00    -0.390 A  
HETATM   12  C   UNL     1     -10.427  17.550  66.372  1.00  0.00    -0.277 A  
HETATM   13  C   UNL     1      -9.569  17.998  67.380  1.00  0.00    -0.272 A  
HETATM   14  C   UNL     1      -8.285  15.944  67.180  1.00  0.00    -0.233 A  
HETATM   15  C   UNL     1      -8.487  17.186  67.789  1.00  0.00    -0.207 A  
HETATM   16  C   UNL     1      -9.136  15.509  66.162  1.00  0.00    -0.359 A  
BRANCH  13  17
HETATM   17  O   UNL     1      -9.693  19.208  68.019  1.00  0.00    -0.312 OA 
HETATM   18  C   UNL     1      -9.795  20.374  67.215  1.00  0.00    -0.456 C  
ENDBRANCH  13  17
BRANCH  15  19
HETATM   19  O   UNL     1      -7.689  17.696  68.781  1.00  0.00    -0.267 OA 
HETATM   20  C   UNL     1      -6.310  17.873  68.487  1.00  0.00    -0.199 C  
ENDBRANCH  15  19
ENDBRANCH   9  11
ENDBRANCH   8   9
ENDBRANCH   7   8
ENDBRANCH   6   7
ENDBRANCH   5   6
ENDBRANCH   4   5
ENDBRANCH   3   4
BRANCH   3  21
HETATM   21  C   UNL     1      -9.305  11.217  66.678  1.00  0.00    -0.180 C  
HETATM   22  C   UNL     1      -8.115  12.058  67.174  1.00  0.00    -0.177 C  
BRANCH  21  23
HETATM   23  C   UNL     1     -10.609  11.778  67.320  1.00  0.00    -0.259 C  
BRANCH  23  24
HETATM   24  C   UNL     1     -11.066  11.092  68.590  1.00  0.00    -0.294 A  
HETATM   25  C   UNL     1     -12.313  11.136  70.683  1.00  0.00    -0.482 A  
HETATM   26  C   UNL     1     -11.877   9.848  70.988  1.00  0.00    -0.376 A  
HETATM   27  C   UNL     1     -10.622   9.803  68.911  1.00  0.00    -0.240 A  
HETATM   28  C   UNL     1     -11.036   9.184  70.094  1.00  0.00    -0.267 A  
HETATM   29  C   UNL     1     -11.909  11.753  69.493  1.00  0.00    -0.402 A  
BRANCH  26  30
HETATM   30  O   UNL     1     -12.246   9.121  72.087  1.00  0.00    -0.367 OA 
HETATM   31  C   UNL     1     -11.290   8.184  72.570  1.00  0.00    -0.401 C  
ENDBRANCH  26  30
ENDBRANCH  23  24
ENDBRANCH  21  23
ENDBRANCH   3  21
ENDBRANCH   2   3
TORSDOF 14
ENDMDL
MODEL       13
REMARK 921   NORMALIZED FREE ENERGY PREDICTED BY IDOCK:   -5.38 KCAL/MOL
REMARK 922        TOTAL FREE ENERGY PREDICTED BY IDOCK:  -12.57 KCAL/MOL
REMARK 923 INTER-LIGAND FREE ENERGY PREDICTED BY IDOCK:  -10.32 KCAL/MOL
REMARK 924 INTRA-LIGAND FREE ENERGY PREDICTED BY IDOCK:   -2.24 KCAL/MOL
REMARK 927      BINDING AFFINITY PREDICTED BY RF-SCORE:    0.00 PKD
ROOT
HETATM    1  C   UNL     1     -10.430   5.267  70.286  1.00  0.00    -0.332 C  
HETATM    2  C   UNL     1     -10.871   6.375  69.336  1.00  0.00    -0.321 C  
ENDROOT
BRANCH   2   3
HETATM    3  N   UNL     1      -9.874   7.388  68.972  1.00  0.00    -0.164 NA 
BRANCH   3   4
HETATM    4  C   UNL     1      -8.973   7.802  70.064  1.00  0.00    -0.142 C  
BRANCH   4   5
HETATM    5  C   UNL     1      -9.539   8.916  70.958  1.00  0.00    -0.321 C  
BRANCH   5   6
HETATM    6  C   UNL     1      -9.905   8.394  72.348  1.00  0.00    -0.378 C  
BRANCH   6   7
HETATM    7  C   UNL     1     -11.413   8.198  72.457  1.00  0.00    -0.404 C  
BRANCH   7   8
HETATM    8  O   UNL     1     -12.073   8.915  71.405  1.00  0.00    -0.297 OA 
BRANCH   8   9
HETATM    9  C   UNL     1     -13.133   9.666  71.797  1.00  0.00    -0.421 C  
HETATM   10  O   UNL     1     -14.154   9.263  72.328  1.00  0.00    -0.413 OA 
BRANCH   9  11
HETATM   11  C   UNL     1     -12.899  11.085  71.444  1.00  0.00    -0.548 A  
HETATM   12  C   UNL     1     -13.390  12.133  72.233  1.00  0.00    -0.316 A  
HETATM   13  C   UNL     1     -13.172  13.461  71.853  1.00  0.00    -0.431 A  
HETATM   14  C   UNL     1     -11.951  12.686  69.899  1.00  0.00    -0.365 A  
HETATM   15  C   UNL     1     -12.443  13.740  70.675  1.00  0.00    -0.359 A  
HETATM   16  C   UNL     1     -12.187  11.362  70.274  1.00  0.00    -0.433 A  
BRANCH  13  17
HETATM   17  O   UNL     1     -13.631  14.549  72.554  1.00  0.00    -0.424 OA 
HETATM   18  C   UNL     1     -12.760  15.136  73.511  1.00  0.00    -0.547 C  
ENDBRANCH  13  17
BRANCH  15  19
HETATM   19  O   UNL     1     -12.274  15.067  70.370  1.00  0.00    -0.298 OA 
HETATM   20  C   UNL     1     -11.664  15.380  69.125  1.00  0.00    -0.345 C  
ENDBRANCH  15  19
ENDBRANCH   9  11
ENDBRANCH   8   9
ENDBRANCH   7   8
ENDBRANCH   6   7
ENDBRANCH   5   6
ENDBRANCH   4   5
ENDBRANCH   3   4
BRANCH   3  21
HETATM   21  C   UNL     1      -9.160   7.200  67.684  1.00  0.00    -0.127 C  
HETATM   22  C   UNL     1     -10.003   6.578  66.557  1.00  0.00    -0.154 C  
BRANCH  21  23
HETATM   23  C   UNL     1      -8.461   8.479  67.133  1.00  0.00    -0.118 C  
BRANCH  23  24
HETATM   24  C   UNL     1      -9.378   9.515  66.517  1.00  0.00    -0.220 A  
HETATM   25  C   UNL     1     -10.191  10.720  64.561  1.00  0.00    -0.428 A  
HETATM   26  C   UNL     1     -11.038  11.482  65.364  1.00  0.00    -0.186 A  
HETATM   27  C   UNL     1     -10.222  10.295  67.317  1.00  0.00    -0.267 A  
HETATM   28  C   UNL     1     -11.053  11.260  66.741  1.00  0.00    -0.314 A  
HETATM   29  C   UNL     1      -9.366   9.745  65.135  1.00  0.00    -0.322 A  
BRANCH  26  30
HETATM   30  O   UNL     1     -11.926  12.422  64.917  1.00  0.00    -0.382 OA 
HETATM   31  C   UNL     1     -12.514  12.176  63.645  1.00  0.00    -0.549 C  
ENDBRANCH  26  30
ENDBRANCH  23  24
ENDBRANCH  21  23
ENDBRANCH   3  21
ENDBRANCH   2   3
TORSDOF 14
ENDMDL
MODEL       14
REMARK 921   NORMALIZED FREE ENERGY PREDICTED BY IDOCK:   -5.36 KCAL/MOL
REMARK 922        TOTAL FREE ENERGY PREDICTED BY IDOCK:  -12.53 KCAL/MOL
REMARK 923 INTER-LIGAND FREE ENERGY PREDICTED BY IDOCK:  -10.57 KCAL/MOL
REMARK 924 INTRA-LIGAND FREE ENERGY PREDICTED BY IDOCK:   -1.96 KCAL/MOL
REMARK 927      BINDING AFFINITY PREDICTED BY RF-SCORE:    0.00 PKD
ROOT
HETATM    1  C   UNL     1      -7.777   6.181  67.275  1.00  0.00    -0.094 C  
HETATM    2  C   UNL     1      -9.204   6.466  66.821  1.00  0.00    -0.142 C  
ENDROOT
BRANCH   2   3
HETATM    3  N   UNL     1     -10.034   7.306  67.691  1.00  0.00    -0.152 NA 
BRANCH   3   4
HETATM    4  C   UNL     1     -10.106   6.873  69.098  1.00  0.00    -0.173 C  
BRANCH   4   5
HETATM    5  C   UNL     1     -11.511   6.448  69.554  1.00  0.00    -0.412 C  
BRANCH   5   6
HETATM    6  C   UNL     1     -11.623   6.411  71.079  1.00  0.00    -0.386 C  
BRANCH   6   7
HETATM    7  C   UNL     1     -12.776   7.294  71.544  1.00  0.00    -0.384 C  
BRANCH   7   8
HETATM    8  O   UNL     1     -12.304   8.628  71.772  1.00  0.00    -0.307 OA 
BRANCH   8   9
HETATM    9  C   UNL     1     -13.264   9.531  72.093  1.00  0.00    -0.451 C  
HETATM   10  O   UNL     1     -14.271   9.321  72.747  1.00  0.00    -0.502 OA 
BRANCH   9  11
HETATM   11  C   UNL     1     -12.941  10.843  71.488  1.00  0.00    -0.556 A  
HETATM   12  C   UNL     1     -13.481  12.037  71.981  1.00  0.00    -0.364 A  
HETATM   13  C   UNL     1     -13.173  13.255  71.366  1.00  0.00    -0.223 A  
HETATM   14  C   UNL     1     -11.765  12.078  69.773  1.00  0.00    -0.390 A  
HETATM   15  C   UNL     1     -12.305  13.275  70.252  1.00  0.00    -0.264 A  
HETATM   16  C   UNL     1     -12.089  10.863  70.380  1.00  0.00    -0.453 A  
BRANCH  13  17
HETATM   17  O   UNL     1     -13.670  14.470  71.769  1.00  0.00    -0.358 OA 
HETATM   18  C   UNL     1     -13.273  14.960  73.042  1.00  0.00    -0.494 C  
ENDBRANCH  13  17
BRANCH  15  19
HETATM   19  O   UNL     1     -12.054  14.507  69.704  1.00  0.00    -0.308 OA 
HETATM   20  C   UNL     1     -10.971  14.610  68.789  1.00  0.00    -0.258 C  
ENDBRANCH  15  19
ENDBRANCH   9  11
ENDBRANCH   8   9
ENDBRANCH   7   8
ENDBRANCH   6   7
ENDBRANCH   5   6
ENDBRANCH   4   5
ENDBRANCH   3   4
BRANCH   3  21
HETATM   21  C   UNL     1      -9.881   8.776  67.554  1.00  0.00    -0.179 C  
HETATM   22  C   UNL     1      -8.998   9.442  68.625  1.00  0.00    -0.132 C  
BRANCH  21  23
HETATM   23  C   UNL     1      -9.400   9.254  66.150  1.00  0.00    -0.270 C  
BRANCH  23  24
HETATM   24  C   UNL     1     -10.181  10.401  65.543  1.00  0.00    -0.316 A  
HETATM   25  C   UNL     1     -11.713  12.280  65.795  1.00  0.00    -0.445 A  
HETATM   26  C   UNL     1     -11.686  12.505  64.420  1.00  0.00    -0.368 A  
HETATM   27  C   UNL     1     -10.171  10.627  64.162  1.00  0.00    -0.365 A  
HETATM   28  C   UNL     1     -10.908  11.678  63.609  1.00  0.00    -0.503 A  
HETATM   29  C   UNL     1     -10.966  11.234  66.352  1.00  0.00    -0.285 A  
BRANCH  26  30
HETATM   30  O   UNL     1     -12.325  13.524  63.768  1.00  0.00    -0.661 OA 
HETATM   31  C   UNL     1     -12.385  14.769  64.453  1.00  0.00    -0.368 C  
ENDBRANCH  26  30
ENDBRANCH  23  24
ENDBRANCH  21  23
ENDBRANCH   3  21
ENDBRANCH   2   3
TORSDOF 14
ENDMDL
MODEL       15
REMARK 921   NORMALIZED FREE ENERGY PREDICTED BY IDOCK:   -5.35 KCAL/MOL
REMARK 922        TOTAL FREE ENERGY PREDICTED BY IDOCK:  -12.51 KCAL/MOL
REMARK 923 INTER-LIGAND FREE ENERGY PREDICTED BY IDOCK:  -10.03 KCAL/MOL
REMARK 924 INTRA-LIGAND FREE ENERGY PREDICTED BY IDOCK:   -2.48 KCAL/MOL
REMARK 927      BINDING AFFINITY PREDICTED BY RF-SCORE:    0.00 PKD
ROOT
HETATM    1  C   UNL     1     -10.607   6.854  67.795  1.00  0.00    -0.305 C  
HETATM    2  C   UNL     1      -9.662   7.239  66.663  1.00  0.00    -0.183 C  
ENDROOT
BRANCH   2   3
HETATM    3  N   UNL     1      -8.478   8.033  67.013  1.00  0.00    -0.119 NA 
BRANCH   3   4
HETATM    4  C   UNL     1      -8.198   9.168  66.115  1.00  0.00    -0.111 C  
BRANCH   4   5
HETATM    5  C   UNL     1      -9.345   9.505  65.150  1.00  0.00    -0.316 C  
BRANCH   5   6
HETATM    6  C   UNL     1      -9.499  11.014  64.959  1.00  0.00    -0.269 C  
BRANCH   6   7
HETATM    7  C   UNL     1     -10.202  11.310  63.639  1.00  0.00    -0.392 C  
BRANCH   7   8
HETATM    8  O   UNL     1     -10.568  12.695  63.584  1.00  0.00    -0.418 OA 
BRANCH   8   9
HETATM    9  C   UNL     1     -11.768  12.996  64.140  1.00  0.00    -0.412 C  
HETATM   10  O   UNL     1     -12.865  12.641  63.741  1.00  0.00    -0.710 OA 
BRANCH   9  11
HETATM   11  C   UNL     1     -11.571  13.879  65.312  1.00  0.00    -0.332 A  
HETATM   12  C   UNL     1     -10.818  15.057  65.231  1.00  0.00    -0.399 A  
HETATM   13  C   UNL     1     -10.633  15.852  66.366  1.00  0.00    -0.297 A  
HETATM   14  C   UNL     1     -11.975  14.293  67.660  1.00  0.00    -0.400 A  
HETATM   15  C   UNL     1     -11.219  15.467  67.592  1.00  0.00    -0.311 A  
HETATM   16  C   UNL     1     -12.143  13.494  66.527  1.00  0.00    -0.460 A  
BRANCH  13  17
HETATM   17  O   UNL     1      -9.896  17.011  66.385  1.00  0.00    -0.271 OA 
HETATM   18  C   UNL     1      -8.491  16.905  66.207  1.00  0.00    -0.287 C  
ENDBRANCH  13  17
BRANCH  15  19
HETATM   19  O   UNL     1     -10.989  16.298  68.660  1.00  0.00    -0.303 OA 
HETATM   20  C   UNL     1     -10.443  15.717  69.837  1.00  0.00    -0.320 C  
ENDBRANCH  15  19
ENDBRANCH   9  11
ENDBRANCH   8   9
ENDBRANCH   7   8
ENDBRANCH   6   7
ENDBRANCH   5   6
ENDBRANCH   4   5
ENDBRANCH   3   4
BRANCH   3  21
HETATM   21  C   UNL     1      -8.298   8.379  68.445  1.00  0.00    -0.131 C  
HETATM   22  C   UNL     1      -6.904   8.072  69.019  1.00  0.00    -0.057 C  
BRANCH  21  23
HETATM   23  C   UNL     1      -8.672   9.847  68.812  1.00  0.00    -0.132 C  
BRANCH  23  24
HETATM   24  C   UNL     1      -9.932  10.018  69.634  1.00  0.00    -0.263 A  
HETATM   25  C   UNL     1     -12.058  11.142  70.031  1.00  0.00    -0.437 A  
HETATM   26  C   UNL     1     -12.257  10.390  71.187  1.00  0.00    -0.394 A  
HETATM   27  C   UNL     1     -10.135   9.277  70.804  1.00  0.00    -0.358 A  
HETATM   28  C   UNL     1     -11.294   9.454  71.565  1.00  0.00    -0.464 A  
HETATM   29  C   UNL     1     -10.902  10.958  69.261  1.00  0.00    -0.286 A  
BRANCH  26  30
HETATM   30  O   UNL     1     -13.365  10.439  71.988  1.00  0.00    -0.433 OA 
HETATM   31  C   UNL     1     -13.905   9.186  72.391  1.00  0.00    -0.457 C  
ENDBRANCH  26  30
ENDBRANCH  23  24
ENDBRANCH  21  23
ENDBRANCH   3  21
ENDBRANCH   2   3
TORSDOF 14
ENDMDL
MODEL       16
REMARK 921   NORMALIZED FREE ENERGY PREDICTED BY IDOCK:   -5.34 KCAL/MOL
REMARK 922        TOTAL FREE ENERGY PREDICTED BY IDOCK:  -12.49 KCAL/MOL
REMARK 923 INTER-LIGAND FREE ENERGY PREDICTED BY IDOCK:  -10.59 KCAL/MOL
REMARK 924 INTRA-LIGAND FREE ENERGY PREDICTED BY IDOCK:   -1.90 KCAL/MOL
REMARK 927      BINDING AFFINITY PREDICTED BY RF-SCORE:    0.00 PKD
ROOT
HETATM    1  C   UNL     1      -7.290   7.009  68.225  1.00  0.00    -0.097 C  
HETATM    2  C   UNL     1      -8.752   6.617  68.047  1.00  0.00    -0.117 C  
ENDROOT
BRANCH   2   3
HETATM    3  N   UNL     1      -9.760   7.665  68.239  1.00  0.00    -0.154 NA 
BRANCH   3   4
HETATM    4  C   UNL     1     -10.312   8.239  66.998  1.00  0.00    -0.323 C  
BRANCH   4   5
HETATM    5  C   UNL     1      -9.967   9.721  66.783  1.00  0.00    -0.278 C  
BRANCH   5   6
HETATM    6  C   UNL     1      -9.606  10.012  65.326  1.00  0.00    -0.355 C  
BRANCH   6   7
HETATM    7  C   UNL     1     -10.493  11.123  64.774  1.00  0.00    -0.323 C  
BRANCH   7   8
HETATM    8  O   UNL     1     -11.285  11.681  65.831  1.00  0.00    -0.305 OA 
BRANCH   8   9
HETATM    9  C   UNL     1     -12.081  12.718  65.467  1.00  0.00    -0.465 C  
HETATM   10  O   UNL     1     -13.110  12.652  64.816  1.00  0.00    -0.852 OA 
BRANCH   9  11
HETATM   11  C   UNL     1     -11.495  13.992  65.943  1.00  0.00    -0.330 A  
HETATM   12  C   UNL     1     -11.688  14.450  67.253  1.00  0.00    -0.429 A  
HETATM   13  C   UNL     1     -11.140  15.671  67.658  1.00  0.00    -0.305 A  
HETATM   14  C   UNL     1     -10.189  15.964  65.440  1.00  0.00    -0.354 A  
HETATM   15  C   UNL     1     -10.382  16.435  66.743  1.00  0.00    -0.293 A  
HETATM   16  C   UNL     1     -10.753  14.752  65.036  1.00  0.00    -0.452 A  
BRANCH  13  17
HETATM   17  O   UNL     1     -11.293  16.207  68.913  1.00  0.00    -0.341 OA 
HETATM   18  C   UNL     1     -10.614  15.575  69.990  1.00  0.00    -0.324 C  
ENDBRANCH  13  17
BRANCH  15  19
HETATM   19  O   UNL     1      -9.881  17.621  67.215  1.00  0.00    -0.285 OA 
HETATM   20  C   UNL     1     -10.064  18.777  66.409  1.00  0.00    -0.404 C  
ENDBRANCH  15  19
ENDBRANCH   9  11
ENDBRANCH   8   9
ENDBRANCH   7   8
ENDBRANCH   6   7
ENDBRANCH   5   6
ENDBRANCH   4   5
ENDBRANCH   3   4
BRANCH   3  21
HETATM   21  C   UNL     1     -10.803   7.418  69.266  1.00  0.00    -0.137 C  
HETATM   22  C   UNL     1     -11.058   5.936  69.592  1.00  0.00    -0.414 C  
BRANCH  21  23
HETATM   23  C   UNL     1     -10.597   8.192  70.603  1.00  0.00    -0.229 C  
BRANCH  23  24
HETATM   24  C   UNL     1     -11.327   9.514  70.717  1.00  0.00    -0.387 A  
HETATM   25  C   UNL     1     -11.593  11.843  70.050  1.00  0.00    -0.301 A  
HETATM   26  C   UNL     1     -12.637  12.000  70.960  1.00  0.00    -0.273 A  
HETATM   27  C   UNL     1     -12.368   9.685  71.637  1.00  0.00    -0.489 A  
HETATM   28  C   UNL     1     -13.023  10.914  71.747  1.00  0.00    -0.557 A  
HETATM   29  C   UNL     1     -10.942  10.608  69.932  1.00  0.00    -0.337 A  
BRANCH  26  30
HETATM   30  O   UNL     1     -13.383  13.134  71.128  1.00  0.00    -0.123 OA 
HETATM   31  C   UNL     1     -13.862  13.382  72.444  1.00  0.00    -0.564 C  
ENDBRANCH  26  30
ENDBRANCH  23  24
ENDBRANCH  21  23
ENDBRANCH   3  21
ENDBRANCH   2   3
TORSDOF 14
ENDMDL
MODEL       17
REMARK 921   NORMALIZED FREE ENERGY PREDICTED BY IDOCK:   -5.31 KCAL/MOL
REMARK 922        TOTAL FREE ENERGY PREDICTED BY IDOCK:  -12.45 KCAL/MOL
REMARK 923 INTER-LIGAND FREE ENERGY PREDICTED BY IDOCK:   -9.56 KCAL/MOL
REMARK 924 INTRA-LIGAND FREE ENERGY PREDICTED BY IDOCK:   -2.89 KCAL/MOL
REMARK 927      BINDING AFFINITY PREDICTED BY RF-SCORE:    0.00 PKD
ROOT
HETATM    1  C   UNL     1      -9.481   8.096  72.929  1.00  0.00    -0.345 C  
HETATM    2  C   UNL     1     -10.865   7.510  73.184  1.00  0.00    -0.395 C  
ENDROOT
BRANCH   2   3
HETATM    3  N   UNL     1     -11.524   6.826  72.065  1.00  0.00    -0.269 NA 
BRANCH   3   4
HETATM    4  C   UNL     1     -12.735   7.491  71.550  1.00  0.00    -0.359 C  
BRANCH   4   5
HETATM    5  C   UNL     1     -13.059   8.827  72.236  1.00  0.00    -0.458 C  
BRANCH   5   6
HETATM    6  C   UNL     1     -13.074   9.986  71.238  1.00  0.00    -0.493 C  
BRANCH   6   7
HETATM    7  C   UNL     1     -11.676  10.217  70.677  1.00  0.00    -0.348 C  
BRANCH   7   8
HETATM    8  O   UNL     1     -11.741  10.357  69.252  1.00  0.00    -0.222 OA 
BRANCH   8   9
HETATM    9  C   UNL     1     -10.726  11.065  68.696  1.00  0.00    -0.198 C  
HETATM   10  O   UNL     1      -9.557  11.056  69.043  1.00  0.00    -0.190 OA 
BRANCH   9  11
HETATM   11  C   UNL     1     -11.247  11.914  67.600  1.00  0.00    -0.340 A  
HETATM   12  C   UNL     1     -11.201  11.504  66.262  1.00  0.00    -0.286 A  
HETATM   13  C   UNL     1     -11.679  12.344  65.252  1.00  0.00    -0.390 A  
HETATM   14  C   UNL     1     -12.269  14.001  66.930  1.00  0.00    -0.415 A  
HETATM   15  C   UNL     1     -12.220  13.605  65.590  1.00  0.00    -0.454 A  
HETATM   16  C   UNL     1     -11.774  13.164  67.933  1.00  0.00    -0.398 A  
BRANCH  13  17
HETATM   17  O   UNL     1     -11.657  12.034  63.914  1.00  0.00    -0.391 OA 
HETATM   18  C   UNL     1     -10.400  11.727  63.327  1.00  0.00    -0.402 C  
ENDBRANCH  13  17
BRANCH  15  19
HETATM   19  O   UNL     1     -12.666  14.371  64.544  1.00  0.00    -0.663 OA 
HETATM   20  C   UNL     1     -11.908  15.526  64.208  1.00  0.00    -0.173 C  
ENDBRANCH  15  19
ENDBRANCH   9  11
ENDBRANCH   8   9
ENDBRANCH   7   8
ENDBRANCH   6   7
ENDBRANCH   5   6
ENDBRANCH   4   5
ENDBRANCH   3   4
BRANCH   3  21
HETATM   21  C   UNL     1     -10.651   6.311  70.981  1.00  0.00    -0.238 C  
HETATM   22  C   UNL     1     -10.274   4.823  71.100  1.00  0.00    -0.229 C  
BRANCH  21  23
HETATM   23  C   UNL     1     -11.177   6.575  69.539  1.00  0.00    -0.434 C  
BRANCH  23  24
HETATM   24  C   UNL     1     -10.193   7.225  68.588  1.00  0.00    -0.191 A  
HETATM   25  C   UNL     1      -7.985   8.155  68.145  1.00  0.00    -0.127 A  
HETATM   26  C   UNL     1      -8.369   8.488  66.848  1.00  0.00    -0.109 A  
HETATM   27  C   UNL     1     -10.574   7.576  67.287  1.00  0.00    -0.394 A  
HETATM   28  C   UNL     1      -9.664   8.190  66.423  1.00  0.00    -0.275 A  
HETATM   29  C   UNL     1      -8.892   7.529  69.009  1.00  0.00    -0.132 A  
BRANCH  26  30
HETATM   30  O   UNL     1      -7.560   9.049  65.897  1.00  0.00    -0.092 OA 
HETATM   31  C   UNL     1      -7.506  10.471  65.877  1.00  0.00    -0.147 C  
ENDBRANCH  26  30
ENDBRANCH  23  24
ENDBRANCH  21  23
ENDBRANCH   3  21
ENDBRANCH   2   3
TORSDOF 14
ENDMDL
MODEL       18
REMARK 921   NORMALIZED FREE ENERGY PREDICTED BY IDOCK:   -5.31 KCAL/MOL
REMARK 922        TOTAL FREE ENERGY PREDICTED BY IDOCK:  -12.45 KCAL/MOL
REMARK 923 INTER-LIGAND FREE ENERGY PREDICTED BY IDOCK:  -10.07 KCAL/MOL
REMARK 924 INTRA-LIGAND FREE ENERGY PREDICTED BY IDOCK:   -2.37 KCAL/MOL
REMARK 927      BINDING AFFINITY PREDICTED BY RF-SCORE:    0.00 PKD
ROOT
HETATM    1  C   UNL     1     -11.939  15.707  69.892  1.00  0.00    -0.376 C  
HETATM    2  C   UNL     1     -10.424  15.849  69.964  1.00  0.00    -0.291 C  
ENDROOT
BRANCH   2   3
HETATM    3  N   UNL     1      -9.788  16.783  69.027  1.00  0.00    -0.267 NA 
BRANCH   3   4
HETATM    4  C   UNL     1      -8.406  16.443  68.643  1.00  0.00    -0.221 C  
BRANCH   4   5
HETATM    5  C   UNL     1      -7.985  15.012  69.015  1.00  0.00    -0.180 C  
BRANCH   5   6
HETATM    6  C   UNL     1      -7.801  14.137  67.774  1.00  0.00    -0.177 C  
BRANCH   6   7
HETATM    7  C   UNL     1      -8.017  12.670  68.128  1.00  0.00    -0.158 C  
BRANCH   7   8
HETATM    8  O   UNL     1      -9.354  12.477  68.608  1.00  0.00    -0.122 OA 
BRANCH   8   9
HETATM    9  C   UNL     1      -9.930  11.302  68.253  1.00  0.00    -0.195 C  
HETATM   10  O   UNL     1      -9.859  10.757  67.164  1.00  0.00    -0.178 OA 
BRANCH   9  11
HETATM   11  C   UNL     1     -10.720  10.767  69.386  1.00  0.00    -0.272 A  
HETATM   12  C   UNL     1     -10.366   9.578  70.037  1.00  0.00    -0.284 A  
HETATM   13  C   UNL     1     -11.152   9.091  71.085  1.00  0.00    -0.301 A  
HETATM   14  C   UNL     1     -12.637  10.999  70.840  1.00  0.00    -0.488 A  
HETATM   15  C   UNL     1     -12.298   9.810  71.492  1.00  0.00    -0.405 A  
HETATM   16  C   UNL     1     -11.858  11.472  69.782  1.00  0.00    -0.429 A  
BRANCH  13  17
HETATM   17  O   UNL     1     -10.893   7.928  71.768  1.00  0.00    -0.226 OA 
HETATM   18  C   UNL     1     -11.068   6.700  71.075  1.00  0.00    -0.282 C  
ENDBRANCH  13  17
BRANCH  15  19
HETATM   19  O   UNL     1     -13.017   9.266  72.526  1.00  0.00    -0.393 OA 
HETATM   20  C   UNL     1     -14.227   8.595  72.201  1.00  0.00    -0.439 C  
ENDBRANCH  15  19
ENDBRANCH   9  11
ENDBRANCH   8   9
ENDBRANCH   7   8
ENDBRANCH   6   7
ENDBRANCH   5   6
ENDBRANCH   4   5
ENDBRANCH   3   4
BRANCH   3  21
HETATM   21  C   UNL     1     -10.604  17.241  67.874  1.00  0.00    -0.384 C  
HETATM   22  C   UNL     1     -10.750  18.768  67.746  1.00  0.00    -0.406 C  
BRANCH  21  23
HETATM   23  C   UNL     1     -10.163  16.668  66.494  1.00  0.00    -0.314 C  
BRANCH  23  24
HETATM   24  C   UNL     1     -10.990  15.514  65.966  1.00  0.00    -0.251 A  
HETATM   25  C   UNL     1     -12.161  13.411  66.341  1.00  0.00    -0.435 A  
HETATM   26  C   UNL     1     -12.481  13.330  64.987  1.00  0.00    -0.443 A  
HETATM   27  C   UNL     1     -11.304  15.418  64.606  1.00  0.00    -0.361 A  
HETATM   28  C   UNL     1     -12.054  14.341  64.125  1.00  0.00    -0.423 A  
HETATM   29  C   UNL     1     -11.419  14.495  66.826  1.00  0.00    -0.376 A  
BRANCH  26  30
HETATM   30  O   UNL     1     -13.243  12.354  64.406  1.00  0.00    -0.816 OA 
HETATM   31  C   UNL     1     -12.696  11.736  63.247  1.00  0.00    -0.180 C  
ENDBRANCH  26  30
ENDBRANCH  23  24
ENDBRANCH  21  23
ENDBRANCH   3  21
ENDBRANCH   2   3
TORSDOF 14
ENDMDL
MODEL       19
REMARK 921   NORMALIZED FREE ENERGY PREDICTED BY IDOCK:   -5.29 KCAL/MOL
REMARK 922        TOTAL FREE ENERGY PREDICTED BY IDOCK:  -12.42 KCAL/MOL
REMARK 923 INTER-LIGAND FREE ENERGY PREDICTED BY IDOCK:  -10.29 KCAL/MOL
REMARK 924 INTRA-LIGAND FREE ENERGY PREDICTED BY IDOCK:   -2.12 KCAL/MOL
REMARK 927      BINDING AFFINITY PREDICTED BY RF-SCORE:    0.00 PKD
ROOT
HETATM    1  C   UNL     1     -10.431   7.258  67.044  1.00  0.00    -0.398 C  
HETATM    2  C   UNL     1     -10.652   8.755  67.221  1.00  0.00    -0.233 C  
ENDROOT
BRANCH   2   3
HETATM    3  N   UNL     1      -9.462   9.608  67.307  1.00  0.00    -0.141 NA 
BRANCH   3   4
HETATM    4  C   UNL     1      -9.101  10.308  66.060  1.00  0.00    -0.161 C  
BRANCH   4   5
HETATM    5  C   UNL     1     -10.253  10.425  65.049  1.00  0.00    -0.334 C  
BRANCH   5   6
HETATM    6  C   UNL     1      -9.805  11.115  63.760  1.00  0.00    -0.374 C  
BRANCH   6   7
HETATM    7  C   UNL     1     -10.673  12.339  63.488  1.00  0.00    -0.451 C  
BRANCH   7   8
HETATM    8  O   UNL     1     -11.595  12.530  64.569  1.00  0.00    -0.319 OA 
BRANCH   8   9
HETATM    9  C   UNL     1     -12.050  13.799  64.720  1.00  0.00    -0.410 C  
HETATM   10  O   UNL     1     -12.651  14.460  63.890  1.00  0.00    -0.814 OA 
BRANCH   9  11
HETATM   11  C   UNL     1     -11.672  14.312  66.057  1.00  0.00    -0.384 A  
HETATM   12  C   UNL     1     -10.856  15.440  66.211  1.00  0.00    -0.301 A  
HETATM   13  C   UNL     1     -10.500  15.880  67.489  1.00  0.00    -0.298 A  
HETATM   14  C   UNL     1     -11.795  14.067  68.459  1.00  0.00    -0.399 A  
HETATM   15  C   UNL     1     -10.975  15.187  68.624  1.00  0.00    -0.255 A  
HETATM   16  C   UNL     1     -12.135  13.622  67.180  1.00  0.00    -0.404 A  
BRANCH  13  17
HETATM   17  O   UNL     1      -9.691  16.963  67.735  1.00  0.00    -0.242 OA 
HETATM   18  C   UNL     1      -9.415  17.843  66.654  1.00  0.00    -0.298 C  
ENDBRANCH  13  17
BRANCH  15  19
HETATM   19  O   UNL     1     -10.579  15.679  69.843  1.00  0.00    -0.278 OA 
HETATM   20  C   UNL     1     -11.310  15.260  70.987  1.00  0.00    -0.351 C  
ENDBRANCH  15  19
ENDBRANCH   9  11
ENDBRANCH   8   9
ENDBRANCH   7   8
ENDBRANCH   6   7
ENDBRANCH   5   6
ENDBRANCH   4   5
ENDBRANCH   3   4
BRANCH   3  21
HETATM   21  C   UNL     1      -9.339  10.476  68.505  1.00  0.00    -0.168 C  
HETATM   22  C   UNL     1      -8.913  11.927  68.217  1.00  0.00    -0.178 C  
BRANCH  21  23
HETATM   23  C   UNL     1     -10.597  10.502  69.423  1.00  0.00    -0.269 C  
BRANCH  23  24
HETATM   24  C   UNL     1     -10.548   9.590  70.632  1.00  0.00    -0.374 A  
HETATM   25  C   UNL     1      -9.265   8.314  72.263  1.00  0.00    -0.297 A  
HETATM   26  C   UNL     1     -10.441   7.847  72.846  1.00  0.00    -0.355 A  
HETATM   27  C   UNL     1     -11.724   9.106  71.216  1.00  0.00    -0.396 A  
HETATM   28  C   UNL     1     -11.669   8.252  72.321  1.00  0.00    -0.453 A  
HETATM   29  C   UNL     1      -9.319   9.178  71.163  1.00  0.00    -0.313 A  
BRANCH  26  30
HETATM   30  O   UNL     1     -10.518   7.047  73.953  1.00  0.00    -0.375 OA 
HETATM   31  C   UNL     1     -10.501   5.644  73.717  1.00  0.00    -0.270 C  
ENDBRANCH  26  30
ENDBRANCH  23  24
ENDBRANCH  21  23
ENDBRANCH   3  21
ENDBRANCH   2   3
TORSDOF 14
ENDMDL
MODEL       20
REMARK 921   NORMALIZED FREE ENERGY PREDICTED BY IDOCK:   -5.29 KCAL/MOL
REMARK 922        TOTAL FREE ENERGY PREDICTED BY IDOCK:  -12.41 KCAL/MOL
REMARK 923 INTER-LIGAND FREE ENERGY PREDICTED BY IDOCK:   -9.80 KCAL/MOL
REMARK 924 INTRA-LIGAND FREE ENERGY PREDICTED BY IDOCK:   -2.60 KCAL/MOL
REMARK 927      BINDING AFFINITY PREDICTED BY RF-SCORE:    0.00 PKD
ROOT
HETATM    1  C   UNL     1      -7.870   9.679  69.946  1.00  0.00    -0.157 C  
HETATM    2  C   UNL     1      -8.622   9.009  71.090  1.00  0.00    -0.190 C  
ENDROOT
BRANCH   2   3
HETATM    3  N   UNL     1      -9.482   7.869  70.755  1.00  0.00    -0.158 NA 
BRANCH   3   4
HETATM    4  C   UNL     1     -10.908   8.040  71.090  1.00  0.00    -0.238 C  
BRANCH   4   5
HETATM    5  C   UNL     1     -11.306   9.486  71.427  1.00  0.00    -0.462 C  
BRANCH   5   6
HETATM    6  C   UNL     1     -12.803   9.721  71.226  1.00  0.00    -0.472 C  
BRANCH   6   7
HETATM    7  C   UNL     1     -13.175  11.139  71.645  1.00  0.00    -0.345 C  
BRANCH   7   8
HETATM    8  O   UNL     1     -12.386  12.084  70.911  1.00  0.00    -0.373 OA 
BRANCH   8   9
HETATM    9  C   UNL     1     -12.545  13.379  71.282  1.00  0.00    -0.322 C  
HETATM   10  O   UNL     1     -13.049  13.783  72.317  1.00  0.00    -0.386 OA 
BRANCH   9  11
HETATM   11  C   UNL     1     -12.050  14.274  70.211  1.00  0.00    -0.403 A  
HETATM   12  C   UNL     1     -11.994  13.864  68.873  1.00  0.00    -0.393 A  
HETATM   13  C   UNL     1     -11.496  14.727  67.893  1.00  0.00    -0.342 A  
HETATM   14  C   UNL     1     -11.127  16.422  69.595  1.00  0.00    -0.306 A  
HETATM   15  C   UNL     1     -11.060  16.021  68.258  1.00  0.00    -0.351 A  
HETATM   16  C   UNL     1     -11.610  15.549  70.572  1.00  0.00    -0.371 A  
BRANCH  13  17
HETATM   17  O   UNL     1     -11.387  14.405  66.562  1.00  0.00    -0.331 OA 
HETATM   18  C   UNL     1     -12.569  14.017  65.876  1.00  0.00    -0.449 C  
ENDBRANCH  13  17
BRANCH  15  19
HETATM   19  O   UNL     1     -10.583  16.807  67.240  1.00  0.00    -0.320 OA 
HETATM   20  C   UNL     1     -10.629  18.216  67.423  1.00  0.00    -0.388 C  
ENDBRANCH  15  19
ENDBRANCH   9  11
ENDBRANCH   8   9
ENDBRANCH   7   8
ENDBRANCH   6   7
ENDBRANCH   5   6
ENDBRANCH   4   5
ENDBRANCH   3   4
BRANCH   3  21
HETATM   21  C   UNL     1      -9.280   7.238  69.427  1.00  0.00    -0.148 C  
HETATM   22  C   UNL     1      -8.948   5.736  69.463  1.00  0.00    -0.130 C  
BRANCH  21  23
HETATM   23  C   UNL     1     -10.442   7.465  68.414  1.00  0.00    -0.220 C  
BRANCH  23  24
HETATM   24  C   UNL     1     -10.278   8.643  67.477  1.00  0.00    -0.308 A  
HETATM   25  C   UNL     1     -10.734  10.969  66.909  1.00  0.00    -0.325 A  
HETATM   26  C   UNL     1     -10.030  10.831  65.715  1.00  0.00    -0.251 A  
HETATM   27  C   UNL     1      -9.584   8.511  66.268  1.00  0.00    -0.306 A  
HETATM   28  C   UNL     1      -9.452   9.600  65.403  1.00  0.00    -0.343 A  
HETATM   29  C   UNL     1     -10.857   9.881  67.783  1.00  0.00    -0.321 A  
BRANCH  26  30
HETATM   30  O   UNL     1      -9.793  11.830  64.810  1.00  0.00    -0.245 OA 
HETATM   31  C   UNL     1     -10.492  11.736  63.574  1.00  0.00    -0.449 C  
ENDBRANCH  26  30
ENDBRANCH  23  24
ENDBRANCH  21  23
ENDBRANCH   3  21
ENDBRANCH   2   3
TORSDOF 14
ENDMDL
MODEL       21
REMARK 921   NORMALIZED FREE ENERGY PREDICTED BY IDOCK:   -5.28 KCAL/MOL
REMARK 922        TOTAL FREE ENERGY PREDICTED BY IDOCK:  -12.39 KCAL/MOL
REMARK 923 INTER-LIGAND FREE ENERGY PREDICTED BY IDOCK:   -9.91 KCAL/MOL
REMARK 924 INTRA-LIGAND FREE ENERGY PREDICTED BY IDOCK:   -2.49 KCAL/MOL
REMARK 927      BINDING AFFINITY PREDICTED BY RF-SCORE:    0.00 PKD
ROOT
HETATM    1  C   UNL     1      -6.947   9.646  68.482  1.00  0.00    -0.065 C  
HETATM    2  C   UNL     1      -7.915   8.497  68.738  1.00  0.00    -0.119 C  
ENDROOT
BRANCH   2   3
HETATM    3  N   UNL     1      -9.050   8.355  67.819  1.00  0.00    -0.135 NA 
BRANCH   3   4
HETATM    4  C   UNL     1     -10.277   7.800  68.419  1.00  0.00    -0.200 C  
BRANCH   4   5
HETATM    5  C   UNL     1     -10.113   7.343  69.877  1.00  0.00    -0.195 C  
BRANCH   5   6
HETATM    6  C   UNL     1     -11.464   7.157  70.567  1.00  0.00    -0.334 C  
BRANCH   6   7
HETATM    7  C   UNL     1     -11.534   8.011  71.829  1.00  0.00    -0.277 C  
BRANCH   7   8
HETATM    8  O   UNL     1     -11.584   9.399  71.473  1.00  0.00    -0.346 OA 
BRANCH   8   9
HETATM    9  C   UNL     1     -12.795   9.989  71.630  1.00  0.00    -0.440 C  
HETATM   10  O   UNL     1     -13.839   9.439  71.938  1.00  0.00    -0.366 OA 
BRANCH   9  11
HETATM   11  C   UNL     1     -12.692  11.435  71.324  1.00  0.00    -0.498 A  
HETATM   12  C   UNL     1     -13.310  12.405  72.123  1.00  0.00    -0.508 A  
HETATM   13  C   UNL     1     -13.212  13.758  71.787  1.00  0.00    -0.386 A  
HETATM   14  C   UNL     1     -11.857  13.167  69.858  1.00  0.00    -0.378 A  
HETATM   15  C   UNL     1     -12.476  14.143  70.644  1.00  0.00    -0.362 A  
HETATM   16  C   UNL     1     -11.972  11.815  70.188  1.00  0.00    -0.421 A  
BRANCH  13  17
HETATM   17  O   UNL     1     -13.799  14.775  72.500  1.00  0.00    -0.448 OA 
HETATM   18  C   UNL     1     -13.061  15.346  73.571  1.00  0.00    -0.458 C  
ENDBRANCH  13  17
BRANCH  15  19
HETATM   19  O   UNL     1     -12.429  15.489  70.381  1.00  0.00    -0.400 OA 
HETATM   20  C   UNL     1     -11.173  16.040  70.009  1.00  0.00    -0.362 C  
ENDBRANCH  15  19
ENDBRANCH   9  11
ENDBRANCH   8   9
ENDBRANCH   7   8
ENDBRANCH   6   7
ENDBRANCH   5   6
ENDBRANCH   4   5
ENDBRANCH   3   4
BRANCH   3  21
HETATM   21  C   UNL     1      -9.326   9.492  66.906  1.00  0.00    -0.146 C  
HETATM   22  C   UNL     1      -9.229   9.162  65.406  1.00  0.00    -0.266 C  
BRANCH  21  23
HETATM   23  C   UNL     1     -10.676  10.225  67.166  1.00  0.00    -0.303 C  
BRANCH  23  24
HETATM   24  C   UNL     1     -10.679  11.715  66.895  1.00  0.00    -0.295 A  
HETATM   25  C   UNL     1      -9.577  13.885  67.015  1.00  0.00    -0.254 A  
HETATM   26  C   UNL     1     -10.692  14.500  66.450  1.00  0.00    -0.309 A  
HETATM   27  C   UNL     1     -11.800  12.343  66.340  1.00  0.00    -0.421 A  
HETATM   28  C   UNL     1     -11.799  13.722  66.109  1.00  0.00    -0.424 A  
HETATM   29  C   UNL     1      -9.572  12.502  67.237  1.00  0.00    -0.205 A  
BRANCH  26  30
HETATM   30  O   UNL     1     -10.796  15.827  66.135  1.00  0.00    -0.309 OA 
HETATM   31  C   UNL     1      -9.726  16.661  66.565  1.00  0.00    -0.274 C  
ENDBRANCH  26  30
ENDBRANCH  23  24
ENDBRANCH  21  23
ENDBRANCH   3  21
ENDBRANCH   2   3
TORSDOF 14
ENDMDL
MODEL       22
REMARK 921   NORMALIZED FREE ENERGY PREDICTED BY IDOCK:   -5.27 KCAL/MOL
REMARK 922        TOTAL FREE ENERGY PREDICTED BY IDOCK:  -12.38 KCAL/MOL
REMARK 923 INTER-LIGAND FREE ENERGY PREDICTED BY IDOCK:  -10.11 KCAL/MOL
REMARK 924 INTRA-LIGAND FREE ENERGY PREDICTED BY IDOCK:   -2.28 KCAL/MOL
REMARK 927      BINDING AFFINITY PREDICTED BY RF-SCORE:    0.00 PKD
ROOT
HETATM    1  C   UNL     1     -12.220  12.093  63.330  1.00  0.00    -0.635 C  
HETATM    2  C   UNL     1     -10.839  11.597  63.742  1.00  0.00    -0.424 C  
ENDROOT
BRANCH   2   3
HETATM    3  N   UNL     1     -10.214  12.232  64.907  1.00  0.00    -0.281 NA 
BRANCH   3   4
HETATM    4  C   UNL     1     -10.909  13.429  65.417  1.00  0.00    -0.294 C  
BRANCH   4   5
HETATM    5  C   UNL     1     -10.190  14.752  65.108  1.00  0.00    -0.410 C  
BRANCH   5   6
HETATM    6  C   UNL     1     -10.629  15.867  66.057  1.00  0.00    -0.331 C  
BRANCH   6   7
HETATM    7  C   UNL     1      -9.506  16.201  67.033  1.00  0.00    -0.222 C  
BRANCH   7   8
HETATM    8  O   UNL     1      -9.735  15.537  68.282  1.00  0.00    -0.199 OA 
BRANCH   8   9
HETATM    9  C   UNL     1     -10.594  16.168  69.122  1.00  0.00    -0.276 C  
HETATM   10  O   UNL     1     -10.736  17.372  69.247  1.00  0.00    -0.220 OA 
BRANCH   9  11
HETATM   11  C   UNL     1     -11.333  15.169  69.927  1.00  0.00    -0.309 A  
HETATM   12  C   UNL     1     -11.901  15.493  71.166  1.00  0.00    -0.435 A  
HETATM   13  C   UNL     1     -12.570  14.516  71.909  1.00  0.00    -0.341 A  
HETATM   14  C   UNL     1     -12.116  12.893  70.158  1.00  0.00    -0.373 A  
HETATM   15  C   UNL     1     -12.680  13.203  71.399  1.00  0.00    -0.297 A  
HETATM   16  C   UNL     1     -11.435  13.868  69.427  1.00  0.00    -0.334 A  
BRANCH  13  17
HETATM   17  O   UNL     1     -13.140  14.737  73.139  1.00  0.00    -0.485 OA 
HETATM   18  C   UNL     1     -12.564  15.739  73.965  1.00  0.00    -0.623 C  
ENDBRANCH  13  17
BRANCH  15  19
HETATM   19  O   UNL     1     -13.348  12.302  72.188  1.00  0.00    -0.526 OA 
HETATM   20  C   UNL     1     -13.148  10.920  71.920  1.00  0.00    -0.432 C  
ENDBRANCH  15  19
ENDBRANCH   9  11
ENDBRANCH   8   9
ENDBRANCH   7   8
ENDBRANCH   6   7
ENDBRANCH   5   6
ENDBRANCH   4   5
ENDBRANCH   3   4
BRANCH   3  21
HETATM   21  C   UNL     1      -9.750  11.335  65.995  1.00  0.00    -0.220 C  
HETATM   22  C   UNL     1      -8.451  11.777  66.694  1.00  0.00    -0.153 C  
BRANCH  21  23
HETATM   23  C   UNL     1     -10.818  11.026  67.086  1.00  0.00    -0.336 C  
BRANCH  23  24
HETATM   24  C   UNL     1     -10.649   9.712  67.819  1.00  0.00    -0.320 A  
HETATM   25  C   UNL     1     -10.531   7.278  67.790  1.00  0.00    -0.292 A  
HETATM   26  C   UNL     1     -10.393   7.253  69.177  1.00  0.00    -0.205 A  
HETATM   27  C   UNL     1     -10.522   9.676  69.213  1.00  0.00    -0.232 A  
HETATM   28  C   UNL     1     -10.383   8.457  69.882  1.00  0.00    -0.210 A  
HETATM   29  C   UNL     1     -10.660   8.499  67.117  1.00  0.00    -0.314 A  
BRANCH  26  30
HETATM   30  O   UNL     1     -10.204   6.132  69.938  1.00  0.00    -0.172 OA 
HETATM   31  C   UNL     1     -10.273   6.311  71.348  1.00  0.00    -0.201 C  
ENDBRANCH  26  30
ENDBRANCH  23  24
ENDBRANCH  21  23
ENDBRANCH   3  21
ENDBRANCH   2   3
TORSDOF 14
ENDMDL
MODEL       23
REMARK 921   NORMALIZED FREE ENERGY PREDICTED BY IDOCK:   -5.27 KCAL/MOL
REMARK 922        TOTAL FREE ENERGY PREDICTED BY IDOCK:  -12.37 KCAL/MOL
REMARK 923 INTER-LIGAND FREE ENERGY PREDICTED BY IDOCK:  -10.12 KCAL/MOL
REMARK 924 INTRA-LIGAND FREE ENERGY PREDICTED BY IDOCK:   -2.26 KCAL/MOL
REMARK 927      BINDING AFFINITY PREDICTED BY RF-SCORE:    0.00 PKD
ROOT
HETATM    1  C   UNL     1     -13.950   8.345  71.973  1.00  0.00    -0.468 C  
HETATM    2  C   UNL     1     -12.487   8.054  72.288  1.00  0.00    -0.261 C  
ENDROOT
BRANCH   2   3
HETATM    3  N   UNL     1     -11.526   8.164  71.185  1.00  0.00    -0.272 NA 
BRANCH   3   4
HETATM    4  C   UNL     1     -11.906   7.457  69.948  1.00  0.00     0.266 C  
BRANCH   4   5
HETATM    5  C   UNL     1     -11.060   6.208  69.653  1.00  0.00    -0.489 C  
BRANCH   5   6
HETATM    6  C   UNL     1     -10.101   6.439  68.485  1.00  0.00    -0.173 C  
BRANCH   6   7
HETATM    7  C   UNL     1     -10.850   7.031  67.296  1.00  0.00    -0.333 C  
BRANCH   7   8
HETATM    8  O   UNL     1     -10.681   8.454  67.275  1.00  0.00    -0.285 OA 
BRANCH   8   9
HETATM    9  C   UNL     1      -9.700   8.905  66.454  1.00  0.00    -0.262 C  
HETATM   10  O   UNL     1      -8.782   8.251  65.989  1.00  0.00    -0.138 OA 
BRANCH   9  11
HETATM   11  C   UNL     1      -9.868  10.358  66.221  1.00  0.00    -0.272 A  
HETATM   12  C   UNL     1     -10.629  10.852  65.155  1.00  0.00    -0.268 A  
HETATM   13  C   UNL     1     -10.744  12.230  64.952  1.00  0.00    -0.297 A  
HETATM   14  C   UNL     1      -9.346  12.619  66.902  1.00  0.00    -0.228 A  
HETATM   15  C   UNL     1     -10.097  13.123  65.836  1.00  0.00    -0.290 A  
HETATM   16  C   UNL     1      -9.221  11.241  67.090  1.00  0.00    -0.169 A  
BRANCH  13  17
HETATM   17  O   UNL     1     -11.453  12.803  63.924  1.00  0.00    -0.382 OA 
HETATM   18  C   UNL     1     -12.534  12.065  63.373  1.00  0.00    -0.509 C  
ENDBRANCH  13  17
BRANCH  15  19
HETATM   19  O   UNL     1     -10.256  14.459  65.569  1.00  0.00    -0.323 OA 
HETATM   20  C   UNL     1      -9.496  15.377  66.343  1.00  0.00    -0.296 C  
ENDBRANCH  15  19
ENDBRANCH   9  11
ENDBRANCH   8   9
ENDBRANCH   7   8
ENDBRANCH   6   7
ENDBRANCH   5   6
ENDBRANCH   4   5
ENDBRANCH   3   4
BRANCH   3  21
HETATM   21  C   UNL     1     -10.954   9.509  70.921  1.00  0.00    -0.337 C  
HETATM   22  C   UNL     1      -9.481   9.514  70.476  1.00  0.00    -0.306 C  
BRANCH  21  23
HETATM   23  C   UNL     1     -11.776  10.382  69.925  1.00  0.00    -0.341 C  
BRANCH  23  24
HETATM   24  C   UNL     1     -12.255  11.715  70.461  1.00  0.00    -0.451 A  
HETATM   25  C   UNL     1     -12.314  14.148  70.326  1.00  0.00    -0.421 A  
HETATM   26  C   UNL     1     -13.093  14.208  71.480  1.00  0.00    -0.353 A  
HETATM   27  C   UNL     1     -13.027  11.787  71.627  1.00  0.00    -0.467 A  
HETATM   28  C   UNL     1     -13.451  13.023  72.122  1.00  0.00    -0.638 A  
HETATM   29  C   UNL     1     -11.898  12.909  69.821  1.00  0.00    -0.380 A  
BRANCH  26  30
HETATM   30  O   UNL     1     -13.605  15.348  72.036  1.00  0.00    -0.410 OA 
HETATM   31  C   UNL     1     -13.025  15.762  73.267  1.00  0.00    -0.565 C  
ENDBRANCH  26  30
ENDBRANCH  23  24
ENDBRANCH  21  23
ENDBRANCH   3  21
ENDBRANCH   2   3
TORSDOF 14
ENDMDL
MODEL       24
REMARK 921   NORMALIZED FREE ENERGY PREDICTED BY IDOCK:   -5.27 KCAL/MOL
REMARK 922        TOTAL FREE ENERGY PREDICTED BY IDOCK:  -12.37 KCAL/MOL
REMARK 923 INTER-LIGAND FREE ENERGY PREDICTED BY IDOCK:  -10.41 KCAL/MOL
REMARK 924 INTRA-LIGAND FREE ENERGY PREDICTED BY IDOCK:   -1.96 KCAL/MOL
REMARK 927      BINDING AFFINITY PREDICTED BY RF-SCORE:    0.00 PKD
ROOT
HETATM    1  C   UNL     1     -10.887   5.947  68.292  1.00  0.00    -0.325 C  
HETATM    2  C   UNL     1     -10.642   7.199  67.458  1.00  0.00    -0.278 C  
ENDROOT
BRANCH   2   3
HETATM    3  N   UNL     1     -10.749   8.494  68.140  1.00  0.00    -0.107 NA 
BRANCH   3   4
HETATM    4  C   UNL     1     -10.665   8.438  69.611  1.00  0.00    -0.198 C  
BRANCH   4   5
HETATM    5  C   UNL     1     -11.305   9.639  70.324  1.00  0.00    -0.311 C  
BRANCH   5   6
HETATM    6  C   UNL     1     -12.366   9.198  71.333  1.00  0.00    -0.404 C  
BRANCH   6   7
HETATM    7  C   UNL     1     -13.174  10.401  71.807  1.00  0.00    -0.424 C  
BRANCH   7   8
HETATM    8  O   UNL     1     -12.814  11.559  71.044  1.00  0.00    -0.336 OA 
BRANCH   8   9
HETATM    9  C   UNL     1     -13.066  12.748  71.648  1.00  0.00    -0.331 C  
HETATM   10  O   UNL     1     -13.822  12.942  72.584  1.00  0.00    -0.596 OA 
BRANCH   9  11
HETATM   11  C   UNL     1     -12.310  13.826  70.970  1.00  0.00    -0.452 A  
HETATM   12  C   UNL     1     -11.592  13.595  69.790  1.00  0.00    -0.322 A  
HETATM   13  C   UNL     1     -10.868  14.631  69.193  1.00  0.00    -0.259 A  
HETATM   14  C   UNL     1     -11.601  16.137  70.954  1.00  0.00    -0.406 A  
HETATM   15  C   UNL     1     -10.875  15.916  69.781  1.00  0.00    -0.328 A  
HETATM   16  C   UNL     1     -12.308  15.094  71.555  1.00  0.00    -0.409 A  
BRANCH  13  17
HETATM   17  O   UNL     1     -10.122  14.493  68.048  1.00  0.00    -0.220 OA 
HETATM   18  C   UNL     1      -8.888  13.796  68.143  1.00  0.00    -0.185 C  
ENDBRANCH  13  17
BRANCH  15  19
HETATM   19  O   UNL     1     -10.139  16.879  69.137  1.00  0.00    -0.278 OA 
HETATM   20  C   UNL     1     -10.783  17.617  68.107  1.00  0.00    -0.307 C  
ENDBRANCH  15  19
ENDBRANCH   9  11
ENDBRANCH   8   9
ENDBRANCH   7   8
ENDBRANCH   6   7
ENDBRANCH   5   6
ENDBRANCH   4   5
ENDBRANCH   3   4
BRANCH   3  21
HETATM   21  C   UNL     1      -9.973   9.623  67.568  1.00  0.00    -0.183 C  
HETATM   22  C   UNL     1      -8.510   9.713  68.037  1.00  0.00    -0.118 C  
BRANCH  21  23
HETATM   23  C   UNL     1     -10.001   9.711  66.012  1.00  0.00    -0.344 C  
BRANCH  23  24
HETATM   24  C   UNL     1     -10.654  10.950  65.435  1.00  0.00    -0.243 A  
HETATM   25  C   UNL     1     -10.999  12.481  63.570  1.00  0.00    -0.472 A  
HETATM   26  C   UNL     1     -11.816  13.285  64.362  1.00  0.00    -0.399 A  
HETATM   27  C   UNL     1     -11.465  11.771  66.226  1.00  0.00    -0.296 A  
HETATM   28  C   UNL     1     -12.050  12.921  65.689  1.00  0.00    -0.511 A  
HETATM   29  C   UNL     1     -10.421  11.322  64.104  1.00  0.00    -0.431 A  
BRANCH  26  30
HETATM   30  O   UNL     1     -12.479  14.405  63.941  1.00  0.00    -0.798 OA 
HETATM   31  C   UNL     1     -11.999  15.646  64.447  1.00  0.00    -0.136 C  
ENDBRANCH  26  30
ENDBRANCH  23  24
ENDBRANCH  21  23
ENDBRANCH   3  21
ENDBRANCH   2   3
TORSDOF 14
ENDMDL
MODEL       25
REMARK 921   NORMALIZED FREE ENERGY PREDICTED BY IDOCK:   -5.26 KCAL/MOL
REMARK 922        TOTAL FREE ENERGY PREDICTED BY IDOCK:  -12.36 KCAL/MOL
REMARK 923 INTER-LIGAND FREE ENERGY PREDICTED BY IDOCK:   -9.90 KCAL/MOL
REMARK 924 INTRA-LIGAND FREE ENERGY PREDICTED BY IDOCK:   -2.45 KCAL/MOL
REMARK 927      BINDING AFFINITY PREDICTED BY RF-SCORE:    0.00 PKD
ROOT
HETATM    1  C   UNL     1      -8.966   8.584  65.918  1.00  0.00    -0.235 C  
HETATM    2  C   UNL     1      -8.283   9.783  66.566  1.00  0.00    -0.120 C  
ENDROOT
BRANCH   2   3
HETATM    3  N   UNL     1      -9.018  11.053  66.579  1.00  0.00    -0.167 NA 
BRANCH   3   4
HETATM    4  C   UNL     1     -10.262  11.065  65.789  1.00  0.00    -0.260 C  
BRANCH   4   5
HETATM    5  C   UNL     1     -10.149  11.807  64.448  1.00  0.00    -0.319 C  
BRANCH   5   6
HETATM    6  C   UNL     1     -11.336  11.506  63.533  1.00  0.00    -0.375 C  
BRANCH   6   7
HETATM    7  C   UNL     1     -12.181  12.761  63.336  1.00  0.00    -0.504 C  
BRANCH   7   8
HETATM    8  O   UNL     1     -11.655  13.830  64.133  1.00  0.00    -0.381 OA 
BRANCH   8   9
HETATM    9  C   UNL     1     -12.359  14.110  65.258  1.00  0.00    -0.460 C  
HETATM   10  O   UNL     1     -13.503  13.767  65.505  1.00  0.00    -0.591 OA 
BRANCH   9  11
HETATM   11  C   UNL     1     -11.545  14.955  66.162  1.00  0.00    -0.228 A  
HETATM   12  C   UNL     1     -11.834  15.065  67.528  1.00  0.00    -0.185 A  
HETATM   13  C   UNL     1     -11.059  15.893  68.345  1.00  0.00    -0.345 A  
HETATM   14  C   UNL     1      -9.692  16.485  66.425  1.00  0.00    -0.305 A  
HETATM   15  C   UNL     1      -9.976  16.609  67.788  1.00  0.00    -0.262 A  
HETATM   16  C   UNL     1     -10.480  15.670  65.610  1.00  0.00    -0.402 A  
BRANCH  13  17
HETATM   17  O   UNL     1     -11.279  16.077  69.689  1.00  0.00    -0.294 OA 
HETATM   18  C   UNL     1     -11.315  14.924  70.518  1.00  0.00    -0.235 C  
ENDBRANCH  13  17
BRANCH  15  19
HETATM   19  O   UNL     1      -9.265  17.401  68.654  1.00  0.00    -0.270 OA 
HETATM   20  C   UNL     1      -9.321  18.807  68.453  1.00  0.00    -0.343 C  
ENDBRANCH  15  19
ENDBRANCH   9  11
ENDBRANCH   8   9
ENDBRANCH   7   8
ENDBRANCH   6   7
ENDBRANCH   5   6
ENDBRANCH   4   5
ENDBRANCH   3   4
BRANCH   3  21
HETATM   21  C   UNL     1      -9.168  11.732  67.890  1.00  0.00    -0.181 C  
HETATM   22  C   UNL     1      -8.594  13.158  67.955  1.00  0.00    -0.182 C  
BRANCH  21  23
HETATM   23  C   UNL     1     -10.623  11.758  68.448  1.00  0.00    -0.239 C  
BRANCH  23  24
HETATM   24  C   UNL     1     -10.902  10.820  69.604  1.00  0.00    -0.294 A  
HETATM   25  C   UNL     1     -10.217   8.968  71.033  1.00  0.00    -0.347 A  
HETATM   26  C   UNL     1     -11.430   9.028  71.717  1.00  0.00    -0.372 A  
HETATM   27  C   UNL     1     -12.122  10.864  70.288  1.00  0.00    -0.440 A  
HETATM   28  C   UNL     1     -12.376   9.983  71.343  1.00  0.00    -0.512 A  
HETATM   29  C   UNL     1      -9.956   9.857  69.983  1.00  0.00    -0.302 A  
BRANCH  26  30
HETATM   30  O   UNL     1     -11.778   8.254  72.790  1.00  0.00    -0.397 OA 
HETATM   31  C   UNL     1     -10.857   7.231  73.152  1.00  0.00    -0.357 C  
ENDBRANCH  26  30
ENDBRANCH  23  24
ENDBRANCH  21  23
ENDBRANCH   3  21
ENDBRANCH   2   3
TORSDOF 14
ENDMDL
MODEL       26
REMARK 921   NORMALIZED FREE ENERGY PREDICTED BY IDOCK:   -5.26 KCAL/MOL
REMARK 922        TOTAL FREE ENERGY PREDICTED BY IDOCK:  -12.35 KCAL/MOL
REMARK 923 INTER-LIGAND FREE ENERGY PREDICTED BY IDOCK:  -10.59 KCAL/MOL
REMARK 924 INTRA-LIGAND FREE ENERGY PREDICTED BY IDOCK:   -1.76 KCAL/MOL
REMARK 927      BINDING AFFINITY PREDICTED BY RF-SCORE:    0.00 PKD
ROOT
HETATM    1  C   UNL     1     -11.961  12.678  63.346  1.00  0.00    -0.613 C  
HETATM    2  C   UNL     1     -10.869  12.666  64.409  1.00  0.00    -0.356 C  
ENDROOT
BRANCH   2   3
HETATM    3  N   UNL     1     -11.261  13.001  65.783  1.00  0.00    -0.285 NA 
BRANCH   3   4
HETATM    4  C   UNL     1     -11.486  11.845  66.670  1.00  0.00    -0.314 C  
BRANCH   4   5
HETATM    5  C   UNL     1     -10.761  10.564  66.230  1.00  0.00    -0.139 C  
BRANCH   5   6
HETATM    6  C   UNL     1      -9.867  10.010  67.340  1.00  0.00    -0.226 C  
BRANCH   6   7
HETATM    7  C   UNL     1     -10.716   9.530  68.511  1.00  0.00    -0.182 C  
BRANCH   7   8
HETATM    8  O   UNL     1     -10.745  10.534  69.534  1.00  0.00    -0.225 OA 
BRANCH   8   9
HETATM    9  C   UNL     1     -11.784  10.443  70.400  1.00  0.00    -0.331 C  
HETATM   10  O   UNL     1     -12.306   9.419  70.808  1.00  0.00    -0.236 OA 
BRANCH   9  11
HETATM   11  C   UNL     1     -12.251  11.800  70.768  1.00  0.00    -0.424 A  
HETATM   12  C   UNL     1     -11.859  12.936  70.050  1.00  0.00    -0.356 A  
HETATM   13  C   UNL     1     -12.300  14.203  70.443  1.00  0.00    -0.359 A  
HETATM   14  C   UNL     1     -13.542  13.189  72.269  1.00  0.00    -0.677 A  
HETATM   15  C   UNL     1     -13.151  14.330  71.564  1.00  0.00    -0.343 A  
HETATM   16  C   UNL     1     -13.085  11.927  71.882  1.00  0.00    -0.474 A  
BRANCH  13  17
HETATM   17  O   UNL     1     -11.952  15.372  69.811  1.00  0.00    -0.323 OA 
HETATM   18  C   UNL     1     -10.743  16.004  70.205  1.00  0.00    -0.312 C  
ENDBRANCH  13  17
BRANCH  15  19
HETATM   19  O   UNL     1     -13.537  15.606  71.888  1.00  0.00    -0.471 OA 
HETATM   20  C   UNL     1     -13.294  16.047  73.217  1.00  0.00    -0.532 C  
ENDBRANCH  15  19
ENDBRANCH   9  11
ENDBRANCH   8   9
ENDBRANCH   7   8
ENDBRANCH   6   7
ENDBRANCH   5   6
ENDBRANCH   4   5
ENDBRANCH   3   4
BRANCH   3  21
HETATM   21  C   UNL     1     -10.511  14.095  66.450  1.00  0.00    -0.283 C  
HETATM   22  C   UNL     1      -9.552  13.641  67.564  1.00  0.00    -0.220 C  
BRANCH  21  23
HETATM   23  C   UNL     1      -9.736  15.038  65.482  1.00  0.00    -0.294 C  
BRANCH  23  24
HETATM   24  C   UNL     1      -9.429  16.422  66.017  1.00  0.00    -0.345 A  
HETATM   25  C   UNL     1      -7.813  18.091  66.752  1.00  0.00    -0.260 A  
HETATM   26  C   UNL     1      -8.845  18.973  67.068  1.00  0.00    -0.294 A  
HETATM   27  C   UNL     1     -10.459  17.309  66.350  1.00  0.00    -0.263 A  
HETATM   28  C   UNL     1     -10.167  18.577  66.859  1.00  0.00    -0.411 A  
HETATM   29  C   UNL     1      -8.104  16.824  66.231  1.00  0.00    -0.365 A  
BRANCH  26  30
HETATM   30  O   UNL     1      -8.687  20.252  67.528  1.00  0.00    -0.335 OA 
HETATM   31  C   UNL     1      -7.378  20.801  67.421  1.00  0.00    -0.339 C  
ENDBRANCH  26  30
ENDBRANCH  23  24
ENDBRANCH  21  23
ENDBRANCH   3  21
ENDBRANCH   2   3
TORSDOF 14
ENDMDL
MODEL       27
REMARK 921   NORMALIZED FREE ENERGY PREDICTED BY IDOCK:   -5.26 KCAL/MOL
REMARK 922        TOTAL FREE ENERGY PREDICTED BY IDOCK:  -12.35 KCAL/MOL
REMARK 923 INTER-LIGAND FREE ENERGY PREDICTED BY IDOCK:   -9.52 KCAL/MOL
REMARK 924 INTRA-LIGAND FREE ENERGY PREDICTED BY IDOCK:   -2.83 KCAL/MOL
REMARK 927      BINDING AFFINITY PREDICTED BY RF-SCORE:    0.00 PKD
ROOT
HETATM    1  C   UNL     1     -10.387  19.419  66.067  1.00  0.00    -0.584 C  
HETATM    2  C   UNL     1     -10.041  18.364  67.111  1.00  0.00    -0.353 C  
ENDROOT
BRANCH   2   3
HETATM    3  N   UNL     1     -10.205  16.957  66.729  1.00  0.00    -0.299 NA 
BRANCH   3   4
HETATM    4  C   UNL     1     -10.770  16.734  65.385  1.00  0.00    -0.189 C  
BRANCH   4   5
HETATM    5  C   UNL     1     -10.585  15.304  64.854  1.00  0.00    -0.379 C  
BRANCH   5   6
HETATM    6  C   UNL     1     -11.924  14.652  64.510  1.00  0.00    -0.473 C  
BRANCH   6   7
HETATM    7  C   UNL     1     -12.453  13.869  65.707  1.00  0.00    -0.495 C  
BRANCH   7   8
HETATM    8  O   UNL     1     -12.650  12.497  65.342  1.00  0.00    -0.656 OA 
BRANCH   8   9
HETATM    9  C   UNL     1     -11.532  11.843  64.937  1.00  0.00    -0.253 C  
HETATM   10  O   UNL     1     -11.283  11.458  63.808  1.00  0.00    -0.399 OA 
BRANCH   9  11
HETATM   11  C   UNL     1     -10.640  11.610  66.096  1.00  0.00    -0.306 A  
HETATM   12  C   UNL     1     -11.050  10.860  67.205  1.00  0.00    -0.350 A  
HETATM   13  C   UNL     1     -10.188  10.684  68.292  1.00  0.00    -0.166 A  
HETATM   14  C   UNL     1      -8.495  11.997  67.144  1.00  0.00    -0.180 A  
HETATM   15  C   UNL     1      -8.897  11.257  68.260  1.00  0.00    -0.158 A  
HETATM   16  C   UNL     1      -9.366  12.184  66.069  1.00  0.00    -0.174 A  
BRANCH  13  17
HETATM   17  O   UNL     1     -10.511   9.981  69.427  1.00  0.00    -0.202 OA 
HETATM   18  C   UNL     1     -10.619   8.568  69.323  1.00  0.00    -0.181 C  
ENDBRANCH  13  17
BRANCH  15  19
HETATM   19  O   UNL     1      -8.112  11.041  69.364  1.00  0.00    -0.067 OA 
HETATM   20  C   UNL     1      -6.712  11.237  69.222  1.00  0.00    -0.110 C  
ENDBRANCH  15  19
ENDBRANCH   9  11
ENDBRANCH   8   9
ENDBRANCH   7   8
ENDBRANCH   6   7
ENDBRANCH   5   6
ENDBRANCH   4   5
ENDBRANCH   3   4
BRANCH   3  21
HETATM   21  C   UNL     1      -9.077  16.040  67.032  1.00  0.00    -0.214 C  
HETATM   22  C   UNL     1      -7.701  16.511  66.531  1.00  0.00    -0.323 C  
BRANCH  21  23
HETATM   23  C   UNL     1      -8.948  15.640  68.533  1.00  0.00    -0.192 C  
BRANCH  23  24
HETATM   24  C   UNL     1     -10.241  15.272  69.230  1.00  0.00    -0.250 A  
HETATM   25  C   UNL     1     -11.959  15.759  70.889  1.00  0.00    -0.453 A  
HETATM   26  C   UNL     1     -12.618  14.571  70.576  1.00  0.00    -0.351 A  
HETATM   27  C   UNL     1     -10.904  14.075  68.932  1.00  0.00    -0.278 A  
HETATM   28  C   UNL     1     -12.088  13.736  69.592  1.00  0.00    -0.392 A  
HETATM   29  C   UNL     1     -10.778  16.105  70.220  1.00  0.00    -0.235 A  
BRANCH  26  30
HETATM   30  O   UNL     1     -13.803  14.152  71.117  1.00  0.00    -0.251 OA 
HETATM   31  C   UNL     1     -13.722  13.502  72.380  1.00  0.00    -0.602 C  
ENDBRANCH  26  30
ENDBRANCH  23  24
ENDBRANCH  21  23
ENDBRANCH   3  21
ENDBRANCH   2   3
TORSDOF 14
ENDMDL
MODEL       28
REMARK 921   NORMALIZED FREE ENERGY PREDICTED BY IDOCK:   -5.25 KCAL/MOL
REMARK 922        TOTAL FREE ENERGY PREDICTED BY IDOCK:  -12.34 KCAL/MOL
REMARK 923 INTER-LIGAND FREE ENERGY PREDICTED BY IDOCK:   -9.60 KCAL/MOL
REMARK 924 INTRA-LIGAND FREE ENERGY PREDICTED BY IDOCK:   -2.74 KCAL/MOL
REMARK 927      BINDING AFFINITY PREDICTED BY RF-SCORE:    0.00 PKD
ROOT
HETATM    1  C   UNL     1     -11.463  15.963  64.400  1.00  0.00    -0.268 C  
HETATM    2  C   UNL     1     -10.870  15.420  65.695  1.00  0.00    -0.355 C  
ENDROOT
BRANCH   2   3
HETATM    3  N   UNL     1     -11.763  14.665  66.582  1.00  0.00    -0.362 NA 
BRANCH   3   4
HETATM    4  C   UNL     1     -12.755  13.815  65.898  1.00  0.00    -0.401 C  
BRANCH   4   5
HETATM    5  C   UNL     1     -12.220  12.435  65.483  1.00  0.00    -0.356 C  
BRANCH   5   6
HETATM    6  C   UNL     1     -12.135  12.296  63.963  1.00  0.00    -0.563 C  
BRANCH   6   7
HETATM    7  C   UNL     1     -10.679  12.170  63.526  1.00  0.00    -0.457 C  
BRANCH   7   8
HETATM    8  O   UNL     1      -9.877  11.733  64.631  1.00  0.00    -0.244 OA 
BRANCH   8   9
HETATM    9  C   UNL     1      -9.456  10.445  64.562  1.00  0.00    -0.286 C  
HETATM   10  O   UNL     1      -9.188   9.820  63.550  1.00  0.00    -0.263 OA 
BRANCH   9  11
HETATM   11  C   UNL     1      -9.403   9.861  65.922  1.00  0.00    -0.245 A  
HETATM   12  C   UNL     1      -9.548   8.485  66.141  1.00  0.00    -0.276 A  
HETATM   13  C   UNL     1      -9.519   7.974  67.442  1.00  0.00    -0.151 A  
HETATM   14  C   UNL     1      -9.179  10.221  68.302  1.00  0.00    -0.139 A  
HETATM   15  C   UNL     1      -9.330   8.851  68.533  1.00  0.00    -0.140 A  
HETATM   16  C   UNL     1      -9.226  10.729  67.002  1.00  0.00    -0.166 A  
BRANCH  13  17
HETATM   17  O   UNL     1      -9.671   6.645  67.752  1.00  0.00    -0.122 OA 
HETATM   18  C   UNL     1     -10.834   5.982  67.277  1.00  0.00    -0.315 C  
ENDBRANCH  13  17
BRANCH  15  19
HETATM   19  O   UNL     1      -9.316   8.273  69.777  1.00  0.00    -0.157 OA 
HETATM   20  C   UNL     1      -9.291   9.140  70.903  1.00  0.00    -0.269 C  
ENDBRANCH  15  19
ENDBRANCH   9  11
ENDBRANCH   8   9
ENDBRANCH   7   8
ENDBRANCH   6   7
ENDBRANCH   5   6
ENDBRANCH   4   5
ENDBRANCH   3   4
BRANCH   3  21
HETATM   21  C   UNL     1     -11.142  13.991  67.749  1.00  0.00    -0.267 C  
HETATM   22  C   UNL     1      -9.614  14.144  67.853  1.00  0.00    -0.223 C  
BRANCH  21  23
HETATM   23  C   UNL     1     -11.772  14.358  69.126  1.00  0.00    -0.354 C  
BRANCH  23  24
HETATM   24  C   UNL     1     -12.220  13.189  69.977  1.00  0.00    -0.323 A  
HETATM   25  C   UNL     1     -13.202  12.329  72.035  1.00  0.00    -0.508 A  
HETATM   26  C   UNL     1     -13.007  11.020  71.599  1.00  0.00    -0.456 A  
HETATM   27  C   UNL     1     -12.016  11.870  69.554  1.00  0.00    -0.355 A  
HETATM   28  C   UNL     1     -12.419  10.798  70.354  1.00  0.00    -0.430 A  
HETATM   29  C   UNL     1     -12.810  13.406  71.230  1.00  0.00    -0.407 A  
BRANCH  26  30
HETATM   30  O   UNL     1     -13.397   9.892  72.268  1.00  0.00    -0.435 OA 
HETATM   31  C   UNL     1     -13.951   8.850  71.473  1.00  0.00    -0.307 C  
ENDBRANCH  26  30
ENDBRANCH  23  24
ENDBRANCH  21  23
ENDBRANCH   3  21
ENDBRANCH   2   3
TORSDOF 14
ENDMDL
MODEL       29
REMARK 921   NORMALIZED FREE ENERGY PREDICTED BY IDOCK:   -5.25 KCAL/MOL
REMARK 922        TOTAL FREE ENERGY PREDICTED BY IDOCK:  -12.33 KCAL/MOL
REMARK 923 INTER-LIGAND FREE ENERGY PREDICTED BY IDOCK:  -10.09 KCAL/MOL
REMARK 924 INTRA-LIGAND FREE ENERGY PREDICTED BY IDOCK:   -2.24 KCAL/MOL
REMARK 927      BINDING AFFINITY PREDICTED BY RF-SCORE:    0.00 PKD
ROOT
HETATM    1  C   UNL     1      -6.272  10.799  66.310  1.00  0.00    -0.130 C  
HETATM    2  C   UNL     1      -7.318  11.108  67.375  1.00  0.00    -0.108 C  
ENDROOT
BRANCH   2   3
HETATM    3  N   UNL     1      -8.500  10.241  67.432  1.00  0.00    -0.125 NA 
BRANCH   3   4
HETATM    4  C   UNL     1      -8.921   9.669  66.139  1.00  0.00    -0.154 C  
BRANCH   4   5
HETATM    5  C   UNL     1     -10.144  10.360  65.515  1.00  0.00    -0.352 C  
BRANCH   5   6
HETATM    6  C   UNL     1      -9.747  11.265  64.348  1.00  0.00    -0.293 C  
BRANCH   6   7
HETATM    7  C   UNL     1     -10.977  11.637  63.528  1.00  0.00    -0.407 C  
BRANCH   7   8
HETATM    8  O   UNL     1     -11.308  13.015  63.746  1.00  0.00    -0.407 OA 
BRANCH   8   9
HETATM    9  C   UNL     1     -12.154  13.247  64.780  1.00  0.00    -0.409 C  
HETATM   10  O   UNL     1     -13.259  12.756  64.941  1.00  0.00    -0.808 OA 
BRANCH   9  11
HETATM   11  C   UNL     1     -11.560  14.242  65.702  1.00  0.00    -0.346 A  
HETATM   12  C   UNL     1     -11.602  14.080  67.092  1.00  0.00    -0.397 A  
HETATM   13  C   UNL     1     -11.053  15.054  67.931  1.00  0.00    -0.307 A  
HETATM   14  C   UNL     1     -10.403  16.347  65.979  1.00  0.00    -0.365 A  
HETATM   15  C   UNL     1     -10.446  16.199  67.368  1.00  0.00    -0.310 A  
HETATM   16  C   UNL     1     -10.968  15.379  65.146  1.00  0.00    -0.430 A  
BRANCH  13  17
HETATM   17  O   UNL     1     -11.065  14.988  69.303  1.00  0.00    -0.246 OA 
HETATM   18  C   UNL     1     -12.291  15.257  69.968  1.00  0.00    -0.328 C  
ENDBRANCH  13  17
BRANCH  15  19
HETATM   19  O   UNL     1      -9.933  17.110  68.256  1.00  0.00    -0.270 OA 
HETATM   20  C   UNL     1     -10.286  18.474  68.073  1.00  0.00    -0.383 C  
ENDBRANCH  15  19
ENDBRANCH   9  11
ENDBRANCH   8   9
ENDBRANCH   7   8
ENDBRANCH   6   7
ENDBRANCH   5   6
ENDBRANCH   4   5
ENDBRANCH   3   4
BRANCH   3  21
HETATM   21  C   UNL     1      -8.558   9.253  68.538  1.00  0.00    -0.128 C  
HETATM   22  C   UNL     1      -8.044   9.764  69.896  1.00  0.00    -0.192 C  
BRANCH  21  23
HETATM   23  C   UNL     1      -9.955   8.597  68.753  1.00  0.00    -0.194 C  
BRANCH  23  24
HETATM   24  C   UNL     1     -10.899   9.343  69.673  1.00  0.00    -0.245 A  
HETATM   25  C   UNL     1     -12.231  11.321  70.178  1.00  0.00    -0.410 A  
HETATM   26  C   UNL     1     -12.610  10.771  71.401  1.00  0.00    -0.410 A  
HETATM   27  C   UNL     1     -11.274   8.805  70.909  1.00  0.00    -0.320 A  
HETATM   28  C   UNL     1     -12.132   9.510  71.758  1.00  0.00    -0.459 A  
HETATM   29  C   UNL     1     -11.380  10.611  69.321  1.00  0.00    -0.346 A  
BRANCH  26  30
HETATM   30  O   UNL     1     -13.476  11.339  72.295  1.00  0.00    -0.341 OA 
HETATM   31  C   UNL     1     -13.602  12.755  72.234  1.00  0.00    -0.465 C  
ENDBRANCH  26  30
ENDBRANCH  23  24
ENDBRANCH  21  23
ENDBRANCH   3  21
ENDBRANCH   2   3
TORSDOF 14
ENDMDL
MODEL       30
REMARK 921   NORMALIZED FREE ENERGY PREDICTED BY IDOCK:   -5.19 KCAL/MOL
REMARK 922        TOTAL FREE ENERGY PREDICTED BY IDOCK:  -12.23 KCAL/MOL
REMARK 923 INTER-LIGAND FREE ENERGY PREDICTED BY IDOCK:   -9.62 KCAL/MOL
REMARK 924 INTRA-LIGAND FREE ENERGY PREDICTED BY IDOCK:   -2.60 KCAL/MOL
REMARK 927      BINDING AFFINITY PREDICTED BY RF-SCORE:    0.00 PKD
ROOT
HETATM    1  C   UNL     1      -8.668  12.472  67.925  1.00  0.00    -0.180 C  
HETATM    2  C   UNL     1      -9.390  13.320  66.885  1.00  0.00    -0.244 C  
ENDROOT
BRANCH   2   3
HETATM    3  N   UNL     1     -10.227  14.422  67.374  1.00  0.00    -0.246 NA 
BRANCH   3   4
HETATM    4  C   UNL     1     -11.546  14.542  66.727  1.00  0.00    -0.376 C  
BRANCH   4   5
HETATM    5  C   UNL     1     -11.516  14.366  65.200  1.00  0.00    -0.362 C  
BRANCH   5   6
HETATM    6  C   UNL     1     -12.415  13.216  64.746  1.00  0.00    -0.460 C  
BRANCH   6   7
HETATM    7  C   UNL     1     -11.801  12.510  63.543  1.00  0.00    -0.534 C  
BRANCH   7   8
HETATM    8  O   UNL     1     -11.226  11.262  63.954  1.00  0.00    -0.356 OA 
BRANCH   8   9
HETATM    9  C   UNL     1      -9.902  11.125  63.692  1.00  0.00    -0.345 C  
HETATM   10  O   UNL     1      -9.306  11.543  62.714  1.00  0.00    -0.374 OA 
BRANCH   9  11
HETATM   11  C   UNL     1      -9.257  10.334  64.766  1.00  0.00    -0.287 A  
HETATM   12  C   UNL     1     -10.007   9.626  65.713  1.00  0.00    -0.342 A  
HETATM   13  C   UNL     1      -9.362   8.912  66.728  1.00  0.00    -0.175 A  
HETATM   14  C   UNL     1      -7.212   9.604  65.831  1.00  0.00    -0.099 A  
HETATM   15  C   UNL     1      -7.951   8.900  66.786  1.00  0.00    -0.107 A  
HETATM   16  C   UNL     1      -7.861  10.329  64.829  1.00  0.00    -0.130 A  
BRANCH  13  17
HETATM   17  O   UNL     1     -10.015   8.205  67.709  1.00  0.00    -0.162 OA 
HETATM   18  C   UNL     1     -10.735   7.044  67.320  1.00  0.00    -0.342 C  
ENDBRANCH  13  17
BRANCH  15  19
HETATM   19  O   UNL     1      -7.394   8.179  67.812  1.00  0.00    -0.089 OA 
HETATM   20  C   UNL     1      -6.665   8.898  68.798  1.00  0.00    -0.054 C  
ENDBRANCH  15  19
ENDBRANCH   9  11
ENDBRANCH   8   9
ENDBRANCH   7   8
ENDBRANCH   6   7
ENDBRANCH   5   6
ENDBRANCH   4   5
ENDBRANCH   3   4
BRANCH   3  21
HETATM   21  C   UNL     1     -10.293  14.617  68.844  1.00  0.00    -0.245 C  
HETATM   22  C   UNL     1      -9.485  15.812  69.380  1.00  0.00    -0.275 C  
BRANCH  21  23
HETATM   23  C   UNL     1     -11.736  14.693  69.428  1.00  0.00    -0.355 C  
BRANCH  23  24
HETATM   24  C   UNL     1     -12.203  13.470  70.189  1.00  0.00    -0.400 A  
HETATM   25  C   UNL     1     -13.379  12.483  72.081  1.00  0.00    -0.540 A  
HETATM   26  C   UNL     1     -13.031  11.205  71.650  1.00  0.00    -0.443 A  
HETATM   27  C   UNL     1     -11.847  12.183  69.771  1.00  0.00    -0.397 A  
HETATM   28  C   UNL     1     -12.269  11.061  70.490  1.00  0.00    -0.472 A  
HETATM   29  C   UNL     1     -12.966  13.608  71.356  1.00  0.00    -0.427 A  
BRANCH  26  30
HETATM   30  O   UNL     1     -13.419  10.032  72.239  1.00  0.00    -0.417 OA 
HETATM   31  C   UNL     1     -12.493   8.954  72.163  1.00  0.00    -0.389 C  
ENDBRANCH  26  30
ENDBRANCH  23  24
ENDBRANCH  21  23
ENDBRANCH   3  21
ENDBRANCH   2   3
TORSDOF 14
ENDMDL
MODEL       31
REMARK 921   NORMALIZED FREE ENERGY PREDICTED BY IDOCK:   -5.19 KCAL/MOL
REMARK 922        TOTAL FREE ENERGY PREDICTED BY IDOCK:  -12.22 KCAL/MOL
REMARK 923 INTER-LIGAND FREE ENERGY PREDICTED BY IDOCK:  -10.46 KCAL/MOL
REMARK 924 INTRA-LIGAND FREE ENERGY PREDICTED BY IDOCK:   -1.77 KCAL/MOL
REMARK 927      BINDING AFFINITY PREDICTED BY RF-SCORE:    0.00 PKD
ROOT
HETATM    1  C   UNL     1      -9.385  18.756  68.133  1.00  0.00    -0.352 C  
HETATM    2  C   UNL     1     -10.365  17.852  68.872  1.00  0.00    -0.268 C  
ENDROOT
BRANCH   2   3
HETATM    3  N   UNL     1     -10.322  16.418  68.565  1.00  0.00    -0.255 NA 
BRANCH   3   4
HETATM    4  C   UNL     1     -10.479  15.523  69.727  1.00  0.00    -0.301 C  
BRANCH   4   5
HETATM    5  C   UNL     1     -11.410  16.070  70.820  1.00  0.00    -0.427 C  
BRANCH   5   6
HETATM    6  C   UNL     1     -12.808  15.459  70.729  1.00  0.00    -0.524 C  
BRANCH   6   7
HETATM    7  C   UNL     1     -12.864  14.151  71.510  1.00  0.00    -0.354 C  
BRANCH   7   8
HETATM    8  O   UNL     1     -12.430  13.068  70.677  1.00  0.00    -0.331 OA 
BRANCH   8   9
HETATM    9  C   UNL     1     -12.681  11.828  71.167  1.00  0.00    -0.305 C  
HETATM   10  O   UNL     1     -13.345  11.556  72.152  1.00  0.00    -0.477 OA 
BRANCH   9  11
HETATM   11  C   UNL     1     -11.983  10.813  70.345  1.00  0.00    -0.448 A  
HETATM   12  C   UNL     1     -11.493   9.624  70.899  1.00  0.00    -0.427 A  
HETATM   13  C   UNL     1     -10.817   8.701  70.095  1.00  0.00    -0.233 A  
HETATM   14  C   UNL     1     -11.137  10.157  68.176  1.00  0.00    -0.290 A  
HETATM   15  C   UNL     1     -10.638   8.970  68.720  1.00  0.00    -0.169 A  
HETATM   16  C   UNL     1     -11.798  11.083  68.986  1.00  0.00    -0.399 A  
BRANCH  13  17
HETATM   17  O   UNL     1     -10.288   7.519  70.555  1.00  0.00    -0.210 OA 
HETATM   18  C   UNL     1     -11.189   6.532  71.035  1.00  0.00    -0.309 C  
ENDBRANCH  13  17
BRANCH  15  19
HETATM   19  O   UNL     1      -9.962   8.017  68.001  1.00  0.00    -0.165 OA 
HETATM   20  C   UNL     1     -10.699   7.281  67.034  1.00  0.00    -0.336 C  
ENDBRANCH  15  19
ENDBRANCH   9  11
ENDBRANCH   8   9
ENDBRANCH   7   8
ENDBRANCH   6   7
ENDBRANCH   5   6
ENDBRANCH   4   5
ENDBRANCH   3   4
BRANCH   3  21
HETATM   21  C   UNL     1     -11.094  15.958  67.383  1.00  0.00    -0.207 C  
HETATM   22  C   UNL     1     -10.348  16.053  66.041  1.00  0.00    -0.366 C  
BRANCH  21  23
HETATM   23  C   UNL     1     -11.697  14.527  67.515  1.00  0.00    -0.413 C  
BRANCH  23  24
HETATM   24  C   UNL     1     -11.437  13.594  66.350  1.00  0.00    -0.358 A  
HETATM   25  C   UNL     1     -12.230  12.418  64.369  1.00  0.00    -0.519 A  
HETATM   26  C   UNL     1     -10.985  11.814  64.210  1.00  0.00    -0.359 A  
HETATM   27  C   UNL     1     -10.193  12.971  66.191  1.00  0.00    -0.288 A  
HETATM   28  C   UNL     1      -9.968  12.099  65.122  1.00  0.00    -0.251 A  
HETATM   29  C   UNL     1     -12.454  13.301  65.432  1.00  0.00    -0.543 A  
BRANCH  26  30
HETATM   30  O   UNL     1     -10.628  10.981  63.185  1.00  0.00    -0.254 OA 
HETATM   31  C   UNL     1      -9.286  10.508  63.197  1.00  0.00    -0.320 C  
ENDBRANCH  26  30
ENDBRANCH  23  24
ENDBRANCH  21  23
ENDBRANCH   3  21
ENDBRANCH   2   3
TORSDOF 14
ENDMDL
MODEL       32
REMARK 921   NORMALIZED FREE ENERGY PREDICTED BY IDOCK:   -5.17 KCAL/MOL
REMARK 922        TOTAL FREE ENERGY PREDICTED BY IDOCK:  -12.19 KCAL/MOL
REMARK 923 INTER-LIGAND FREE ENERGY PREDICTED BY IDOCK:  -10.58 KCAL/MOL
REMARK 924 INTRA-LIGAND FREE ENERGY PREDICTED BY IDOCK:   -1.61 KCAL/MOL
REMARK 927      BINDING AFFINITY PREDICTED BY RF-SCORE:    0.00 PKD
ROOT
HETATM    1  C   UNL     1     -14.116   8.784  72.003  1.00  0.00    -0.508 C  
HETATM    2  C   UNL     1     -12.786   9.525  71.937  1.00  0.00    -0.411 C  
ENDROOT
BRANCH   2   3
HETATM    3  N   UNL     1     -11.905   9.230  70.801  1.00  0.00    -0.270 NA 
BRANCH   3   4
HETATM    4  C   UNL     1     -11.233  10.401  70.207  1.00  0.00    -0.320 C  
BRANCH   4   5
HETATM    5  C   UNL     1     -11.682  10.723  68.773  1.00  0.00    -0.315 C  
BRANCH   5   6
HETATM    6  C   UNL     1     -10.529  10.590  67.778  1.00  0.00    -0.263 C  
BRANCH   6   7
HETATM    7  C   UNL     1     -10.828  11.391  66.515  1.00  0.00    -0.283 C  
BRANCH   7   8
HETATM    8  O   UNL     1     -12.117  12.008  66.625  1.00  0.00    -0.615 OA 
BRANCH   8   9
HETATM    9  C   UNL     1     -12.356  13.006  65.739  1.00  0.00    -0.416 C  
HETATM   10  O   UNL     1     -12.954  12.912  64.680  1.00  0.00    -0.734 OA 
BRANCH   9  11
HETATM   11  C   UNL     1     -11.735  14.262  66.219  1.00  0.00    -0.404 A  
HETATM   12  C   UNL     1     -11.816  14.661  67.559  1.00  0.00    -0.375 A  
HETATM   13  C   UNL     1     -11.240  15.867  67.969  1.00  0.00    -0.319 A  
HETATM   14  C   UNL     1     -10.485  16.264  65.693  1.00  0.00    -0.386 A  
HETATM   15  C   UNL     1     -10.566  16.676  67.027  1.00  0.00    -0.247 A  
HETATM   16  C   UNL     1     -11.077  15.067  65.286  1.00  0.00    -0.391 A  
BRANCH  13  17
HETATM   17  O   UNL     1     -11.285  16.346  69.256  1.00  0.00    -0.315 OA 
HETATM   18  C   UNL     1     -11.333  15.399  70.314  1.00  0.00    -0.311 C  
ENDBRANCH  13  17
BRANCH  15  19
HETATM   19  O   UNL     1     -10.030  17.844  67.507  1.00  0.00    -0.299 OA 
HETATM   20  C   UNL     1      -9.108  18.533  66.673  1.00  0.00    -0.305 C  
ENDBRANCH  15  19
ENDBRANCH   9  11
ENDBRANCH   8   9
ENDBRANCH   7   8
ENDBRANCH   6   7
ENDBRANCH   5   6
ENDBRANCH   4   5
ENDBRANCH   3   4
BRANCH   3  21
HETATM   21  C   UNL     1     -11.001   8.060  70.934  1.00  0.00    -0.243 C  
HETATM   22  C   UNL     1     -10.397   7.860  72.336  1.00  0.00    -0.333 C  
BRANCH  21  23
HETATM   23  C   UNL     1     -11.610   6.707  70.459  1.00  0.00    -0.448 C  
BRANCH  23  24
HETATM   24  C   UNL     1     -10.943   6.070  69.258  1.00  0.00    -0.436 A  
HETATM   25  C   UNL     1      -9.420   4.416  68.318  1.00  0.00    -0.210 A  
HETATM   26  C   UNL     1      -9.647   4.912  67.037  1.00  0.00    -0.159 A  
HETATM   27  C   UNL     1     -11.154   6.571  67.968  1.00  0.00    -0.332 A  
HETATM   28  C   UNL     1     -10.521   5.987  66.867  1.00  0.00    -0.344 A  
HETATM   29  C   UNL     1     -10.063   4.992  69.421  1.00  0.00    -0.288 A  
BRANCH  26  30
HETATM   30  O   UNL     1      -9.124   4.401  65.880  1.00  0.00    -0.122 OA 
HETATM   31  C   UNL     1     -10.064   3.946  64.913  1.00  0.00    -0.182 C  
ENDBRANCH  26  30
ENDBRANCH  23  24
ENDBRANCH  21  23
ENDBRANCH   3  21
ENDBRANCH   2   3
TORSDOF 14
ENDMDL
MODEL       33
REMARK 921   NORMALIZED FREE ENERGY PREDICTED BY IDOCK:   -5.16 KCAL/MOL
REMARK 922        TOTAL FREE ENERGY PREDICTED BY IDOCK:  -12.16 KCAL/MOL
REMARK 923 INTER-LIGAND FREE ENERGY PREDICTED BY IDOCK:  -10.23 KCAL/MOL
REMARK 924 INTRA-LIGAND FREE ENERGY PREDICTED BY IDOCK:   -1.94 KCAL/MOL
REMARK 927      BINDING AFFINITY PREDICTED BY RF-SCORE:    0.00 PKD
ROOT
HETATM    1  C   UNL     1     -10.768  15.964  65.123  1.00  0.00    -0.449 C  
HETATM    2  C   UNL     1     -10.921  15.665  66.610  1.00  0.00    -0.212 C  
ENDROOT
BRANCH   2   3
HETATM    3  N   UNL     1     -11.690  14.472  66.982  1.00  0.00    -0.391 NA 
BRANCH   3   4
HETATM    4  C   UNL     1     -12.552  13.925  65.919  1.00  0.00    -0.456 C  
BRANCH   4   5
HETATM    5  C   UNL     1     -12.061  12.591  65.335  1.00  0.00    -0.494 C  
BRANCH   5   6
HETATM    6  C   UNL     1     -11.577  12.749  63.893  1.00  0.00    -0.518 C  
BRANCH   6   7
HETATM    7  C   UNL     1     -10.343  11.886  63.653  1.00  0.00    -0.441 C  
BRANCH   7   8
HETATM    8  O   UNL     1     -10.389  10.728  64.497  1.00  0.00    -0.345 OA 
BRANCH   8   9
HETATM    9  C   UNL     1      -9.188  10.316  64.974  1.00  0.00    -0.213 C  
HETATM   10  O   UNL     1      -8.183  10.092  64.320  1.00  0.00    -0.156 OA 
BRANCH   9  11
HETATM   11  C   UNL     1      -9.270  10.123  66.440  1.00  0.00    -0.190 A  
HETATM   12  C   UNL     1      -8.271  10.590  67.303  1.00  0.00    -0.119 A  
HETATM   13  C   UNL     1      -8.371  10.365  68.680  1.00  0.00    -0.127 A  
HETATM   14  C   UNL     1     -10.484   9.219  68.326  1.00  0.00    -0.260 A  
HETATM   15  C   UNL     1      -9.490   9.675  69.196  1.00  0.00    -0.171 A  
HETATM   16  C   UNL     1     -10.372   9.432  66.950  1.00  0.00    -0.308 A  
BRANCH  13  17
HETATM   17  O   UNL     1      -7.432  10.770  69.598  1.00  0.00    -0.141 OA 
HETATM   18  C   UNL     1      -6.565  11.835  69.233  1.00  0.00    -0.112 C  
ENDBRANCH  13  17
BRANCH  15  19
HETATM   19  O   UNL     1      -9.513   9.492  70.556  1.00  0.00    -0.252 OA 
HETATM   20  C   UNL     1     -10.781   9.314  71.171  1.00  0.00    -0.333 C  
ENDBRANCH  15  19
ENDBRANCH   9  11
ENDBRANCH   8   9
ENDBRANCH   7   8
ENDBRANCH   6   7
ENDBRANCH   5   6
ENDBRANCH   4   5
ENDBRANCH   3   4
BRANCH   3  21
HETATM   21  C   UNL     1     -10.970  13.414  67.734  1.00  0.00    -0.262 C  
HETATM   22  C   UNL     1      -9.662  13.867  68.406  1.00  0.00    -0.226 C  
BRANCH  21  23
HETATM   23  C   UNL     1     -11.835  12.662  68.790  1.00  0.00    -0.341 C  
BRANCH  23  24
HETATM   24  C   UNL     1     -12.260  13.477  69.993  1.00  0.00    -0.381 A  
HETATM   25  C   UNL     1     -13.230  13.598  72.225  1.00  0.00    -0.565 A  
HETATM   26  C   UNL     1     -13.109  14.986  72.219  1.00  0.00    -0.358 A  
HETATM   27  C   UNL     1     -12.154  14.873  69.991  1.00  0.00    -0.387 A  
HETATM   28  C   UNL     1     -12.565  15.617  71.100  1.00  0.00    -0.511 A  
HETATM   29  C   UNL     1     -12.809  12.849  71.119  1.00  0.00    -0.326 A  
BRANCH  26  30
HETATM   30  O   UNL     1     -13.431  15.819  73.256  1.00  0.00    -0.551 OA 
HETATM   31  C   UNL     1     -12.473  15.918  74.303  1.00  0.00    -0.633 C  
ENDBRANCH  26  30
ENDBRANCH  23  24
ENDBRANCH  21  23
ENDBRANCH   3  21
ENDBRANCH   2   3
TORSDOF 14
ENDMDL
MODEL       34
REMARK 921   NORMALIZED FREE ENERGY PREDICTED BY IDOCK:   -5.15 KCAL/MOL
REMARK 922        TOTAL FREE ENERGY PREDICTED BY IDOCK:  -12.16 KCAL/MOL
REMARK 923 INTER-LIGAND FREE ENERGY PREDICTED BY IDOCK:  -10.02 KCAL/MOL
REMARK 924 INTRA-LIGAND FREE ENERGY PREDICTED BY IDOCK:   -2.14 KCAL/MOL
REMARK 927      BINDING AFFINITY PREDICTED BY RF-SCORE:    0.00 PKD
ROOT
HETATM    1  C   UNL     1      -8.546  15.456  66.749  1.00  0.00    -0.308 C  
HETATM    2  C   UNL     1      -9.699  15.506  65.753  1.00  0.00    -0.348 C  
ENDROOT
BRANCH   2   3
HETATM    3  N   UNL     1     -10.567  14.327  65.666  1.00  0.00    -0.304 NA 
BRANCH   3   4
HETATM    4  C   UNL     1      -9.882  13.031  65.826  1.00  0.00    -0.209 C  
BRANCH   4   5
HETATM    5  C   UNL     1     -10.066  12.072  64.639  1.00  0.00    -0.291 C  
BRANCH   5   6
HETATM    6  C   UNL     1      -9.976  10.609  65.076  1.00  0.00    -0.369 C  
BRANCH   6   7
HETATM    7  C   UNL     1     -10.515  10.448  66.493  1.00  0.00    -0.196 C  
BRANCH   7   8
HETATM    8  O   UNL     1      -9.512   9.857  67.330  1.00  0.00    -0.149 OA 
BRANCH   8   9
HETATM    9  C   UNL     1      -9.338  10.461  68.532  1.00  0.00    -0.160 C  
HETATM   10  O   UNL     1      -8.497  11.299  68.811  1.00  0.00    -0.155 OA 
BRANCH   9  11
HETATM   11  C   UNL     1     -10.308   9.919  69.511  1.00  0.00    -0.248 A  
HETATM   12  C   UNL     1     -10.354   8.555  69.828  1.00  0.00    -0.212 A  
HETATM   13  C   UNL     1     -11.302   8.077  70.738  1.00  0.00    -0.272 A  
HETATM   14  C   UNL     1     -12.145  10.338  71.027  1.00  0.00    -0.487 A  
HETATM   15  C   UNL     1     -12.205   8.978  71.345  1.00  0.00    -0.323 A  
HETATM   16  C   UNL     1     -11.208  10.808  70.105  1.00  0.00    -0.345 A  
BRANCH  13  17
HETATM   17  O   UNL     1     -11.432   6.757  71.094  1.00  0.00    -0.280 OA 
HETATM   18  C   UNL     1     -10.761   5.788  70.302  1.00  0.00    -0.309 C  
ENDBRANCH  13  17
BRANCH  15  19
HETATM   19  O   UNL     1     -13.105   8.432  72.224  1.00  0.00    -0.327 OA 
HETATM   20  C   UNL     1     -14.285   7.854  71.680  1.00  0.00    -0.459 C  
ENDBRANCH  15  19
ENDBRANCH   9  11
ENDBRANCH   8   9
ENDBRANCH   7   8
ENDBRANCH   6   7
ENDBRANCH   5   6
ENDBRANCH   4   5
ENDBRANCH   3   4
BRANCH   3  21
HETATM   21  C   UNL     1     -11.858  14.383  66.397  1.00  0.00    -0.388 C  
HETATM   22  C   UNL     1     -13.097  14.018  65.561  1.00  0.00    -0.217 C  
BRANCH  21  23
HETATM   23  C   UNL     1     -11.893  13.562  67.721  1.00  0.00    -0.398 C  
BRANCH  23  24
HETATM   24  C   UNL     1     -11.915  14.375  68.999  1.00  0.00    -0.342 A  
HETATM   25  C   UNL     1     -11.185  16.315  70.280  1.00  0.00    -0.343 A  
HETATM   26  C   UNL     1     -11.898  15.869  71.391  1.00  0.00    -0.463 A  
HETATM   27  C   UNL     1     -12.617  13.928  70.124  1.00  0.00    -0.285 A  
HETATM   28  C   UNL     1     -12.618  14.677  71.304  1.00  0.00    -0.403 A  
HETATM   29  C   UNL     1     -11.193  15.572  69.093  1.00  0.00    -0.300 A  
BRANCH  26  30
HETATM   30  O   UNL     1     -12.013  16.532  72.582  1.00  0.00    -0.533 OA 
HETATM   31  C   UNL     1     -12.804  15.897  73.581  1.00  0.00    -0.599 C  
ENDBRANCH  26  30
ENDBRANCH  23  24
ENDBRANCH  21  23
ENDBRANCH   3  21
ENDBRANCH   2   3
TORSDOF 14
ENDMDL
MODEL       35
REMARK 921   NORMALIZED FREE ENERGY PREDICTED BY IDOCK:   -5.15 KCAL/MOL
REMARK 922        TOTAL FREE ENERGY PREDICTED BY IDOCK:  -12.15 KCAL/MOL
REMARK 923 INTER-LIGAND FREE ENERGY PREDICTED BY IDOCK:   -9.49 KCAL/MOL
REMARK 924 INTRA-LIGAND FREE ENERGY PREDICTED BY IDOCK:   -2.66 KCAL/MOL
REMARK 927      BINDING AFFINITY PREDICTED BY RF-SCORE:    0.00 PKD
ROOT
HETATM    1  C   UNL     1      -6.705  19.151  65.427  1.00  0.00    -0.279 C  
HETATM    2  C   UNL     1      -7.752  20.084  66.023  1.00  0.00    -0.300 C  
ENDROOT
BRANCH   2   3
HETATM    3  N   UNL     1      -7.766  20.240  67.482  1.00  0.00    -0.300 NA 
BRANCH   3   4
HETATM    4  C   UNL     1      -9.059  19.955  68.131  1.00  0.00    -0.269 C  
BRANCH   4   5
HETATM    5  C   UNL     1     -10.219  19.728  67.148  1.00  0.00    -0.574 C  
BRANCH   5   6
HETATM    6  C   UNL     1     -10.489  18.239  66.928  1.00  0.00    -0.396 C  
BRANCH   6   7
HETATM    7  C   UNL     1     -10.721  17.959  65.448  1.00  0.00     0.123 C  
BRANCH   7   8
HETATM    8  O   UNL     1     -10.389  16.595  65.154  1.00  0.00    -0.630 OA 
BRANCH   8   9
HETATM    9  C   UNL     1     -11.410  15.848  64.665  1.00  0.00    -0.322 C  
HETATM   10  O   UNL     1     -12.150  16.142  63.742  1.00  0.00    -0.946 OA 
BRANCH   9  11
HETATM   11  C   UNL     1     -11.543  14.601  65.454  1.00  0.00    -0.345 A  
HETATM   12  C   UNL     1     -11.411  14.592  66.848  1.00  0.00    -0.355 A  
HETATM   13  C   UNL     1     -11.516  13.391  67.556  1.00  0.00    -0.323 A  
HETATM   14  C   UNL     1     -11.906  12.211  65.467  1.00  0.00    -0.350 A  
HETATM   15  C   UNL     1     -11.768  12.188  66.858  1.00  0.00    -0.301 A  
HETATM   16  C   UNL     1     -11.783  13.410  64.764  1.00  0.00    -0.393 A  
BRANCH  13  17
HETATM   17  O   UNL     1     -11.383  13.284  68.919  1.00  0.00    -0.255 OA 
HETATM   18  C   UNL     1     -11.492  14.472  69.690  1.00  0.00    -0.288 C  
ENDBRANCH  13  17
BRANCH  15  19
HETATM   19  O   UNL     1     -11.856  11.053  67.623  1.00  0.00    -0.599 OA 
HETATM   20  C   UNL     1     -10.896  10.031  67.392  1.00  0.00    -0.249 C  
ENDBRANCH  15  19
ENDBRANCH   9  11
ENDBRANCH   8   9
ENDBRANCH   7   8
ENDBRANCH   6   7
ENDBRANCH   5   6
ENDBRANCH   4   5
ENDBRANCH   3   4
BRANCH   3  21
HETATM   21  C   UNL     1      -6.615  19.676  68.231  1.00  0.00    -0.259 C  
HETATM   22  C   UNL     1      -5.736  20.713  68.952  1.00  0.00    -0.388 C  
BRANCH  21  23
HETATM   23  C   UNL     1      -6.984  18.550  69.242  1.00  0.00    -0.207 C  
BRANCH  23  24
HETATM   24  C   UNL     1      -6.876  17.133  68.718  1.00  0.00    -0.209 A  
HETATM   25  C   UNL     1      -5.534  15.320  67.796  1.00  0.00    -0.101 A  
HETATM   26  C   UNL     1      -6.668  14.517  67.685  1.00  0.00    -0.173 A  
HETATM   27  C   UNL     1      -8.011  16.324  68.590  1.00  0.00    -0.215 A  
HETATM   28  C   UNL     1      -7.904  15.024  68.090  1.00  0.00    -0.121 A  
HETATM   29  C   UNL     1      -5.639  16.619  68.308  1.00  0.00    -0.118 A  
BRANCH  26  30
HETATM   30  O   UNL     1      -6.686  13.219  67.255  1.00  0.00    -0.172 OA 
HETATM   31  C   UNL     1      -7.920  12.526  67.398  1.00  0.00    -0.180 C  
ENDBRANCH  26  30
ENDBRANCH  23  24
ENDBRANCH  21  23
ENDBRANCH   3  21
ENDBRANCH   2   3
TORSDOF 14
ENDMDL
MODEL       36
REMARK 921   NORMALIZED FREE ENERGY PREDICTED BY IDOCK:   -5.14 KCAL/MOL
REMARK 922        TOTAL FREE ENERGY PREDICTED BY IDOCK:  -12.13 KCAL/MOL
REMARK 923 INTER-LIGAND FREE ENERGY PREDICTED BY IDOCK:  -10.09 KCAL/MOL
REMARK 924 INTRA-LIGAND FREE ENERGY PREDICTED BY IDOCK:   -2.04 KCAL/MOL
REMARK 927      BINDING AFFINITY PREDICTED BY RF-SCORE:    0.00 PKD
ROOT
HETATM    1  C   UNL     1     -10.536  17.051  65.839  1.00  0.00    -0.282 C  
HETATM    2  C   UNL     1      -9.935  15.982  66.744  1.00  0.00    -0.258 C  
ENDROOT
BRANCH   2   3
HETATM    3  N   UNL     1     -10.372  14.597  66.535  1.00  0.00    -0.276 NA 
BRANCH   3   4
HETATM    4  C   UNL     1      -9.409  13.565  66.960  1.00  0.00    -0.247 C  
BRANCH   4   5
HETATM    5  C   UNL     1      -8.258  14.098  67.827  1.00  0.00    -0.172 C  
BRANCH   5   6
HETATM    6  C   UNL     1      -7.356  12.968  68.326  1.00  0.00    -0.116 C  
BRANCH   6   7
HETATM    7  C   UNL     1      -8.021  11.617  68.084  1.00  0.00    -0.141 C  
BRANCH   7   8
HETATM    8  O   UNL     1      -8.131  10.901  69.321  1.00  0.00    -0.136 OA 
BRANCH   8   9
HETATM    9  C   UNL     1      -8.625   9.642  69.216  1.00  0.00    -0.153 C  
HETATM   10  O   UNL     1      -8.206   8.754  68.492  1.00  0.00    -0.115 OA 
BRANCH   9  11
HETATM   11  C   UNL     1      -9.808   9.492  70.093  1.00  0.00    -0.288 A  
HETATM   12  C   UNL     1      -9.777   8.698  71.246  1.00  0.00    -0.305 A  
HETATM   13  C   UNL     1     -10.923   8.560  72.035  1.00  0.00    -0.340 A  
HETATM   14  C   UNL     1     -12.127  10.030  70.520  1.00  0.00    -0.338 A  
HETATM   15  C   UNL     1     -12.109   9.234  71.669  1.00  0.00    -0.379 A  
HETATM   16  C   UNL     1     -10.984  10.151  69.726  1.00  0.00    -0.325 A  
BRANCH  13  17
HETATM   17  O   UNL     1     -10.990   7.790  73.170  1.00  0.00    -0.396 OA 
HETATM   18  C   UNL     1      -9.787   7.200  73.643  1.00  0.00    -0.300 C  
ENDBRANCH  13  17
BRANCH  15  19
HETATM   19  O   UNL     1     -13.190   9.046  72.493  1.00  0.00    -0.445 OA 
HETATM   20  C   UNL     1     -14.391   8.570  71.900  1.00  0.00    -0.448 C  
ENDBRANCH  15  19
ENDBRANCH   9  11
ENDBRANCH   8   9
ENDBRANCH   7   8
ENDBRANCH   6   7
ENDBRANCH   5   6
ENDBRANCH   4   5
ENDBRANCH   3   4
BRANCH   3  21
HETATM   21  C   UNL     1     -11.768  14.266  66.915  1.00  0.00    -0.408 C  
HETATM   22  C   UNL     1     -12.612  13.621  65.801  1.00  0.00    -0.511 C  
BRANCH  21  23
HETATM   23  C   UNL     1     -11.905  13.400  68.204  1.00  0.00    -0.396 C  
BRANCH  23  24
HETATM   24  C   UNL     1     -11.999  14.168  69.506  1.00  0.00    -0.389 A  
HETATM   25  C   UNL     1     -12.972  14.458  71.721  1.00  0.00    -0.419 A  
HETATM   26  C   UNL     1     -12.227  15.620  71.912  1.00  0.00    -0.427 A  
HETATM   27  C   UNL     1     -11.264  15.344  69.702  1.00  0.00    -0.289 A  
HETATM   28  C   UNL     1     -11.370  16.054  70.901  1.00  0.00    -0.421 A  
HETATM   29  C   UNL     1     -12.859  13.739  70.525  1.00  0.00    -0.209 A  
BRANCH  26  30
HETATM   30  O   UNL     1     -12.210  16.376  73.053  1.00  0.00    -0.509 OA 
HETATM   31  C   UNL     1     -12.494  15.689  74.266  1.00  0.00    -0.654 C  
ENDBRANCH  26  30
ENDBRANCH  23  24
ENDBRANCH  21  23
ENDBRANCH   3  21
ENDBRANCH   2   3
TORSDOF 14
ENDMDL
MODEL       37
REMARK 921   NORMALIZED FREE ENERGY PREDICTED BY IDOCK:   -5.12 KCAL/MOL
REMARK 922        TOTAL FREE ENERGY PREDICTED BY IDOCK:  -12.10 KCAL/MOL
REMARK 923 INTER-LIGAND FREE ENERGY PREDICTED BY IDOCK:   -9.73 KCAL/MOL
REMARK 924 INTRA-LIGAND FREE ENERGY PREDICTED BY IDOCK:   -2.37 KCAL/MOL
REMARK 927      BINDING AFFINITY PREDICTED BY RF-SCORE:    0.00 PKD
ROOT
HETATM    1  C   UNL     1      -9.711  19.519  66.372  1.00  0.00    -0.485 C  
HETATM    2  C   UNL     1     -10.660  18.686  67.225  1.00  0.00    -0.430 C  
ENDROOT
BRANCH   2   3
HETATM    3  N   UNL     1     -10.519  17.227  67.161  1.00  0.00    -0.319 NA 
BRANCH   3   4
HETATM    4  C   UNL     1      -9.958  16.705  65.901  1.00  0.00    -0.295 C  
BRANCH   4   5
HETATM    5  C   UNL     1     -10.174  15.198  65.694  1.00  0.00    -0.387 C  
BRANCH   5   6
HETATM    6  C   UNL     1     -11.581  14.893  65.180  1.00  0.00    -0.330 C  
BRANCH   6   7
HETATM    7  C   UNL     1     -12.330  14.018  66.178  1.00  0.00    -0.458 C  
BRANCH   7   8
HETATM    8  O   UNL     1     -12.632  12.750  65.581  1.00  0.00    -0.596 OA 
BRANCH   8   9
HETATM    9  C   UNL     1     -11.555  12.034  65.173  1.00  0.00    -0.272 C  
HETATM   10  O   UNL     1     -11.240  11.785  64.021  1.00  0.00    -0.347 OA 
BRANCH   9  11
HETATM   11  C   UNL     1     -10.805  11.539  66.350  1.00  0.00    -0.334 A  
HETATM   12  C   UNL     1      -9.424  11.728  66.480  1.00  0.00    -0.225 A  
HETATM   13  C   UNL     1      -8.747  11.223  67.594  1.00  0.00    -0.131 A  
HETATM   14  C   UNL     1     -10.845  10.355  68.458  1.00  0.00    -0.278 A  
HETATM   15  C   UNL     1      -9.465  10.531  68.594  1.00  0.00    -0.172 A  
HETATM   16  C   UNL     1     -11.514  10.847  67.335  1.00  0.00    -0.175 A  
BRANCH  13  17
HETATM   17  O   UNL     1      -7.393  11.345  67.795  1.00  0.00    -0.090 OA 
HETATM   18  C   UNL     1      -6.531  10.539  67.003  1.00  0.00    -0.076 C  
ENDBRANCH  13  17
BRANCH  15  19
HETATM   19  O   UNL     1      -8.730  10.065  69.654  1.00  0.00    -0.186 OA 
HETATM   20  C   UNL     1      -8.800   8.674  69.939  1.00  0.00    -0.144 C  
ENDBRANCH  15  19
ENDBRANCH   9  11
ENDBRANCH   8   9
ENDBRANCH   7   8
ENDBRANCH   6   7
ENDBRANCH   5   6
ENDBRANCH   4   5
ENDBRANCH   3   4
BRANCH   3  21
HETATM   21  C   UNL     1      -9.957  16.551  68.358  1.00  0.00    -0.250 C  
HETATM   22  C   UNL     1      -8.445  16.744  68.565  1.00  0.00    -0.244 C  
BRANCH  21  23
HETATM   23  C   UNL     1     -10.686  16.881  69.695  1.00  0.00    -0.151 C  
BRANCH  23  24
HETATM   24  C   UNL     1     -11.428  15.730  70.342  1.00  0.00    -0.380 A  
HETATM   25  C   UNL     1     -12.250  13.437  70.262  1.00  0.00    -0.405 A  
HETATM   26  C   UNL     1     -12.856  13.595  71.507  1.00  0.00    -0.359 A  
HETATM   27  C   UNL     1     -12.051  15.884  71.586  1.00  0.00    -0.554 A  
HETATM   28  C   UNL     1     -12.747  14.820  72.167  1.00  0.00    -0.401 A  
HETATM   29  C   UNL     1     -11.542  14.498  69.684  1.00  0.00    -0.346 A  
BRANCH  26  30
HETATM   30  O   UNL     1     -13.524  12.621  72.197  1.00  0.00    -0.535 OA 
HETATM   31  C   UNL     1     -13.275  11.280  71.790  1.00  0.00    -0.375 C  
ENDBRANCH  26  30
ENDBRANCH  23  24
ENDBRANCH  21  23
ENDBRANCH   3  21
ENDBRANCH   2   3
TORSDOF 14
ENDMDL
MODEL       38
REMARK 921   NORMALIZED FREE ENERGY PREDICTED BY IDOCK:   -5.12 KCAL/MOL
REMARK 922        TOTAL FREE ENERGY PREDICTED BY IDOCK:  -12.10 KCAL/MOL
REMARK 923 INTER-LIGAND FREE ENERGY PREDICTED BY IDOCK:  -10.11 KCAL/MOL
REMARK 924 INTRA-LIGAND FREE ENERGY PREDICTED BY IDOCK:   -1.99 KCAL/MOL
REMARK 927      BINDING AFFINITY PREDICTED BY RF-SCORE:    0.00 PKD
ROOT
HETATM    1  C   UNL     1      -9.198   7.678  66.225  1.00  0.00    -0.204 C  
HETATM    2  C   UNL     1     -10.146   8.864  66.363  1.00  0.00    -0.263 C  
ENDROOT
BRANCH   2   3
HETATM    3  N   UNL     1      -9.545  10.187  66.571  1.00  0.00    -0.179 NA 
BRANCH   3   4
HETATM    4  C   UNL     1      -9.401  11.008  65.354  1.00  0.00    -0.216 C  
BRANCH   4   5
HETATM    5  C   UNL     1     -10.460  10.727  64.277  1.00  0.00    -0.330 C  
BRANCH   5   6
HETATM    6  C   UNL     1     -10.829  11.994  63.504  1.00  0.00    -0.509 C  
BRANCH   6   7
HETATM    7  C   UNL     1     -12.340  12.199  63.519  1.00  0.00    -0.574 C  
BRANCH   7   8
HETATM    8  O   UNL     1     -12.719  12.927  64.694  1.00  0.00    -0.654 OA 
BRANCH   8   9
HETATM    9  C   UNL     1     -12.337  14.229  64.713  1.00  0.00    -0.426 C  
HETATM   10  O   UNL     1     -12.588  15.073  63.870  1.00  0.00    -0.813 OA 
BRANCH   9  11
HETATM   11  C   UNL     1     -11.509  14.492  65.912  1.00  0.00    -0.345 A  
HETATM   12  C   UNL     1     -12.053  14.483  67.203  1.00  0.00    -0.301 A  
HETATM   13  C   UNL     1     -11.244  14.762  68.308  1.00  0.00    -0.286 A  
HETATM   14  C   UNL     1      -9.338  15.039  66.827  1.00  0.00    -0.271 A  
HETATM   15  C   UNL     1      -9.873  15.041  68.118  1.00  0.00    -0.216 A  
HETATM   16  C   UNL     1     -10.154  14.777  65.724  1.00  0.00    -0.364 A  
BRANCH  13  17
HETATM   17  O   UNL     1     -11.695  14.794  69.606  1.00  0.00    -0.278 OA 
HETATM   18  C   UNL     1     -12.069  13.563  70.208  1.00  0.00    -0.355 C  
ENDBRANCH  13  17
BRANCH  15  19
HETATM   19  O   UNL     1      -9.147  15.306  69.252  1.00  0.00    -0.227 OA 
HETATM   20  C   UNL     1      -8.002  16.138  69.118  1.00  0.00    -0.233 C  
ENDBRANCH  15  19
ENDBRANCH   9  11
ENDBRANCH   8   9
ENDBRANCH   7   8
ENDBRANCH   6   7
ENDBRANCH   5   6
ENDBRANCH   4   5
ENDBRANCH   3   4
BRANCH   3  21
HETATM   21  C   UNL     1     -10.028  10.972  67.734  1.00  0.00    -0.173 C  
HETATM   22  C   UNL     1     -11.557  11.012  67.902  1.00  0.00    -0.306 C  
BRANCH  21  23
HETATM   23  C   UNL     1      -9.390  10.574  69.099  1.00  0.00    -0.200 C  
BRANCH  23  24
HETATM   24  C   UNL     1     -10.127   9.510  69.885  1.00  0.00    -0.262 A  
HETATM   25  C   UNL     1     -11.667   8.889  71.669  1.00  0.00    -0.411 A  
HETATM   26  C   UNL     1     -11.463   7.538  71.395  1.00  0.00    -0.265 A  
HETATM   27  C   UNL     1      -9.918   8.150  69.626  1.00  0.00    -0.193 A  
HETATM   28  C   UNL     1     -10.591   7.175  70.368  1.00  0.00    -0.242 A  
HETATM   29  C   UNL     1     -11.003   9.867  70.919  1.00  0.00    -0.392 A  
BRANCH  26  30
HETATM   30  O   UNL     1     -12.093   6.495  72.017  1.00  0.00    -0.328 OA 
HETATM   31  C   UNL     1     -11.270   5.645  72.809  1.00  0.00    -0.299 C  
ENDBRANCH  26  30
ENDBRANCH  23  24
ENDBRANCH  21  23
ENDBRANCH   3  21
ENDBRANCH   2   3
TORSDOF 14
ENDMDL
MODEL       39
REMARK 921   NORMALIZED FREE ENERGY PREDICTED BY IDOCK:   -5.11 KCAL/MOL
REMARK 922        TOTAL FREE ENERGY PREDICTED BY IDOCK:  -12.08 KCAL/MOL
REMARK 923 INTER-LIGAND FREE ENERGY PREDICTED BY IDOCK:   -9.44 KCAL/MOL
REMARK 924 INTRA-LIGAND FREE ENERGY PREDICTED BY IDOCK:   -2.64 KCAL/MOL
REMARK 927      BINDING AFFINITY PREDICTED BY RF-SCORE:    0.00 PKD
ROOT
HETATM    1  C   UNL     1     -12.371  14.692  70.178  1.00  0.00    -0.390 C  
HETATM    2  C   UNL     1     -11.659  14.129  68.954  1.00  0.00    -0.310 C  
ENDROOT
BRANCH   2   3
HETATM    3  N   UNL     1     -11.054  15.090  68.024  1.00  0.00    -0.287 NA 
BRANCH   3   4
HETATM    4  C   UNL     1      -9.583  15.170  68.074  1.00  0.00    -0.204 C  
BRANCH   4   5
HETATM    5  C   UNL     1      -8.901  13.889  68.580  1.00  0.00    -0.137 C  
BRANCH   5   6
HETATM    6  C   UNL     1      -7.913  13.332  67.553  1.00  0.00    -0.186 C  
BRANCH   6   7
HETATM    7  C   UNL     1      -7.588  11.876  67.870  1.00  0.00    -0.128 C  
BRANCH   7   8
HETATM    8  O   UNL     1      -8.358  11.442  68.999  1.00  0.00    -0.084 OA 
BRANCH   8   9
HETATM    9  C   UNL     1      -8.792  10.158  68.940  1.00  0.00    -0.154 C  
HETATM   10  O   UNL     1      -8.350   9.272  68.228  1.00  0.00    -0.118 OA 
BRANCH   9  11
HETATM   11  C   UNL     1      -9.943   9.974  69.855  1.00  0.00    -0.280 A  
HETATM   12  C   UNL     1      -9.881   9.111  70.955  1.00  0.00    -0.366 A  
HETATM   13  C   UNL     1     -10.996   8.944  71.781  1.00  0.00    -0.361 A  
HETATM   14  C   UNL     1     -12.231  10.525  70.409  1.00  0.00    -0.415 A  
HETATM   15  C   UNL     1     -12.183   9.660  71.506  1.00  0.00    -0.399 A  
HETATM   16  C   UNL     1     -11.119  10.675  69.577  1.00  0.00    -0.328 A  
BRANCH  13  17
HETATM   17  O   UNL     1     -11.033   8.107  72.869  1.00  0.00    -0.364 OA 
HETATM   18  C   UNL     1     -10.745   6.732  72.657  1.00  0.00    -0.240 C  
ENDBRANCH  13  17
BRANCH  15  19
HETATM   19  O   UNL     1     -13.234   9.440  72.360  1.00  0.00    -0.434 OA 
HETATM   20  C   UNL     1     -14.264   8.566  71.920  1.00  0.00    -0.455 C  
ENDBRANCH  15  19
ENDBRANCH   9  11
ENDBRANCH   8   9
ENDBRANCH   7   8
ENDBRANCH   6   7
ENDBRANCH   5   6
ENDBRANCH   4   5
ENDBRANCH   3   4
BRANCH   3  21
HETATM   21  C   UNL     1     -11.579  15.107  66.636  1.00  0.00    -0.122 C  
HETATM   22  C   UNL     1     -10.536  15.421  65.549  1.00  0.00    -0.400 C  
BRANCH  21  23
HETATM   23  C   UNL     1     -12.360  13.825  66.218  1.00  0.00    -0.479 C  
BRANCH  23  24
HETATM   24  C   UNL     1     -11.559  12.782  65.467  1.00  0.00    -0.400 A  
HETATM   25  C   UNL     1     -10.854  11.772  63.364  1.00  0.00    -0.460 A  
HETATM   26  C   UNL     1     -10.118  10.811  64.055  1.00  0.00    -0.345 A  
HETATM   27  C   UNL     1     -10.827  11.806  66.152  1.00  0.00    -0.336 A  
HETATM   28  C   UNL     1     -10.104  10.838  65.450  1.00  0.00    -0.347 A  
HETATM   29  C   UNL     1     -11.571  12.749  64.066  1.00  0.00    -0.488 A  
BRANCH  26  30
HETATM   30  O   UNL     1      -9.337   9.844  63.484  1.00  0.00    -0.272 OA 
HETATM   31  C   UNL     1      -8.264   9.352  64.280  1.00  0.00    -0.153 C  
ENDBRANCH  26  30
ENDBRANCH  23  24
ENDBRANCH  21  23
ENDBRANCH   3  21
ENDBRANCH   2   3
TORSDOF 14
ENDMDL
MODEL       40
REMARK 921   NORMALIZED FREE ENERGY PREDICTED BY IDOCK:   -5.10 KCAL/MOL
REMARK 922        TOTAL FREE ENERGY PREDICTED BY IDOCK:  -12.07 KCAL/MOL
REMARK 923 INTER-LIGAND FREE ENERGY PREDICTED BY IDOCK:   -9.60 KCAL/MOL
REMARK 924 INTRA-LIGAND FREE ENERGY PREDICTED BY IDOCK:   -2.46 KCAL/MOL
REMARK 927      BINDING AFFINITY PREDICTED BY RF-SCORE:    0.00 PKD
ROOT
HETATM    1  C   UNL     1     -11.606   6.383  69.716  1.00  0.00    -0.397 C  
HETATM    2  C   UNL     1     -12.323   6.770  71.004  1.00  0.00    -0.315 C  
ENDROOT
BRANCH   2   3
HETATM    3  N   UNL     1     -11.838   7.957  71.716  1.00  0.00    -0.280 NA 
BRANCH   3   4
HETATM    4  C   UNL     1     -12.865   8.971  72.018  1.00  0.00    -0.401 C  
BRANCH   4   5
HETATM    5  C   UNL     1     -12.652  10.315  71.303  1.00  0.00    -0.522 C  
BRANCH   5   6
HETATM    6  C   UNL     1     -13.352  11.461  72.033  1.00  0.00    -0.388 C  
BRANCH   6   7
HETATM    7  C   UNL     1     -12.953  12.799  71.421  1.00  0.00    -0.266 C  
BRANCH   7   8
HETATM    8  O   UNL     1     -12.005  12.586  70.367  1.00  0.00    -0.340 OA 
BRANCH   8   9
HETATM    9  C   UNL     1     -11.802  13.651  69.552  1.00  0.00    -0.337 C  
HETATM   10  O   UNL     1     -11.704  14.819  69.891  1.00  0.00    -0.272 OA 
BRANCH   9  11
HETATM   11  C   UNL     1     -11.754  13.203  68.141  1.00  0.00    -0.391 A  
HETATM   12  C   UNL     1     -12.179  14.025  67.090  1.00  0.00    -0.356 A  
HETATM   13  C   UNL     1     -12.143  13.557  65.773  1.00  0.00    -0.433 A  
HETATM   14  C   UNL     1     -11.238  11.444  66.564  1.00  0.00    -0.276 A  
HETATM   15  C   UNL     1     -11.666  12.254  65.508  1.00  0.00    -0.377 A  
HETATM   16  C   UNL     1     -11.292  11.911  67.879  1.00  0.00    -0.358 A  
BRANCH  13  17
HETATM   17  O   UNL     1     -12.556  14.285  64.684  1.00  0.00    -0.627 OA 
HETATM   18  C   UNL     1     -11.809  15.444  64.340  1.00  0.00    -0.256 C  
ENDBRANCH  13  17
BRANCH  15  19
HETATM   19  O   UNL     1     -11.665  11.868  64.191  1.00  0.00    -0.363 OA 
HETATM   20  C   UNL     1     -10.465  11.310  63.673  1.00  0.00    -0.405 C  
ENDBRANCH  15  19
ENDBRANCH   9  11
ENDBRANCH   8   9
ENDBRANCH   7   8
ENDBRANCH   6   7
ENDBRANCH   5   6
ENDBRANCH   4   5
ENDBRANCH   3   4
BRANCH   3  21
HETATM   21  C   UNL     1     -10.910   7.730  72.852  1.00  0.00    -0.392 C  
HETATM   22  C   UNL     1     -10.771   6.263  73.295  1.00  0.00    -0.284 C  
BRANCH  21  23
HETATM   23  C   UNL     1      -9.483   8.326  72.658  1.00  0.00    -0.354 C  
BRANCH  23  24
HETATM   24  C   UNL     1      -8.966   8.344  71.235  1.00  0.00    -0.224 A  
HETATM   25  C   UNL     1      -7.749   7.271  69.416  1.00  0.00    -0.107 A  
HETATM   26  C   UNL     1      -7.946   8.388  68.606  1.00  0.00    -0.121 A  
HETATM   27  C   UNL     1      -9.147   9.466  70.418  1.00  0.00    -0.302 A  
HETATM   28  C   UNL     1      -8.652   9.480  69.111  1.00  0.00    -0.140 A  
HETATM   29  C   UNL     1      -8.255   7.251  70.722  1.00  0.00    -0.112 A  
BRANCH  26  30
HETATM   30  O   UNL     1      -7.551   8.504  67.301  1.00  0.00    -0.094 OA 
HETATM   31  C   UNL     1      -8.258   9.455  66.513  1.00  0.00    -0.115 C  
ENDBRANCH  26  30
ENDBRANCH  23  24
ENDBRANCH  21  23
ENDBRANCH   3  21
ENDBRANCH   2   3
TORSDOF 14
ENDMDL
MODEL       41
REMARK 921   NORMALIZED FREE ENERGY PREDICTED BY IDOCK:   -5.09 KCAL/MOL
REMARK 922        TOTAL FREE ENERGY PREDICTED BY IDOCK:  -12.04 KCAL/MOL
REMARK 923 INTER-LIGAND FREE ENERGY PREDICTED BY IDOCK:   -9.76 KCAL/MOL
REMARK 924 INTRA-LIGAND FREE ENERGY PREDICTED BY IDOCK:   -2.27 KCAL/MOL
REMARK 927      BINDING AFFINITY PREDICTED BY RF-SCORE:    0.00 PKD
ROOT
HETATM    1  C   UNL     1      -9.194  19.366  68.499  1.00  0.00    -0.429 C  
HETATM    2  C   UNL     1      -9.342  18.362  67.361  1.00  0.00    -0.272 C  
ENDROOT
BRANCH   2   3
HETATM    3  N   UNL     1      -9.858  17.031  67.699  1.00  0.00    -0.252 NA 
BRANCH   3   4
HETATM    4  C   UNL     1     -10.764  16.986  68.861  1.00  0.00    -0.300 C  
BRANCH   4   5
HETATM    5  C   UNL     1     -11.745  15.803  68.848  1.00  0.00    -0.404 C  
BRANCH   5   6
HETATM    6  C   UNL     1     -11.324  14.709  69.829  1.00  0.00    -0.315 C  
BRANCH   6   7
HETATM    7  C   UNL     1     -12.547  13.944  70.323  1.00  0.00    -0.264 C  
BRANCH   7   8
HETATM    8  O   UNL     1     -12.217  12.560  70.498  1.00  0.00    -0.365 OA 
BRANCH   8   9
HETATM    9  C   UNL     1     -12.905  11.924  71.478  1.00  0.00    -0.316 C  
HETATM   10  O   UNL     1     -13.641  12.439  72.304  1.00  0.00    -0.504 OA 
BRANCH   9  11
HETATM   11  C   UNL     1     -12.603  10.474  71.444  1.00  0.00    -0.539 A  
HETATM   12  C   UNL     1     -11.363   9.988  71.011  1.00  0.00    -0.434 A  
HETATM   13  C   UNL     1     -11.124   8.611  70.968  1.00  0.00    -0.264 A  
HETATM   14  C   UNL     1     -13.367   8.210  71.812  1.00  0.00    -0.370 A  
HETATM   15  C   UNL     1     -12.136   7.713  71.374  1.00  0.00    -0.316 A  
HETATM   16  C   UNL     1     -13.606   9.585  71.837  1.00  0.00    -0.468 A  
BRANCH  13  17
HETATM   17  O   UNL     1      -9.948   8.045  70.541  1.00  0.00    -0.189 OA 
HETATM   18  C   UNL     1      -8.737   8.722  70.848  1.00  0.00    -0.194 C  
ENDBRANCH  13  17
BRANCH  15  19
HETATM   19  O   UNL     1     -11.825   6.379  71.301  1.00  0.00    -0.327 OA 
HETATM   20  C   UNL     1     -11.417   5.734  72.500  1.00  0.00    -0.296 C  
ENDBRANCH  15  19
ENDBRANCH   9  11
ENDBRANCH   8   9
ENDBRANCH   7   8
ENDBRANCH   6   7
ENDBRANCH   5   6
ENDBRANCH   4   5
ENDBRANCH   3   4
BRANCH   3  21
HETATM   21  C   UNL     1     -10.331  16.186  66.574  1.00  0.00    -0.308 C  
HETATM   22  C   UNL     1     -10.743  16.957  65.308  1.00  0.00    -0.147 C  
BRANCH  21  23
HETATM   23  C   UNL     1      -9.354  15.043  66.161  1.00  0.00    -0.327 C  
BRANCH  23  24
HETATM   24  C   UNL     1      -9.769  13.645  66.568  1.00  0.00    -0.298 A  
HETATM   25  C   UNL     1      -9.214  11.469  67.515  1.00  0.00    -0.166 A  
HETATM   26  C   UNL     1     -10.511  11.018  67.278  1.00  0.00    -0.231 A  
HETATM   27  C   UNL     1     -11.066  13.178  66.322  1.00  0.00    -0.308 A  
HETATM   28  C   UNL     1     -11.434  11.880  66.687  1.00  0.00    -0.382 A  
HETATM   29  C   UNL     1      -8.846  12.773  67.161  1.00  0.00    -0.202 A  
BRANCH  26  30
HETATM   30  O   UNL     1     -11.003   9.790  67.628  1.00  0.00    -0.280 OA 
HETATM   31  C   UNL     1     -10.345   8.664  67.060  1.00  0.00    -0.298 C  
ENDBRANCH  26  30
ENDBRANCH  23  24
ENDBRANCH  21  23
ENDBRANCH   3  21
ENDBRANCH   2   3
TORSDOF 14
ENDMDL
MODEL       42
REMARK 921   NORMALIZED FREE ENERGY PREDICTED BY IDOCK:   -5.08 KCAL/MOL
REMARK 922        TOTAL FREE ENERGY PREDICTED BY IDOCK:  -12.03 KCAL/MOL
REMARK 923 INTER-LIGAND FREE ENERGY PREDICTED BY IDOCK:   -8.72 KCAL/MOL
REMARK 924 INTRA-LIGAND FREE ENERGY PREDICTED BY IDOCK:   -3.31 KCAL/MOL
REMARK 927      BINDING AFFINITY PREDICTED BY RF-SCORE:    0.00 PKD
ROOT
HETATM    1  C   UNL     1     -10.410   8.191  67.321  1.00  0.00    -0.373 C  
HETATM    2  C   UNL     1     -10.489   9.676  66.984  1.00  0.00    -0.232 C  
ENDROOT
BRANCH   2   3
HETATM    3  N   UNL     1      -9.225  10.383  66.750  1.00  0.00    -0.153 NA 
BRANCH   3   4
HETATM    4  C   UNL     1      -9.032  10.886  65.378  1.00  0.00    -0.193 C  
BRANCH   4   5
HETATM    5  C   UNL     1     -10.249  10.689  64.460  1.00  0.00    -0.399 C  
BRANCH   5   6
HETATM    6  C   UNL     1     -10.695  12.007  63.824  1.00  0.00    -0.478 C  
BRANCH   6   7
HETATM    7  C   UNL     1     -12.206  12.166  63.945  1.00  0.00    -0.489 C  
BRANCH   7   8
HETATM    8  O   UNL     1     -12.548  12.546  65.285  1.00  0.00    -0.645 OA 
BRANCH   8   9
HETATM    9  C   UNL     1     -12.119  13.777  65.660  1.00  0.00    -0.418 C  
HETATM   10  O   UNL     1     -11.804  14.695  64.922  1.00  0.00    -0.381 OA 
BRANCH   9  11
HETATM   11  C   UNL     1     -12.038  13.852  67.137  1.00  0.00    -0.422 A  
HETATM   12  C   UNL     1     -11.903  12.704  67.928  1.00  0.00    -0.388 A  
HETATM   13  C   UNL     1     -11.856  12.813  69.321  1.00  0.00    -0.303 A  
HETATM   14  C   UNL     1     -12.062  15.226  69.126  1.00  0.00    -0.266 A  
HETATM   15  C   UNL     1     -11.935  14.087  69.926  1.00  0.00    -0.336 A  
HETATM   16  C   UNL     1     -12.125  15.111  67.736  1.00  0.00     0.101 A  
BRANCH  13  17
HETATM   17  O   UNL     1     -11.744  11.743  70.176  1.00  0.00    -0.316 OA 
HETATM   18  C   UNL     1     -12.626  10.646  69.983  1.00  0.00    -0.165 C  
ENDBRANCH  13  17
BRANCH  15  19
HETATM   19  O   UNL     1     -11.884  14.109  71.297  1.00  0.00    -0.273 OA 
HETATM   20  C   UNL     1     -13.102  14.334  71.994  1.00  0.00    -0.372 C  
ENDBRANCH  15  19
ENDBRANCH   9  11
ENDBRANCH   8   9
ENDBRANCH   7   8
ENDBRANCH   6   7
ENDBRANCH   5   6
ENDBRANCH   4   5
ENDBRANCH   3   4
BRANCH   3  21
HETATM   21  C   UNL     1      -8.800  11.363  67.782  1.00  0.00    -0.143 C  
HETATM   22  C   UNL     1      -8.223  10.746  69.068  1.00  0.00    -0.139 C  
BRANCH  21  23
HETATM   23  C   UNL     1      -7.816  12.459  67.273  1.00  0.00    -0.166 C  
BRANCH  23  24
HETATM   24  C   UNL     1      -8.226  13.890  67.549  1.00  0.00    -0.196 A  
HETATM   25  C   UNL     1      -8.987  16.061  66.744  1.00  0.00    -0.275 A  
HETATM   26  C   UNL     1      -8.937  16.575  68.038  1.00  0.00    -0.204 A  
HETATM   27  C   UNL     1      -8.167  14.419  68.844  1.00  0.00    -0.082 A  
HETATM   28  C   UNL     1      -8.532  15.746  69.085  1.00  0.00    -0.251 A  
HETATM   29  C   UNL     1      -8.632  14.728  66.502  1.00  0.00    -0.075 A  
BRANCH  26  30
HETATM   30  O   UNL     1      -9.310  17.838  68.408  1.00  0.00    -0.277 OA 
HETATM   31  C   UNL     1     -10.453  18.374  67.751  1.00  0.00    -0.409 C  
ENDBRANCH  26  30
ENDBRANCH  23  24
ENDBRANCH  21  23
ENDBRANCH   3  21
ENDBRANCH   2   3
TORSDOF 14
ENDMDL
MODEL       43
REMARK 921   NORMALIZED FREE ENERGY PREDICTED BY IDOCK:   -5.08 KCAL/MOL
REMARK 922        TOTAL FREE ENERGY PREDICTED BY IDOCK:  -12.02 KCAL/MOL
REMARK 923 INTER-LIGAND FREE ENERGY PREDICTED BY IDOCK:   -9.27 KCAL/MOL
REMARK 924 INTRA-LIGAND FREE ENERGY PREDICTED BY IDOCK:   -2.75 KCAL/MOL
REMARK 927      BINDING AFFINITY PREDICTED BY RF-SCORE:    0.00 PKD
ROOT
HETATM    1  C   UNL     1      -7.482   8.536  70.159  1.00  0.00    -0.060 C  
HETATM    2  C   UNL     1      -7.916   9.732  69.319  1.00  0.00    -0.112 C  
ENDROOT
BRANCH   2   3
HETATM    3  N   UNL     1      -8.907   9.491  68.264  1.00  0.00    -0.124 NA 
BRANCH   3   4
HETATM    4  C   UNL     1     -10.303   9.384  68.727  1.00  0.00    -0.209 C  
BRANCH   4   5
HETATM    5  C   UNL     1     -10.637  10.283  69.928  1.00  0.00    -0.324 C  
BRANCH   5   6
HETATM    6  C   UNL     1     -12.067  10.820  69.850  1.00  0.00    -0.410 C  
BRANCH   6   7
HETATM    7  C   UNL     1     -12.100  12.290  70.255  1.00  0.00    -0.295 C  
BRANCH   7   8
HETATM    8  O   UNL     1     -11.470  13.086  69.242  1.00  0.00    -0.274 OA 
BRANCH   8   9
HETATM    9  C   UNL     1     -11.646  14.425  69.370  1.00  0.00    -0.304 C  
HETATM   10  O   UNL     1     -12.445  14.987  70.100  1.00  0.00    -0.333 OA 
BRANCH   9  11
HETATM   11  C   UNL     1     -10.741  15.142  68.443  1.00  0.00    -0.248 A  
HETATM   12  C   UNL     1     -10.987  16.461  68.042  1.00  0.00    -0.327 A  
HETATM   13  C   UNL     1     -10.123  17.095  67.145  1.00  0.00    -0.295 A  
HETATM   14  C   UNL     1      -8.754  15.089  67.066  1.00  0.00    -0.262 A  
HETATM   15  C   UNL     1      -8.994  16.403  66.653  1.00  0.00    -0.258 A  
HETATM   16  C   UNL     1      -9.629  14.454  67.949  1.00  0.00    -0.219 A  
BRANCH  13  17
HETATM   17  O   UNL     1     -10.296  18.377  66.683  1.00  0.00    -0.362 OA 
HETATM   18  C   UNL     1     -10.891  19.323  67.560  1.00  0.00    -0.415 C  
ENDBRANCH  13  17
BRANCH  15  19
HETATM   19  O   UNL     1      -8.197  17.092  65.775  1.00  0.00    -0.515 OA 
HETATM   20  C   UNL     1      -6.978  17.625  66.276  1.00  0.00    -0.291 C  
ENDBRANCH  15  19
ENDBRANCH   9  11
ENDBRANCH   8   9
ENDBRANCH   7   8
ENDBRANCH   6   7
ENDBRANCH   5   6
ENDBRANCH   4   5
ENDBRANCH   3   4
BRANCH   3  21
HETATM   21  C   UNL     1      -8.778  10.294  67.022  1.00  0.00    -0.129 C  
HETATM   22  C   UNL     1      -7.426  10.163  66.299  1.00  0.00    -0.112 C  
BRANCH  21  23
HETATM   23  C   UNL     1      -9.919  10.077  65.983  1.00  0.00    -0.334 C  
BRANCH  23  24
HETATM   24  C   UNL     1     -10.616  11.331  65.499  1.00  0.00    -0.306 A  
HETATM   25  C   UNL     1     -12.324  13.045  65.792  1.00  0.00    -0.477 A  
HETATM   26  C   UNL     1     -11.962  13.633  64.582  1.00  0.00    -0.407 A  
HETATM   27  C   UNL     1     -10.268  11.922  64.279  1.00  0.00    -0.346 A  
HETATM   28  C   UNL     1     -10.928  13.070  63.833  1.00  0.00    -0.375 A  
HETATM   29  C   UNL     1     -11.655  11.901  66.246  1.00  0.00    -0.317 A  
BRANCH  26  30
HETATM   30  O   UNL     1     -12.499  14.779  64.062  1.00  0.00    -0.803 OA 
HETATM   31  C   UNL     1     -11.707  15.955  64.182  1.00  0.00    -0.027 C  
ENDBRANCH  26  30
ENDBRANCH  23  24
ENDBRANCH  21  23
ENDBRANCH   3  21
ENDBRANCH   2   3
TORSDOF 14
ENDMDL
MODEL       44
REMARK 921   NORMALIZED FREE ENERGY PREDICTED BY IDOCK:   -5.07 KCAL/MOL
REMARK 922        TOTAL FREE ENERGY PREDICTED BY IDOCK:  -12.01 KCAL/MOL
REMARK 923 INTER-LIGAND FREE ENERGY PREDICTED BY IDOCK:  -10.07 KCAL/MOL
REMARK 924 INTRA-LIGAND FREE ENERGY PREDICTED BY IDOCK:   -1.95 KCAL/MOL
REMARK 927      BINDING AFFINITY PREDICTED BY RF-SCORE:    0.00 PKD
ROOT
HETATM    1  C   UNL     1     -12.706   6.947  71.556  1.00  0.00    -0.396 C  
HETATM    2  C   UNL     1     -11.492   7.395  70.751  1.00  0.00    -0.288 C  
ENDROOT
BRANCH   2   3
HETATM    3  N   UNL     1     -11.378   8.824  70.440  1.00  0.00    -0.233 NA 
BRANCH   3   4
HETATM    4  C   UNL     1     -11.868   9.735  71.490  1.00  0.00    -0.399 C  
BRANCH   4   5
HETATM    5  C   UNL     1     -12.514  11.023  70.954  1.00  0.00    -0.509 C  
BRANCH   5   6
HETATM    6  C   UNL     1     -13.501  11.620  71.957  1.00  0.00    -0.304 C  
BRANCH   6   7
HETATM    7  C   UNL     1     -13.247  13.114  72.122  1.00  0.00    -0.462 C  
BRANCH   7   8
HETATM    8  O   UNL     1     -12.471  13.599  71.018  1.00  0.00    -0.354 OA 
BRANCH   8   9
HETATM    9  C   UNL     1     -12.338  14.947  70.956  1.00  0.00    -0.324 C  
HETATM   10  O   UNL     1     -12.674  15.752  71.809  1.00  0.00    -0.426 OA 
BRANCH   9  11
HETATM   11  C   UNL     1     -11.748  15.334  69.654  1.00  0.00    -0.355 A  
HETATM   12  C   UNL     1     -11.229  16.615  69.429  1.00  0.00    -0.085 A  
HETATM   13  C   UNL     1     -10.705  16.952  68.178  1.00  0.00    -0.375 A  
HETATM   14  C   UNL     1     -11.205  14.711  67.382  1.00  0.00    -0.351 A  
HETATM   15  C   UNL     1     -10.691  15.989  67.144  1.00  0.00    -0.283 A  
HETATM   16  C   UNL     1     -11.743  14.385  68.628  1.00  0.00    -0.367 A  
BRANCH  13  17
HETATM   17  O   UNL     1     -10.192  18.186  67.862  1.00  0.00    -0.342 OA 
HETATM   18  C   UNL     1      -9.977  19.105  68.924  1.00  0.00    -0.416 C  
ENDBRANCH  13  17
BRANCH  15  19
HETATM   19  O   UNL     1     -10.163  16.396  65.946  1.00  0.00    -0.332 OA 
HETATM   20  C   UNL     1     -10.945  16.184  64.778  1.00  0.00    -0.313 C  
ENDBRANCH  15  19
ENDBRANCH   9  11
ENDBRANCH   8   9
ENDBRANCH   7   8
ENDBRANCH   6   7
ENDBRANCH   5   6
ENDBRANCH   4   5
ENDBRANCH   3   4
BRANCH   3  21
HETATM   21  C   UNL     1     -10.101   9.283  69.836  1.00  0.00    -0.209 C  
HETATM   22  C   UNL     1      -8.868   9.158  70.748  1.00  0.00    -0.291 C  
BRANCH  21  23
HETATM   23  C   UNL     1      -9.765   8.643  68.456  1.00  0.00    -0.174 C  
BRANCH  23  24
HETATM   24  C   UNL     1     -10.123   9.473  67.241  1.00  0.00    -0.272 A  
HETATM   25  C   UNL     1      -9.911   9.926  64.856  1.00  0.00    -0.282 A  
HETATM   26  C   UNL     1     -10.734  11.043  64.980  1.00  0.00    -0.194 A  
HETATM   27  C   UNL     1     -10.939  10.605  67.358  1.00  0.00    -0.361 A  
HETATM   28  C   UNL     1     -11.250  11.374  66.233  1.00  0.00    -0.228 A  
HETATM   29  C   UNL     1      -9.607   9.148  65.980  1.00  0.00    -0.342 A  
BRANCH  26  30
HETATM   30  O   UNL     1     -11.147  11.846  63.951  1.00  0.00    -0.346 OA 
HETATM   31  C   UNL     1     -12.553  11.994  63.795  1.00  0.00    -0.454 C  
ENDBRANCH  26  30
ENDBRANCH  23  24
ENDBRANCH  21  23
ENDBRANCH   3  21
ENDBRANCH   2   3
TORSDOF 14
ENDMDL
MODEL       45
REMARK 921   NORMALIZED FREE ENERGY PREDICTED BY IDOCK:   -5.06 KCAL/MOL
REMARK 922        TOTAL FREE ENERGY PREDICTED BY IDOCK:  -11.99 KCAL/MOL
REMARK 923 INTER-LIGAND FREE ENERGY PREDICTED BY IDOCK:   -8.71 KCAL/MOL
REMARK 924 INTRA-LIGAND FREE ENERGY PREDICTED BY IDOCK:   -3.28 KCAL/MOL
REMARK 927      BINDING AFFINITY PREDICTED BY RF-SCORE:    0.00 PKD
ROOT
HETATM    1  C   UNL     1     -12.286  13.077  65.584  1.00  0.00    -0.521 C  
HETATM    2  C   UNL     1     -12.353  14.025  66.775  1.00  0.00    -0.332 C  
ENDROOT
BRANCH   2   3
HETATM    3  N   UNL     1     -11.084  14.424  67.392  1.00  0.00    -0.298 NA 
BRANCH   3   4
HETATM    4  C   UNL     1     -10.585  15.754  66.995  1.00  0.00    -0.316 C  
BRANCH   4   5
HETATM    5  C   UNL     1      -9.384  15.714  66.036  1.00  0.00    -0.384 C  
BRANCH   5   6
HETATM    6  C   UNL     1      -8.161  16.409  66.634  1.00  0.00    -0.321 C  
BRANCH   6   7
HETATM    7  C   UNL     1      -7.357  15.427  67.479  1.00  0.00    -0.195 C  
BRANCH   7   8
HETATM    8  O   UNL     1      -7.693  14.083  67.112  1.00  0.00    -0.135 OA 
BRANCH   8   9
HETATM    9  C   UNL     1      -7.563  13.165  68.103  1.00  0.00    -0.141 C  
HETATM   10  O   UNL     1      -7.067  13.347  69.202  1.00  0.00    -0.092 OA 
BRANCH   9  11
HETATM   11  C   UNL     1      -8.079  11.855  67.645  1.00  0.00    -0.148 A  
HETATM   12  C   UNL     1      -8.918  11.740  66.530  1.00  0.00    -0.196 A  
HETATM   13  C   UNL     1      -9.406  10.488  66.144  1.00  0.00    -0.176 A  
HETATM   14  C   UNL     1      -8.195   9.463  67.984  1.00  0.00    -0.114 A  
HETATM   15  C   UNL     1      -9.039   9.338  66.877  1.00  0.00    -0.131 A  
HETATM   16  C   UNL     1      -7.723  10.718  68.376  1.00  0.00    -0.113 A  
BRANCH  13  17
HETATM   17  O   UNL     1     -10.248  10.284  65.077  1.00  0.00    -0.320 OA 
HETATM   18  C   UNL     1      -9.787  10.662  63.788  1.00  0.00    -0.335 C  
ENDBRANCH  13  17
BRANCH  15  19
HETATM   19  O   UNL     1      -9.561   8.148  66.437  1.00  0.00    -0.217 OA 
HETATM   20  C   UNL     1     -10.512   7.501  67.272  1.00  0.00    -0.321 C  
ENDBRANCH  15  19
ENDBRANCH   9  11
ENDBRANCH   8   9
ENDBRANCH   7   8
ENDBRANCH   6   7
ENDBRANCH   5   6
ENDBRANCH   4   5
ENDBRANCH   3   4
BRANCH   3  21
HETATM   21  C   UNL     1     -10.931  14.169  68.846  1.00  0.00    -0.259 C  
HETATM   22  C   UNL     1     -10.367  15.347  69.659  1.00  0.00    -0.283 C  
BRANCH  21  23
HETATM   23  C   UNL     1     -12.217  13.649  69.556  1.00  0.00    -0.316 C  
BRANCH  23  24
HETATM   24  C   UNL     1     -12.147  12.234  70.092  1.00  0.00    -0.364 A  
HETATM   25  C   UNL     1     -12.825  10.559  71.727  1.00  0.00    -0.559 A  
HETATM   26  C   UNL     1     -11.982   9.620  71.137  1.00  0.00    -0.367 A  
HETATM   27  C   UNL     1     -11.292  11.287  69.514  1.00  0.00    -0.362 A  
HETATM   28  C   UNL     1     -11.222   9.989  70.026  1.00  0.00    -0.345 A  
HETATM   29  C   UNL     1     -12.906  11.858  71.208  1.00  0.00    -0.391 A  
BRANCH  26  30
HETATM   30  O   UNL     1     -11.859   8.311  71.516  1.00  0.00    -0.273 OA 
HETATM   31  C   UNL     1     -11.046   8.061  72.657  1.00  0.00    -0.387 C  
ENDBRANCH  26  30
ENDBRANCH  23  24
ENDBRANCH  21  23
ENDBRANCH   3  21
ENDBRANCH   2   3
TORSDOF 14
ENDMDL
MODEL       46
REMARK 921   NORMALIZED FREE ENERGY PREDICTED BY IDOCK:   -5.06 KCAL/MOL
REMARK 922        TOTAL FREE ENERGY PREDICTED BY IDOCK:  -11.98 KCAL/MOL
REMARK 923 INTER-LIGAND FREE ENERGY PREDICTED BY IDOCK:   -9.76 KCAL/MOL
REMARK 924 INTRA-LIGAND FREE ENERGY PREDICTED BY IDOCK:   -2.22 KCAL/MOL
REMARK 927      BINDING AFFINITY PREDICTED BY RF-SCORE:    0.00 PKD
ROOT
HETATM    1  C   UNL     1      -8.662   8.958  70.595  1.00  0.00    -0.230 C  
HETATM    2  C   UNL     1      -9.996   9.550  71.033  1.00  0.00    -0.199 C  
ENDROOT
BRANCH   2   3
HETATM    3  N   UNL     1     -10.816   8.756  71.956  1.00  0.00    -0.355 NA 
BRANCH   3   4
HETATM    4  C   UNL     1     -12.272   8.951  71.827  1.00  0.00    -0.359 C  
BRANCH   4   5
HETATM    5  C   UNL     1     -12.671  10.183  71.000  1.00  0.00    -0.481 C  
BRANCH   5   6
HETATM    6  C   UNL     1     -13.408  11.220  71.849  1.00  0.00    -0.413 C  
BRANCH   6   7
HETATM    7  C   UNL     1     -12.932  12.625  71.496  1.00  0.00    -0.282 C  
BRANCH   7   8
HETATM    8  O   UNL     1     -11.952  12.557  70.452  1.00  0.00    -0.340 OA 
BRANCH   8   9
HETATM    9  C   UNL     1     -12.054  13.522  69.503  1.00  0.00    -0.297 C  
HETATM   10  O   UNL     1     -12.364  14.688  69.682  1.00  0.00    -0.298 OA 
BRANCH   9  11
HETATM   11  C   UNL     1     -11.772  12.945  68.169  1.00  0.00    -0.395 A  
HETATM   12  C   UNL     1     -12.282  13.515  66.995  1.00  0.00    -0.351 A  
HETATM   13  C   UNL     1     -12.016  12.927  65.755  1.00  0.00    -0.443 A  
HETATM   14  C   UNL     1     -10.711  11.205  66.868  1.00  0.00    -0.322 A  
HETATM   15  C   UNL     1     -11.221  11.761  65.691  1.00  0.00    -0.267 A  
HETATM   16  C   UNL     1     -10.994  11.787  68.105  1.00  0.00    -0.275 A  
BRANCH  13  17
HETATM   17  O   UNL     1     -12.488  13.405  64.557  1.00  0.00    -0.547 OA 
HETATM   18  C   UNL     1     -12.391  14.802  64.317  1.00  0.00    -0.320 C  
ENDBRANCH  13  17
BRANCH  15  19
HETATM   19  O   UNL     1     -11.007  11.243  64.439  1.00  0.00    -0.332 OA 
HETATM   20  C   UNL     1      -9.873  10.405  64.260  1.00  0.00    -0.322 C  
ENDBRANCH  15  19
ENDBRANCH   9  11
ENDBRANCH   8   9
ENDBRANCH   7   8
ENDBRANCH   6   7
ENDBRANCH   5   6
ENDBRANCH   4   5
ENDBRANCH   3   4
BRANCH   3  21
HETATM   21  C   UNL     1     -10.445   7.330  72.131  1.00  0.00    -0.203 C  
HETATM   22  C   UNL     1     -10.303   6.869  73.593  1.00  0.00    -0.397 C  
BRANCH  21  23
HETATM   23  C   UNL     1     -11.363   6.320  71.380  1.00  0.00    -0.353 C  
BRANCH  23  24
HETATM   24  C   UNL     1     -10.869   5.866  70.022  1.00  0.00    -0.421 A  
HETATM   25  C   UNL     1     -10.948   6.007  67.591  1.00  0.00    -0.334 A  
HETATM   26  C   UNL     1     -10.002   4.990  67.486  1.00  0.00    -0.167 A  
HETATM   27  C   UNL     1      -9.929   4.835  69.907  1.00  0.00    -0.306 A  
HETATM   28  C   UNL     1      -9.492   4.412  68.649  1.00  0.00    -0.219 A  
HETATM   29  C   UNL     1     -11.379   6.441  68.851  1.00  0.00    -0.292 A  
BRANCH  26  30
HETATM   30  O   UNL     1      -9.463   4.521  66.319  1.00  0.00    -0.144 OA 
HETATM   31  C   UNL     1      -8.096   4.129  66.371  1.00  0.00    -0.098 C  
ENDBRANCH  26  30
ENDBRANCH  23  24
ENDBRANCH  21  23
ENDBRANCH   3  21
ENDBRANCH   2   3
TORSDOF 14
ENDMDL
MODEL       47
REMARK 921   NORMALIZED FREE ENERGY PREDICTED BY IDOCK:   -5.04 KCAL/MOL
REMARK 922        TOTAL FREE ENERGY PREDICTED BY IDOCK:  -11.96 KCAL/MOL
REMARK 923 INTER-LIGAND FREE ENERGY PREDICTED BY IDOCK:   -9.61 KCAL/MOL
REMARK 924 INTRA-LIGAND FREE ENERGY PREDICTED BY IDOCK:   -2.34 KCAL/MOL
REMARK 927      BINDING AFFINITY PREDICTED BY RF-SCORE:    0.00 PKD
ROOT
HETATM    1  C   UNL     1     -13.506   8.912  72.406  1.00  0.00    -0.499 C  
HETATM    2  C   UNL     1     -12.484   9.010  71.280  1.00  0.00    -0.289 C  
ENDROOT
BRANCH   2   3
HETATM    3  N   UNL     1     -12.330  10.311  70.620  1.00  0.00    -0.317 NA 
BRANCH   3   4
HETATM    4  C   UNL     1     -12.720  11.477  71.434  1.00  0.00    -0.364 C  
BRANCH   4   5
HETATM    5  C   UNL     1     -12.320  12.830  70.826  1.00  0.00    -0.375 C  
BRANCH   5   6
HETATM    6  C   UNL     1     -12.915  14.000  71.610  1.00  0.00    -0.430 C  
BRANCH   6   7
HETATM    7  C   UNL     1     -11.966  15.194  71.578  1.00  0.00    -0.360 C  
BRANCH   7   8
HETATM    8  O   UNL     1     -11.019  15.032  70.514  1.00  0.00    -0.245 OA 
BRANCH   8   9
HETATM    9  C   UNL     1     -11.295  15.733  69.386  1.00  0.00    -0.348 C  
HETATM   10  O   UNL     1     -12.281  15.615  68.678  1.00  0.00    -0.180 OA 
BRANCH   9  11
HETATM   11  C   UNL     1     -10.182  16.664  69.089  1.00  0.00    -0.309 A  
HETATM   12  C   UNL     1     -10.404  17.920  68.511  1.00  0.00    -0.365 A  
HETATM   13  C   UNL     1      -9.325  18.761  68.222  1.00  0.00    -0.337 A  
HETATM   14  C   UNL     1      -7.801  17.089  69.110  1.00  0.00    -0.089 A  
HETATM   15  C   UNL     1      -8.011  18.342  68.526  1.00  0.00    -0.308 A  
HETATM   16  C   UNL     1      -8.881  16.246  69.382  1.00  0.00    -0.056 A  
BRANCH  13  17
HETATM   17  O   UNL     1      -9.446  19.999  67.639  1.00  0.00    -0.345 OA 
HETATM   18  C   UNL     1     -10.047  20.070  66.354  1.00  0.00    -0.487 C  
ENDBRANCH  13  17
BRANCH  15  19
HETATM   19  O   UNL     1      -7.007  19.222  68.210  1.00  0.00    -0.254 OA 
HETATM   20  C   UNL     1      -6.132  18.864  67.148  1.00  0.00    -0.170 C  
ENDBRANCH  15  19
ENDBRANCH   9  11
ENDBRANCH   8   9
ENDBRANCH   7   8
ENDBRANCH   6   7
ENDBRANCH   5   6
ENDBRANCH   4   5
ENDBRANCH   3   4
BRANCH   3  21
HETATM   21  C   UNL     1     -11.074  10.539  69.862  1.00  0.00    -0.307 C  
HETATM   22  C   UNL     1      -9.904   9.616  70.248  1.00  0.00    -0.321 C  
BRANCH  21  23
HETATM   23  C   UNL     1     -11.233  10.515  68.313  1.00  0.00    -0.354 C  
BRANCH  23  24
HETATM   24  C   UNL     1     -10.841  11.788  67.591  1.00  0.00    -0.263 A  
HETATM   25  C   UNL     1      -9.226  13.564  67.169  1.00  0.00    -0.236 A  
HETATM   26  C   UNL     1     -10.118  14.188  66.300  1.00  0.00    -0.300 A  
HETATM   27  C   UNL     1     -11.735  12.430  66.727  1.00  0.00    -0.430 A  
HETATM   28  C   UNL     1     -11.370  13.613  66.078  1.00  0.00    -0.322 A  
HETATM   29  C   UNL     1      -9.587  12.372  67.811  1.00  0.00    -0.202 A  
BRANCH  26  30
HETATM   30  O   UNL     1      -9.863  15.320  65.575  1.00  0.00    -0.341 OA 
HETATM   31  C   UNL     1     -10.975  15.900  64.902  1.00  0.00    -0.411 C  
ENDBRANCH  26  30
ENDBRANCH  23  24
ENDBRANCH  21  23
ENDBRANCH   3  21
ENDBRANCH   2   3
TORSDOF 14
ENDMDL
MODEL       48
REMARK 921   NORMALIZED FREE ENERGY PREDICTED BY IDOCK:   -5.04 KCAL/MOL
REMARK 922        TOTAL FREE ENERGY PREDICTED BY IDOCK:  -11.95 KCAL/MOL
REMARK 923 INTER-LIGAND FREE ENERGY PREDICTED BY IDOCK:   -9.77 KCAL/MOL
REMARK 924 INTRA-LIGAND FREE ENERGY PREDICTED BY IDOCK:   -2.18 KCAL/MOL
REMARK 927      BINDING AFFINITY PREDICTED BY RF-SCORE:    0.00 PKD
ROOT
HETATM    1  C   UNL     1      -9.923   8.031  72.631  1.00  0.00    -0.358 C  
HETATM    2  C   UNL     1     -10.769   6.767  72.727  1.00  0.00    -0.246 C  
ENDROOT
BRANCH   2   3
HETATM    3  N   UNL     1     -11.267   6.191  71.473  1.00  0.00    -0.285 NA 
BRANCH   3   4
HETATM    4  C   UNL     1     -12.454   6.857  70.905  1.00  0.00    -0.262 C  
BRANCH   4   5
HETATM    5  C   UNL     1     -13.581   7.105  71.920  1.00  0.00    -0.279 C  
BRANCH   5   6
HETATM    6  C   UNL     1     -14.218   8.482  71.730  1.00  0.00    -0.525 C  
BRANCH   6   7
HETATM    7  C   UNL     1     -13.236   9.577  72.128  1.00  0.00    -0.451 C  
BRANCH   7   8
HETATM    8  O   UNL     1     -13.284  10.644  71.171  1.00  0.00    -0.345 OA 
BRANCH   8   9
HETATM    9  C   UNL     1     -12.153  10.813  70.441  1.00  0.00    -0.354 C  
HETATM   10  O   UNL     1     -11.320   9.961  70.181  1.00  0.00    -0.253 OA 
BRANCH   9  11
HETATM   11  C   UNL     1     -12.034  12.228  70.020  1.00  0.00    -0.379 A  
HETATM   12  C   UNL     1     -12.418  13.282  70.857  1.00  0.00    -0.424 A  
HETATM   13  C   UNL     1     -12.315  14.604  70.415  1.00  0.00    -0.339 A  
HETATM   14  C   UNL     1     -11.424  13.812  68.297  1.00  0.00    -0.348 A  
HETATM   15  C   UNL     1     -11.812  14.872  69.122  1.00  0.00    -0.307 A  
HETATM   16  C   UNL     1     -11.545  12.492  68.738  1.00  0.00    -0.366 A  
BRANCH  13  17
HETATM   17  O   UNL     1     -12.685  15.699  71.159  1.00  0.00    -0.433 OA 
HETATM   18  C   UNL     1     -11.922  15.999  72.319  1.00  0.00    -0.538 C  
ENDBRANCH  13  17
BRANCH  15  19
HETATM   19  O   UNL     1     -11.744  16.193  68.761  1.00  0.00    -0.364 OA 
HETATM   20  C   UNL     1     -10.454  16.746  68.533  1.00  0.00    -0.335 C  
ENDBRANCH  15  19
ENDBRANCH   9  11
ENDBRANCH   8   9
ENDBRANCH   7   8
ENDBRANCH   6   7
ENDBRANCH   5   6
ENDBRANCH   4   5
ENDBRANCH   3   4
BRANCH   3  21
HETATM   21  C   UNL     1     -10.257   5.848  70.440  1.00  0.00    -0.213 C  
HETATM   22  C   UNL     1      -9.665   4.432  70.553  1.00  0.00    -0.287 C  
BRANCH  21  23
HETATM   23  C   UNL     1     -10.723   6.074  68.971  1.00  0.00    -0.393 C  
BRANCH  23  24
HETATM   24  C   UNL     1     -10.065   7.226  68.241  1.00  0.00    -0.193 A  
HETATM   25  C   UNL     1      -8.356   8.961  68.140  1.00  0.00    -0.125 A  
HETATM   26  C   UNL     1      -8.864   9.411  66.922  1.00  0.00    -0.127 A  
HETATM   27  C   UNL     1     -10.576   7.694  67.025  1.00  0.00    -0.406 A  
HETATM   28  C   UNL     1      -9.971   8.768  66.367  1.00  0.00    -0.346 A  
HETATM   29  C   UNL     1      -8.954   7.877  68.794  1.00  0.00    -0.141 A  
BRANCH  26  30
HETATM   30  O   UNL     1      -8.335  10.419  66.163  1.00  0.00    -0.138 OA 
HETATM   31  C   UNL     1      -9.188  11.530  65.912  1.00  0.00    -0.210 C  
ENDBRANCH  26  30
ENDBRANCH  23  24
ENDBRANCH  21  23
ENDBRANCH   3  21
ENDBRANCH   2   3
TORSDOF 14
ENDMDL
MODEL       49
REMARK 921   NORMALIZED FREE ENERGY PREDICTED BY IDOCK:   -5.03 KCAL/MOL
REMARK 922        TOTAL FREE ENERGY PREDICTED BY IDOCK:  -11.94 KCAL/MOL
REMARK 923 INTER-LIGAND FREE ENERGY PREDICTED BY IDOCK:  -10.45 KCAL/MOL
REMARK 924 INTRA-LIGAND FREE ENERGY PREDICTED BY IDOCK:   -1.48 KCAL/MOL
REMARK 927      BINDING AFFINITY PREDICTED BY RF-SCORE:    0.00 PKD
ROOT
HETATM    1  C   UNL     1      -9.354  19.363  67.086  1.00  0.00    -0.390 C  
HETATM    2  C   UNL     1     -10.584  18.493  67.313  1.00  0.00    -0.413 C  
ENDROOT
BRANCH   2   3
HETATM    3  N   UNL     1     -10.412  17.040  67.202  1.00  0.00    -0.313 NA 
BRANCH   3   4
HETATM    4  C   UNL     1      -9.654  16.586  66.022  1.00  0.00    -0.290 C  
BRANCH   4   5
HETATM    5  C   UNL     1      -9.936  15.131  65.614  1.00  0.00    -0.387 C  
BRANCH   5   6
HETATM    6  C   UNL     1     -11.426  14.893  65.368  1.00  0.00    -0.320 C  
BRANCH   6   7
HETATM    7  C   UNL     1     -11.959  13.842  66.335  1.00  0.00    -0.438 C  
BRANCH   7   8
HETATM    8  O   UNL     1     -12.660  12.824  65.608  1.00  0.00    -0.596 OA 
BRANCH   8   9
HETATM    9  C   UNL     1     -12.137  12.520  64.394  1.00  0.00    -0.424 C  
HETATM   10  O   UNL     1     -12.552  12.892  63.309  1.00  0.00    -0.685 OA 
BRANCH   9  11
HETATM   11  C   UNL     1     -10.980  11.610  64.559  1.00  0.00    -0.376 A  
HETATM   12  C   UNL     1     -10.807  10.839  65.715  1.00  0.00    -0.076 A  
HETATM   13  C   UNL     1      -9.688  10.010  65.845  1.00  0.00    -0.247 A  
HETATM   14  C   UNL     1      -8.927  10.716  63.648  1.00  0.00    -0.211 A  
HETATM   15  C   UNL     1      -8.739   9.947  64.800  1.00  0.00    -0.189 A  
HETATM   16  C   UNL     1     -10.037  11.555  63.530  1.00  0.00    -0.446 A  
BRANCH  13  17
HETATM   17  O   UNL     1      -9.427   9.234  66.948  1.00  0.00    -0.147 OA 
HETATM   18  C   UNL     1     -10.283   8.128  67.197  1.00  0.00    -0.296 C  
ENDBRANCH  13  17
BRANCH  15  19
HETATM   19  O   UNL     1      -7.669   9.114  65.004  1.00  0.00    -0.103 OA 
HETATM   20  C   UNL     1      -7.522   8.008  64.124  1.00  0.00    -0.107 C  
ENDBRANCH  15  19
ENDBRANCH   9  11
ENDBRANCH   8   9
ENDBRANCH   7   8
ENDBRANCH   6   7
ENDBRANCH   5   6
ENDBRANCH   4   5
ENDBRANCH   3   4
BRANCH   3  21
HETATM   21  C   UNL     1     -10.034  16.310  68.438  1.00  0.00    -0.234 C  
HETATM   22  C   UNL     1      -8.542  16.386  68.809  1.00  0.00    -0.250 C  
BRANCH  21  23
HETATM   23  C   UNL     1     -10.876  16.678  69.697  1.00  0.00    -0.282 C  
BRANCH  23  24
HETATM   24  C   UNL     1     -11.602  15.527  70.362  1.00  0.00    -0.359 A  
HETATM   25  C   UNL     1     -13.033  14.681  72.144  1.00  0.00    -0.421 A  
HETATM   26  C   UNL     1     -12.912  13.385  71.646  1.00  0.00    -0.355 A  
HETATM   27  C   UNL     1     -11.475  14.220  69.878  1.00  0.00    -0.301 A  
HETATM   28  C   UNL     1     -12.135  13.162  70.508  1.00  0.00    -0.385 A  
HETATM   29  C   UNL     1     -12.381  15.744  71.506  1.00  0.00    -0.514 A  
BRANCH  26  30
HETATM   30  O   UNL     1     -13.542  12.278  72.146  1.00  0.00    -0.461 OA 
HETATM   31  C   UNL     1     -13.006  11.019  71.754  1.00  0.00    -0.438 C  
ENDBRANCH  26  30
ENDBRANCH  23  24
ENDBRANCH  21  23
ENDBRANCH   3  21
ENDBRANCH   2   3
TORSDOF 14
ENDMDL
MODEL       50
REMARK 921   NORMALIZED FREE ENERGY PREDICTED BY IDOCK:   -5.03 KCAL/MOL
REMARK 922        TOTAL FREE ENERGY PREDICTED BY IDOCK:  -11.93 KCAL/MOL
REMARK 923 INTER-LIGAND FREE ENERGY PREDICTED BY IDOCK:   -9.34 KCAL/MOL
REMARK 924 INTRA-LIGAND FREE ENERGY PREDICTED BY IDOCK:   -2.59 KCAL/MOL
REMARK 927      BINDING AFFINITY PREDICTED BY RF-SCORE:    0.00 PKD
ROOT
HETATM    1  C   UNL     1     -12.990  15.881  73.352  1.00  0.00    -0.693 C  
HETATM    2  C   UNL     1     -11.840  15.710  72.367  1.00  0.00    -0.483 C  
ENDROOT
BRANCH   2   3
HETATM    3  N   UNL     1     -11.991  14.687  71.325  1.00  0.00    -0.339 NA 
BRANCH   3   4
HETATM    4  C   UNL     1     -13.251  13.923  71.375  1.00  0.00    -0.321 C  
BRANCH   4   5
HETATM    5  C   UNL     1     -13.135  12.563  72.081  1.00  0.00    -0.428 C  
BRANCH   5   6
HETATM    6  C   UNL     1     -12.737  11.453  71.107  1.00  0.00    -0.479 C  
BRANCH   6   7
HETATM    7  C   UNL     1     -12.842  10.093  71.787  1.00  0.00    -0.452 C  
BRANCH   7   8
HETATM    8  O   UNL     1     -12.234   9.090  70.962  1.00  0.00    -0.289 OA 
BRANCH   8   9
HETATM    9  C   UNL     1     -10.878   9.097  70.951  1.00  0.00    -0.278 C  
HETATM   10  O   UNL     1     -10.142   9.090  71.924  1.00  0.00    -0.339 OA 
BRANCH   9  11
HETATM   11  C   UNL     1     -10.387   9.161  69.555  1.00  0.00    -0.220 A  
HETATM   12  C   UNL     1     -10.477   8.064  68.690  1.00  0.00    -0.196 A  
HETATM   13  C   UNL     1      -9.979   8.155  67.387  1.00  0.00    -0.209 A  
HETATM   14  C   UNL     1      -9.315  10.453  67.815  1.00  0.00    -0.155 A  
HETATM   15  C   UNL     1      -9.394   9.362  66.944  1.00  0.00    -0.147 A  
HETATM   16  C   UNL     1      -9.799  10.352  69.121  1.00  0.00    -0.237 A  
BRANCH  13  17
HETATM   17  O   UNL     1     -10.008   7.127  66.476  1.00  0.00    -0.182 OA 
HETATM   18  C   UNL     1      -9.096   6.053  66.660  1.00  0.00    -0.137 C  
ENDBRANCH  13  17
BRANCH  15  19
HETATM   19  O   UNL     1      -8.926   9.370  65.654  1.00  0.00    -0.166 OA 
HETATM   20  C   UNL     1      -9.709  10.044  64.678  1.00  0.00    -0.269 C  
ENDBRANCH  15  19
ENDBRANCH   9  11
ENDBRANCH   8   9
ENDBRANCH   7   8
ENDBRANCH   6   7
ENDBRANCH   5   6
ENDBRANCH   4   5
ENDBRANCH   3   4
BRANCH   3  21
HETATM   21  C   UNL     1     -11.611  15.071  69.943  1.00  0.00    -0.293 C  
HETATM   22  C   UNL     1     -11.011  16.481  69.800  1.00  0.00    -0.292 C  
BRANCH  21  23
HETATM   23  C   UNL     1     -10.674  14.058  69.219  1.00  0.00    -0.144 C  
BRANCH  23  24
HETATM   24  C   UNL     1     -10.936  13.860  67.741  1.00  0.00    -0.271 A  
HETATM   25  C   UNL     1     -12.441  13.240  65.928  1.00  0.00    -0.433 A  
HETATM   26  C   UNL     1     -11.422  13.430  64.996  1.00  0.00    -0.311 A  
HETATM   27  C   UNL     1      -9.915  14.035  66.799  1.00  0.00    -0.268 A  
HETATM   28  C   UNL     1     -10.162  13.834  65.439  1.00  0.00    -0.344 A  
HETATM   29  C   UNL     1     -12.198  13.453  67.290  1.00  0.00    -0.282 A  
BRANCH  26  30
HETATM   30  O   UNL     1     -11.551  13.309  63.640  1.00  0.00    -0.411 OA 
HETATM   31  C   UNL     1     -12.320  12.205  63.177  1.00  0.00    -0.268 C  
ENDBRANCH  26  30
ENDBRANCH  23  24
ENDBRANCH  21  23
ENDBRANCH   3  21
ENDBRANCH   2   3
TORSDOF 14
ENDMDL
MODEL       51
REMARK 921   NORMALIZED FREE ENERGY PREDICTED BY IDOCK:   -5.02 KCAL/MOL
REMARK 922        TOTAL FREE ENERGY PREDICTED BY IDOCK:  -11.92 KCAL/MOL
REMARK 923 INTER-LIGAND FREE ENERGY PREDICTED BY IDOCK:   -9.38 KCAL/MOL
REMARK 924 INTRA-LIGAND FREE ENERGY PREDICTED BY IDOCK:   -2.54 KCAL/MOL
REMARK 927      BINDING AFFINITY PREDICTED BY RF-SCORE:    0.00 PKD
ROOT
HETATM    1  C   UNL     1     -10.476   5.814  74.302  1.00  0.00    -0.237 C  
HETATM    2  C   UNL     1     -11.269   5.488  73.043  1.00  0.00    -0.293 C  
ENDROOT
BRANCH   2   3
HETATM    3  N   UNL     1     -11.357   6.529  72.012  1.00  0.00    -0.271 NA 
BRANCH   3   4
HETATM    4  C   UNL     1     -11.318   7.914  72.516  1.00  0.00    -0.390 C  
BRANCH   4   5
HETATM    5  C   UNL     1     -12.667   8.647  72.445  1.00  0.00    -0.423 C  
BRANCH   5   6
HETATM    6  C   UNL     1     -12.802   9.459  71.156  1.00  0.00    -0.322 C  
BRANCH   6   7
HETATM    7  C   UNL     1     -12.762  10.951  71.467  1.00  0.00    -0.428 C  
BRANCH   7   8
HETATM    8  O   UNL     1     -11.799  11.597  70.624  1.00  0.00    -0.321 OA 
BRANCH   8   9
HETATM    9  C   UNL     1     -12.107  12.870  70.269  1.00  0.00    -0.302 C  
HETATM   10  O   UNL     1     -12.634  13.715  70.974  1.00  0.00    -0.345 OA 
BRANCH   9  11
HETATM   11  C   UNL     1     -11.748  13.097  68.850  1.00  0.00    -0.368 A  
HETATM   12  C   UNL     1     -11.425  14.370  68.365  1.00  0.00    -0.329 A  
HETATM   13  C   UNL     1     -11.116  14.549  67.013  1.00  0.00    -0.322 A  
HETATM   14  C   UNL     1     -11.439  12.169  66.639  1.00  0.00    -0.426 A  
HETATM   15  C   UNL     1     -11.122  13.436  66.142  1.00  0.00    -0.288 A  
HETATM   16  C   UNL     1     -11.763  11.999  67.986  1.00  0.00    -0.398 A  
BRANCH  13  17
HETATM   17  O   UNL     1     -10.806  15.761  66.446  1.00  0.00    -0.301 OA 
HETATM   18  C   UNL     1     -10.586  16.862  67.315  1.00  0.00    -0.270 C  
ENDBRANCH  13  17
BRANCH  15  19
HETATM   19  O   UNL     1     -10.811  13.694  64.830  1.00  0.00    -0.332 OA 
HETATM   20  C   UNL     1     -11.366  12.834  63.844  1.00  0.00    -0.442 C  
ENDBRANCH  15  19
ENDBRANCH   9  11
ENDBRANCH   8   9
ENDBRANCH   7   8
ENDBRANCH   6   7
ENDBRANCH   5   6
ENDBRANCH   4   5
ENDBRANCH   3   4
BRANCH   3  21
HETATM   21  C   UNL     1     -10.531   6.342  70.793  1.00  0.00    -0.222 C  
HETATM   22  C   UNL     1      -9.903   4.946  70.639  1.00  0.00    -0.289 C  
BRANCH  21  23
HETATM   23  C   UNL     1     -11.245   6.714  69.459  1.00  0.00    -0.383 C  
BRANCH  23  24
HETATM   24  C   UNL     1     -10.499   7.679  68.560  1.00  0.00    -0.206 A  
HETATM   25  C   UNL     1      -9.793   8.374  66.334  1.00  0.00    -0.310 A  
HETATM   26  C   UNL     1      -9.068   9.433  66.879  1.00  0.00    -0.135 A  
HETATM   27  C   UNL     1      -9.758   8.737  69.099  1.00  0.00    -0.175 A  
HETATM   28  C   UNL     1      -9.060   9.612  68.262  1.00  0.00    -0.123 A  
HETATM   29  C   UNL     1     -10.502   7.503  67.170  1.00  0.00    -0.407 A  
BRANCH  26  30
HETATM   30  O   UNL     1      -8.384  10.380  66.166  1.00  0.00    -0.138 OA 
HETATM   31  C   UNL     1      -8.681  10.456  64.777  1.00  0.00    -0.186 C  
ENDBRANCH  26  30
ENDBRANCH  23  24
ENDBRANCH  21  23
ENDBRANCH   3  21
ENDBRANCH   2   3
TORSDOF 14
ENDMDL
MODEL       52
REMARK 921   NORMALIZED FREE ENERGY PREDICTED BY IDOCK:   -5.00 KCAL/MOL
REMARK 922        TOTAL FREE ENERGY PREDICTED BY IDOCK:  -11.88 KCAL/MOL
REMARK 923 INTER-LIGAND FREE ENERGY PREDICTED BY IDOCK:  -10.10 KCAL/MOL
REMARK 924 INTRA-LIGAND FREE ENERGY PREDICTED BY IDOCK:   -1.77 KCAL/MOL
REMARK 927      BINDING AFFINITY PREDICTED BY RF-SCORE:    0.00 PKD
ROOT
HETATM    1  C   UNL     1     -14.256   8.288  71.844  1.00  0.00    -0.535 C  
HETATM    2  C   UNL     1     -13.330   7.105  71.587  1.00  0.00    -0.331 C  
ENDROOT
BRANCH   2   3
HETATM    3  N   UNL     1     -11.901   7.391  71.415  1.00  0.00    -0.287 NA 
BRANCH   3   4
HETATM    4  C   UNL     1     -11.457   8.699  71.931  1.00  0.00    -0.348 C  
BRANCH   4   5
HETATM    5  C   UNL     1     -10.879   9.634  70.858  1.00  0.00    -0.409 C  
BRANCH   5   6
HETATM    6  C   UNL     1     -11.969  10.477  70.195  1.00  0.00    -0.398 C  
BRANCH   6   7
HETATM    7  C   UNL     1     -11.454  11.075  68.891  1.00  0.00    -0.296 C  
BRANCH   7   8
HETATM    8  O   UNL     1     -12.379  12.058  68.409  1.00  0.00    -0.270 OA 
BRANCH   8   9
HETATM    9  C   UNL     1     -11.967  12.751  67.318  1.00  0.00    -0.280 C  
HETATM   10  O   UNL     1     -11.915  12.340  66.171  1.00  0.00    -0.579 OA 
BRANCH   9  11
HETATM   11  C   UNL     1     -11.530  14.108  67.720  1.00  0.00    -0.352 A  
HETATM   12  C   UNL     1     -11.650  14.561  69.040  1.00  0.00    -0.330 A  
HETATM   13  C   UNL     1     -11.250  15.858  69.376  1.00  0.00    -0.336 A  
HETATM   14  C   UNL     1     -10.593  16.239  67.067  1.00  0.00    -0.284 A  
HETATM   15  C   UNL     1     -10.715  16.705  68.380  1.00  0.00    -0.353 A  
HETATM   16  C   UNL     1     -11.009  14.949  66.734  1.00  0.00    -0.326 A  
BRANCH  13  17
HETATM   17  O   UNL     1     -11.347  16.393  70.638  1.00  0.00    -0.368 OA 
HETATM   18  C   UNL     1     -12.203  15.745  71.568  1.00  0.00    -0.453 C  
ENDBRANCH  13  17
BRANCH  15  19
HETATM   19  O   UNL     1     -10.349  17.962  68.788  1.00  0.00    -0.366 OA 
HETATM   20  C   UNL     1      -9.035  18.399  68.467  1.00  0.00    -0.315 C  
ENDBRANCH  15  19
ENDBRANCH   9  11
ENDBRANCH   8   9
ENDBRANCH   7   8
ENDBRANCH   6   7
ENDBRANCH   5   6
ENDBRANCH   4   5
ENDBRANCH   3   4
BRANCH   3  21
HETATM   21  C   UNL     1     -10.951   6.297  71.738  1.00  0.00    -0.258 C  
HETATM   22  C   UNL     1     -11.417   5.335  72.845  1.00  0.00    -0.339 C  
BRANCH  21  23
HETATM   23  C   UNL     1     -10.485   5.455  70.513  1.00  0.00    -0.335 C  
BRANCH  23  24
HETATM   24  C   UNL     1     -10.135   6.242  69.268  1.00  0.00    -0.213 A  
HETATM   25  C   UNL     1      -8.634   7.744  68.071  1.00  0.00    -0.123 A  
HETATM   26  C   UNL     1      -9.497   7.760  66.978  1.00  0.00    -0.164 A  
HETATM   27  C   UNL     1     -11.002   6.275  68.169  1.00  0.00    -0.412 A  
HETATM   28  C   UNL     1     -10.678   7.018  67.031  1.00  0.00    -0.423 A  
HETATM   29  C   UNL     1      -8.952   6.991  69.209  1.00  0.00    -0.138 A  
BRANCH  26  30
HETATM   30  O   UNL     1      -9.272   8.409  65.794  1.00  0.00    -0.182 OA 
HETATM   31  C   UNL     1      -9.820   9.717  65.681  1.00  0.00    -0.299 C  
ENDBRANCH  26  30
ENDBRANCH  23  24
ENDBRANCH  21  23
ENDBRANCH   3  21
ENDBRANCH   2   3
TORSDOF 14
ENDMDL
MODEL       53
REMARK 921   NORMALIZED FREE ENERGY PREDICTED BY IDOCK:   -4.98 KCAL/MOL
REMARK 922        TOTAL FREE ENERGY PREDICTED BY IDOCK:  -11.85 KCAL/MOL
REMARK 923 INTER-LIGAND FREE ENERGY PREDICTED BY IDOCK:   -9.43 KCAL/MOL
REMARK 924 INTRA-LIGAND FREE ENERGY PREDICTED BY IDOCK:   -2.42 KCAL/MOL
REMARK 927      BINDING AFFINITY PREDICTED BY RF-SCORE:    0.00 PKD
ROOT
HETATM    1  C   UNL     1     -14.024   7.416  71.524  1.00  0.00    -0.517 C  
HETATM    2  C   UNL     1     -12.628   6.880  71.818  1.00  0.00    -0.344 C  
ENDROOT
BRANCH   2   3
HETATM    3  N   UNL     1     -11.514   7.438  71.045  1.00  0.00    -0.275 NA 
BRANCH   3   4
HETATM    4  C   UNL     1     -11.500   7.079  69.615  1.00  0.00    -0.076 C  
BRANCH   4   5
HETATM    5  C   UNL     1     -10.156   6.520  69.120  1.00  0.00    -0.190 C  
BRANCH   5   6
HETATM    6  C   UNL     1      -9.399   7.541  68.271  1.00  0.00    -0.141 C  
BRANCH   6   7
HETATM    7  C   UNL     1     -10.193   7.872  67.012  1.00  0.00    -0.312 C  
BRANCH   7   8
HETATM    8  O   UNL     1     -10.563   9.256  67.021  1.00  0.00    -0.246 OA 
BRANCH   8   9
HETATM    9  C   UNL     1     -10.045   9.998  66.010  1.00  0.00    -0.248 C  
HETATM   10  O   UNL     1      -9.537   9.576  64.985  1.00  0.00    -0.268 OA 
BRANCH   9  11
HETATM   11  C   UNL     1     -10.141  11.438  66.343  1.00  0.00    -0.255 A  
HETATM   12  C   UNL     1      -9.002  12.222  66.564  1.00  0.00    -0.161 A  
HETATM   13  C   UNL     1      -9.133  13.572  66.902  1.00  0.00    -0.239 A  
HETATM   14  C   UNL     1     -11.551  13.353  66.779  1.00  0.00    -0.404 A  
HETATM   15  C   UNL     1     -10.421  14.144  67.009  1.00  0.00    -0.271 A  
HETATM   16  C   UNL     1     -11.414  12.001  66.458  1.00  0.00    -0.413 A  
BRANCH  13  17
HETATM   17  O   UNL     1      -8.075  14.411  67.154  1.00  0.00    -0.193 OA 
HETATM   18  C   UNL     1      -7.184  14.057  68.202  1.00  0.00    -0.129 C  
ENDBRANCH  13  17
BRANCH  15  19
HETATM   19  O   UNL     1     -10.466  15.473  67.347  1.00  0.00    -0.269 OA 
HETATM   20  C   UNL     1     -11.642  15.946  67.991  1.00  0.00    -0.168 C  
ENDBRANCH  15  19
ENDBRANCH   9  11
ENDBRANCH   8   9
ENDBRANCH   7   8
ENDBRANCH   6   7
ENDBRANCH   5   6
ENDBRANCH   4   5
ENDBRANCH   3   4
BRANCH   3  21
HETATM   21  C   UNL     1     -11.181   8.867  71.277  1.00  0.00    -0.298 C  
HETATM   22  C   UNL     1      -9.683   9.165  71.462  1.00  0.00    -0.313 C  
BRANCH  21  23
HETATM   23  C   UNL     1     -11.754   9.850  70.213  1.00  0.00    -0.286 C  
BRANCH  23  24
HETATM   24  C   UNL     1     -12.327  11.144  70.754  1.00  0.00    -0.504 A  
HETATM   25  C   UNL     1     -12.510  13.572  70.665  1.00  0.00    -0.405 A  
HETATM   26  C   UNL     1     -13.338  13.566  71.785  1.00  0.00    -0.397 A  
HETATM   27  C   UNL     1     -13.149  11.149  71.887  1.00  0.00    -0.513 A  
HETATM   28  C   UNL     1     -13.659  12.350  72.388  1.00  0.00    -0.262 A  
HETATM   29  C   UNL     1     -12.007  12.369  70.154  1.00  0.00    -0.376 A  
BRANCH  26  30
HETATM   30  O   UNL     1     -13.933  14.665  72.341  1.00  0.00    -0.452 OA 
HETATM   31  C   UNL     1     -13.063  15.719  72.737  1.00  0.00    -0.503 C  
ENDBRANCH  26  30
ENDBRANCH  23  24
ENDBRANCH  21  23
ENDBRANCH   3  21
ENDBRANCH   2   3
TORSDOF 14
ENDMDL
MODEL       54
REMARK 921   NORMALIZED FREE ENERGY PREDICTED BY IDOCK:   -4.98 KCAL/MOL
REMARK 922        TOTAL FREE ENERGY PREDICTED BY IDOCK:  -11.84 KCAL/MOL
REMARK 923 INTER-LIGAND FREE ENERGY PREDICTED BY IDOCK:  -10.26 KCAL/MOL
REMARK 924 INTRA-LIGAND FREE ENERGY PREDICTED BY IDOCK:   -1.58 KCAL/MOL
REMARK 927      BINDING AFFINITY PREDICTED BY RF-SCORE:    0.00 PKD
ROOT
HETATM    1  C   UNL     1     -12.629  15.762  73.823  1.00  0.00    -0.733 C  
HETATM    2  C   UNL     1     -12.639  15.949  72.310  1.00  0.00    -0.454 C  
ENDROOT
BRANCH   2   3
HETATM    3  N   UNL     1     -12.464  14.751  71.481  1.00  0.00    -0.320 NA 
BRANCH   3   4
HETATM    4  C   UNL     1     -13.632  13.852  71.423  1.00  0.00    -0.215 C  
BRANCH   4   5
HETATM    5  C   UNL     1     -13.470  12.558  72.236  1.00  0.00    -0.490 C  
BRANCH   5   6
HETATM    6  C   UNL     1     -13.077  11.378  71.347  1.00  0.00    -0.377 C  
BRANCH   6   7
HETATM    7  C   UNL     1     -13.514  10.066  71.989  1.00  0.00    -0.347 C  
BRANCH   7   8
HETATM    8  O   UNL     1     -13.392   8.997  71.041  1.00  0.00    -0.159 OA 
BRANCH   8   9
HETATM    9  C   UNL     1     -12.886   7.841  71.539  1.00  0.00    -0.329 C  
HETATM   10  O   UNL     1     -13.488   6.793  71.701  1.00  0.00    -0.276 OA 
BRANCH   9  11
HETATM   11  C   UNL     1     -11.467   8.035  71.915  1.00  0.00    -0.341 A  
HETATM   12  C   UNL     1     -10.572   8.727  71.090  1.00  0.00    -0.310 A  
HETATM   13  C   UNL     1      -9.233   8.867  71.467  1.00  0.00    -0.252 A  
HETATM   14  C   UNL     1      -9.694   7.636  73.511  1.00  0.00    -0.358 A  
HETATM   15  C   UNL     1      -8.790   8.318  72.691  1.00  0.00    -0.234 A  
HETATM   16  C   UNL     1     -11.027   7.484  73.121  1.00  0.00    -0.420 A  
BRANCH  13  17
HETATM   17  O   UNL     1      -8.282   9.512  70.713  1.00  0.00    -0.251 OA 
HETATM   18  C   UNL     1      -8.462   9.542  69.305  1.00  0.00    -0.139 C  
ENDBRANCH  13  17
BRANCH  15  19
HETATM   19  O   UNL     1      -7.463   8.495  72.988  1.00  0.00    -0.294 OA 
HETATM   20  C   UNL     1      -6.662   7.330  73.135  1.00  0.00    -0.065 C  
ENDBRANCH  15  19
ENDBRANCH   9  11
ENDBRANCH   8   9
ENDBRANCH   7   8
ENDBRANCH   6   7
ENDBRANCH   5   6
ENDBRANCH   4   5
ENDBRANCH   3   4
BRANCH   3  21
HETATM   21  C   UNL     1     -11.821  14.936  70.156  1.00  0.00    -0.308 C  
HETATM   22  C   UNL     1     -10.862  16.136  70.060  1.00  0.00    -0.349 C  
BRANCH  21  23
HETATM   23  C   UNL     1     -11.093  13.674  69.603  1.00  0.00    -0.067 C  
BRANCH  23  24
HETATM   24  C   UNL     1     -11.404  13.312  68.166  1.00  0.00    -0.323 A  
HETATM   25  C   UNL     1     -12.389  13.881  66.011  1.00  0.00    -0.511 A  
HETATM   26  C   UNL     1     -12.043  12.629  65.505  1.00  0.00    -0.458 A  
HETATM   27  C   UNL     1     -11.073  12.052  67.653  1.00  0.00    -0.319 A  
HETATM   28  C   UNL     1     -11.380  11.721  66.331  1.00  0.00    -0.361 A  
HETATM   29  C   UNL     1     -12.072  14.219  67.332  1.00  0.00    -0.371 A  
BRANCH  26  30
HETATM   30  O   UNL     1     -12.247  12.205  64.221  1.00  0.00    -0.397 OA 
HETATM   31  C   UNL     1     -11.079  11.912  63.462  1.00  0.00    -0.428 C  
ENDBRANCH  26  30
ENDBRANCH  23  24
ENDBRANCH  21  23
ENDBRANCH   3  21
ENDBRANCH   2   3
TORSDOF 14
ENDMDL
MODEL       55
REMARK 921   NORMALIZED FREE ENERGY PREDICTED BY IDOCK:   -4.97 KCAL/MOL
REMARK 922        TOTAL FREE ENERGY PREDICTED BY IDOCK:  -11.83 KCAL/MOL
REMARK 923 INTER-LIGAND FREE ENERGY PREDICTED BY IDOCK:   -9.80 KCAL/MOL
REMARK 924 INTRA-LIGAND FREE ENERGY PREDICTED BY IDOCK:   -2.03 KCAL/MOL
REMARK 927      BINDING AFFINITY PREDICTED BY RF-SCORE:    0.00 PKD
ROOT
HETATM    1  C   UNL     1     -11.715  11.076  69.152  1.00  0.00    -0.403 C  
HETATM    2  C   UNL     1     -10.514  11.253  68.230  1.00  0.00    -0.196 C  
ENDROOT
BRANCH   2   3
HETATM    3  N   UNL     1      -9.880  10.037  67.708  1.00  0.00    -0.153 NA 
BRANCH   3   4
HETATM    4  C   UNL     1      -9.994   9.846  66.251  1.00  0.00    -0.256 C  
BRANCH   4   5
HETATM    5  C   UNL     1      -9.474  11.029  65.419  1.00  0.00    -0.257 C  
BRANCH   5   6
HETATM    6  C   UNL     1      -9.857  10.896  63.945  1.00  0.00    -0.385 C  
BRANCH   6   7
HETATM    7  C   UNL     1     -11.231  11.509  63.700  1.00  0.00    -0.362 C  
BRANCH   7   8
HETATM    8  O   UNL     1     -11.196  12.912  63.994  1.00  0.00    -0.367 OA 
BRANCH   8   9
HETATM    9  C   UNL     1     -12.136  13.340  64.873  1.00  0.00    -0.397 C  
HETATM   10  O   UNL     1     -13.285  12.941  64.961  1.00  0.00    -0.765 OA 
BRANCH   9  11
HETATM   11  C   UNL     1     -11.580  14.425  65.714  1.00  0.00    -0.353 A  
HETATM   12  C   UNL     1     -11.752  14.444  67.103  1.00  0.00    -0.424 A  
HETATM   13  C   UNL     1     -11.235  15.499  67.861  1.00  0.00    -0.325 A  
HETATM   14  C   UNL     1     -10.356  16.507  65.832  1.00  0.00    -0.365 A  
HETATM   15  C   UNL     1     -10.528  16.540  67.218  1.00  0.00    -0.304 A  
HETATM   16  C   UNL     1     -10.889  15.459  65.078  1.00  0.00    -0.462 A  
BRANCH  13  17
HETATM   17  O   UNL     1     -11.371  15.610  69.223  1.00  0.00    -0.296 OA 
HETATM   18  C   UNL     1     -12.245  14.702  69.878  1.00  0.00    -0.316 C  
ENDBRANCH  13  17
BRANCH  15  19
HETATM   19  O   UNL     1     -10.054  17.539  68.030  1.00  0.00    -0.297 OA 
HETATM   20  C   UNL     1      -8.879  18.221  67.612  1.00  0.00    -0.256 C  
ENDBRANCH  15  19
ENDBRANCH   9  11
ENDBRANCH   8   9
ENDBRANCH   7   8
ENDBRANCH   6   7
ENDBRANCH   5   6
ENDBRANCH   4   5
ENDBRANCH   3   4
BRANCH   3  21
HETATM   21  C   UNL     1      -8.527   9.709  68.222  1.00  0.00    -0.118 C  
HETATM   22  C   UNL     1      -7.895  10.782  69.126  1.00  0.00    -0.142 C  
BRANCH  21  23
HETATM   23  C   UNL     1      -8.418   8.330  68.940  1.00  0.00    -0.128 C  
BRANCH  23  24
HETATM   24  C   UNL     1      -9.646   7.891  69.710  1.00  0.00    -0.167 A  
HETATM   25  C   UNL     1     -11.623   6.479  69.905  1.00  0.00    -0.433 A  
HETATM   26  C   UNL     1     -11.969   7.103  71.103  1.00  0.00    -0.342 A  
HETATM   27  C   UNL     1     -10.009   8.520  70.907  1.00  0.00    -0.237 A  
HETATM   28  C   UNL     1     -11.153   8.119  71.602  1.00  0.00    -0.310 A  
HETATM   29  C   UNL     1     -10.471   6.872  69.214  1.00  0.00    -0.233 A  
BRANCH  26  30
HETATM   30  O   UNL     1     -13.034   6.771  71.895  1.00  0.00    -0.325 OA 
HETATM   31  C   UNL     1     -14.276   7.382  71.566  1.00  0.00    -0.427 C  
ENDBRANCH  26  30
ENDBRANCH  23  24
ENDBRANCH  21  23
ENDBRANCH   3  21
ENDBRANCH   2   3
TORSDOF 14
ENDMDL
MODEL       56
REMARK 921   NORMALIZED FREE ENERGY PREDICTED BY IDOCK:   -4.97 KCAL/MOL
REMARK 922        TOTAL FREE ENERGY PREDICTED BY IDOCK:  -11.83 KCAL/MOL
REMARK 923 INTER-LIGAND FREE ENERGY PREDICTED BY IDOCK:   -9.68 KCAL/MOL
REMARK 924 INTRA-LIGAND FREE ENERGY PREDICTED BY IDOCK:   -2.15 KCAL/MOL
REMARK 927      BINDING AFFINITY PREDICTED BY RF-SCORE:    0.00 PKD
ROOT
HETATM    1  C   UNL     1     -14.015   8.948  72.200  1.00  0.00    -0.520 C  
HETATM    2  C   UNL     1     -13.320   7.704  71.659  1.00  0.00    -0.350 C  
ENDROOT
BRANCH   2   3
HETATM    3  N   UNL     1     -11.945   7.859  71.170  1.00  0.00    -0.297 NA 
BRANCH   3   4
HETATM    4  C   UNL     1     -11.393   9.222  71.272  1.00  0.00    -0.353 C  
BRANCH   4   5
HETATM    5  C   UNL     1      -9.958   9.361  70.741  1.00  0.00    -0.358 C  
BRANCH   5   6
HETATM    6  C   UNL     1      -9.897  10.257  69.503  1.00  0.00    -0.244 C  
BRANCH   6   7
HETATM    7  C   UNL     1     -11.027   9.905  68.542  1.00  0.00    -0.180 C  
BRANCH   7   8
HETATM    8  O   UNL     1     -12.044  10.913  68.599  1.00  0.00    -0.527 OA 
BRANCH   8   9
HETATM    9  C   UNL     1     -11.747  12.069  67.955  1.00  0.00    -0.323 C  
HETATM   10  O   UNL     1     -11.446  12.191  66.779  1.00  0.00    -0.330 OA 
BRANCH   9  11
HETATM   11  C   UNL     1     -11.793  13.202  68.908  1.00  0.00    -0.361 A  
HETATM   12  C   UNL     1     -11.470  14.508  68.520  1.00  0.00    -0.327 A  
HETATM   13  C   UNL     1     -11.500  15.546  69.455  1.00  0.00    -0.333 A  
HETATM   14  C   UNL     1     -12.196  13.967  71.166  1.00  0.00    -0.417 A  
HETATM   15  C   UNL     1     -11.868  15.273  70.791  1.00  0.00    -0.338 A  
HETATM   16  C   UNL     1     -12.148  12.930  70.232  1.00  0.00    -0.377 A  
BRANCH  13  17
HETATM   17  O   UNL     1     -11.182  16.852  69.169  1.00  0.00    -0.151 OA 
HETATM   18  C   UNL     1     -10.577  17.127  67.913  1.00  0.00    -0.376 C  
ENDBRANCH  13  17
BRANCH  15  19
HETATM   19  O   UNL     1     -11.871  16.345  71.649  1.00  0.00    -0.456 OA 
HETATM   20  C   UNL     1     -12.254  16.105  72.996  1.00  0.00    -0.541 C  
ENDBRANCH  15  19
ENDBRANCH   9  11
ENDBRANCH   8   9
ENDBRANCH   7   8
ENDBRANCH   6   7
ENDBRANCH   5   6
ENDBRANCH   4   5
ENDBRANCH   3   4
BRANCH   3  21
HETATM   21  C   UNL     1     -10.966   6.816  71.567  1.00  0.00    -0.240 C  
HETATM   22  C   UNL     1     -11.245   6.144  72.923  1.00  0.00    -0.250 C  
BRANCH  21  23
HETATM   23  C   UNL     1     -10.731   5.703  70.502  1.00  0.00    -0.344 C  
BRANCH  23  24
HETATM   24  C   UNL     1     -10.199   6.174  69.165  1.00  0.00    -0.242 A  
HETATM   25  C   UNL     1     -10.541   6.611  66.791  1.00  0.00    -0.315 A  
HETATM   26  C   UNL     1      -9.208   6.994  66.655  1.00  0.00    -0.158 A  
HETATM   27  C   UNL     1      -8.859   6.549  69.015  1.00  0.00    -0.130 A  
HETATM   28  C   UNL     1      -8.373   6.967  67.773  1.00  0.00    -0.117 A  
HETATM   29  C   UNL     1     -11.032   6.202  68.038  1.00  0.00    -0.399 A  
BRANCH  26  30
HETATM   30  O   UNL     1      -8.628   7.463  65.508  1.00  0.00    -0.139 OA 
HETATM   31  C   UNL     1      -8.660   8.873  65.318  1.00  0.00    -0.184 C  
ENDBRANCH  26  30
ENDBRANCH  23  24
ENDBRANCH  21  23
ENDBRANCH   3  21
ENDBRANCH   2   3
TORSDOF 14
ENDMDL
MODEL       57
REMARK 921   NORMALIZED FREE ENERGY PREDICTED BY IDOCK:   -4.95 KCAL/MOL
REMARK 922        TOTAL FREE ENERGY PREDICTED BY IDOCK:  -11.80 KCAL/MOL
REMARK 923 INTER-LIGAND FREE ENERGY PREDICTED BY IDOCK:   -9.13 KCAL/MOL
REMARK 924 INTRA-LIGAND FREE ENERGY PREDICTED BY IDOCK:   -2.67 KCAL/MOL
REMARK 927      BINDING AFFINITY PREDICTED BY RF-SCORE:    0.00 PKD
ROOT
HETATM    1  C   UNL     1      -6.399  18.764  65.324  1.00  0.00    -0.309 C  
HETATM    2  C   UNL     1      -7.374  19.922  65.498  1.00  0.00    -0.247 C  
ENDROOT
BRANCH   2   3
HETATM    3  N   UNL     1      -7.737  20.300  66.869  1.00  0.00    -0.308 NA 
BRANCH   3   4
HETATM    4  C   UNL     1      -9.183  20.302  67.157  1.00  0.00    -0.390 C  
BRANCH   4   5
HETATM    5  C   UNL     1     -10.040  19.620  66.079  1.00  0.00    -0.553 C  
BRANCH   5   6
HETATM    6  C   UNL     1     -10.552  18.256  66.543  1.00  0.00    -0.313 C  
BRANCH   6   7
HETATM    7  C   UNL     1     -10.768  17.338  65.344  1.00  0.00    -0.066 C  
BRANCH   7   8
HETATM    8  O   UNL     1     -10.387  15.999  65.683  1.00  0.00    -0.352 OA 
BRANCH   8   9
HETATM    9  C   UNL     1     -11.370  15.072  65.561  1.00  0.00    -0.312 C  
HETATM   10  O   UNL     1     -12.041  14.850  64.567  1.00  0.00    -0.458 OA 
BRANCH   9  11
HETATM   11  C   UNL     1     -11.560  14.368  66.850  1.00  0.00    -0.404 A  
HETATM   12  C   UNL     1     -11.677  12.975  66.921  1.00  0.00    -0.441 A  
HETATM   13  C   UNL     1     -11.881  12.348  68.154  1.00  0.00    -0.315 A  
HETATM   14  C   UNL     1     -11.834  14.517  69.248  1.00  0.00    -0.361 A  
HETATM   15  C   UNL     1     -11.959  13.128  69.329  1.00  0.00    -0.292 A  
HETATM   16  C   UNL     1     -11.646  15.139  68.012  1.00  0.00    -0.345 A  
BRANCH  13  17
HETATM   17  O   UNL     1     -12.025  10.992  68.316  1.00  0.00    -0.593 OA 
HETATM   18  C   UNL     1     -10.954  10.157  67.897  1.00  0.00    -0.277 C  
ENDBRANCH  13  17
BRANCH  15  19
HETATM   19  O   UNL     1     -12.164  12.439  70.498  1.00  0.00    -0.361 OA 
HETATM   20  C   UNL     1     -12.933  13.077  71.508  1.00  0.00    -0.305 C  
ENDBRANCH  15  19
ENDBRANCH   9  11
ENDBRANCH   8   9
ENDBRANCH   7   8
ENDBRANCH   6   7
ENDBRANCH   5   6
ENDBRANCH   4   5
ENDBRANCH   3   4
BRANCH   3  21
HETATM   21  C   UNL     1      -6.937  19.701  67.967  1.00  0.00    -0.264 C  
HETATM   22  C   UNL     1      -6.151  20.708  68.824  1.00  0.00    -0.366 C  
BRANCH  21  23
HETATM   23  C   UNL     1      -7.737  18.759  68.916  1.00  0.00    -0.298 C  
BRANCH  23  24
HETATM   24  C   UNL     1      -7.351  17.295  68.869  1.00  0.00    -0.243 A  
HETATM   25  C   UNL     1      -7.872  14.993  68.263  1.00  0.00    -0.119 A  
HETATM   26  C   UNL     1      -6.674  14.558  68.825  1.00  0.00    -0.091 A  
HETATM   27  C   UNL     1      -6.156  16.847  69.443  1.00  0.00    -0.218 A  
HETATM   28  C   UNL     1      -5.817  15.492  69.409  1.00  0.00    -0.115 A  
HETATM   29  C   UNL     1      -8.208  16.352  68.286  1.00  0.00    -0.177 A  
BRANCH  26  30
HETATM   30  O   UNL     1      -6.210  13.271  68.815  1.00  0.00    -0.079 OA 
HETATM   31  C   UNL     1      -6.147  12.635  67.543  1.00  0.00    -0.157 C  
ENDBRANCH  26  30
ENDBRANCH  23  24
ENDBRANCH  21  23
ENDBRANCH   3  21
ENDBRANCH   2   3
TORSDOF 14
ENDMDL
MODEL       58
REMARK 921   NORMALIZED FREE ENERGY PREDICTED BY IDOCK:   -4.94 KCAL/MOL
REMARK 922        TOTAL FREE ENERGY PREDICTED BY IDOCK:  -11.78 KCAL/MOL
REMARK 923 INTER-LIGAND FREE ENERGY PREDICTED BY IDOCK:   -9.95 KCAL/MOL
REMARK 924 INTRA-LIGAND FREE ENERGY PREDICTED BY IDOCK:   -1.82 KCAL/MOL
REMARK 927      BINDING AFFINITY PREDICTED BY RF-SCORE:    0.00 PKD
ROOT
HETATM    1  C   UNL     1     -10.512   5.319  74.211  1.00  0.00    -0.304 C  
HETATM    2  C   UNL     1     -11.360   5.072  72.969  1.00  0.00    -0.298 C  
ENDROOT
BRANCH   2   3
HETATM    3  N   UNL     1     -11.382   6.124  71.947  1.00  0.00    -0.286 NA 
BRANCH   3   4
HETATM    4  C   UNL     1     -11.295   7.502  72.464  1.00  0.00    -0.334 C  
BRANCH   4   5
HETATM    5  C   UNL     1     -12.650   8.219  72.574  1.00  0.00    -0.265 C  
BRANCH   5   6
HETATM    6  C   UNL     1     -12.837   9.248  71.458  1.00  0.00    -0.427 C  
BRANCH   6   7
HETATM    7  C   UNL     1     -13.320  10.573  72.038  1.00  0.00    -0.314 C  
BRANCH   7   8
HETATM    8  O   UNL     1     -12.687  11.662  71.353  1.00  0.00    -0.388 OA 
BRANCH   8   9
HETATM    9  C   UNL     1     -13.077  12.898  71.753  1.00  0.00    -0.360 C  
HETATM   10  O   UNL     1     -13.819  13.161  72.684  1.00  0.00    -0.691 OA 
BRANCH   9  11
HETATM   11  C   UNL     1     -12.500  13.922  70.852  1.00  0.00    -0.447 A  
HETATM   12  C   UNL     1     -12.285  13.673  69.491  1.00  0.00    -0.316 A  
HETATM   13  C   UNL     1     -11.714  14.657  68.678  1.00  0.00    -0.329 A  
HETATM   14  C   UNL     1     -11.590  16.148  70.594  1.00  0.00    -0.347 A  
HETATM   15  C   UNL     1     -11.364  15.907  69.235  1.00  0.00    -0.355 A  
HETATM   16  C   UNL     1     -12.145  15.156  71.405  1.00  0.00    -0.397 A  
BRANCH  13  17
HETATM   17  O   UNL     1     -11.451  14.495  67.340  1.00  0.00    -0.335 OA 
HETATM   18  C   UNL     1     -10.519  13.490  66.965  1.00  0.00    -0.265 C  
ENDBRANCH  13  17
BRANCH  15  19
HETATM   19  O   UNL     1     -10.807  16.818  68.374  1.00  0.00    -0.343 OA 
HETATM   20  C   UNL     1      -9.421  17.096  68.521  1.00  0.00    -0.282 C  
ENDBRANCH  15  19
ENDBRANCH   9  11
ENDBRANCH   8   9
ENDBRANCH   7   8
ENDBRANCH   6   7
ENDBRANCH   5   6
ENDBRANCH   4   5
ENDBRANCH   3   4
BRANCH   3  21
HETATM   21  C   UNL     1     -10.541   5.913  70.742  1.00  0.00    -0.265 C  
HETATM   22  C   UNL     1      -9.881   4.526  70.644  1.00  0.00    -0.292 C  
BRANCH  21  23
HETATM   23  C   UNL     1     -11.249   6.221  69.389  1.00  0.00    -0.489 C  
BRANCH  23  24
HETATM   24  C   UNL     1     -10.624   7.318  68.554  1.00  0.00    -0.207 A  
HETATM   25  C   UNL     1      -9.685   9.560  68.373  1.00  0.00    -0.168 A  
HETATM   26  C   UNL     1      -9.511   9.393  67.001  1.00  0.00    -0.155 A  
HETATM   27  C   UNL     1     -10.457   7.165  67.172  1.00  0.00    -0.389 A  
HETATM   28  C   UNL     1      -9.894   8.189  66.407  1.00  0.00    -0.261 A  
HETATM   29  C   UNL     1     -10.239   8.529  69.143  1.00  0.00    -0.218 A  
BRANCH  26  30
HETATM   30  O   UNL     1      -8.932  10.299  66.155  1.00  0.00    -0.149 OA 
HETATM   31  C   UNL     1      -9.563  10.471  64.892  1.00  0.00    -0.277 C  
ENDBRANCH  26  30
ENDBRANCH  23  24
ENDBRANCH  21  23
ENDBRANCH   3  21
ENDBRANCH   2   3
TORSDOF 14
ENDMDL
MODEL       59
REMARK 921   NORMALIZED FREE ENERGY PREDICTED BY IDOCK:   -4.94 KCAL/MOL
REMARK 922        TOTAL FREE ENERGY PREDICTED BY IDOCK:  -11.77 KCAL/MOL
REMARK 923 INTER-LIGAND FREE ENERGY PREDICTED BY IDOCK:   -9.88 KCAL/MOL
REMARK 924 INTRA-LIGAND FREE ENERGY PREDICTED BY IDOCK:   -1.89 KCAL/MOL
REMARK 927      BINDING AFFINITY PREDICTED BY RF-SCORE:    0.00 PKD
ROOT
HETATM    1  C   UNL     1      -8.306  10.302  65.211  1.00  0.00    -0.165 C  
HETATM    2  C   UNL     1      -9.258  11.457  65.495  1.00  0.00    -0.177 C  
ENDROOT
BRANCH   2   3
HETATM    3  N   UNL     1      -9.438  11.853  66.897  1.00  0.00    -0.195 NA 
BRANCH   3   4
HETATM    4  C   UNL     1      -8.421  12.783  67.421  1.00  0.00    -0.191 C  
BRANCH   4   5
HETATM    5  C   UNL     1      -8.913  14.231  67.576  1.00  0.00    -0.197 C  
BRANCH   5   6
HETATM    6  C   UNL     1      -8.433  15.116  66.425  1.00  0.00    -0.034 C  
BRANCH   6   7
HETATM    7  C   UNL     1      -9.625  15.740  65.708  1.00  0.00    -0.320 C  
BRANCH   7   8
HETATM    8  O   UNL     1     -10.294  16.656  66.585  1.00  0.00    -0.296 OA 
BRANCH   8   9
HETATM    9  C   UNL     1     -10.355  17.937  66.142  1.00  0.00    -0.352 C  
HETATM   10  O   UNL     1     -11.137  18.387  65.322  1.00  0.00    -0.417 OA 
BRANCH   9  11
HETATM   11  C   UNL     1      -9.281  18.739  66.773  1.00  0.00    -0.321 A  
HETATM   12  C   UNL     1      -8.334  19.435  66.011  1.00  0.00    -0.230 A  
HETATM   13  C   UNL     1      -7.320  20.160  66.643  1.00  0.00    -0.268 A  
HETATM   14  C   UNL     1      -8.216  19.502  68.805  1.00  0.00    -0.348 A  
HETATM   15  C   UNL     1      -7.261  20.195  68.055  1.00  0.00    -0.281 A  
HETATM   16  C   UNL     1      -9.217  18.766  68.168  1.00  0.00    -0.348 A  
BRANCH  13  17
HETATM   17  O   UNL     1      -6.340  20.857  65.979  1.00  0.00    -0.248 OA 
HETATM   18  C   UNL     1      -5.687  20.211  64.895  1.00  0.00    -0.191 C  
ENDBRANCH  13  17
BRANCH  15  19
HETATM   19  O   UNL     1      -6.235  20.926  68.599  1.00  0.00    -0.323 OA 
HETATM   20  C   UNL     1      -5.400  20.277  69.548  1.00  0.00    -0.262 C  
ENDBRANCH  15  19
ENDBRANCH   9  11
ENDBRANCH   8   9
ENDBRANCH   7   8
ENDBRANCH   6   7
ENDBRANCH   5   6
ENDBRANCH   4   5
ENDBRANCH   3   4
BRANCH   3  21
HETATM   21  C   UNL     1     -10.814  12.212  67.324  1.00  0.00    -0.244 C  
HETATM   22  C   UNL     1     -11.831  12.369  66.180  1.00  0.00    -0.442 C  
BRANCH  21  23
HETATM   23  C   UNL     1     -11.426  11.274  68.407  1.00  0.00    -0.377 C  
BRANCH  23  24
HETATM   24  C   UNL     1     -12.014  11.964  69.620  1.00  0.00    -0.365 A  
HETATM   25  C   UNL     1     -13.125  11.845  71.786  1.00  0.00    -0.465 A  
HETATM   26  C   UNL     1     -13.165  13.236  71.859  1.00  0.00    -0.431 A  
HETATM   27  C   UNL     1     -12.071  13.361  69.696  1.00  0.00    -0.349 A  
HETATM   28  C   UNL     1     -12.630  13.988  70.812  1.00  0.00    -0.431 A  
HETATM   29  C   UNL     1     -12.554  11.214  70.673  1.00  0.00    -0.408 A  
BRANCH  26  30
HETATM   30  O   UNL     1     -13.643  13.964  72.913  1.00  0.00    -0.680 OA 
HETATM   31  C   UNL     1     -12.927  15.152  73.232  1.00  0.00    -0.528 C  
ENDBRANCH  26  30
ENDBRANCH  23  24
ENDBRANCH  21  23
ENDBRANCH   3  21
ENDBRANCH   2   3
TORSDOF 14
ENDMDL
MODEL       60
REMARK 921   NORMALIZED FREE ENERGY PREDICTED BY IDOCK:   -4.91 KCAL/MOL
REMARK 922        TOTAL FREE ENERGY PREDICTED BY IDOCK:  -11.72 KCAL/MOL
REMARK 923 INTER-LIGAND FREE ENERGY PREDICTED BY IDOCK:   -9.74 KCAL/MOL
REMARK 924 INTRA-LIGAND FREE ENERGY PREDICTED BY IDOCK:   -1.98 KCAL/MOL
REMARK 927      BINDING AFFINITY PREDICTED BY RF-SCORE:    0.00 PKD
ROOT
HETATM    1  C   UNL     1     -12.213  13.445  63.483  1.00  0.00    -0.468 C  
HETATM    2  C   UNL     1     -11.110  12.664  64.187  1.00  0.00    -0.382 C  
ENDROOT
BRANCH   2   3
HETATM    3  N   UNL     1     -11.349  12.263  65.578  1.00  0.00    -0.336 NA 
BRANCH   3   4
HETATM    4  C   UNL     1     -11.071  10.846  65.878  1.00  0.00     0.107 C  
BRANCH   4   5
HETATM    5  C   UNL     1      -9.984  10.218  64.992  1.00  0.00    -0.393 C  
BRANCH   5   6
HETATM    6  C   UNL     1      -9.165   9.177  65.756  1.00  0.00    -0.294 C  
BRANCH   6   7
HETATM    7  C   UNL     1      -9.748   8.966  67.149  1.00  0.00    -0.184 C  
BRANCH   7   8
HETATM    8  O   UNL     1      -8.779   9.332  68.141  1.00  0.00    -0.124 OA 
BRANCH   8   9
HETATM    9  C   UNL     1      -9.217  10.214  69.074  1.00  0.00    -0.185 C  
HETATM   10  O   UNL     1      -9.245  11.429  68.971  1.00  0.00    -0.079 OA 
BRANCH   9  11
HETATM   11  C   UNL     1      -9.631   9.488  70.297  1.00  0.00    -0.314 A  
HETATM   12  C   UNL     1     -10.953   9.511  70.758  1.00  0.00    -0.389 A  
HETATM   13  C   UNL     1     -11.300   8.834  71.931  1.00  0.00    -0.361 A  
HETATM   14  C   UNL     1      -8.997   8.094  72.168  1.00  0.00    -0.246 A  
HETATM   15  C   UNL     1     -10.312   8.117  72.642  1.00  0.00    -0.328 A  
HETATM   16  C   UNL     1      -8.653   8.786  71.005  1.00  0.00    -0.236 A  
BRANCH  13  17
HETATM   17  O   UNL     1     -12.565   8.818  72.467  1.00  0.00    -0.391 OA 
HETATM   18  C   UNL     1     -13.575   9.563  71.803  1.00  0.00    -0.369 C  
ENDBRANCH  13  17
BRANCH  15  19
HETATM   19  O   UNL     1     -10.731   7.482  73.784  1.00  0.00    -0.315 OA 
HETATM   20  C   UNL     1     -10.228   6.175  74.029  1.00  0.00    -0.300 C  
ENDBRANCH  15  19
ENDBRANCH   9  11
ENDBRANCH   8   9
ENDBRANCH   7   8
ENDBRANCH   6   7
ENDBRANCH   5   6
ENDBRANCH   4   5
ENDBRANCH   3   4
BRANCH   3  21
HETATM   21  C   UNL     1     -10.858  13.178  66.638  1.00  0.00    -0.280 C  
HETATM   22  C   UNL     1      -9.548  13.916  66.307  1.00  0.00    -0.274 C  
BRANCH  21  23
HETATM   23  C   UNL     1     -11.902  14.223  67.134  1.00  0.00    -0.454 C  
BRANCH  23  24
HETATM   24  C   UNL     1     -11.858  14.546  68.613  1.00  0.00    -0.355 A  
HETATM   25  C   UNL     1     -11.371  16.109  70.419  1.00  0.00    -0.377 A  
HETATM   26  C   UNL     1     -11.714  15.145  71.365  1.00  0.00    -0.374 A  
HETATM   27  C   UNL     1     -12.188  13.581  69.571  1.00  0.00    -0.289 A  
HETATM   28  C   UNL     1     -12.129  13.885  70.934  1.00  0.00    -0.391 A  
HETATM   29  C   UNL     1     -11.441  15.810  69.052  1.00  0.00    -0.394 A  
BRANCH  26  30
HETATM   30  O   UNL     1     -11.740  15.334  72.720  1.00  0.00    -0.430 OA 
HETATM   31  C   UNL     1     -13.021  15.282  73.338  1.00  0.00    -0.531 C  
ENDBRANCH  26  30
ENDBRANCH  23  24
ENDBRANCH  21  23
ENDBRANCH   3  21
ENDBRANCH   2   3
TORSDOF 14
ENDMDL
MODEL       61
REMARK 921   NORMALIZED FREE ENERGY PREDICTED BY IDOCK:   -4.89 KCAL/MOL
REMARK 922        TOTAL FREE ENERGY PREDICTED BY IDOCK:  -11.68 KCAL/MOL
REMARK 923 INTER-LIGAND FREE ENERGY PREDICTED BY IDOCK:   -9.49 KCAL/MOL
REMARK 924 INTRA-LIGAND FREE ENERGY PREDICTED BY IDOCK:   -2.19 KCAL/MOL
REMARK 927      BINDING AFFINITY PREDICTED BY RF-SCORE:    0.00 PKD
ROOT
HETATM    1  C   UNL     1      -6.677   6.882  71.824  1.00  0.00    -0.053 C  
HETATM    2  C   UNL     1      -8.037   7.444  72.218  1.00  0.00    -0.101 C  
ENDROOT
BRANCH   2   3
HETATM    3  N   UNL     1      -9.171   7.149  71.334  1.00  0.00    -0.150 NA 
BRANCH   3   4
HETATM    4  C   UNL     1      -8.850   6.317  70.159  1.00  0.00    -0.149 C  
BRANCH   4   5
HETATM    5  C   UNL     1      -9.076   7.019  68.811  1.00  0.00    -0.133 C  
BRANCH   5   6
HETATM    6  C   UNL     1      -8.410   8.395  68.772  1.00  0.00    -0.116 C  
BRANCH   6   7
HETATM    7  C   UNL     1      -7.457   8.485  67.586  1.00  0.00    -0.094 C  
BRANCH   7   8
HETATM    8  O   UNL     1      -7.846   9.568  66.731  1.00  0.00    -0.100 OA 
BRANCH   8   9
HETATM    9  C   UNL     1      -8.681   9.229  65.717  1.00  0.00    -0.156 C  
HETATM   10  O   UNL     1      -8.621   8.223  65.030  1.00  0.00    -0.154 OA 
BRANCH   9  11
HETATM   11  C   UNL     1      -9.687  10.298  65.516  1.00  0.00    -0.326 A  
HETATM   12  C   UNL     1     -10.380  10.871  66.589  1.00  0.00    -0.289 A  
HETATM   13  C   UNL     1     -11.341  11.860  66.357  1.00  0.00    -0.339 A  
HETATM   14  C   UNL     1     -10.899  11.710  63.972  1.00  0.00    -0.455 A  
HETATM   15  C   UNL     1     -11.602  12.284  65.035  1.00  0.00    -0.343 A  
HETATM   16  C   UNL     1      -9.952  10.711  64.208  1.00  0.00    -0.413 A  
BRANCH  13  17
HETATM   17  O   UNL     1     -12.080  12.464  67.345  1.00  0.00    -0.505 OA 
HETATM   18  C   UNL     1     -11.522  13.601  67.988  1.00  0.00    -0.310 C  
ENDBRANCH  13  17
BRANCH  15  19
HETATM   19  O   UNL     1     -12.560  13.256  64.891  1.00  0.00    -0.563 OA 
HETATM   20  C   UNL     1     -12.125  14.553  64.505  1.00  0.00    -0.484 C  
ENDBRANCH  15  19
ENDBRANCH   9  11
ENDBRANCH   8   9
ENDBRANCH   7   8
ENDBRANCH   6   7
ENDBRANCH   5   6
ENDBRANCH   4   5
ENDBRANCH   3   4
BRANCH   3  21
HETATM   21  C   UNL     1     -10.446   6.752  71.982  1.00  0.00    -0.202 C  
HETATM   22  C   UNL     1     -10.599   7.200  73.446  1.00  0.00    -0.424 C  
BRANCH  21  23
HETATM   23  C   UNL     1     -11.730   7.164  71.201  1.00  0.00    -0.350 C  
BRANCH  23  24
HETATM   24  C   UNL     1     -12.070   8.639  71.226  1.00  0.00    -0.333 A  
HETATM   25  C   UNL     1     -13.499  10.465  71.979  1.00  0.00    -0.360 A  
HETATM   26  C   UNL     1     -12.752  11.376  71.236  1.00  0.00    -0.393 A  
HETATM   27  C   UNL     1     -11.334   9.561  70.472  1.00  0.00    -0.343 A  
HETATM   28  C   UNL     1     -11.666  10.918  70.489  1.00  0.00    -0.441 A  
HETATM   29  C   UNL     1     -13.161   9.106  71.972  1.00  0.00    -0.497 A  
BRANCH  26  30
HETATM   30  O   UNL     1     -12.948  12.730  71.206  1.00  0.00    -0.321 OA 
HETATM   31  C   UNL     1     -13.596  13.296  72.339  1.00  0.00    -0.594 C  
ENDBRANCH  26  30
ENDBRANCH  23  24
ENDBRANCH  21  23
ENDBRANCH   3  21
ENDBRANCH   2   3
TORSDOF 14
ENDMDL
MODEL       62
REMARK 921   NORMALIZED FREE ENERGY PREDICTED BY IDOCK:   -4.89 KCAL/MOL
REMARK 922        TOTAL FREE ENERGY PREDICTED BY IDOCK:  -11.68 KCAL/MOL
REMARK 923 INTER-LIGAND FREE ENERGY PREDICTED BY IDOCK:   -9.02 KCAL/MOL
REMARK 924 INTRA-LIGAND FREE ENERGY PREDICTED BY IDOCK:   -2.65 KCAL/MOL
REMARK 927      BINDING AFFINITY PREDICTED BY RF-SCORE:    0.00 PKD
ROOT
HETATM    1  C   UNL     1     -12.134  14.304  64.526  1.00  0.00    -0.499 C  
HETATM    2  C   UNL     1     -11.657  14.505  65.960  1.00  0.00    -0.356 C  
ENDROOT
BRANCH   2   3
HETATM    3  N   UNL     1     -11.612  13.322  66.827  1.00  0.00    -0.346 NA 
BRANCH   3   4
HETATM    4  C   UNL     1     -11.427  12.038  66.126  1.00  0.00    -0.339 C  
BRANCH   4   5
HETATM    5  C   UNL     1     -10.104  11.328  66.453  1.00  0.00    -0.260 C  
BRANCH   5   6
HETATM    6  C   UNL     1     -10.281   9.811  66.533  1.00  0.00    -0.289 C  
BRANCH   6   7
HETATM    7  C   UNL     1      -8.975   9.109  66.178  1.00  0.00    -0.173 C  
BRANCH   7   8
HETATM    8  O   UNL     1      -8.557   8.280  67.271  1.00  0.00    -0.122 OA 
BRANCH   8   9
HETATM    9  C   UNL     1      -9.224   7.104  67.388  1.00  0.00    -0.127 C  
HETATM   10  O   UNL     1      -9.431   6.293  66.501  1.00  0.00    -0.152 OA 
BRANCH   9  11
HETATM   11  C   UNL     1      -9.724   6.946  68.773  1.00  0.00    -0.137 A  
HETATM   12  C   UNL     1      -8.914   7.209  69.885  1.00  0.00    -0.142 A  
HETATM   13  C   UNL     1      -9.413   7.023  71.178  1.00  0.00    -0.165 A  
HETATM   14  C   UNL     1     -11.545   6.328  70.239  1.00  0.00    -0.379 A  
HETATM   15  C   UNL     1     -10.743   6.580  71.356  1.00  0.00    -0.238 A  
HETATM   16  C   UNL     1     -11.035   6.499  68.950  1.00  0.00    -0.376 A  
BRANCH  13  17
HETATM   17  O   UNL     1      -8.687   7.238  72.324  1.00  0.00    -0.119 OA 
HETATM   18  C   UNL     1      -7.582   6.382  72.578  1.00  0.00    -0.100 C  
ENDBRANCH  13  17
BRANCH  15  19
HETATM   19  O   UNL     1     -11.158   6.420  72.654  1.00  0.00    -0.244 OA 
HETATM   20  C   UNL     1     -11.270   5.092  73.147  1.00  0.00    -0.335 C  
ENDBRANCH  15  19
ENDBRANCH   9  11
ENDBRANCH   8   9
ENDBRANCH   7   8
ENDBRANCH   6   7
ENDBRANCH   5   6
ENDBRANCH   4   5
ENDBRANCH   3   4
BRANCH   3  21
HETATM   21  C   UNL     1     -10.792  13.421  68.061  1.00  0.00    -0.247 C  
HETATM   22  C   UNL     1      -9.637  14.437  67.995  1.00  0.00    -0.216 C  
BRANCH  21  23
HETATM   23  C   UNL     1     -11.606  13.680  69.365  1.00  0.00    -0.368 C  
BRANCH  23  24
HETATM   24  C   UNL     1     -11.985  12.447  70.158  1.00  0.00    -0.376 A  
HETATM   25  C   UNL     1     -11.843  10.041  70.518  1.00  0.00    -0.387 A  
HETATM   26  C   UNL     1     -12.729  10.133  71.590  1.00  0.00    -0.447 A  
HETATM   27  C   UNL     1     -12.885  12.528  71.228  1.00  0.00    -0.337 A  
HETATM   28  C   UNL     1     -13.241  11.382  71.943  1.00  0.00    -0.485 A  
HETATM   29  C   UNL     1     -11.476  11.190  69.807  1.00  0.00    -0.388 A  
BRANCH  26  30
HETATM   30  O   UNL     1     -13.119   9.097  72.393  1.00  0.00    -0.420 OA 
HETATM   31  C   UNL     1     -14.229   8.333  71.938  1.00  0.00    -0.454 C  
ENDBRANCH  26  30
ENDBRANCH  23  24
ENDBRANCH  21  23
ENDBRANCH   3  21
ENDBRANCH   2   3
TORSDOF 14
ENDMDL
MODEL       63
REMARK 921   NORMALIZED FREE ENERGY PREDICTED BY IDOCK:   -4.88 KCAL/MOL
REMARK 922        TOTAL FREE ENERGY PREDICTED BY IDOCK:  -11.67 KCAL/MOL
REMARK 923 INTER-LIGAND FREE ENERGY PREDICTED BY IDOCK:  -10.04 KCAL/MOL
REMARK 924 INTRA-LIGAND FREE ENERGY PREDICTED BY IDOCK:   -1.63 KCAL/MOL
REMARK 927      BINDING AFFINITY PREDICTED BY RF-SCORE:    0.00 PKD
ROOT
HETATM    1  C   UNL     1      -8.878   9.696  69.620  1.00  0.00    -0.212 C  
HETATM    2  C   UNL     1     -10.371   9.916  69.830  1.00  0.00    -0.258 C  
ENDROOT
BRANCH   2   3
HETATM    3  N   UNL     1     -10.940   9.495  71.116  1.00  0.00    -0.344 NA 
BRANCH   3   4
HETATM    4  C   UNL     1     -12.263  10.064  71.432  1.00  0.00    -0.416 C  
BRANCH   4   5
HETATM    5  C   UNL     1     -12.445  11.522  70.980  1.00  0.00    -0.458 C  
BRANCH   5   6
HETATM    6  C   UNL     1     -13.317  12.311  71.958  1.00  0.00    -0.491 C  
BRANCH   6   7
HETATM    7  C   UNL     1     -12.933  13.787  71.933  1.00  0.00    -0.350 C  
BRANCH   7   8
HETATM    8  O   UNL     1     -13.004  14.284  70.590  1.00  0.00    -0.338 OA 
BRANCH   8   9
HETATM    9  C   UNL     1     -11.999  15.123  70.232  1.00  0.00    -0.319 C  
HETATM   10  O   UNL     1     -11.446  15.941  70.947  1.00  0.00    -0.352 OA 
BRANCH   9  11
HETATM   11  C   UNL     1     -11.679  14.939  68.798  1.00  0.00    -0.353 A  
HETATM   12  C   UNL     1     -10.938  15.885  68.080  1.00  0.00    -0.336 A  
HETATM   13  C   UNL     1     -10.678  15.690  66.720  1.00  0.00    -0.300 A  
HETATM   14  C   UNL     1     -11.889  13.585  66.806  1.00  0.00    -0.450 A  
HETATM   15  C   UNL     1     -11.157  14.526  66.077  1.00  0.00    -0.329 A  
HETATM   16  C   UNL     1     -12.161  13.793  68.160  1.00  0.00    -0.316 A  
BRANCH  13  17
HETATM   17  O   UNL     1      -9.977  16.571  65.934  1.00  0.00    -0.354 OA 
HETATM   18  C   UNL     1      -8.630  16.850  66.290  1.00  0.00    -0.284 C  
ENDBRANCH  13  17
BRANCH  15  19
HETATM   19  O   UNL     1     -10.862  14.409  64.743  1.00  0.00    -0.395 OA 
HETATM   20  C   UNL     1     -11.939  14.136  63.856  1.00  0.00    -0.243 C  
ENDBRANCH  15  19
ENDBRANCH   9  11
ENDBRANCH   8   9
ENDBRANCH   7   8
ENDBRANCH   6   7
ENDBRANCH   5   6
ENDBRANCH   4   5
ENDBRANCH   3   4
BRANCH   3  21
HETATM   21  C   UNL     1     -10.843   8.054  71.457  1.00  0.00    -0.232 C  
HETATM   22  C   UNL     1     -10.989   7.728  72.954  1.00  0.00    -0.467 C  
BRANCH  21  23
HETATM   23  C   UNL     1     -11.803   7.127  70.653  1.00  0.00    -0.334 C  
BRANCH  23  24
HETATM   24  C   UNL     1     -11.153   6.278  69.581  1.00  0.00    -0.479 A  
HETATM   25  C   UNL     1      -9.747   4.392  68.944  1.00  0.00    -0.211 A  
HETATM   26  C   UNL     1      -9.888   4.722  67.598  1.00  0.00    -0.152 A  
HETATM   27  C   UNL     1     -11.277   6.610  68.226  1.00  0.00    -0.208 A  
HETATM   28  C   UNL     1     -10.659   5.830  67.245  1.00  0.00    -0.353 A  
HETATM   29  C   UNL     1     -10.375   5.166  69.928  1.00  0.00    -0.347 A  
BRANCH  26  30
HETATM   30  O   UNL     1      -9.372   4.014  66.546  1.00  0.00    -0.155 OA 
HETATM   31  C   UNL     1     -10.050   4.153  65.303  1.00  0.00    -0.202 C  
ENDBRANCH  26  30
ENDBRANCH  23  24
ENDBRANCH  21  23
ENDBRANCH   3  21
ENDBRANCH   2   3
TORSDOF 14
ENDMDL
MODEL       64
REMARK 921   NORMALIZED FREE ENERGY PREDICTED BY IDOCK:   -4.88 KCAL/MOL
REMARK 922        TOTAL FREE ENERGY PREDICTED BY IDOCK:  -11.67 KCAL/MOL
REMARK 923 INTER-LIGAND FREE ENERGY PREDICTED BY IDOCK:   -9.48 KCAL/MOL
REMARK 924 INTRA-LIGAND FREE ENERGY PREDICTED BY IDOCK:   -2.20 KCAL/MOL
REMARK 927      BINDING AFFINITY PREDICTED BY RF-SCORE:    0.00 PKD
ROOT
HETATM    1  C   UNL     1      -9.962  16.532  68.964  1.00  0.00    -0.275 C  
HETATM    2  C   UNL     1      -9.840  15.365  67.991  1.00  0.00    -0.216 C  
ENDROOT
BRANCH   2   3
HETATM    3  N   UNL     1     -11.022  14.517  67.803  1.00  0.00    -0.268 NA 
BRANCH   3   4
HETATM    4  C   UNL     1     -11.996  14.544  68.911  1.00  0.00    -0.290 C  
BRANCH   4   5
HETATM    5  C   UNL     1     -11.838  13.390  69.914  1.00  0.00    -0.385 C  
BRANCH   5   6
HETATM    6  C   UNL     1     -12.524  13.702  71.245  1.00  0.00    -0.412 C  
BRANCH   6   7
HETATM    7  C   UNL     1     -13.125  12.432  71.838  1.00  0.00    -0.366 C  
BRANCH   7   8
HETATM    8  O   UNL     1     -12.708  11.294  71.072  1.00  0.00    -0.368 OA 
BRANCH   8   9
HETATM    9  C   UNL     1     -12.860  10.097  71.691  1.00  0.00    -0.454 C  
HETATM   10  O   UNL     1     -13.860   9.694  72.261  1.00  0.00    -0.380 OA 
BRANCH   9  11
HETATM   11  C   UNL     1     -11.594   9.331  71.621  1.00  0.00    -0.463 A  
HETATM   12  C   UNL     1     -10.614   9.611  70.661  1.00  0.00    -0.386 A  
HETATM   13  C   UNL     1      -9.443   8.849  70.610  1.00  0.00    -0.214 A  
HETATM   14  C   UNL     1     -10.231   7.537  72.498  1.00  0.00    -0.283 A  
HETATM   15  C   UNL     1      -9.249   7.803  71.539  1.00  0.00    -0.137 A  
HETATM   16  C   UNL     1     -11.406   8.291  72.534  1.00  0.00    -0.455 A  
BRANCH  13  17
HETATM   17  O   UNL     1      -8.438   9.039  69.693  1.00  0.00    -0.117 OA 
HETATM   18  C   UNL     1      -7.812  10.313  69.651  1.00  0.00    -0.160 C  
ENDBRANCH  13  17
BRANCH  15  19
HETATM   19  O   UNL     1      -8.076   7.100  71.423  1.00  0.00    -0.105 OA 
HETATM   20  C   UNL     1      -8.171   5.700  71.195  1.00  0.00    -0.121 C  
ENDBRANCH  15  19
ENDBRANCH   9  11
ENDBRANCH   8   9
ENDBRANCH   7   8
ENDBRANCH   6   7
ENDBRANCH   5   6
ENDBRANCH   4   5
ENDBRANCH   3   4
BRANCH   3  21
HETATM   21  C   UNL     1     -11.674  14.553  66.470  1.00  0.00    -0.368 C  
HETATM   22  C   UNL     1     -10.762  14.990  65.310  1.00  0.00    -0.406 C  
BRANCH  21  23
HETATM   23  C   UNL     1     -12.398  13.235  66.062  1.00  0.00    -0.449 C  
BRANCH  23  24
HETATM   24  C   UNL     1     -11.509  12.018  65.906  1.00  0.00    -0.392 A  
HETATM   25  C   UNL     1     -10.151  10.561  64.501  1.00  0.00    -0.402 A  
HETATM   26  C   UNL     1      -9.901   9.724  65.586  1.00  0.00    -0.301 A  
HETATM   27  C   UNL     1     -11.263  11.164  66.987  1.00  0.00    -0.291 A  
HETATM   28  C   UNL     1     -10.455  10.034  66.829  1.00  0.00    -0.267 A  
HETATM   29  C   UNL     1     -10.951  11.700  64.660  1.00  0.00    -0.363 A  
BRANCH  26  30
HETATM   30  O   UNL     1      -9.094   8.619  65.570  1.00  0.00    -0.193 OA 
HETATM   31  C   UNL     1      -9.317   7.662  66.599  1.00  0.00    -0.190 C  
ENDBRANCH  26  30
ENDBRANCH  23  24
ENDBRANCH  21  23
ENDBRANCH   3  21
ENDBRANCH   2   3
TORSDOF 14
ENDMDL
MODEL       65
REMARK 921   NORMALIZED FREE ENERGY PREDICTED BY IDOCK:   -4.87 KCAL/MOL
REMARK 922        TOTAL FREE ENERGY PREDICTED BY IDOCK:  -11.65 KCAL/MOL
REMARK 923 INTER-LIGAND FREE ENERGY PREDICTED BY IDOCK:   -9.12 KCAL/MOL
REMARK 924 INTRA-LIGAND FREE ENERGY PREDICTED BY IDOCK:   -2.53 KCAL/MOL
REMARK 927      BINDING AFFINITY PREDICTED BY RF-SCORE:    0.00 PKD
ROOT
HETATM    1  C   UNL     1      -8.697  13.477  68.013  1.00  0.00    -0.181 C  
HETATM    2  C   UNL     1      -8.864  14.380  66.796  1.00  0.00    -0.200 C  
ENDROOT
BRANCH   2   3
HETATM    3  N   UNL     1      -9.828  15.481  66.900  1.00  0.00    -0.233 NA 
BRANCH   3   4
HETATM    4  C   UNL     1     -11.041  15.333  66.075  1.00  0.00    -0.278 C  
BRANCH   4   5
HETATM    5  C   UNL     1     -10.890  14.343  64.908  1.00  0.00    -0.430 C  
BRANCH   5   6
HETATM    6  C   UNL     1     -12.239  13.760  64.484  1.00  0.00    -0.441 C  
BRANCH   6   7
HETATM    7  C   UNL     1     -12.049  12.773  63.338  1.00  0.00    -0.534 C  
BRANCH   7   8
HETATM    8  O   UNL     1     -11.636  11.502  63.856  1.00  0.00    -0.356 OA 
BRANCH   8   9
HETATM    9  C   UNL     1     -10.314  11.227  63.722  1.00  0.00    -0.395 C  
HETATM   10  O   UNL     1      -9.643  11.356  62.712  1.00  0.00    -0.357 OA 
BRANCH   9  11
HETATM   11  C   UNL     1      -9.780  10.691  64.995  1.00  0.00    -0.336 A  
HETATM   12  C   UNL     1      -8.433  10.337  65.141  1.00  0.00    -0.173 A  
HETATM   13  C   UNL     1      -7.973   9.810  66.351  1.00  0.00    -0.109 A  
HETATM   14  C   UNL     1     -10.211  10.010  67.275  1.00  0.00    -0.275 A  
HETATM   15  C   UNL     1      -8.870   9.646  67.429  1.00  0.00    -0.128 A  
HETATM   16  C   UNL     1     -10.670  10.521  66.059  1.00  0.00    -0.086 A  
BRANCH  13  17
HETATM   17  O   UNL     1      -6.675   9.418  66.578  1.00  0.00    -0.070 OA 
HETATM   18  C   UNL     1      -5.655  10.398  66.447  1.00  0.00    -0.061 C  
ENDBRANCH  13  17
BRANCH  15  19
HETATM   19  O   UNL     1      -8.342   9.121  68.581  1.00  0.00    -0.122 OA 
HETATM   20  C   UNL     1      -8.406   9.919  69.755  1.00  0.00    -0.183 C  
ENDBRANCH  15  19
ENDBRANCH   9  11
ENDBRANCH   8   9
ENDBRANCH   7   8
ENDBRANCH   6   7
ENDBRANCH   5   6
ENDBRANCH   4   5
ENDBRANCH   3   4
BRANCH   3  21
HETATM   21  C   UNL     1     -10.124  15.992  68.262  1.00  0.00    -0.229 C  
HETATM   22  C   UNL     1      -9.482  17.348  68.603  1.00  0.00    -0.280 C  
BRANCH  21  23
HETATM   23  C   UNL     1     -11.640  16.058  68.619  1.00  0.00    -0.343 C  
BRANCH  23  24
HETATM   24  C   UNL     1     -12.130  15.018  69.605  1.00  0.00    -0.337 A  
HETATM   25  C   UNL     1     -13.305  14.448  71.663  1.00  0.00    -0.442 A  
HETATM   26  C   UNL     1     -12.998  13.100  71.481  1.00  0.00    -0.321 A  
HETATM   27  C   UNL     1     -11.816  13.664  69.439  1.00  0.00    -0.392 A  
HETATM   28  C   UNL     1     -12.258  12.714  70.363  1.00  0.00    -0.368 A  
HETATM   29  C   UNL     1     -12.871  15.399  70.731  1.00  0.00    -0.524 A  
BRANCH  26  30
HETATM   30  O   UNL     1     -13.410  12.075  72.288  1.00  0.00    -0.485 OA 
HETATM   31  C   UNL     1     -13.078  10.761  71.854  1.00  0.00    -0.451 C  
ENDBRANCH  26  30
ENDBRANCH  23  24
ENDBRANCH  21  23
ENDBRANCH   3  21
ENDBRANCH   2   3
TORSDOF 14
ENDMDL
MODEL       66
REMARK 921   NORMALIZED FREE ENERGY PREDICTED BY IDOCK:   -4.87 KCAL/MOL
REMARK 922        TOTAL FREE ENERGY PREDICTED BY IDOCK:  -11.65 KCAL/MOL
REMARK 923 INTER-LIGAND FREE ENERGY PREDICTED BY IDOCK:   -8.89 KCAL/MOL
REMARK 924 INTRA-LIGAND FREE ENERGY PREDICTED BY IDOCK:   -2.76 KCAL/MOL
REMARK 927      BINDING AFFINITY PREDICTED BY RF-SCORE:    0.00 PKD
ROOT
HETATM    1  C   UNL     1      -5.714   6.713  69.161  1.00  0.00    -0.017 C  
HETATM    2  C   UNL     1      -6.479   5.626  69.907  1.00  0.00    -0.038 C  
ENDROOT
BRANCH   2   3
HETATM    3  N   UNL     1      -7.873   5.909  70.267  1.00  0.00    -0.099 NA 
BRANCH   3   4
HETATM    4  C   UNL     1      -8.884   5.157  69.501  1.00  0.00    -0.099 C  
BRANCH   4   5
HETATM    5  C   UNL     1     -10.305   5.246  70.078  1.00  0.00    -0.365 C  
BRANCH   5   6
HETATM    6  C   UNL     1     -11.185   6.198  69.267  1.00  0.00    -0.438 C  
BRANCH   6   7
HETATM    7  C   UNL     1     -10.689   6.277  67.827  1.00  0.00    -0.306 C  
BRANCH   7   8
HETATM    8  O   UNL     1     -10.936   7.587  67.300  1.00  0.00    -0.264 OA 
BRANCH   8   9
HETATM    9  C   UNL     1      -9.858   8.409  67.273  1.00  0.00    -0.203 C  
HETATM   10  O   UNL     1      -8.754   8.178  67.739  1.00  0.00    -0.130 OA 
BRANCH   9  11
HETATM   11  C   UNL     1     -10.218   9.688  66.619  1.00  0.00    -0.302 A  
HETATM   12  C   UNL     1     -11.008  10.649  67.262  1.00  0.00    -0.348 A  
HETATM   13  C   UNL     1     -11.348  11.834  66.602  1.00  0.00    -0.316 A  
HETATM   14  C   UNL     1     -10.087  11.098  64.659  1.00  0.00    -0.358 A  
HETATM   15  C   UNL     1     -10.882  12.061  65.288  1.00  0.00    -0.294 A  
HETATM   16  C   UNL     1      -9.764   9.910  65.317  1.00  0.00    -0.383 A  
BRANCH  13  17
HETATM   17  O   UNL     1     -12.132  12.822  67.146  1.00  0.00    -0.415 OA 
HETATM   18  C   UNL     1     -11.629  13.521  68.276  1.00  0.00    -0.346 C  
ENDBRANCH  13  17
BRANCH  15  19
HETATM   19  O   UNL     1     -11.261  13.246  64.708  1.00  0.00    -0.308 OA 
HETATM   20  C   UNL     1     -12.064  13.175  63.538  1.00  0.00    -0.514 C  
ENDBRANCH  15  19
ENDBRANCH   9  11
ENDBRANCH   8   9
ENDBRANCH   7   8
ENDBRANCH   6   7
ENDBRANCH   5   6
ENDBRANCH   4   5
ENDBRANCH   3   4
BRANCH   3  21
HETATM   21  C   UNL     1      -8.194   5.983  71.715  1.00  0.00    -0.118 C  
HETATM   22  C   UNL     1      -7.293   5.132  72.626  1.00  0.00    -0.094 C  
BRANCH  21  23
HETATM   23  C   UNL     1      -8.261   7.428  72.294  1.00  0.00    -0.115 C  
BRANCH  23  24
HETATM   24  C   UNL     1      -9.559   8.172  72.058  1.00  0.00    -0.284 A  
HETATM   25  C   UNL     1     -11.917   8.520  72.569  1.00  0.00    -0.401 A  
HETATM   26  C   UNL     1     -11.998   9.508  71.590  1.00  0.00    -0.401 A  
HETATM   27  C   UNL     1      -9.654   9.157  71.068  1.00  0.00    -0.350 A  
HETATM   28  C   UNL     1     -10.861   9.827  70.847  1.00  0.00    -0.399 A  
HETATM   29  C   UNL     1     -10.705   7.856  72.800  1.00  0.00    -0.435 A  
BRANCH  26  30
HETATM   30  O   UNL     1     -13.105  10.263  71.310  1.00  0.00    -0.370 OA 
HETATM   31  C   UNL     1     -13.020  11.646  71.634  1.00  0.00    -0.378 C  
ENDBRANCH  26  30
ENDBRANCH  23  24
ENDBRANCH  21  23
ENDBRANCH   3  21
ENDBRANCH   2   3
TORSDOF 14
ENDMDL
MODEL       67
REMARK 921   NORMALIZED FREE ENERGY PREDICTED BY IDOCK:   -4.87 KCAL/MOL
REMARK 922        TOTAL FREE ENERGY PREDICTED BY IDOCK:  -11.65 KCAL/MOL
REMARK 923 INTER-LIGAND FREE ENERGY PREDICTED BY IDOCK:   -9.46 KCAL/MOL
REMARK 924 INTRA-LIGAND FREE ENERGY PREDICTED BY IDOCK:   -2.18 KCAL/MOL
REMARK 927      BINDING AFFINITY PREDICTED BY RF-SCORE:    0.00 PKD
ROOT
HETATM    1  C   UNL     1     -14.292   7.982  71.688  1.00  0.00    -0.581 C  
HETATM    2  C   UNL     1     -13.257   6.863  71.684  1.00  0.00    -0.248 C  
ENDROOT
BRANCH   2   3
HETATM    3  N   UNL     1     -11.884   7.216  71.304  1.00  0.00    -0.301 NA 
BRANCH   3   4
HETATM    4  C   UNL     1     -11.459   8.576  71.681  1.00  0.00    -0.298 C  
BRANCH   4   5
HETATM    5  C   UNL     1      -9.937   8.744  71.821  1.00  0.00    -0.396 C  
BRANCH   5   6
HETATM    6  C   UNL     1      -9.333   9.451  70.607  1.00  0.00    -0.314 C  
BRANCH   6   7
HETATM    7  C   UNL     1     -10.403   9.681  69.545  1.00  0.00    -0.221 C  
BRANCH   7   8
HETATM    8  O   UNL     1     -10.554  11.086  69.304  1.00  0.00    -0.219 OA 
BRANCH   8   9
HETATM    9  C   UNL     1     -11.786  11.469  68.887  1.00  0.00    -0.341 C  
HETATM   10  O   UNL     1     -12.854  11.002  69.246  1.00  0.00    -0.173 OA 
BRANCH   9  11
HETATM   11  C   UNL     1     -11.663  12.539  67.871  1.00  0.00    -0.416 A  
HETATM   12  C   UNL     1     -11.562  12.251  66.504  1.00  0.00    -0.440 A  
HETATM   13  C   UNL     1     -11.420  13.288  65.576  1.00  0.00    -0.311 A  
HETATM   14  C   UNL     1     -11.499  14.903  67.390  1.00  0.00    -0.354 A  
HETATM   15  C   UNL     1     -11.390  14.627  66.024  1.00  0.00    -0.344 A  
HETATM   16  C   UNL     1     -11.623  13.864  68.314  1.00  0.00    -0.372 A  
BRANCH  13  17
HETATM   17  O   UNL     1     -11.297  13.099  64.221  1.00  0.00    -0.355 OA 
HETATM   18  C   UNL     1     -12.156  12.152  63.603  1.00  0.00    -0.551 C  
ENDBRANCH  13  17
BRANCH  15  19
HETATM   19  O   UNL     1     -11.246  15.586  65.053  1.00  0.00    -0.379 OA 
HETATM   20  C   UNL     1     -10.609  16.802  65.422  1.00  0.00    -0.203 C  
ENDBRANCH  15  19
ENDBRANCH   9  11
ENDBRANCH   8   9
ENDBRANCH   7   8
ENDBRANCH   6   7
ENDBRANCH   5   6
ENDBRANCH   4   5
ENDBRANCH   3   4
BRANCH   3  21
HETATM   21  C   UNL     1     -10.832   6.199  71.557  1.00  0.00    -0.261 C  
HETATM   22  C   UNL     1     -11.062   5.318  72.798  1.00  0.00    -0.346 C  
BRANCH  21  23
HETATM   23  C   UNL     1     -10.515   5.274  70.344  1.00  0.00    -0.322 C  
BRANCH  23  24
HETATM   24  C   UNL     1     -10.146   5.980  69.056  1.00  0.00    -0.223 A  
HETATM   25  C   UNL     1     -10.793   6.912  66.899  1.00  0.00    -0.380 A  
HETATM   26  C   UNL     1      -9.467   7.243  66.628  1.00  0.00    -0.177 A  
HETATM   27  C   UNL     1      -8.815   6.305  68.769  1.00  0.00    -0.123 A  
HETATM   28  C   UNL     1      -8.483   6.942  67.571  1.00  0.00    -0.122 A  
HETATM   29  C   UNL     1     -11.129   6.284  68.105  1.00  0.00    -0.364 A  
BRANCH  26  30
HETATM   30  O   UNL     1      -9.023   7.906  65.516  1.00  0.00    -0.098 OA 
HETATM   31  C   UNL     1      -9.180   9.320  65.523  1.00  0.00    -0.231 C  
ENDBRANCH  26  30
ENDBRANCH  23  24
ENDBRANCH  21  23
ENDBRANCH   3  21
ENDBRANCH   2   3
TORSDOF 14
ENDMDL
MODEL       68
REMARK 921   NORMALIZED FREE ENERGY PREDICTED BY IDOCK:   -4.86 KCAL/MOL
REMARK 922        TOTAL FREE ENERGY PREDICTED BY IDOCK:  -11.63 KCAL/MOL
REMARK 923 INTER-LIGAND FREE ENERGY PREDICTED BY IDOCK:   -9.67 KCAL/MOL
REMARK 924 INTRA-LIGAND FREE ENERGY PREDICTED BY IDOCK:   -1.96 KCAL/MOL
REMARK 927      BINDING AFFINITY PREDICTED BY RF-SCORE:    0.00 PKD
ROOT
HETATM    1  C   UNL     1      -7.945  10.589  66.994  1.00  0.00    -0.118 C  
HETATM    2  C   UNL     1      -9.132  11.065  67.824  1.00  0.00    -0.147 C  
ENDROOT
BRANCH   2   3
HETATM    3  N   UNL     1     -10.451  11.057  67.181  1.00  0.00    -0.220 NA 
BRANCH   3   4
HETATM    4  C   UNL     1     -11.599  11.003  68.105  1.00  0.00    -0.272 C  
BRANCH   4   5
HETATM    5  C   UNL     1     -11.208  10.967  69.591  1.00  0.00    -0.345 C  
BRANCH   5   6
HETATM    6  C   UNL     1     -12.058  11.929  70.422  1.00  0.00    -0.421 C  
BRANCH   6   7
HETATM    7  C   UNL     1     -12.801  11.168  71.514  1.00  0.00    -0.437 C  
BRANCH   7   8
HETATM    8  O   UNL     1     -13.307   9.935  70.988  1.00  0.00    -0.374 OA 
BRANCH   8   9
HETATM    9  C   UNL     1     -13.458   8.940  71.897  1.00  0.00    -0.414 C  
HETATM   10  O   UNL     1     -14.333   8.853  72.743  1.00  0.00    -0.600 OA 
BRANCH   9  11
HETATM   11  C   UNL     1     -12.358   7.958  71.755  1.00  0.00    -0.352 A  
HETATM   12  C   UNL     1     -11.340   7.846  72.709  1.00  0.00    -0.453 A  
HETATM   13  C   UNL     1     -10.304   6.925  72.527  1.00  0.00    -0.196 A  
HETATM   14  C   UNL     1     -11.322   6.215  70.437  1.00  0.00    -0.399 A  
HETATM   15  C   UNL     1     -10.296   6.100  71.380  1.00  0.00    -0.214 A  
HETATM   16  C   UNL     1     -12.345   7.149  70.616  1.00  0.00    -0.201 A  
BRANCH  13  17
HETATM   17  O   UNL     1      -9.256   6.759  73.399  1.00  0.00    -0.130 OA 
HETATM   18  C   UNL     1      -8.600   7.925  73.875  1.00  0.00    -0.274 C  
ENDBRANCH  13  17
BRANCH  15  19
HETATM   19  O   UNL     1      -9.246   5.224  71.272  1.00  0.00    -0.142 OA 
HETATM   20  C   UNL     1      -9.552   3.838  71.201  1.00  0.00    -0.176 C  
ENDBRANCH  15  19
ENDBRANCH   9  11
ENDBRANCH   8   9
ENDBRANCH   7   8
ENDBRANCH   6   7
ENDBRANCH   5   6
ENDBRANCH   4   5
ENDBRANCH   3   4
BRANCH   3  21
HETATM   21  C   UNL     1     -10.662  12.012  66.064  1.00  0.00    -0.279 C  
HETATM   22  C   UNL     1     -10.848  11.366  64.680  1.00  0.00    -0.359 C  
BRANCH  21  23
HETATM   23  C   UNL     1     -11.815  13.036  66.291  1.00  0.00    -0.466 C  
BRANCH  23  24
HETATM   24  C   UNL     1     -11.385  14.436  66.675  1.00  0.00    -0.359 A  
HETATM   25  C   UNL     1     -11.160  16.192  68.351  1.00  0.00    -0.359 A  
HETATM   26  C   UNL     1     -10.643  17.061  67.392  1.00  0.00    -0.289 A  
HETATM   27  C   UNL     1     -10.878  15.321  65.717  1.00  0.00    -0.363 A  
HETATM   28  C   UNL     1     -10.499  16.617  66.077  1.00  0.00    -0.306 A  
HETATM   29  C   UNL     1     -11.530  14.889  67.993  1.00  0.00    -0.355 A  
BRANCH  26  30
HETATM   30  O   UNL     1     -10.197  18.333  67.629  1.00  0.00    -0.344 OA 
HETATM   31  C   UNL     1      -9.250  18.481  68.680  1.00  0.00    -0.310 C  
ENDBRANCH  26  30
ENDBRANCH  23  24
ENDBRANCH  21  23
ENDBRANCH   3  21
ENDBRANCH   2   3
TORSDOF 14
ENDMDL
MODEL       69
REMARK 921   NORMALIZED FREE ENERGY PREDICTED BY IDOCK:   -4.86 KCAL/MOL
REMARK 922        TOTAL FREE ENERGY PREDICTED BY IDOCK:  -11.63 KCAL/MOL
REMARK 923 INTER-LIGAND FREE ENERGY PREDICTED BY IDOCK:   -9.54 KCAL/MOL
REMARK 924 INTRA-LIGAND FREE ENERGY PREDICTED BY IDOCK:   -2.09 KCAL/MOL
REMARK 927      BINDING AFFINITY PREDICTED BY RF-SCORE:    0.00 PKD
ROOT
HETATM    1  C   UNL     1      -9.465   7.247  73.291  1.00  0.00    -0.240 C  
HETATM    2  C   UNL     1     -10.801   7.939  73.050  1.00  0.00    -0.342 C  
ENDROOT
BRANCH   2   3
HETATM    3  N   UNL     1     -10.968   8.661  71.784  1.00  0.00    -0.300 NA 
BRANCH   3   4
HETATM    4  C   UNL     1     -10.031   8.274  70.713  1.00  0.00    -0.190 C  
BRANCH   4   5
HETATM    5  C   UNL     1     -10.596   8.439  69.293  1.00  0.00    -0.193 C  
BRANCH   5   6
HETATM    6  C   UNL     1      -9.829   9.496  68.499  1.00  0.00    -0.172 C  
BRANCH   6   7
HETATM    7  C   UNL     1     -10.674   9.995  67.332  1.00  0.00    -0.274 C  
BRANCH   7   8
HETATM    8  O   UNL     1      -9.909  10.907  66.534  1.00  0.00    -0.193 OA 
BRANCH   8   9
HETATM    9  C   UNL     1     -10.563  12.037  66.165  1.00  0.00    -0.263 C  
HETATM   10  O   UNL     1     -11.684  12.107  65.690  1.00  0.00    -0.375 OA 
BRANCH   9  11
HETATM   11  C   UNL     1      -9.691  13.215  66.380  1.00  0.00    -0.269 A  
HETATM   12  C   UNL     1     -10.005  14.473  65.850  1.00  0.00    -0.352 A  
HETATM   13  C   UNL     1      -9.144  15.555  66.053  1.00  0.00    -0.281 A  
HETATM   14  C   UNL     1      -7.661  14.118  67.335  1.00  0.00    -0.189 A  
HETATM   15  C   UNL     1      -7.961  15.376  66.804  1.00  0.00    -0.130 A  
HETATM   16  C   UNL     1      -8.517  13.036  67.115  1.00  0.00    -0.176 A  
BRANCH  13  17
HETATM   17  O   UNL     1      -9.360  16.817  65.556  1.00  0.00    -0.470 OA 
HETATM   18  C   UNL     1     -10.526  17.507  65.986  1.00  0.00    -0.274 C  
ENDBRANCH  13  17
BRANCH  15  19
HETATM   19  O   UNL     1      -7.167  16.485  66.956  1.00  0.00    -0.168 OA 
HETATM   20  C   UNL     1      -7.184  17.135  68.220  1.00  0.00    -0.204 C  
ENDBRANCH  15  19
ENDBRANCH   9  11
ENDBRANCH   8   9
ENDBRANCH   7   8
ENDBRANCH   6   7
ENDBRANCH   5   6
ENDBRANCH   4   5
ENDBRANCH   3   4
BRANCH   3  21
HETATM   21  C   UNL     1     -12.356   8.842  71.289  1.00  0.00    -0.270 C  
HETATM   22  C   UNL     1     -13.233   7.578  71.332  1.00  0.00    -0.368 C  
BRANCH  21  23
HETATM   23  C   UNL     1     -13.140  10.011  71.958  1.00  0.00    -0.541 C  
BRANCH  23  24
HETATM   24  C   UNL     1     -12.840  11.395  71.422  1.00  0.00    -0.502 A  
HETATM   25  C   UNL     1     -13.061  13.817  71.586  1.00  0.00    -0.456 A  
HETATM   26  C   UNL     1     -12.338  13.978  70.405  1.00  0.00    -0.359 A  
HETATM   27  C   UNL     1     -12.126  11.566  70.230  1.00  0.00    -0.444 A  
HETATM   28  C   UNL     1     -11.868  12.848  69.735  1.00  0.00    -0.380 A  
HETATM   29  C   UNL     1     -13.310  12.534  72.089  1.00  0.00    -0.540 A  
BRANCH  26  30
HETATM   30  O   UNL     1     -11.984  15.175  69.845  1.00  0.00    -0.298 OA 
HETATM   31  C   UNL     1     -10.631  15.577  70.027  1.00  0.00    -0.324 C  
ENDBRANCH  26  30
ENDBRANCH  23  24
ENDBRANCH  21  23
ENDBRANCH   3  21
ENDBRANCH   2   3
TORSDOF 14
ENDMDL
MODEL       70
REMARK 921   NORMALIZED FREE ENERGY PREDICTED BY IDOCK:   -4.85 KCAL/MOL
REMARK 922        TOTAL FREE ENERGY PREDICTED BY IDOCK:  -11.62 KCAL/MOL
REMARK 923 INTER-LIGAND FREE ENERGY PREDICTED BY IDOCK:   -9.79 KCAL/MOL
REMARK 924 INTRA-LIGAND FREE ENERGY PREDICTED BY IDOCK:   -1.82 KCAL/MOL
REMARK 927      BINDING AFFINITY PREDICTED BY RF-SCORE:    0.00 PKD
ROOT
HETATM    1  C   UNL     1     -12.254  12.386  63.305  1.00  0.00    -0.520 C  
HETATM    2  C   UNL     1     -10.812  12.295  63.791  1.00  0.00    -0.442 C  
ENDROOT
BRANCH   2   3
HETATM    3  N   UNL     1     -10.576  11.647  65.086  1.00  0.00    -0.280 NA 
BRANCH   3   4
HETATM    4  C   UNL     1     -11.659  11.806  66.073  1.00  0.00    -0.134 C  
BRANCH   4   5
HETATM    5  C   UNL     1     -11.292  12.695  67.271  1.00  0.00    -0.372 C  
BRANCH   5   6
HETATM    6  C   UNL     1     -11.535  11.980  68.601  1.00  0.00    -0.350 C  
BRANCH   6   7
HETATM    7  C   UNL     1     -11.808  12.997  69.704  1.00  0.00    -0.319 C  
BRANCH   7   8
HETATM    8  O   UNL     1     -12.030  14.291  69.128  1.00  0.00    -0.319 OA 
BRANCH   8   9
HETATM    9  C   UNL     1     -11.471  15.326  69.804  1.00  0.00    -0.313 C  
HETATM   10  O   UNL     1     -11.448  15.477  71.014  1.00  0.00    -0.316 OA 
BRANCH   9  11
HETATM   11  C   UNL     1     -10.909  16.306  68.846  1.00  0.00    -0.317 A  
HETATM   12  C   UNL     1     -11.020  16.133  67.461  1.00  0.00    -0.238 A  
HETATM   13  C   UNL     1     -10.454  17.067  66.589  1.00  0.00    -0.253 A  
HETATM   14  C   UNL     1      -9.682  18.360  68.496  1.00  0.00    -0.386 A  
HETATM   15  C   UNL     1      -9.780  18.193  67.112  1.00  0.00    -0.301 A  
HETATM   16  C   UNL     1     -10.235  17.415  69.363  1.00  0.00    -0.119 A  
BRANCH  13  17
HETATM   17  O   UNL     1     -10.497  16.969  65.219  1.00  0.00    -0.649 OA 
HETATM   18  C   UNL     1     -11.143  15.836  64.656  1.00  0.00    -0.361 C  
ENDBRANCH  13  17
BRANCH  15  19
HETATM   19  O   UNL     1      -9.250  19.062  66.192  1.00  0.00    -0.418 OA 
HETATM   20  C   UNL     1     -10.033  20.192  65.831  1.00  0.00    -0.306 C  
ENDBRANCH  15  19
ENDBRANCH   9  11
ENDBRANCH   8   9
ENDBRANCH   7   8
ENDBRANCH   6   7
ENDBRANCH   5   6
ENDBRANCH   4   5
ENDBRANCH   3   4
BRANCH   3  21
HETATM   21  C   UNL     1     -10.026  10.268  65.059  1.00  0.00    -0.323 C  
HETATM   22  C   UNL     1      -9.259   9.897  63.778  1.00  0.00    -0.289 C  
BRANCH  21  23
HETATM   23  C   UNL     1      -9.145   9.894  66.289  1.00  0.00    -0.187 C  
BRANCH  23  24
HETATM   24  C   UNL     1      -9.730   8.858  67.226  1.00  0.00    -0.235 A  
HETATM   25  C   UNL     1     -10.977   6.794  67.578  1.00  0.00    -0.375 A  
HETATM   26  C   UNL     1     -10.874   6.949  68.959  1.00  0.00    -0.212 A  
HETATM   27  C   UNL     1      -9.642   9.012  68.615  1.00  0.00    -0.158 A  
HETATM   28  C   UNL     1     -10.199   8.058  69.471  1.00  0.00    -0.209 A  
HETATM   29  C   UNL     1     -10.410   7.743  66.718  1.00  0.00    -0.348 A  
BRANCH  26  30
HETATM   30  O   UNL     1     -11.335   6.066  69.896  1.00  0.00    -0.400 OA 
HETATM   31  C   UNL     1     -11.697   6.619  71.156  1.00  0.00    -0.346 C  
ENDBRANCH  26  30
ENDBRANCH  23  24
ENDBRANCH  21  23
ENDBRANCH   3  21
ENDBRANCH   2   3
TORSDOF 14
ENDMDL
MODEL       71
REMARK 921   NORMALIZED FREE ENERGY PREDICTED BY IDOCK:   -4.85 KCAL/MOL
REMARK 922        TOTAL FREE ENERGY PREDICTED BY IDOCK:  -11.60 KCAL/MOL
REMARK 923 INTER-LIGAND FREE ENERGY PREDICTED BY IDOCK:   -9.88 KCAL/MOL
REMARK 924 INTRA-LIGAND FREE ENERGY PREDICTED BY IDOCK:   -1.72 KCAL/MOL
REMARK 927      BINDING AFFINITY PREDICTED BY RF-SCORE:    0.00 PKD
ROOT
HETATM    1  C   UNL     1     -11.962  12.748  63.575  1.00  0.00    -0.633 C  
HETATM    2  C   UNL     1     -10.802  12.262  64.436  1.00  0.00    -0.329 C  
ENDROOT
BRANCH   2   3
HETATM    3  N   UNL     1     -10.901  12.475  65.884  1.00  0.00    -0.263 NA 
BRANCH   3   4
HETATM    4  C   UNL     1     -11.984  13.379  66.313  1.00  0.00    -0.411 C  
BRANCH   4   5
HETATM    5  C   UNL     1     -11.496  14.652  67.023  1.00  0.00    -0.379 C  
BRANCH   5   6
HETATM    6  C   UNL     1     -12.006  14.726  68.462  1.00  0.00    -0.284 C  
BRANCH   6   7
HETATM    7  C   UNL     1     -10.886  15.177  69.395  1.00  0.00    -0.262 C  
BRANCH   7   8
HETATM    8  O   UNL     1     -10.234  16.331  68.848  1.00  0.00    -0.228 OA 
BRANCH   8   9
HETATM    9  C   UNL     1      -8.885  16.351  68.991  1.00  0.00    -0.240 C  
HETATM   10  O   UNL     1      -8.203  15.528  69.578  1.00  0.00    -0.250 OA 
BRANCH   9  11
HETATM   11  C   UNL     1      -8.332  17.568  68.354  1.00  0.00    -0.278 A  
HETATM   12  C   UNL     1      -7.498  18.452  69.051  1.00  0.00    -0.209 A  
HETATM   13  C   UNL     1      -7.016  19.605  68.424  1.00  0.00    -0.302 A  
HETATM   14  C   UNL     1      -8.190  18.974  66.392  1.00  0.00    -0.314 A  
HETATM   15  C   UNL     1      -7.364  19.867  67.080  1.00  0.00    -0.245 A  
HETATM   16  C   UNL     1      -8.683  17.833  67.028  1.00  0.00    -0.254 A  
BRANCH  13  17
HETATM   17  O   UNL     1      -6.210  20.535  69.034  1.00  0.00    -0.330 OA 
HETATM   18  C   UNL     1      -5.802  20.283  70.371  1.00  0.00    -0.348 C  
ENDBRANCH  13  17
BRANCH  15  19
HETATM   19  O   UNL     1      -6.853  21.019  66.537  1.00  0.00    -0.251 OA 
HETATM   20  C   UNL     1      -6.098  20.900  65.339  1.00  0.00    -0.244 C  
ENDBRANCH  15  19
ENDBRANCH   9  11
ENDBRANCH   8   9
ENDBRANCH   7   8
ENDBRANCH   6   7
ENDBRANCH   5   6
ENDBRANCH   4   5
ENDBRANCH   3   4
BRANCH   3  21
HETATM   21  C   UNL     1     -10.782  11.276  66.751  1.00  0.00    -0.275 C  
HETATM   22  C   UNL     1     -10.074  10.072  66.105  1.00  0.00    -0.317 C  
BRANCH  21  23
HETATM   23  C   UNL     1     -10.138  11.540  68.145  1.00  0.00    -0.201 C  
BRANCH  23  24
HETATM   24  C   UNL     1     -10.830  10.889  69.324  1.00  0.00    -0.286 A  
HETATM   25  C   UNL     1     -10.907   9.152  71.032  1.00  0.00    -0.362 A  
HETATM   26  C   UNL     1     -12.136   9.629  71.483  1.00  0.00    -0.401 A  
HETATM   27  C   UNL     1     -12.071  11.353  69.776  1.00  0.00    -0.388 A  
HETATM   28  C   UNL     1     -12.710  10.734  70.855  1.00  0.00    -0.478 A  
HETATM   29  C   UNL     1     -10.260   9.777  69.959  1.00  0.00    -0.308 A  
BRANCH  26  30
HETATM   30  O   UNL     1     -12.835   9.141  72.553  1.00  0.00    -0.388 OA 
HETATM   31  C   UNL     1     -14.184   8.763  72.302  1.00  0.00    -0.420 C  
ENDBRANCH  26  30
ENDBRANCH  23  24
ENDBRANCH  21  23
ENDBRANCH   3  21
ENDBRANCH   2   3
TORSDOF 14
ENDMDL
MODEL       72
REMARK 921   NORMALIZED FREE ENERGY PREDICTED BY IDOCK:   -4.84 KCAL/MOL
REMARK 922        TOTAL FREE ENERGY PREDICTED BY IDOCK:  -11.60 KCAL/MOL
REMARK 923 INTER-LIGAND FREE ENERGY PREDICTED BY IDOCK:  -10.07 KCAL/MOL
REMARK 924 INTRA-LIGAND FREE ENERGY PREDICTED BY IDOCK:   -1.53 KCAL/MOL
REMARK 927      BINDING AFFINITY PREDICTED BY RF-SCORE:    0.00 PKD
ROOT
HETATM    1  C   UNL     1      -6.882   9.446  69.663  1.00  0.00    -0.056 C  
HETATM    2  C   UNL     1      -8.332   9.623  69.226  1.00  0.00    -0.137 C  
ENDROOT
BRANCH   2   3
HETATM    3  N   UNL     1      -9.006   8.461  68.636  1.00  0.00    -0.140 NA 
BRANCH   3   4
HETATM    4  C   UNL     1     -10.372   8.210  69.132  1.00  0.00    -0.220 C  
BRANCH   4   5
HETATM    5  C   UNL     1     -10.428   7.415  70.446  1.00  0.00    -0.230 C  
BRANCH   5   6
HETATM    6  C   UNL     1     -11.528   7.934  71.373  1.00  0.00    -0.293 C  
BRANCH   6   7
HETATM    7  C   UNL     1     -11.402   9.443  71.548  1.00  0.00    -0.394 C  
BRANCH   7   8
HETATM    8  O   UNL     1     -12.635  10.078  71.187  1.00  0.00    -0.326 OA 
BRANCH   8   9
HETATM    9  C   UNL     1     -12.528  11.056  70.253  1.00  0.00    -0.285 C  
HETATM   10  O   UNL     1     -12.321  10.905  69.061  1.00  0.00    -0.464 OA 
BRANCH   9  11
HETATM   11  C   UNL     1     -12.655  12.383  70.899  1.00  0.00    -0.337 A  
HETATM   12  C   UNL     1     -11.980  13.509  70.411  1.00  0.00    -0.367 A  
HETATM   13  C   UNL     1     -12.105  14.740  71.064  1.00  0.00    -0.330 A  
HETATM   14  C   UNL     1     -13.597  13.714  72.685  1.00  0.00    -0.596 A  
HETATM   15  C   UNL     1     -12.923  14.843  72.211  1.00  0.00    -0.341 A  
HETATM   16  C   UNL     1     -13.456  12.484  72.039  1.00  0.00    -0.486 A  
BRANCH  13  17
HETATM   17  O   UNL     1     -11.468  15.891  70.669  1.00  0.00    -0.342 OA 
HETATM   18  C   UNL     1     -10.495  15.789  69.638  1.00  0.00    -0.289 C  
ENDBRANCH  13  17
BRANCH  15  19
HETATM   19  O   UNL     1     -12.991  16.082  72.795  1.00  0.00    -0.450 OA 
HETATM   20  C   UNL     1     -12.329  16.257  74.041  1.00  0.00    -0.542 C  
ENDBRANCH  15  19
ENDBRANCH   9  11
ENDBRANCH   8   9
ENDBRANCH   7   8
ENDBRANCH   6   7
ENDBRANCH   5   6
ENDBRANCH   4   5
ENDBRANCH   3   4
BRANCH   3  21
HETATM   21  C   UNL     1      -8.891   8.289  67.166  1.00  0.00    -0.137 C  
HETATM   22  C   UNL     1     -10.160   7.762  66.472  1.00  0.00    -0.224 C  
BRANCH  21  23
HETATM   23  C   UNL     1      -8.394   9.551  66.399  1.00  0.00    -0.120 C  
BRANCH  23  24
HETATM   24  C   UNL     1      -9.478  10.448  65.837  1.00  0.00    -0.237 A  
HETATM   25  C   UNL     1     -10.676  11.368  63.926  1.00  0.00    -0.462 A  
HETATM   26  C   UNL     1     -11.451  12.158  64.772  1.00  0.00    -0.322 A  
HETATM   27  C   UNL     1     -10.252  11.255  66.679  1.00  0.00    -0.268 A  
HETATM   28  C   UNL     1     -11.238  12.092  66.150  1.00  0.00    -0.386 A  
HETATM   29  C   UNL     1      -9.695  10.521  64.455  1.00  0.00    -0.375 A  
BRANCH  26  30
HETATM   30  O   UNL     1     -12.473  12.980  64.381  1.00  0.00    -0.534 OA 
HETATM   31  C   UNL     1     -12.133  14.345  64.164  1.00  0.00    -0.376 C  
ENDBRANCH  26  30
ENDBRANCH  23  24
ENDBRANCH  21  23
ENDBRANCH   3  21
ENDBRANCH   2   3
TORSDOF 14
ENDMDL
MODEL       73
REMARK 921   NORMALIZED FREE ENERGY PREDICTED BY IDOCK:   -4.84 KCAL/MOL
REMARK 922        TOTAL FREE ENERGY PREDICTED BY IDOCK:  -11.59 KCAL/MOL
REMARK 923 INTER-LIGAND FREE ENERGY PREDICTED BY IDOCK:   -9.23 KCAL/MOL
REMARK 924 INTRA-LIGAND FREE ENERGY PREDICTED BY IDOCK:   -2.37 KCAL/MOL
REMARK 927      BINDING AFFINITY PREDICTED BY RF-SCORE:    0.00 PKD
ROOT
HETATM    1  C   UNL     1     -12.071  14.637  71.464  1.00  0.00    -0.413 C  
HETATM    2  C   UNL     1     -12.647  13.512  70.612  1.00  0.00    -0.275 C  
ENDROOT
BRANCH   2   3
HETATM    3  N   UNL     1     -11.703  12.533  70.060  1.00  0.00    -0.270 NA 
BRANCH   3   4
HETATM    4  C   UNL     1     -11.993  11.126  70.394  1.00  0.00    -0.378 C  
BRANCH   4   5
HETATM    5  C   UNL     1     -12.937  10.946  71.594  1.00  0.00    -0.569 C  
BRANCH   5   6
HETATM    6  C   UNL     1     -13.779   9.676  71.464  1.00  0.00    -0.307 C  
BRANCH   6   7
HETATM    7  C   UNL     1     -13.418   8.689  72.568  1.00  0.00    -0.287 C  
BRANCH   7   8
HETATM    8  O   UNL     1     -12.692   7.585  72.013  1.00  0.00    -0.286 OA 
BRANCH   8   9
HETATM    9  C   UNL     1     -11.394   7.497  72.399  1.00  0.00    -0.312 C  
HETATM   10  O   UNL     1     -10.981   7.150  73.492  1.00  0.00    -0.328 OA 
BRANCH   9  11
HETATM   11  C   UNL     1     -10.512   7.935  71.293  1.00  0.00    -0.233 A  
HETATM   12  C   UNL     1      -9.390   8.742  71.518  1.00  0.00    -0.337 A  
HETATM   13  C   UNL     1      -8.595   9.156  70.445  1.00  0.00    -0.209 A  
HETATM   14  C   UNL     1     -10.042   7.936  68.921  1.00  0.00    -0.203 A  
HETATM   15  C   UNL     1      -8.924   8.748  69.133  1.00  0.00    -0.137 A  
HETATM   16  C   UNL     1     -10.841   7.539  69.994  1.00  0.00    -0.260 A  
BRANCH  13  17
HETATM   17  O   UNL     1      -7.489   9.962  70.569  1.00  0.00    -0.231 OA 
HETATM   18  C   UNL     1      -6.333   9.409  71.184  1.00  0.00    -0.074 C  
ENDBRANCH  13  17
BRANCH  15  19
HETATM   19  O   UNL     1      -8.097   9.198  68.135  1.00  0.00    -0.103 OA 
HETATM   20  C   UNL     1      -7.842   8.317  67.049  1.00  0.00    -0.096 C  
ENDBRANCH  15  19
ENDBRANCH   9  11
ENDBRANCH   8   9
ENDBRANCH   7   8
ENDBRANCH   6   7
ENDBRANCH   5   6
ENDBRANCH   4   5
ENDBRANCH   3   4
BRANCH   3  21
HETATM   21  C   UNL     1     -11.299  12.711  68.643  1.00  0.00    -0.291 C  
HETATM   22  C   UNL     1     -11.225  11.413  67.819  1.00  0.00    -0.346 C  
BRANCH  21  23
HETATM   23  C   UNL     1     -12.142  13.754  67.850  1.00  0.00    -0.322 C  
BRANCH  23  24
HETATM   24  C   UNL     1     -11.375  14.936  67.296  1.00  0.00    -0.355 A  
HETATM   25  C   UNL     1     -10.094  15.965  65.496  1.00  0.00    -0.353 A  
HETATM   26  C   UNL     1      -9.893  17.105  66.271  1.00  0.00    -0.291 A  
HETATM   27  C   UNL     1     -11.157  16.080  68.071  1.00  0.00    -0.334 A  
HETATM   28  C   UNL     1     -10.434  17.159  67.556  1.00  0.00    -0.348 A  
HETATM   29  C   UNL     1     -10.828  14.887  66.006  1.00  0.00    -0.328 A  
BRANCH  26  30
HETATM   30  O   UNL     1      -9.245  18.240  65.865  1.00  0.00    -0.503 OA 
HETATM   31  C   UNL     1      -9.920  19.469  66.103  1.00  0.00    -0.444 C  
ENDBRANCH  26  30
ENDBRANCH  23  24
ENDBRANCH  21  23
ENDBRANCH   3  21
ENDBRANCH   2   3
TORSDOF 14
ENDMDL
MODEL       74
REMARK 921   NORMALIZED FREE ENERGY PREDICTED BY IDOCK:   -4.83 KCAL/MOL
REMARK 922        TOTAL FREE ENERGY PREDICTED BY IDOCK:  -11.58 KCAL/MOL
REMARK 923 INTER-LIGAND FREE ENERGY PREDICTED BY IDOCK:   -9.81 KCAL/MOL
REMARK 924 INTRA-LIGAND FREE ENERGY PREDICTED BY IDOCK:   -1.77 KCAL/MOL
REMARK 927      BINDING AFFINITY PREDICTED BY RF-SCORE:    0.00 PKD
ROOT
HETATM    1  C   UNL     1     -11.636  11.267  68.248  1.00  0.00    -0.370 C  
HETATM    2  C   UNL     1     -10.343  10.789  67.598  1.00  0.00    -0.201 C  
ENDROOT
BRANCH   2   3
HETATM    3  N   UNL     1     -10.403   9.558  66.802  1.00  0.00    -0.243 NA 
BRANCH   3   4
HETATM    4  C   UNL     1      -9.513   9.528  65.626  1.00  0.00    -0.261 C  
BRANCH   4   5
HETATM    5  C   UNL     1      -9.351  10.887  64.926  1.00  0.00    -0.258 C  
BRANCH   5   6
HETATM    6  C   UNL     1     -10.136  10.943  63.615  1.00  0.00    -0.414 C  
BRANCH   6   7
HETATM    7  C   UNL     1     -11.061  12.155  63.606  1.00  0.00    -0.457 C  
BRANCH   7   8
HETATM    8  O   UNL     1     -10.738  13.020  64.703  1.00  0.00    -0.324 OA 
BRANCH   8   9
HETATM    9  C   UNL     1     -11.799  13.631  65.286  1.00  0.00    -0.349 C  
HETATM   10  O   UNL     1     -12.972  13.313  65.179  1.00  0.00    -0.705 OA 
BRANCH   9  11
HETATM   11  C   UNL     1     -11.339  14.805  66.063  1.00  0.00    -0.332 A  
HETATM   12  C   UNL     1     -11.474  14.868  67.456  1.00  0.00    -0.361 A  
HETATM   13  C   UNL     1     -11.051  16.004  68.152  1.00  0.00    -0.344 A  
HETATM   14  C   UNL     1     -10.337  17.006  66.056  1.00  0.00    -0.324 A  
HETATM   15  C   UNL     1     -10.475  17.083  67.445  1.00  0.00    -0.322 A  
HETATM   16  C   UNL     1     -10.777  15.876  65.363  1.00  0.00    -0.415 A  
BRANCH  13  17
HETATM   17  O   UNL     1     -11.161  16.162  69.512  1.00  0.00    -0.317 OA 
HETATM   18  C   UNL     1     -12.176  15.429  70.183  1.00  0.00    -0.375 C  
ENDBRANCH  13  17
BRANCH  15  19
HETATM   19  O   UNL     1     -10.087  18.162  68.198  1.00  0.00    -0.338 OA 
HETATM   20  C   UNL     1      -8.697  18.453  68.260  1.00  0.00    -0.302 C  
ENDBRANCH  15  19
ENDBRANCH   9  11
ENDBRANCH   8   9
ENDBRANCH   7   8
ENDBRANCH   6   7
ENDBRANCH   5   6
ENDBRANCH   4   5
ENDBRANCH   3   4
BRANCH   3  21
HETATM   21  C   UNL     1     -10.408   8.274  67.546  1.00  0.00    -0.265 C  
HETATM   22  C   UNL     1      -9.974   7.045  66.727  1.00  0.00    -0.266 C  
BRANCH  21  23
HETATM   23  C   UNL     1      -9.603   8.290  68.880  1.00  0.00    -0.153 C  
BRANCH  23  24
HETATM   24  C   UNL     1     -10.168   7.441  70.000  1.00  0.00    -0.211 A  
HETATM   25  C   UNL     1     -11.926   6.991  71.627  1.00  0.00    -0.365 A  
HETATM   26  C   UNL     1     -11.208   5.905  72.125  1.00  0.00    -0.287 A  
HETATM   27  C   UNL     1      -9.448   6.357  70.515  1.00  0.00    -0.173 A  
HETATM   28  C   UNL     1      -9.971   5.590  71.560  1.00  0.00    -0.229 A  
HETATM   29  C   UNL     1     -11.408   7.754  70.573  1.00  0.00    -0.253 A  
BRANCH  26  30
HETATM   30  O   UNL     1     -11.631   5.054  73.109  1.00  0.00    -0.328 OA 
HETATM   31  C   UNL     1     -10.614   4.478  73.921  1.00  0.00    -0.270 C  
ENDBRANCH  26  30
ENDBRANCH  23  24
ENDBRANCH  21  23
ENDBRANCH   3  21
ENDBRANCH   2   3
TORSDOF 14
ENDMDL
MODEL       75
REMARK 921   NORMALIZED FREE ENERGY PREDICTED BY IDOCK:   -4.83 KCAL/MOL
REMARK 922        TOTAL FREE ENERGY PREDICTED BY IDOCK:  -11.56 KCAL/MOL
REMARK 923 INTER-LIGAND FREE ENERGY PREDICTED BY IDOCK:   -9.00 KCAL/MOL
REMARK 924 INTRA-LIGAND FREE ENERGY PREDICTED BY IDOCK:   -2.57 KCAL/MOL
REMARK 927      BINDING AFFINITY PREDICTED BY RF-SCORE:    0.00 PKD
ROOT
HETATM    1  C   UNL     1      -7.038   6.512  69.788  1.00  0.00    -0.072 C  
HETATM    2  C   UNL     1      -7.884   5.353  70.302  1.00  0.00    -0.084 C  
ENDROOT
BRANCH   2   3
HETATM    3  N   UNL     1      -9.227   5.668  70.803  1.00  0.00    -0.150 NA 
BRANCH   3   4
HETATM    4  C   UNL     1     -10.339   5.161  69.977  1.00  0.00    -0.276 C  
BRANCH   4   5
HETATM    5  C   UNL     1     -11.109   6.255  69.220  1.00  0.00    -0.461 C  
BRANCH   5   6
HETATM    6  C   UNL     1     -10.412   6.635  67.914  1.00  0.00    -0.267 C  
BRANCH   6   7
HETATM    7  C   UNL     1      -9.870   8.058  68.000  1.00  0.00    -0.167 C  
BRANCH   7   8
HETATM    8  O   UNL     1     -10.866   8.984  67.549  1.00  0.00    -0.232 OA 
BRANCH   8   9
HETATM    9  C   UNL     1     -10.459   9.841  66.579  1.00  0.00    -0.142 C  
HETATM   10  O   UNL     1      -9.830   9.556  65.573  1.00  0.00    -0.306 OA 
BRANCH   9  11
HETATM   11  C   UNL     1     -10.852  11.224  66.933  1.00  0.00    -0.333 A  
HETATM   12  C   UNL     1     -11.661  12.000  66.093  1.00  0.00    -0.371 A  
HETATM   13  C   UNL     1     -11.990  13.311  66.450  1.00  0.00    -0.410 A  
HETATM   14  C   UNL     1     -10.710  13.060  68.500  1.00  0.00    -0.275 A  
HETATM   15  C   UNL     1     -11.511  13.846  67.666  1.00  0.00    -0.324 A  
HETATM   16  C   UNL     1     -10.371  11.757  68.132  1.00  0.00    -0.213 A  
BRANCH  13  17
HETATM   17  O   UNL     1     -12.760  14.150  65.681  1.00  0.00    -0.514 OA 
HETATM   18  C   UNL     1     -12.238  14.567  64.428  1.00  0.00    -0.458 C  
ENDBRANCH  13  17
BRANCH  15  19
HETATM   19  O   UNL     1     -11.875  15.139  67.943  1.00  0.00    -0.320 OA 
HETATM   20  C   UNL     1     -11.975  15.514  69.310  1.00  0.00    -0.316 C  
ENDBRANCH  15  19
ENDBRANCH   9  11
ENDBRANCH   8   9
ENDBRANCH   7   8
ENDBRANCH   6   7
ENDBRANCH   5   6
ENDBRANCH   4   5
ENDBRANCH   3   4
BRANCH   3  21
HETATM   21  C   UNL     1      -9.465   5.482  72.256  1.00  0.00    -0.145 C  
HETATM   22  C   UNL     1      -8.456   4.566  72.970  1.00  0.00    -0.099 C  
BRANCH  21  23
HETATM   23  C   UNL     1      -9.595   6.805  73.070  1.00  0.00    -0.168 C  
BRANCH  23  24
HETATM   24  C   UNL     1     -10.512   7.855  72.477  1.00  0.00    -0.363 A  
HETATM   25  C   UNL     1     -12.754   8.737  72.115  1.00  0.00    -0.461 A  
HETATM   26  C   UNL     1     -12.238   9.769  71.333  1.00  0.00    -0.397 A  
HETATM   27  C   UNL     1     -10.004   8.887  71.680  1.00  0.00    -0.397 A  
HETATM   28  C   UNL     1     -10.860   9.841  71.124  1.00  0.00    -0.333 A  
HETATM   29  C   UNL     1     -11.896   7.786  72.682  1.00  0.00    -0.317 A  
BRANCH  26  30
HETATM   30  O   UNL     1     -12.965  10.784  70.774  1.00  0.00    -0.336 OA 
HETATM   31  C   UNL     1     -12.906  12.040  71.440  1.00  0.00    -0.288 C  
ENDBRANCH  26  30
ENDBRANCH  23  24
ENDBRANCH  21  23
ENDBRANCH   3  21
ENDBRANCH   2   3
TORSDOF 14
ENDMDL
MODEL       76
REMARK 921   NORMALIZED FREE ENERGY PREDICTED BY IDOCK:   -4.82 KCAL/MOL
REMARK 922        TOTAL FREE ENERGY PREDICTED BY IDOCK:  -11.56 KCAL/MOL
REMARK 923 INTER-LIGAND FREE ENERGY PREDICTED BY IDOCK:   -9.51 KCAL/MOL
REMARK 924 INTRA-LIGAND FREE ENERGY PREDICTED BY IDOCK:   -2.05 KCAL/MOL
REMARK 927      BINDING AFFINITY PREDICTED BY RF-SCORE:    0.00 PKD
ROOT
HETATM    1  C   UNL     1      -8.801  15.567  69.242  1.00  0.00    -0.256 C  
HETATM    2  C   UNL     1     -10.193  16.014  68.810  1.00  0.00    -0.225 C  
ENDROOT
BRANCH   2   3
HETATM    3  N   UNL     1     -11.088  14.991  68.256  1.00  0.00    -0.274 NA 
BRANCH   3   4
HETATM    4  C   UNL     1     -12.215  14.608  69.126  1.00  0.00    -0.188 C  
BRANCH   4   5
HETATM    5  C   UNL     1     -11.833  13.647  70.263  1.00  0.00    -0.336 C  
BRANCH   5   6
HETATM    6  C   UNL     1     -12.642  13.922  71.531  1.00  0.00    -0.419 C  
BRANCH   6   7
HETATM    7  C   UNL     1     -13.369  12.659  71.977  1.00  0.00    -0.454 C  
BRANCH   7   8
HETATM    8  O   UNL     1     -13.094  11.591  71.060  1.00  0.00    -0.219 OA 
BRANCH   8   9
HETATM    9  C   UNL     1     -12.990  10.361  71.624  1.00  0.00    -0.475 C  
HETATM   10  O   UNL     1     -13.801   9.828  72.362  1.00  0.00    -0.330 OA 
BRANCH   9  11
HETATM   11  C   UNL     1     -11.697   9.745  71.248  1.00  0.00    -0.472 A  
HETATM   12  C   UNL     1     -11.064   8.800  72.065  1.00  0.00    -0.441 A  
HETATM   13  C   UNL     1      -9.831   8.259  71.689  1.00  0.00    -0.199 A  
HETATM   14  C   UNL     1      -9.876   9.601  69.663  1.00  0.00    -0.233 A  
HETATM   15  C   UNL     1      -9.232   8.663  70.474  1.00  0.00    -0.175 A  
HETATM   16  C   UNL     1     -11.100  10.150  70.051  1.00  0.00    -0.368 A  
BRANCH  13  17
HETATM   17  O   UNL     1      -9.129   7.343  72.435  1.00  0.00    -0.128 OA 
HETATM   18  C   UNL     1      -9.479   7.198  73.804  1.00  0.00    -0.245 C  
ENDBRANCH  13  17
BRANCH  15  19
HETATM   19  O   UNL     1      -8.022   8.089  70.177  1.00  0.00    -0.101 OA 
HETATM   20  C   UNL     1      -7.867   7.516  68.886  1.00  0.00    -0.124 C  
ENDBRANCH  15  19
ENDBRANCH   9  11
ENDBRANCH   8   9
ENDBRANCH   7   8
ENDBRANCH   6   7
ENDBRANCH   5   6
ENDBRANCH   4   5
ENDBRANCH   3   4
BRANCH   3  21
HETATM   21  C   UNL     1     -11.490  15.145  66.836  1.00  0.00    -0.214 C  
HETATM   22  C   UNL     1     -10.336  15.432  65.859  1.00  0.00    -0.359 C  
BRANCH  21  23
HETATM   23  C   UNL     1     -12.338  13.967  66.268  1.00  0.00    -0.482 C  
BRANCH  23  24
HETATM   24  C   UNL     1     -11.552  12.810  65.688  1.00  0.00    -0.410 A  
HETATM   25  C   UNL     1     -10.248  10.776  66.003  1.00  0.00    -0.310 A  
HETATM   26  C   UNL     1     -10.036  10.681  64.629  1.00  0.00    -0.349 A  
HETATM   27  C   UNL     1     -11.324  12.713  64.311  1.00  0.00    -0.416 A  
HETATM   28  C   UNL     1     -10.583  11.650  63.787  1.00  0.00    -0.473 A  
HETATM   29  C   UNL     1     -10.999  11.834  66.528  1.00  0.00    -0.342 A  
BRANCH  26  30
HETATM   30  O   UNL     1      -9.370   9.668  63.993  1.00  0.00    -0.227 OA 
HETATM   31  C   UNL     1      -8.926   9.942  62.670  1.00  0.00    -0.268 C  
ENDBRANCH  26  30
ENDBRANCH  23  24
ENDBRANCH  21  23
ENDBRANCH   3  21
ENDBRANCH   2   3
TORSDOF 14
ENDMDL
MODEL       77
REMARK 921   NORMALIZED FREE ENERGY PREDICTED BY IDOCK:   -4.82 KCAL/MOL
REMARK 922        TOTAL FREE ENERGY PREDICTED BY IDOCK:  -11.55 KCAL/MOL
REMARK 923 INTER-LIGAND FREE ENERGY PREDICTED BY IDOCK:   -9.75 KCAL/MOL
REMARK 924 INTRA-LIGAND FREE ENERGY PREDICTED BY IDOCK:   -1.79 KCAL/MOL
REMARK 927      BINDING AFFINITY PREDICTED BY RF-SCORE:    0.00 PKD
ROOT
HETATM    1  C   UNL     1     -12.179  12.593  65.230  1.00  0.00    -0.532 C  
HETATM    2  C   UNL     1     -12.412  13.958  65.866  1.00  0.00    -0.481 C  
ENDROOT
BRANCH   2   3
HETATM    3  N   UNL     1     -11.464  14.391  66.900  1.00  0.00    -0.351 NA 
BRANCH   3   4
HETATM    4  C   UNL     1     -10.630  13.320  67.474  1.00  0.00    -0.246 C  
BRANCH   4   5
HETATM    5  C   UNL     1      -9.123  13.497  67.229  1.00  0.00    -0.225 C  
BRANCH   5   6
HETATM    6  C   UNL     1      -8.295  12.544  68.091  1.00  0.00    -0.175 C  
BRANCH   6   7
HETATM    7  C   UNL     1      -8.015  11.253  67.330  1.00  0.00    -0.141 C  
BRANCH   7   8
HETATM    8  O   UNL     1      -8.520  10.134  68.070  1.00  0.00    -0.116 OA 
BRANCH   8   9
HETATM    9  C   UNL     1      -9.777   9.745  67.738  1.00  0.00    -0.141 C  
HETATM   10  O   UNL     1     -10.253   9.698  66.616  1.00  0.00    -0.234 OA 
BRANCH   9  11
HETATM   11  C   UNL     1     -10.540   9.415  68.964  1.00  0.00    -0.233 A  
HETATM   12  C   UNL     1     -10.730   8.092  69.383  1.00  0.00    -0.164 A  
HETATM   13  C   UNL     1     -11.478   7.819  70.532  1.00  0.00    -0.205 A  
HETATM   14  C   UNL     1     -11.830  10.202  70.852  1.00  0.00    -0.468 A  
HETATM   15  C   UNL     1     -12.032   8.885  71.274  1.00  0.00    -0.307 A  
HETATM   16  C   UNL     1     -11.096  10.469  69.694  1.00  0.00    -0.338 A  
BRANCH  13  17
HETATM   17  O   UNL     1     -11.730   6.555  71.005  1.00  0.00    -0.330 OA 
HETATM   18  C   UNL     1     -10.621   5.766  71.413  1.00  0.00    -0.253 C  
ENDBRANCH  13  17
BRANCH  15  19
HETATM   19  O   UNL     1     -12.755   8.535  72.387  1.00  0.00    -0.369 OA 
HETATM   20  C   UNL     1     -14.166   8.694  72.329  1.00  0.00    -0.417 C  
ENDBRANCH  15  19
ENDBRANCH   9  11
ENDBRANCH   8   9
ENDBRANCH   7   8
ENDBRANCH   6   7
ENDBRANCH   5   6
ENDBRANCH   4   5
ENDBRANCH   3   4
BRANCH   3  21
HETATM   21  C   UNL     1     -10.694  15.632  66.631  1.00  0.00    -0.296 C  
HETATM   22  C   UNL     1     -10.786  16.156  65.187  1.00  0.00    -0.391 C  
BRANCH  21  23
HETATM   23  C   UNL     1     -10.996  16.810  67.606  1.00  0.00    -0.178 C  
BRANCH  23  24
HETATM   24  C   UNL     1     -10.053  17.992  67.521  1.00  0.00    -0.356 A  
HETATM   25  C   UNL     1      -7.822  18.936  67.781  1.00  0.00    -0.267 A  
HETATM   26  C   UNL     1      -8.297  20.196  67.423  1.00  0.00    -0.338 A  
HETATM   27  C   UNL     1     -10.524  19.264  67.175  1.00  0.00    -0.560 A  
HETATM   28  C   UNL     1      -9.649  20.352  67.115  1.00  0.00    -0.587 A  
HETATM   29  C   UNL     1      -8.695  17.843  67.830  1.00  0.00    -0.252 A  
BRANCH  26  30
HETATM   30  O   UNL     1      -7.536  21.325  67.285  1.00  0.00    -0.449 OA 
HETATM   31  C   UNL     1      -6.148  21.185  67.564  1.00  0.00    -0.354 C  
ENDBRANCH  26  30
ENDBRANCH  23  24
ENDBRANCH  21  23
ENDBRANCH   3  21
ENDBRANCH   2   3
TORSDOF 14
ENDMDL
MODEL       78
REMARK 921   NORMALIZED FREE ENERGY PREDICTED BY IDOCK:   -4.81 KCAL/MOL
REMARK 922        TOTAL FREE ENERGY PREDICTED BY IDOCK:  -11.53 KCAL/MOL
REMARK 923 INTER-LIGAND FREE ENERGY PREDICTED BY IDOCK:  -10.01 KCAL/MOL
REMARK 924 INTRA-LIGAND FREE ENERGY PREDICTED BY IDOCK:   -1.53 KCAL/MOL
REMARK 927      BINDING AFFINITY PREDICTED BY RF-SCORE:    0.00 PKD
ROOT
HETATM    1  C   UNL     1      -8.404  14.650  68.711  1.00  0.00    -0.163 C  
HETATM    2  C   UNL     1      -9.719  15.366  68.425  1.00  0.00    -0.211 C  
ENDROOT
BRANCH   2   3
HETATM    3  N   UNL     1      -9.964  15.802  67.046  1.00  0.00    -0.235 NA 
BRANCH   3   4
HETATM    4  C   UNL     1     -11.231  15.334  66.456  1.00  0.00    -0.228 C  
BRANCH   4   5
HETATM    5  C   UNL     1     -11.151  15.035  64.951  1.00  0.00    -0.425 C  
BRANCH   5   6
HETATM    6  C   UNL     1     -12.304  14.143  64.490  1.00  0.00    -0.419 C  
BRANCH   6   7
HETATM    7  C   UNL     1     -11.880  12.678  64.520  1.00  0.00    -0.379 C  
BRANCH   7   8
HETATM    8  O   UNL     1     -12.045  12.152  65.843  1.00  0.00    -0.594 OA 
BRANCH   8   9
HETATM    9  C   UNL     1     -10.901  11.743  66.446  1.00  0.00    -0.282 C  
HETATM   10  O   UNL     1      -9.791  11.693  65.944  1.00  0.00    -0.219 OA 
BRANCH   9  11
HETATM   11  C   UNL     1     -11.192  11.308  67.832  1.00  0.00    -0.353 A  
HETATM   12  C   UNL     1     -11.791  12.163  68.764  1.00  0.00    -0.356 A  
HETATM   13  C   UNL     1     -12.026  11.724  70.071  1.00  0.00    -0.344 A  
HETATM   14  C   UNL     1     -11.076   9.562  69.501  1.00  0.00    -0.168 A  
HETATM   15  C   UNL     1     -11.666  10.410  70.442  1.00  0.00    -0.331 A  
HETATM   16  C   UNL     1     -10.828  10.010  68.202  1.00  0.00    -0.303 A  
BRANCH  13  17
HETATM   17  O   UNL     1     -12.591  12.499  71.055  1.00  0.00    -0.361 OA 
HETATM   18  C   UNL     1     -12.520  13.910  70.910  1.00  0.00    -0.375 C  
ENDBRANCH  13  17
BRANCH  15  19
HETATM   19  O   UNL     1     -11.927  10.056  71.741  1.00  0.00    -0.354 OA 
HETATM   20  C   UNL     1     -12.472   8.763  71.972  1.00  0.00    -0.386 C  
ENDBRANCH  15  19
ENDBRANCH   9  11
ENDBRANCH   8   9
ENDBRANCH   7   8
ENDBRANCH   6   7
ENDBRANCH   5   6
ENDBRANCH   4   5
ENDBRANCH   3   4
BRANCH   3  21
HETATM   21  C   UNL     1      -9.677  17.224  66.728  1.00  0.00    -0.281 C  
HETATM   22  C   UNL     1     -10.224  18.242  67.744  1.00  0.00    -0.400 C  
BRANCH  21  23
HETATM   23  C   UNL     1      -8.175  17.544  66.466  1.00  0.00    -0.311 C  
BRANCH  23  24
HETATM   24  C   UNL     1      -7.509  18.450  67.481  1.00  0.00    -0.221 A  
HETATM   25  C   UNL     1      -6.726  20.660  68.145  1.00  0.00    -0.293 A  
HETATM   26  C   UNL     1      -6.219  20.139  69.334  1.00  0.00    -0.334 A  
HETATM   27  C   UNL     1      -6.984  17.934  68.672  1.00  0.00    -0.252 A  
HETATM   28  C   UNL     1      -6.357  18.775  69.594  1.00  0.00    -0.243 A  
HETATM   29  C   UNL     1      -7.365  19.820  67.225  1.00  0.00    -0.282 A  
BRANCH  26  30
HETATM   30  O   UNL     1      -5.627  20.864  70.332  1.00  0.00    -0.538 OA 
HETATM   31  C   UNL     1      -5.382  20.172  71.551  1.00  0.00    -0.369 C  
ENDBRANCH  26  30
ENDBRANCH  23  24
ENDBRANCH  21  23
ENDBRANCH   3  21
ENDBRANCH   2   3
TORSDOF 14
ENDMDL
MODEL       79
REMARK 921   NORMALIZED FREE ENERGY PREDICTED BY IDOCK:   -4.80 KCAL/MOL
REMARK 922        TOTAL FREE ENERGY PREDICTED BY IDOCK:  -11.52 KCAL/MOL
REMARK 923 INTER-LIGAND FREE ENERGY PREDICTED BY IDOCK:  -10.21 KCAL/MOL
REMARK 924 INTRA-LIGAND FREE ENERGY PREDICTED BY IDOCK:   -1.31 KCAL/MOL
REMARK 927      BINDING AFFINITY PREDICTED BY RF-SCORE:    0.00 PKD
ROOT
HETATM    1  C   UNL     1     -12.070  12.163  70.195  1.00  0.00    -0.368 C  
HETATM    2  C   UNL     1     -12.511  10.779  69.734  1.00  0.00    -0.162 C  
ENDROOT
BRANCH   2   3
HETATM    3  N   UNL     1     -11.686   9.637  70.144  1.00  0.00    -0.153 NA 
BRANCH   3   4
HETATM    4  C   UNL     1     -10.412   9.490  69.416  1.00  0.00    -0.217 C  
BRANCH   4   5
HETATM    5  C   UNL     1     -10.564   9.436  67.888  1.00  0.00    -0.293 C  
BRANCH   5   6
HETATM    6  C   UNL     1      -9.824  10.587  67.205  1.00  0.00    -0.209 C  
BRANCH   6   7
HETATM    7  C   UNL     1     -10.632  11.105  66.021  1.00  0.00    -0.239 C  
BRANCH   7   8
HETATM    8  O   UNL     1     -11.809  11.775  66.493  1.00  0.00    -0.550 OA 
BRANCH   8   9
HETATM    9  C   UNL     1     -12.254  12.782  65.700  1.00  0.00    -0.444 C  
HETATM   10  O   UNL     1     -13.057  12.688  64.786  1.00  0.00    -0.852 OA 
BRANCH   9  11
HETATM   11  C   UNL     1     -11.584  14.049  66.073  1.00  0.00    -0.362 A  
HETATM   12  C   UNL     1     -11.418  14.431  67.410  1.00  0.00    -0.377 A  
HETATM   13  C   UNL     1     -10.803  15.647  67.722  1.00  0.00    -0.307 A  
HETATM   14  C   UNL     1     -10.503  16.088  65.351  1.00  0.00    -0.415 A  
HETATM   15  C   UNL     1     -10.339  16.483  66.681  1.00  0.00    -0.298 A  
HETATM   16  C   UNL     1     -11.133  14.880  65.044  1.00  0.00    -0.422 A  
BRANCH  13  17
HETATM   17  O   UNL     1     -10.615  16.112  69.001  1.00  0.00    -0.236 OA 
HETATM   18  C   UNL     1     -11.626  15.836  69.961  1.00  0.00    -0.357 C  
ENDBRANCH  13  17
BRANCH  15  19
HETATM   19  O   UNL     1      -9.750  17.660  67.069  1.00  0.00    -0.273 OA 
HETATM   20  C   UNL     1     -10.560  18.827  67.077  1.00  0.00    -0.420 C  
ENDBRANCH  15  19
ENDBRANCH   9  11
ENDBRANCH   8   9
ENDBRANCH   7   8
ENDBRANCH   6   7
ENDBRANCH   5   6
ENDBRANCH   4   5
ENDBRANCH   3   4
BRANCH   3  21
HETATM   21  C   UNL     1     -11.540   9.400  71.602  1.00  0.00    -0.396 C  
HETATM   22  C   UNL     1     -12.720   8.668  72.265  1.00  0.00    -0.450 C  
BRANCH  21  23
HETATM   23  C   UNL     1     -10.218   8.686  72.018  1.00  0.00    -0.407 C  
BRANCH  23  24
HETATM   24  C   UNL     1     -10.373   7.284  72.569  1.00  0.00    -0.254 A  
HETATM   25  C   UNL     1     -11.016   4.954  72.263  1.00  0.00    -0.114 A  
HETATM   26  C   UNL     1     -10.722   4.682  73.598  1.00  0.00    -0.277 A  
HETATM   27  C   UNL     1     -10.093   7.004  73.912  1.00  0.00    -0.386 A  
HETATM   28  C   UNL     1     -10.255   5.711  74.416  1.00  0.00    -0.295 A  
HETATM   29  C   UNL     1     -10.844   6.247  71.754  1.00  0.00    -0.294 A  
BRANCH  26  30
HETATM   30  O   UNL     1     -10.796   3.453  74.195  1.00  0.00    -0.198 OA 
HETATM   31  C   UNL     1     -11.238   2.380  73.372  1.00  0.00    -0.180 C  
ENDBRANCH  26  30
ENDBRANCH  23  24
ENDBRANCH  21  23
ENDBRANCH   3  21
ENDBRANCH   2   3
TORSDOF 14
ENDMDL
MODEL       80
REMARK 921   NORMALIZED FREE ENERGY PREDICTED BY IDOCK:   -4.80 KCAL/MOL
REMARK 922        TOTAL FREE ENERGY PREDICTED BY IDOCK:  -11.52 KCAL/MOL
REMARK 923 INTER-LIGAND FREE ENERGY PREDICTED BY IDOCK:   -9.25 KCAL/MOL
REMARK 924 INTRA-LIGAND FREE ENERGY PREDICTED BY IDOCK:   -2.26 KCAL/MOL
REMARK 927      BINDING AFFINITY PREDICTED BY RF-SCORE:    0.00 PKD
ROOT
HETATM    1  C   UNL     1      -7.852  10.713  68.826  1.00  0.00    -0.125 C  
HETATM    2  C   UNL     1      -9.155  10.861  68.050  1.00  0.00    -0.152 C  
ENDROOT
BRANCH   2   3
HETATM    3  N   UNL     1     -10.170   9.817  68.231  1.00  0.00    -0.175 NA 
BRANCH   3   4
HETATM    4  C   UNL     1     -11.356  10.223  69.007  1.00  0.00    -0.180 C  
BRANCH   4   5
HETATM    5  C   UNL     1     -11.167  10.150  70.530  1.00  0.00    -0.411 C  
BRANCH   5   6
HETATM    6  C   UNL     1     -12.453   9.728  71.240  1.00  0.00    -0.461 C  
BRANCH   6   7
HETATM    7  C   UNL     1     -13.006  10.886  72.064  1.00  0.00    -0.313 C  
BRANCH   7   8
HETATM    8  O   UNL     1     -13.363  11.971  71.198  1.00  0.00    -0.009 OA 
BRANCH   8   9
HETATM    9  C   UNL     1     -13.195  13.209  71.727  1.00  0.00    -0.403 C  
HETATM   10  O   UNL     1     -13.647  13.616  72.784  1.00  0.00    -0.672 OA 
BRANCH   9  11
HETATM   11  C   UNL     1     -12.400  14.047  70.800  1.00  0.00    -0.443 A  
HETATM   12  C   UNL     1     -12.121  13.640  69.490  1.00  0.00    -0.368 A  
HETATM   13  C   UNL     1     -11.344  14.447  68.654  1.00  0.00    -0.273 A  
HETATM   14  C   UNL     1     -11.142  16.081  70.441  1.00  0.00    -0.376 A  
HETATM   15  C   UNL     1     -10.851  15.681  69.134  1.00  0.00    -0.246 A  
HETATM   16  C   UNL     1     -11.904  15.263  71.278  1.00  0.00    -0.416 A  
BRANCH  13  17
HETATM   17  O   UNL     1     -11.006  14.120  67.363  1.00  0.00    -0.288 OA 
HETATM   18  C   UNL     1     -11.822  13.177  66.682  1.00  0.00    -0.391 C  
ENDBRANCH  13  17
BRANCH  15  19
HETATM   19  O   UNL     1     -10.096  16.413  68.254  1.00  0.00    -0.234 OA 
HETATM   20  C   UNL     1     -10.646  17.633  67.774  1.00  0.00    -0.378 C  
ENDBRANCH  15  19
ENDBRANCH   9  11
ENDBRANCH   8   9
ENDBRANCH   7   8
ENDBRANCH   6   7
ENDBRANCH   5   6
ENDBRANCH   4   5
ENDBRANCH   3   4
BRANCH   3  21
HETATM   21  C   UNL     1     -10.519   9.002  67.041  1.00  0.00    -0.246 C  
HETATM   22  C   UNL     1      -9.727   9.340  65.765  1.00  0.00    -0.339 C  
BRANCH  21  23
HETATM   23  C   UNL     1     -10.461   7.461  67.265  1.00  0.00    -0.385 C  
BRANCH  23  24
HETATM   24  C   UNL     1     -10.322   7.011  68.705  1.00  0.00    -0.200 A  
HETATM   25  C   UNL     1      -8.943   6.662  70.684  1.00  0.00    -0.151 A  
HETATM   26  C   UNL     1     -10.032   6.123  71.366  1.00  0.00    -0.187 A  
HETATM   27  C   UNL     1     -11.407   6.457  69.394  1.00  0.00    -0.443 A  
HETATM   28  C   UNL     1     -11.264   6.029  70.717  1.00  0.00    -0.340 A  
HETATM   29  C   UNL     1      -9.087   7.101  69.362  1.00  0.00    -0.145 A  
BRANCH  26  30
HETATM   30  O   UNL     1     -10.031   5.713  72.671  1.00  0.00    -0.170 OA 
HETATM   31  C   UNL     1     -11.183   5.002  73.108  1.00  0.00    -0.335 C  
ENDBRANCH  26  30
ENDBRANCH  23  24
ENDBRANCH  21  23
ENDBRANCH   3  21
ENDBRANCH   2   3
TORSDOF 14
ENDMDL
MODEL       81
REMARK 921   NORMALIZED FREE ENERGY PREDICTED BY IDOCK:   -4.79 KCAL/MOL
REMARK 922        TOTAL FREE ENERGY PREDICTED BY IDOCK:  -11.51 KCAL/MOL
REMARK 923 INTER-LIGAND FREE ENERGY PREDICTED BY IDOCK:   -9.10 KCAL/MOL
REMARK 924 INTRA-LIGAND FREE ENERGY PREDICTED BY IDOCK:   -2.41 KCAL/MOL
REMARK 927      BINDING AFFINITY PREDICTED BY RF-SCORE:    0.00 PKD
ROOT
HETATM    1  C   UNL     1     -10.491  19.181  65.962  1.00  0.00    -0.546 C  
HETATM    2  C   UNL     1     -10.311  18.162  67.081  1.00  0.00    -0.379 C  
ENDROOT
BRANCH   2   3
HETATM    3  N   UNL     1     -10.267  16.745  66.702  1.00  0.00    -0.301 NA 
BRANCH   3   4
HETATM    4  C   UNL     1     -10.891  16.423  65.405  1.00  0.00    -0.239 C  
BRANCH   4   5
HETATM    5  C   UNL     1     -10.599  15.001  64.903  1.00  0.00    -0.400 C  
BRANCH   5   6
HETATM    6  C   UNL     1     -11.881  14.268  64.505  1.00  0.00    -0.456 C  
BRANCH   6   7
HETATM    7  C   UNL     1     -11.698  12.762  64.665  1.00  0.00    -0.355 C  
BRANCH   7   8
HETATM    8  O   UNL     1     -10.620  12.498  65.572  1.00  0.00    -0.263 OA 
BRANCH   8   9
HETATM    9  C   UNL     1     -10.260  11.194  65.673  1.00  0.00    -0.256 C  
HETATM   10  O   UNL     1      -9.978  10.443  64.754  1.00  0.00    -0.314 OA 
BRANCH   9  11
HETATM   11  C   UNL     1     -10.296  10.771  67.092  1.00  0.00    -0.269 A  
HETATM   12  C   UNL     1      -9.159  10.282  67.746  1.00  0.00    -0.138 A  
HETATM   13  C   UNL     1      -9.238   9.868  69.079  1.00  0.00    -0.168 A  
HETATM   14  C   UNL     1     -11.597  10.455  69.106  1.00  0.00    -0.234 A  
HETATM   15  C   UNL     1     -10.469   9.957  69.766  1.00  0.00    -0.261 A  
HETATM   16  C   UNL     1     -11.515  10.851  67.769  1.00  0.00    -0.323 A  
BRANCH  13  17
HETATM   17  O   UNL     1      -8.181   9.359  69.793  1.00  0.00    -0.113 OA 
HETATM   18  C   UNL     1      -6.904   9.353  69.173  1.00  0.00    -0.050 C  
ENDBRANCH  13  17
BRANCH  15  19
HETATM   19  O   UNL     1     -10.466   9.530  71.070  1.00  0.00    -0.300 OA 
HETATM   20  C   UNL     1     -11.715   9.486  71.748  1.00  0.00    -0.341 C  
ENDBRANCH  15  19
ENDBRANCH   9  11
ENDBRANCH   8   9
ENDBRANCH   7   8
ENDBRANCH   6   7
ENDBRANCH   5   6
ENDBRANCH   4   5
ENDBRANCH   3   4
BRANCH   3  21
HETATM   21  C   UNL     1      -8.982  16.031  66.909  1.00  0.00    -0.227 C  
HETATM   22  C   UNL     1      -7.729  16.925  66.884  1.00  0.00    -0.252 C  
BRANCH  21  23
HETATM   23  C   UNL     1      -8.929  15.140  68.186  1.00  0.00    -0.174 C  
BRANCH  23  24
HETATM   24  C   UNL     1     -10.201  15.093  69.008  1.00  0.00    -0.241 A  
HETATM   25  C   UNL     1     -11.513  15.858  70.913  1.00  0.00    -0.444 A  
HETATM   26  C   UNL     1     -12.538  14.975  70.582  1.00  0.00    -0.374 A  
HETATM   27  C   UNL     1     -11.230  14.199  68.690  1.00  0.00    -0.291 A  
HETATM   28  C   UNL     1     -12.393  14.152  69.464  1.00  0.00    -0.275 A  
HETATM   29  C   UNL     1     -10.352  15.915  70.132  1.00  0.00    -0.182 A  
BRANCH  26  30
HETATM   30  O   UNL     1     -13.737  14.867  71.231  1.00  0.00    -0.406 OA 
HETATM   31  C   UNL     1     -13.877  15.629  72.424  1.00  0.00    -0.527 C  
ENDBRANCH  26  30
ENDBRANCH  23  24
ENDBRANCH  21  23
ENDBRANCH   3  21
ENDBRANCH   2   3
TORSDOF 14
ENDMDL
MODEL       82
REMARK 921   NORMALIZED FREE ENERGY PREDICTED BY IDOCK:   -4.79 KCAL/MOL
REMARK 922        TOTAL FREE ENERGY PREDICTED BY IDOCK:  -11.51 KCAL/MOL
REMARK 923 INTER-LIGAND FREE ENERGY PREDICTED BY IDOCK:  -10.06 KCAL/MOL
REMARK 924 INTRA-LIGAND FREE ENERGY PREDICTED BY IDOCK:   -1.45 KCAL/MOL
REMARK 927      BINDING AFFINITY PREDICTED BY RF-SCORE:    0.00 PKD
ROOT
HETATM    1  C   UNL     1     -13.156  14.489  73.017  1.00  0.00    -0.611 C  
HETATM    2  C   UNL     1     -13.477  13.741  71.728  1.00  0.00    -0.376 C  
ENDROOT
BRANCH   2   3
HETATM    3  N   UNL     1     -12.351  13.375  70.862  1.00  0.00    -0.375 NA 
BRANCH   3   4
HETATM    4  C   UNL     1     -12.200  11.931  70.606  1.00  0.00    -0.331 C  
BRANCH   4   5
HETATM    5  C   UNL     1     -12.973  11.035  71.586  1.00  0.00    -0.561 C  
BRANCH   5   6
HETATM    6  C   UNL     1     -13.303   9.675  70.969  1.00  0.00    -0.268 C  
BRANCH   6   7
HETATM    7  C   UNL     1     -13.739   8.696  72.054  1.00  0.00    -0.426 C  
BRANCH   7   8
HETATM    8  O   UNL     1     -13.164   7.406  71.803  1.00  0.00    -0.348 OA 
BRANCH   8   9
HETATM    9  C   UNL     1     -11.852   7.288  72.126  1.00  0.00    -0.286 C  
HETATM   10  O   UNL     1     -11.286   7.806  73.073  1.00  0.00    -0.405 OA 
BRANCH   9  11
HETATM   11  C   UNL     1     -11.161   6.451  71.118  1.00  0.00    -0.344 A  
HETATM   12  C   UNL     1     -11.223   6.741  69.749  1.00  0.00    -0.368 A  
HETATM   13  C   UNL     1     -10.579   5.913  68.825  1.00  0.00    -0.272 A  
HETATM   14  C   UNL     1      -9.792   4.513  70.650  1.00  0.00    -0.292 A  
HETATM   15  C   UNL     1      -9.855   4.789  69.281  1.00  0.00    -0.199 A  
HETATM   16  C   UNL     1     -10.452   5.334  71.567  1.00  0.00    -0.279 A  
BRANCH  13  17
HETATM   17  O   UNL     1     -10.601   6.108  67.466  1.00  0.00    -0.205 OA 
HETATM   18  C   UNL     1     -10.203   7.379  66.973  1.00  0.00    -0.287 C  
ENDBRANCH  13  17
BRANCH  15  19
HETATM   19  O   UNL     1      -9.253   4.025  68.313  1.00  0.00    -0.127 OA 
HETATM   20  C   UNL     1      -9.308   2.612  68.465  1.00  0.00    -0.190 C  
ENDBRANCH  15  19
ENDBRANCH   9  11
ENDBRANCH   8   9
ENDBRANCH   7   8
ENDBRANCH   6   7
ENDBRANCH   5   6
ENDBRANCH   4   5
ENDBRANCH   3   4
BRANCH   3  21
HETATM   21  C   UNL     1     -12.146  14.195  69.641  1.00  0.00    -0.349 C  
HETATM   22  C   UNL     1     -12.378  15.705  69.824  1.00  0.00    -0.216 C  
BRANCH  21  23
HETATM   23  C   UNL     1     -10.770  13.987  68.940  1.00  0.00    -0.265 C  
BRANCH  23  24
HETATM   24  C   UNL     1     -10.810  13.242  67.621  1.00  0.00    -0.273 A  
HETATM   25  C   UNL     1      -9.761  11.746  66.009  1.00  0.00    -0.254 A  
HETATM   26  C   UNL     1     -10.843  11.896  65.144  1.00  0.00    -0.300 A  
HETATM   27  C   UNL     1     -11.886  13.397  66.739  1.00  0.00    -0.452 A  
HETATM   28  C   UNL     1     -11.905  12.719  65.518  1.00  0.00    -0.466 A  
HETATM   29  C   UNL     1      -9.745  12.416  67.239  1.00  0.00    -0.201 A  
BRANCH  26  30
HETATM   30  O   UNL     1     -10.999  11.253  63.946  1.00  0.00    -0.386 OA 
HETATM   31  C   UNL     1      -9.814  10.741  63.348  1.00  0.00    -0.349 C  
ENDBRANCH  26  30
ENDBRANCH  23  24
ENDBRANCH  21  23
ENDBRANCH   3  21
ENDBRANCH   2   3
TORSDOF 14
ENDMDL
MODEL       83
REMARK 921   NORMALIZED FREE ENERGY PREDICTED BY IDOCK:   -4.79 KCAL/MOL
REMARK 922        TOTAL FREE ENERGY PREDICTED BY IDOCK:  -11.49 KCAL/MOL
REMARK 923 INTER-LIGAND FREE ENERGY PREDICTED BY IDOCK:  -10.42 KCAL/MOL
REMARK 924 INTRA-LIGAND FREE ENERGY PREDICTED BY IDOCK:   -1.07 KCAL/MOL
REMARK 927      BINDING AFFINITY PREDICTED BY RF-SCORE:    0.00 PKD
ROOT
HETATM    1  C   UNL     1     -11.742  15.884  72.459  1.00  0.00    -0.564 C  
HETATM    2  C   UNL     1     -11.374  15.228  71.133  1.00  0.00    -0.356 C  
ENDROOT
BRANCH   2   3
HETATM    3  N   UNL     1     -12.346  14.298  70.548  1.00  0.00    -0.338 NA 
BRANCH   3   4
HETATM    4  C   UNL     1     -12.150  14.005  69.116  1.00  0.00    -0.337 C  
BRANCH   4   5
HETATM    5  C   UNL     1     -11.729  15.222  68.278  1.00  0.00    -0.320 C  
BRANCH   5   6
HETATM    6  C   UNL     1     -11.635  14.879  66.791  1.00  0.00    -0.275 C  
BRANCH   6   7
HETATM    7  C   UNL     1     -11.107  13.460  66.610  1.00  0.00    -0.295 C  
BRANCH   7   8
HETATM    8  O   UNL     1     -12.161  12.605  66.150  1.00  0.00    -0.568 OA 
BRANCH   8   9
HETATM    9  C   UNL     1     -12.125  12.307  64.827  1.00  0.00    -0.365 C  
HETATM   10  O   UNL     1     -12.908  12.687  63.973  1.00  0.00    -0.700 OA 
BRANCH   9  11
HETATM   11  C   UNL     1     -10.994  11.391  64.549  1.00  0.00    -0.346 A  
HETATM   12  C   UNL     1     -10.627  10.379  65.444  1.00  0.00    -0.080 A  
HETATM   13  C   UNL     1      -9.537   9.551  65.159  1.00  0.00    -0.200 A  
HETATM   14  C   UNL     1      -9.194  10.743  63.070  1.00  0.00    -0.320 A  
HETATM   15  C   UNL     1      -8.814   9.734  63.959  1.00  0.00    -0.231 A  
HETATM   16  C   UNL     1     -10.273  11.578  63.367  1.00  0.00    -0.462 A  
BRANCH  13  17
HETATM   17  O   UNL     1      -9.094   8.546  65.985  1.00  0.00    -0.175 OA 
HETATM   18  C   UNL     1     -10.000   8.038  66.955  1.00  0.00    -0.268 C  
ENDBRANCH  13  17
BRANCH  15  19
HETATM   19  O   UNL     1      -7.757   8.884  63.754  1.00  0.00    -0.117 OA 
HETATM   20  C   UNL     1      -7.726   8.160  62.531  1.00  0.00    -0.126 C  
ENDBRANCH  15  19
ENDBRANCH   9  11
ENDBRANCH   8   9
ENDBRANCH   7   8
ENDBRANCH   6   7
ENDBRANCH   5   6
ENDBRANCH   4   5
ENDBRANCH   3   4
BRANCH   3  21
HETATM   21  C   UNL     1     -12.678  13.085  71.337  1.00  0.00    -0.281 C  
HETATM   22  C   UNL     1     -13.875  13.237  72.292  1.00  0.00    -0.637 C  
BRANCH  21  23
HETATM   23  C   UNL     1     -12.880  11.792  70.492  1.00  0.00    -0.012 C  
BRANCH  23  24
HETATM   24  C   UNL     1     -12.395  10.507  71.130  1.00  0.00    -0.510 A  
HETATM   25  C   UNL     1     -10.619   8.885  71.527  1.00  0.00    -0.399 A  
HETATM   26  C   UNL     1     -11.493   8.087  72.263  1.00  0.00    -0.360 A  
HETATM   27  C   UNL     1     -13.268   9.691  71.860  1.00  0.00    -0.538 A  
HETATM   28  C   UNL     1     -12.815   8.499  72.431  1.00  0.00    -0.373 A  
HETATM   29  C   UNL     1     -11.069  10.086  70.964  1.00  0.00    -0.341 A  
BRANCH  26  30
HETATM   30  O   UNL     1     -11.160   6.926  72.906  1.00  0.00    -0.275 OA 
HETATM   31  C   UNL     1     -10.794   5.830  72.076  1.00  0.00    -0.251 C  
ENDBRANCH  26  30
ENDBRANCH  23  24
ENDBRANCH  21  23
ENDBRANCH   3  21
ENDBRANCH   2   3
TORSDOF 14
ENDMDL
MODEL       84
REMARK 921   NORMALIZED FREE ENERGY PREDICTED BY IDOCK:   -4.77 KCAL/MOL
REMARK 922        TOTAL FREE ENERGY PREDICTED BY IDOCK:  -11.47 KCAL/MOL
REMARK 923 INTER-LIGAND FREE ENERGY PREDICTED BY IDOCK:   -9.70 KCAL/MOL
REMARK 924 INTRA-LIGAND FREE ENERGY PREDICTED BY IDOCK:   -1.77 KCAL/MOL
REMARK 927      BINDING AFFINITY PREDICTED BY RF-SCORE:    0.00 PKD
ROOT
HETATM    1  C   UNL     1     -12.483  13.697  65.450  1.00  0.00    -0.537 C  
HETATM    2  C   UNL     1     -12.026  12.901  66.667  1.00  0.00    -0.366 C  
ENDROOT
BRANCH   2   3
HETATM    3  N   UNL     1     -11.378  13.643  67.754  1.00  0.00    -0.291 NA 
BRANCH   3   4
HETATM    4  C   UNL     1     -12.209  13.853  68.953  1.00  0.00    -0.222 C  
BRANCH   4   5
HETATM    5  C   UNL     1     -12.118  12.720  69.988  1.00  0.00    -0.355 C  
BRANCH   5   6
HETATM    6  C   UNL     1     -12.672  13.150  71.347  1.00  0.00    -0.390 C  
BRANCH   6   7
HETATM    7  C   UNL     1     -13.388  11.983  72.018  1.00  0.00    -0.341 C  
BRANCH   7   8
HETATM    8  O   UNL     1     -13.196  10.789  71.248  1.00  0.00    -0.347 OA 
BRANCH   8   9
HETATM    9  C   UNL     1     -13.271   9.632  71.952  1.00  0.00    -0.446 C  
HETATM   10  O   UNL     1     -14.133   9.325  72.758  1.00  0.00    -0.481 OA 
BRANCH   9  11
HETATM   11  C   UNL     1     -12.105   8.776  71.636  1.00  0.00    -0.401 A  
HETATM   12  C   UNL     1     -12.125   7.392  71.849  1.00  0.00    -0.341 A  
HETATM   13  C   UNL     1     -10.995   6.620  71.562  1.00  0.00    -0.247 A  
HETATM   14  C   UNL     1      -9.829   8.624  70.831  1.00  0.00    -0.256 A  
HETATM   15  C   UNL     1      -9.836   7.243  71.046  1.00  0.00    -0.183 A  
HETATM   16  C   UNL     1     -10.955   9.392  71.134  1.00  0.00    -0.430 A  
BRANCH  13  17
HETATM   17  O   UNL     1     -10.917   5.263  71.757  1.00  0.00    -0.183 OA 
HETATM   18  C   UNL     1     -10.904   4.785  73.094  1.00  0.00    -0.270 C  
ENDBRANCH  13  17
BRANCH  15  19
HETATM   19  O   UNL     1      -8.769   6.418  70.794  1.00  0.00    -0.137 OA 
HETATM   20  C   UNL     1      -7.609   6.582  71.599  1.00  0.00    -0.094 C  
ENDBRANCH  15  19
ENDBRANCH   9  11
ENDBRANCH   8   9
ENDBRANCH   7   8
ENDBRANCH   6   7
ENDBRANCH   5   6
ENDBRANCH   4   5
ENDBRANCH   3   4
BRANCH   3  21
HETATM   21  C   UNL     1      -9.981  13.267  68.088  1.00  0.00    -0.234 C  
HETATM   22  C   UNL     1      -9.545  11.876  67.593  1.00  0.00    -0.185 C  
BRANCH  21  23
HETATM   23  C   UNL     1      -8.904  14.307  67.654  1.00  0.00    -0.196 C  
BRANCH  23  24
HETATM   24  C   UNL     1      -9.384  15.738  67.532  1.00  0.00    -0.210 A  
HETATM   25  C   UNL     1      -9.926  17.879  68.563  1.00  0.00    -0.379 A  
HETATM   26  C   UNL     1     -10.330  18.387  67.330  1.00  0.00    -0.392 A  
HETATM   27  C   UNL     1      -9.804  16.253  66.300  1.00  0.00    -0.334 A  
HETATM   28  C   UNL     1     -10.261  17.570  66.201  1.00  0.00    -0.339 A  
HETATM   29  C   UNL     1      -9.458  16.563  68.662  1.00  0.00    -0.243 A  
BRANCH  26  30
HETATM   30  O   UNL     1     -10.751  19.668  67.096  1.00  0.00    -0.478 OA 
HETATM   31  C   UNL     1      -9.742  20.670  67.091  1.00  0.00    -0.390 C  
ENDBRANCH  26  30
ENDBRANCH  23  24
ENDBRANCH  21  23
ENDBRANCH   3  21
ENDBRANCH   2   3
TORSDOF 14
ENDMDL
MODEL       85
REMARK 921   NORMALIZED FREE ENERGY PREDICTED BY IDOCK:   -4.77 KCAL/MOL
REMARK 922        TOTAL FREE ENERGY PREDICTED BY IDOCK:  -11.46 KCAL/MOL
REMARK 923 INTER-LIGAND FREE ENERGY PREDICTED BY IDOCK:   -9.04 KCAL/MOL
REMARK 924 INTRA-LIGAND FREE ENERGY PREDICTED BY IDOCK:   -2.42 KCAL/MOL
REMARK 927      BINDING AFFINITY PREDICTED BY RF-SCORE:    0.00 PKD
ROOT
HETATM    1  C   UNL     1     -11.827  15.947  70.009  1.00  0.00    -0.322 C  
HETATM    2  C   UNL     1     -10.306  16.025  70.050  1.00  0.00    -0.203 C  
ENDROOT
BRANCH   2   3
HETATM    3  N   UNL     1      -9.647  16.871  69.048  1.00  0.00    -0.247 NA 
BRANCH   3   4
HETATM    4  C   UNL     1      -8.270  16.474  68.701  1.00  0.00    -0.234 C  
BRANCH   4   5
HETATM    5  C   UNL     1      -7.853  15.101  69.253  1.00  0.00    -0.206 C  
BRANCH   5   6
HETATM    6  C   UNL     1      -7.634  14.084  68.132  1.00  0.00    -0.141 C  
BRANCH   6   7
HETATM    7  C   UNL     1      -7.275  12.723  68.719  1.00  0.00    -0.077 C  
BRANCH   7   8
HETATM    8  O   UNL     1      -7.435  11.707  67.720  1.00  0.00    -0.099 OA 
BRANCH   8   9
HETATM    9  C   UNL     1      -8.719  11.433  67.379  1.00  0.00    -0.145 C  
HETATM   10  O   UNL     1      -9.250  11.654  66.304  1.00  0.00    -0.209 OA 
BRANCH   9  11
HETATM   11  C   UNL     1      -9.433  10.849  68.538  1.00  0.00    -0.185 A  
HETATM   12  C   UNL     1     -10.710  11.282  68.914  1.00  0.00    -0.246 A  
HETATM   13  C   UNL     1     -11.341  10.724  70.030  1.00  0.00    -0.319 A  
HETATM   14  C   UNL     1      -9.415   9.284  70.382  1.00  0.00    -0.292 A  
HETATM   15  C   UNL     1     -10.688   9.714  70.770  1.00  0.00    -0.331 A  
HETATM   16  C   UNL     1      -8.783   9.856  69.276  1.00  0.00    -0.172 A  
BRANCH  13  17
HETATM   17  O   UNL     1     -12.583  11.099  70.482  1.00  0.00    -0.306 OA 
HETATM   18  C   UNL     1     -12.708  12.375  71.094  1.00  0.00    -0.240 C  
ENDBRANCH  13  17
BRANCH  15  19
HETATM   19  O   UNL     1     -11.371   9.219  71.852  1.00  0.00    -0.374 OA 
HETATM   20  C   UNL     1     -10.891   8.015  72.436  1.00  0.00    -0.327 C  
ENDBRANCH  15  19
ENDBRANCH   9  11
ENDBRANCH   8   9
ENDBRANCH   7   8
ENDBRANCH   6   7
ENDBRANCH   5   6
ENDBRANCH   4   5
ENDBRANCH   3   4
BRANCH   3  21
HETATM   21  C   UNL     1     -10.446  17.255  67.858  1.00  0.00    -0.382 C  
HETATM   22  C   UNL     1     -10.627  18.770  67.656  1.00  0.00    -0.481 C  
BRANCH  21  23
HETATM   23  C   UNL     1      -9.959  16.631  66.516  1.00  0.00    -0.296 C  
BRANCH  23  24
HETATM   24  C   UNL     1     -10.805  15.497  65.973  1.00  0.00    -0.301 A  
HETATM   25  C   UNL     1     -12.104  14.513  64.161  1.00  0.00    -0.377 A  
HETATM   26  C   UNL     1     -12.428  13.423  64.966  1.00  0.00    -0.428 A  
HETATM   27  C   UNL     1     -11.146  14.404  66.778  1.00  0.00    -0.323 A  
HETATM   28  C   UNL     1     -11.940  13.371  66.272  1.00  0.00    -0.460 A  
HETATM   29  C   UNL     1     -11.299  15.544  64.663  1.00  0.00    -0.363 A  
BRANCH  26  30
HETATM   30  O   UNL     1     -13.156  12.332  64.575  1.00  0.00    -0.791 OA 
HETATM   31  C   UNL     1     -12.909  11.851  63.258  1.00  0.00    -0.161 C  
ENDBRANCH  26  30
ENDBRANCH  23  24
ENDBRANCH  21  23
ENDBRANCH   3  21
ENDBRANCH   2   3
TORSDOF 14
ENDMDL
MODEL       86
REMARK 921   NORMALIZED FREE ENERGY PREDICTED BY IDOCK:   -4.75 KCAL/MOL
REMARK 922        TOTAL FREE ENERGY PREDICTED BY IDOCK:  -11.43 KCAL/MOL
REMARK 923 INTER-LIGAND FREE ENERGY PREDICTED BY IDOCK:   -8.98 KCAL/MOL
REMARK 924 INTRA-LIGAND FREE ENERGY PREDICTED BY IDOCK:   -2.46 KCAL/MOL
REMARK 927      BINDING AFFINITY PREDICTED BY RF-SCORE:    0.00 PKD
ROOT
HETATM    1  C   UNL     1     -11.166   5.061  73.433  1.00  0.00    -0.391 C  
HETATM    2  C   UNL     1     -10.517   5.385  72.093  1.00  0.00    -0.218 C  
ENDROOT
BRANCH   2   3
HETATM    3  N   UNL     1     -10.213   6.793  71.813  1.00  0.00    -0.191 NA 
BRANCH   3   4
HETATM    4  C   UNL     1      -8.781   7.105  71.650  1.00  0.00    -0.118 C  
BRANCH   4   5
HETATM    5  C   UNL     1      -8.442   7.837  70.342  1.00  0.00    -0.132 C  
BRANCH   5   6
HETATM    6  C   UNL     1      -7.864   9.227  70.605  1.00  0.00    -0.181 C  
BRANCH   6   7
HETATM    7  C   UNL     1      -7.365   9.846  69.304  1.00  0.00    -0.084 C  
BRANCH   7   8
HETATM    8  O   UNL     1      -8.032  11.094  69.073  1.00  0.00    -0.137 OA 
BRANCH   8   9
HETATM    9  C   UNL     1      -7.688  11.726  67.923  1.00  0.00    -0.125 C  
HETATM   10  O   UNL     1      -6.567  12.074  67.591  1.00  0.00    -0.083 OA 
BRANCH   9  11
HETATM   11  C   UNL     1      -8.899  11.987  67.112  1.00  0.00    -0.188 A  
HETATM   12  C   UNL     1      -9.476  13.261  67.035  1.00  0.00    -0.243 A  
HETATM   13  C   UNL     1     -10.635  13.463  66.279  1.00  0.00    -0.291 A  
HETATM   14  C   UNL     1     -10.625  11.112  65.662  1.00  0.00    -0.286 A  
HETATM   15  C   UNL     1     -11.214  12.377  65.584  1.00  0.00    -0.322 A  
HETATM   16  C   UNL     1      -9.477  10.912  66.432  1.00  0.00    -0.214 A  
BRANCH  13  17
HETATM   17  O   UNL     1     -11.279  14.670  66.162  1.00  0.00    -0.333 OA 
HETATM   18  C   UNL     1     -10.692  15.655  65.323  1.00  0.00    -0.425 C  
ENDBRANCH  13  17
BRANCH  15  19
HETATM   19  O   UNL     1     -12.350  12.656  64.868  1.00  0.00    -0.457 OA 
HETATM   20  C   UNL     1     -12.495  12.032  63.599  1.00  0.00    -0.525 C  
ENDBRANCH  15  19
ENDBRANCH   9  11
ENDBRANCH   8   9
ENDBRANCH   7   8
ENDBRANCH   6   7
ENDBRANCH   5   6
ENDBRANCH   4   5
ENDBRANCH   3   4
BRANCH   3  21
HETATM   21  C   UNL     1     -11.064   7.480  70.810  1.00  0.00    -0.265 C  
HETATM   22  C   UNL     1     -11.650   6.568  69.718  1.00  0.00    -0.392 C  
BRANCH  21  23
HETATM   23  C   UNL     1     -12.219   8.337  71.412  1.00  0.00    -0.328 C  
BRANCH  23  24
HETATM   24  C   UNL     1     -12.202   9.808  71.054  1.00  0.00    -0.436 A  
HETATM   25  C   UNL     1     -12.976  12.086  71.446  1.00  0.00    -0.362 A  
HETATM   26  C   UNL     1     -12.226  12.543  70.364  1.00  0.00    -0.286 A  
HETATM   27  C   UNL     1     -11.462  10.275  69.961  1.00  0.00    -0.367 A  
HETATM   28  C   UNL     1     -11.466  11.632  69.629  1.00  0.00    -0.359 A  
HETATM   29  C   UNL     1     -12.964  10.727  71.787  1.00  0.00    -0.568 A  
BRANCH  26  30
HETATM   30  O   UNL     1     -12.112  13.847  69.969  1.00  0.00    -0.306 OA 
HETATM   31  C   UNL     1     -12.747  14.813  70.798  1.00  0.00    -0.362 C  
ENDBRANCH  26  30
ENDBRANCH  23  24
ENDBRANCH  21  23
ENDBRANCH   3  21
ENDBRANCH   2   3
TORSDOF 14
ENDMDL
MODEL       87
REMARK 921   NORMALIZED FREE ENERGY PREDICTED BY IDOCK:   -4.75 KCAL/MOL
REMARK 922        TOTAL FREE ENERGY PREDICTED BY IDOCK:  -11.43 KCAL/MOL
REMARK 923 INTER-LIGAND FREE ENERGY PREDICTED BY IDOCK:   -9.72 KCAL/MOL
REMARK 924 INTRA-LIGAND FREE ENERGY PREDICTED BY IDOCK:   -1.70 KCAL/MOL
REMARK 927      BINDING AFFINITY PREDICTED BY RF-SCORE:    0.00 PKD
ROOT
HETATM    1  C   UNL     1     -12.035  10.725  69.267  1.00  0.00    -0.334 C  
HETATM    2  C   UNL     1     -10.680  10.696  68.570  1.00  0.00    -0.217 C  
ENDROOT
BRANCH   2   3
HETATM    3  N   UNL     1     -10.232   9.412  68.019  1.00  0.00    -0.192 NA 
BRANCH   3   4
HETATM    4  C   UNL     1      -9.745   9.462  66.628  1.00  0.00    -0.219 C  
BRANCH   4   5
HETATM    5  C   UNL     1      -9.808  10.859  65.991  1.00  0.00    -0.280 C  
BRANCH   5   6
HETATM    6  C   UNL     1     -10.221  10.791  64.520  1.00  0.00    -0.428 C  
BRANCH   6   7
HETATM    7  C   UNL     1     -10.602  12.178  64.014  1.00  0.00    -0.389 C  
BRANCH   7   8
HETATM    8  O   UNL     1     -11.856  12.575  64.585  1.00  0.00    -0.343 OA 
BRANCH   8   9
HETATM    9  C   UNL     1     -12.073  13.914  64.622  1.00  0.00    -0.431 C  
HETATM   10  O   UNL     1     -12.481  14.610  63.708  1.00  0.00    -0.799 OA 
BRANCH   9  11
HETATM   11  C   UNL     1     -11.695  14.447  65.951  1.00  0.00    -0.371 A  
HETATM   12  C   UNL     1     -10.910  15.598  66.089  1.00  0.00    -0.264 A  
HETATM   13  C   UNL     1     -10.552  16.056  67.361  1.00  0.00    -0.316 A  
HETATM   14  C   UNL     1     -11.787  14.214  68.356  1.00  0.00    -0.388 A  
HETATM   15  C   UNL     1     -10.997  15.358  68.506  1.00  0.00    -0.278 A  
HETATM   16  C   UNL     1     -12.127  13.752  67.084  1.00  0.00    -0.416 A  
BRANCH  13  17
HETATM   17  O   UNL     1      -9.771  17.162  67.591  1.00  0.00    -0.254 OA 
HETATM   18  C   UNL     1     -10.343  18.439  67.346  1.00  0.00    -0.391 C  
ENDBRANCH  13  17
BRANCH  15  19
HETATM   19  O   UNL     1     -10.602  15.868  69.716  1.00  0.00    -0.274 OA 
HETATM   20  C   UNL     1     -11.592  15.999  70.727  1.00  0.00    -0.400 C  
ENDBRANCH  15  19
ENDBRANCH   9  11
ENDBRANCH   8   9
ENDBRANCH   7   8
ENDBRANCH   6   7
ENDBRANCH   5   6
ENDBRANCH   4   5
ENDBRANCH   3   4
BRANCH   3  21
HETATM   21  C   UNL     1      -9.380   8.564  68.891  1.00  0.00    -0.146 C  
HETATM   22  C   UNL     1      -7.911   8.444  68.448  1.00  0.00    -0.118 C  
BRANCH  21  23
HETATM   23  C   UNL     1      -9.413   8.944  70.402  1.00  0.00    -0.227 C  
BRANCH  23  24
HETATM   24  C   UNL     1      -9.891   7.858  71.343  1.00  0.00    -0.203 A  
HETATM   25  C   UNL     1     -10.799   5.625  71.703  1.00  0.00    -0.301 A  
HETATM   26  C   UNL     1     -10.840   5.847  73.078  1.00  0.00    -0.267 A  
HETATM   27  C   UNL     1      -9.948   8.076  72.725  1.00  0.00    -0.364 A  
HETATM   28  C   UNL     1     -10.407   7.074  73.583  1.00  0.00    -0.412 A  
HETATM   29  C   UNL     1     -10.329   6.625  70.842  1.00  0.00    -0.237 A  
BRANCH  26  30
HETATM   30  O   UNL     1     -11.224   4.934  74.021  1.00  0.00    -0.259 OA 
HETATM   31  C   UNL     1     -10.453   3.739  74.090  1.00  0.00    -0.207 C  
ENDBRANCH  26  30
ENDBRANCH  23  24
ENDBRANCH  21  23
ENDBRANCH   3  21
ENDBRANCH   2   3
TORSDOF 14
ENDMDL
MODEL       88
REMARK 921   NORMALIZED FREE ENERGY PREDICTED BY IDOCK:   -4.75 KCAL/MOL
REMARK 922        TOTAL FREE ENERGY PREDICTED BY IDOCK:  -11.42 KCAL/MOL
REMARK 923 INTER-LIGAND FREE ENERGY PREDICTED BY IDOCK:   -9.00 KCAL/MOL
REMARK 924 INTRA-LIGAND FREE ENERGY PREDICTED BY IDOCK:   -2.42 KCAL/MOL
REMARK 927      BINDING AFFINITY PREDICTED BY RF-SCORE:    0.00 PKD
ROOT
HETATM    1  C   UNL     1      -7.121  10.367  65.384  1.00  0.00    -0.117 C  
HETATM    2  C   UNL     1      -7.792  10.953  66.620  1.00  0.00    -0.145 C  
ENDROOT
BRANCH   2   3
HETATM    3  N   UNL     1      -9.202  10.613  66.847  1.00  0.00    -0.154 NA 
BRANCH   3   4
HETATM    4  C   UNL     1      -9.910  10.062  65.677  1.00  0.00    -0.295 C  
BRANCH   4   5
HETATM    5  C   UNL     1     -11.137  10.879  65.242  1.00  0.00     0.082 C  
BRANCH   5   6
HETATM    6  C   UNL     1     -10.940  11.501  63.859  1.00  0.00    -0.474 C  
BRANCH   6   7
HETATM    7  C   UNL     1     -12.201  12.242  63.430  1.00  0.00    -0.527 C  
BRANCH   7   8
HETATM    8  O   UNL     1     -12.016  13.654  63.600  1.00  0.00    -0.425 OA 
BRANCH   8   9
HETATM    9  C   UNL     1     -12.264  14.121  64.849  1.00  0.00    -0.438 C  
HETATM   10  O   UNL     1     -13.283  13.958  65.498  1.00  0.00    -0.698 OA 
BRANCH   9  11
HETATM   11  C   UNL     1     -11.110  14.919  65.324  1.00  0.00    -0.382 A  
HETATM   12  C   UNL     1     -10.045  14.336  66.021  1.00  0.00    -0.333 A  
HETATM   13  C   UNL     1      -8.986  15.128  66.476  1.00  0.00    -0.291 A  
HETATM   14  C   UNL     1     -10.057  17.087  65.517  1.00  0.00    -0.035 A  
HETATM   15  C   UNL     1      -8.992  16.517  66.220  1.00  0.00    -0.324 A  
HETATM   16  C   UNL     1     -11.120  16.295  65.079  1.00  0.00    -0.262 A  
BRANCH  13  17
HETATM   17  O   UNL     1      -7.910  14.646  67.182  1.00  0.00    -0.197 OA 
HETATM   18  C   UNL     1      -8.141  14.181  68.504  1.00  0.00    -0.143 C  
ENDBRANCH  13  17
BRANCH  15  19
HETATM   19  O   UNL     1      -7.919  17.225  66.701  1.00  0.00    -0.216 OA 
HETATM   20  C   UNL     1      -7.798  18.583  66.302  1.00  0.00    -0.254 C  
ENDBRANCH  15  19
ENDBRANCH   9  11
ENDBRANCH   8   9
ENDBRANCH   7   8
ENDBRANCH   6   7
ENDBRANCH   5   6
ENDBRANCH   4   5
ENDBRANCH   3   4
BRANCH   3  21
HETATM   21  C   UNL     1      -9.528   9.892  68.103  1.00  0.00    -0.138 C  
HETATM   22  C   UNL     1      -8.710  10.325  69.333  1.00  0.00    -0.168 C  
BRANCH  21  23
HETATM   23  C   UNL     1     -11.038   9.899  68.485  1.00  0.00    -0.181 C  
BRANCH  23  24
HETATM   24  C   UNL     1     -11.515  11.107  69.264  1.00  0.00    -0.363 A  
HETATM   25  C   UNL     1     -12.468  12.074  71.288  1.00  0.00    -0.303 A  
HETATM   26  C   UNL     1     -12.460  13.340  70.705  1.00  0.00    -0.298 A  
HETATM   27  C   UNL     1     -11.523  12.381  68.682  1.00  0.00    -0.348 A  
HETATM   28  C   UNL     1     -11.980  13.487  69.403  1.00  0.00    -0.383 A  
HETATM   29  C   UNL     1     -11.999  10.966  70.571  1.00  0.00    -0.466 A  
BRANCH  26  30
HETATM   30  O   UNL     1     -12.837  14.502  71.320  1.00  0.00    -0.297 OA 
HETATM   31  C   UNL     1     -12.836  14.489  72.743  1.00  0.00    -0.427 C  
ENDBRANCH  26  30
ENDBRANCH  23  24
ENDBRANCH  21  23
ENDBRANCH   3  21
ENDBRANCH   2   3
TORSDOF 14
ENDMDL
MODEL       89
REMARK 921   NORMALIZED FREE ENERGY PREDICTED BY IDOCK:   -4.74 KCAL/MOL
REMARK 922        TOTAL FREE ENERGY PREDICTED BY IDOCK:  -11.42 KCAL/MOL
REMARK 923 INTER-LIGAND FREE ENERGY PREDICTED BY IDOCK:   -8.83 KCAL/MOL
REMARK 924 INTRA-LIGAND FREE ENERGY PREDICTED BY IDOCK:   -2.59 KCAL/MOL
REMARK 927      BINDING AFFINITY PREDICTED BY RF-SCORE:    0.00 PKD
ROOT
HETATM    1  C   UNL     1      -6.311  18.854  65.235  1.00  0.00    -0.314 C  
HETATM    2  C   UNL     1      -6.979  20.049  65.904  1.00  0.00    -0.286 C  
ENDROOT
BRANCH   2   3
HETATM    3  N   UNL     1      -7.162  19.993  67.359  1.00  0.00    -0.249 NA 
BRANCH   3   4
HETATM    4  C   UNL     1      -8.563  19.913  67.812  1.00  0.00    -0.317 C  
BRANCH   4   5
HETATM    5  C   UNL     1      -9.582  19.729  66.676  1.00  0.00    -0.499 C  
BRANCH   5   6
HETATM    6  C   UNL     1     -10.327  18.400  66.795  1.00  0.00    -0.420 C  
BRANCH   6   7
HETATM    7  C   UNL     1     -10.759  17.912  65.417  1.00  0.00     0.123 C  
BRANCH   7   8
HETATM    8  O   UNL     1     -10.343  16.553  65.231  1.00  0.00    -0.596 OA 
BRANCH   8   9
HETATM    9  C   UNL     1     -11.290  15.725  64.723  1.00  0.00    -0.314 C  
HETATM   10  O   UNL     1     -12.108  15.997  63.861  1.00  0.00    -0.880 OA 
BRANCH   9  11
HETATM   11  C   UNL     1     -11.228  14.412  65.407  1.00  0.00    -0.335 A  
HETATM   12  C   UNL     1     -10.833  13.248  64.736  1.00  0.00    -0.374 A  
HETATM   13  C   UNL     1     -10.812  12.023  65.409  1.00  0.00    -0.291 A  
HETATM   14  C   UNL     1     -11.567  13.136  67.432  1.00  0.00    -0.403 A  
HETATM   15  C   UNL     1     -11.181  11.967  66.771  1.00  0.00    -0.327 A  
HETATM   16  C   UNL     1     -11.602  14.355  66.752  1.00  0.00    -0.399 A  
BRANCH  13  17
HETATM   17  O   UNL     1     -10.457  10.830  64.828  1.00  0.00    -0.326 OA 
HETATM   18  C   UNL     1      -9.902  10.868  63.521  1.00  0.00    -0.359 C  
ENDBRANCH  13  17
BRANCH  15  19
HETATM   19  O   UNL     1     -11.138  10.728  67.359  1.00  0.00    -0.302 OA 
HETATM   20  C   UNL     1     -10.087  10.478  68.283  1.00  0.00    -0.160 C  
ENDBRANCH  15  19
ENDBRANCH   9  11
ENDBRANCH   8   9
ENDBRANCH   7   8
ENDBRANCH   6   7
ENDBRANCH   5   6
ENDBRANCH   4   5
ENDBRANCH   3   4
BRANCH   3  21
HETATM   21  C   UNL     1      -6.265  19.085  68.117  1.00  0.00    -0.218 C  
HETATM   22  C   UNL     1      -5.147  19.786  68.908  1.00  0.00    -0.202 C  
BRANCH  21  23
HETATM   23  C   UNL     1      -6.996  18.091  69.068  1.00  0.00    -0.252 C  
BRANCH  23  24
HETATM   24  C   UNL     1      -6.961  16.635  68.651  1.00  0.00    -0.172 A  
HETATM   25  C   UNL     1      -7.570  14.872  67.084  1.00  0.00    -0.145 A  
HETATM   26  C   UNL     1      -6.952  13.919  67.892  1.00  0.00    -0.160 A  
HETATM   27  C   UNL     1      -6.354  15.669  69.463  1.00  0.00    -0.166 A  
HETATM   28  C   UNL     1      -6.340  14.326  69.078  1.00  0.00    -0.096 A  
HETATM   29  C   UNL     1      -7.575  16.220  67.463  1.00  0.00    -0.170 A  
BRANCH  26  30
HETATM   30  O   UNL     1      -6.833  12.587  67.604  1.00  0.00    -0.106 OA 
HETATM   31  C   UNL     1      -5.553  12.152  67.160  1.00  0.00    -0.115 C  
ENDBRANCH  26  30
ENDBRANCH  23  24
ENDBRANCH  21  23
ENDBRANCH   3  21
ENDBRANCH   2   3
TORSDOF 14
ENDMDL
MODEL       90
REMARK 921   NORMALIZED FREE ENERGY PREDICTED BY IDOCK:   -4.74 KCAL/MOL
REMARK 922        TOTAL FREE ENERGY PREDICTED BY IDOCK:  -11.41 KCAL/MOL
REMARK 923 INTER-LIGAND FREE ENERGY PREDICTED BY IDOCK:   -9.65 KCAL/MOL
REMARK 924 INTRA-LIGAND FREE ENERGY PREDICTED BY IDOCK:   -1.77 KCAL/MOL
REMARK 927      BINDING AFFINITY PREDICTED BY RF-SCORE:    0.00 PKD
ROOT
HETATM    1  C   UNL     1      -7.815   9.904  68.639  1.00  0.00    -0.086 C  
HETATM    2  C   UNL     1      -8.598   8.606  68.794  1.00  0.00    -0.130 C  
ENDROOT
BRANCH   2   3
HETATM    3  N   UNL     1      -9.811   8.449  67.983  1.00  0.00    -0.163 NA 
BRANCH   3   4
HETATM    4  C   UNL     1     -10.191   9.631  67.189  1.00  0.00    -0.243 C  
BRANCH   4   5
HETATM    5  C   UNL     1      -9.905   9.497  65.685  1.00  0.00    -0.343 C  
BRANCH   5   6
HETATM    6  C   UNL     1      -9.235  10.752  65.123  1.00  0.00    -0.239 C  
BRANCH   6   7
HETATM    7  C   UNL     1     -10.278  11.673  64.500  1.00  0.00    -0.291 C  
BRANCH   7   8
HETATM    8  O   UNL     1     -10.570  12.752  65.397  1.00  0.00    -0.276 OA 
BRANCH   8   9
HETATM    9  C   UNL     1     -11.836  12.770  65.883  1.00  0.00    -0.437 C  
HETATM   10  O   UNL     1     -12.853  12.474  65.278  1.00  0.00    -0.613 OA 
BRANCH   9  11
HETATM   11  C   UNL     1     -11.830  13.256  67.283  1.00  0.00    -0.421 A  
HETATM   12  C   UNL     1     -11.999  12.386  68.367  1.00  0.00    -0.269 A  
HETATM   13  C   UNL     1     -12.013  12.886  69.673  1.00  0.00    -0.292 A  
HETATM   14  C   UNL     1     -11.668  15.129  68.803  1.00  0.00    -0.366 A  
HETATM   15  C   UNL     1     -11.844  14.271  69.893  1.00  0.00    -0.322 A  
HETATM   16  C   UNL     1     -11.672  14.627  67.500  1.00  0.00    -0.403 A  
BRANCH  13  17
HETATM   17  O   UNL     1     -12.192  12.112  70.793  1.00  0.00    -0.377 OA 
HETATM   18  C   UNL     1     -12.259  10.703  70.622  1.00  0.00    -0.365 C  
ENDBRANCH  13  17
BRANCH  15  19
HETATM   19  O   UNL     1     -11.872  14.683  71.201  1.00  0.00    -0.325 OA 
HETATM   20  C   UNL     1     -11.718  16.073  71.454  1.00  0.00    -0.473 C  
ENDBRANCH  15  19
ENDBRANCH   9  11
ENDBRANCH   8   9
ENDBRANCH   7   8
ENDBRANCH   6   7
ENDBRANCH   5   6
ENDBRANCH   4   5
ENDBRANCH   3   4
BRANCH   3  21
HETATM   21  C   UNL     1      -9.955   7.181  67.223  1.00  0.00    -0.186 C  
HETATM   22  C   UNL     1      -8.645   6.407  66.994  1.00  0.00    -0.112 C  
BRANCH  21  23
HETATM   23  C   UNL     1     -11.019   6.197  67.795  1.00  0.00    -0.400 C  
BRANCH  23  24
HETATM   24  C   UNL     1     -10.998   6.003  69.297  1.00  0.00    -0.436 A  
HETATM   25  C   UNL     1     -11.835   6.579  71.512  1.00  0.00    -0.386 A  
HETATM   26  C   UNL     1     -10.929   5.698  72.099  1.00  0.00    -0.250 A  
HETATM   27  C   UNL     1     -10.083   5.130  69.897  1.00  0.00    -0.342 A  
HETATM   28  C   UNL     1     -10.060   4.971  71.285  1.00  0.00    -0.276 A  
HETATM   29  C   UNL     1     -11.867   6.731  70.120  1.00  0.00    -0.321 A  
BRANCH  26  30
HETATM   30  O   UNL     1     -10.840   5.422  73.436  1.00  0.00    -0.257 OA 
HETATM   31  C   UNL     1     -10.987   4.056  73.807  1.00  0.00    -0.244 C  
ENDBRANCH  26  30
ENDBRANCH  23  24
ENDBRANCH  21  23
ENDBRANCH   3  21
ENDBRANCH   2   3
TORSDOF 14
ENDMDL
MODEL       91
REMARK 921   NORMALIZED FREE ENERGY PREDICTED BY IDOCK:   -4.73 KCAL/MOL
REMARK 922        TOTAL FREE ENERGY PREDICTED BY IDOCK:  -11.40 KCAL/MOL
REMARK 923 INTER-LIGAND FREE ENERGY PREDICTED BY IDOCK:   -9.59 KCAL/MOL
REMARK 924 INTRA-LIGAND FREE ENERGY PREDICTED BY IDOCK:   -1.81 KCAL/MOL
REMARK 927      BINDING AFFINITY PREDICTED BY RF-SCORE:    0.00 PKD
ROOT
HETATM    1  C   UNL     1      -8.442  13.891  67.647  1.00  0.00    -0.193 C  
HETATM    2  C   UNL     1      -9.853  14.214  68.122  1.00  0.00    -0.229 C  
ENDROOT
BRANCH   2   3
HETATM    3  N   UNL     1     -10.791  14.753  67.131  1.00  0.00    -0.303 NA 
BRANCH   3   4
HETATM    4  C   UNL     1     -12.042  13.988  66.972  1.00  0.00    -0.420 C  
BRANCH   4   5
HETATM    5  C   UNL     1     -12.598  13.984  65.539  1.00  0.00    -0.543 C  
BRANCH   5   6
HETATM    6  C   UNL     1     -12.426  12.620  64.870  1.00  0.00    -0.564 C  
BRANCH   6   7
HETATM    7  C   UNL     1     -11.030  12.500  64.269  1.00  0.00    -0.360 C  
BRANCH   7   8
HETATM    8  O   UNL     1     -10.140  11.906  65.223  1.00  0.00    -0.246 OA 
BRANCH   8   9
HETATM    9  C   UNL     1      -9.923  10.577  65.058  1.00  0.00    -0.322 C  
HETATM   10  O   UNL     1      -9.634  10.010  64.017  1.00  0.00    -0.285 OA 
BRANCH   9  11
HETATM   11  C   UNL     1     -10.131   9.871  66.343  1.00  0.00    -0.308 A  
HETATM   12  C   UNL     1     -10.516  10.551  67.505  1.00  0.00    -0.284 A  
HETATM   13  C   UNL     1     -10.679   9.854  68.706  1.00  0.00    -0.220 A  
HETATM   14  C   UNL     1     -10.086   7.788  67.571  1.00  0.00    -0.272 A  
HETATM   15  C   UNL     1     -10.463   8.458  68.738  1.00  0.00    -0.178 A  
HETATM   16  C   UNL     1      -9.909   8.492  66.378  1.00  0.00    -0.327 A  
BRANCH  13  17
HETATM   17  O   UNL     1     -11.035  10.439  69.896  1.00  0.00    -0.266 OA 
HETATM   18  C   UNL     1     -11.920  11.550  69.849  1.00  0.00    -0.351 C  
ENDBRANCH  13  17
BRANCH  15  19
HETATM   19  O   UNL     1     -10.639   7.847  69.954  1.00  0.00    -0.235 OA 
HETATM   20  C   UNL     1     -11.319   6.599  69.968  1.00  0.00    -0.382 C  
ENDBRANCH  15  19
ENDBRANCH   9  11
ENDBRANCH   8   9
ENDBRANCH   7   8
ENDBRANCH   6   7
ENDBRANCH   5   6
ENDBRANCH   4   5
ENDBRANCH   3   4
BRANCH   3  21
HETATM   21  C   UNL     1     -11.018  16.220  67.145  1.00  0.00    -0.114 C  
HETATM   22  C   UNL     1     -10.867  16.890  68.522  1.00  0.00    -0.335 C  
BRANCH  21  23
HETATM   23  C   UNL     1     -10.171  17.020  66.110  1.00  0.00    -0.346 C  
BRANCH  23  24
HETATM   24  C   UNL     1      -9.196  18.023  66.692  1.00  0.00    -0.291 A  
HETATM   25  C   UNL     1      -8.612  20.323  67.247  1.00  0.00    -0.425 A  
HETATM   26  C   UNL     1      -7.368  19.909  67.719  1.00  0.00    -0.288 A  
HETATM   27  C   UNL     1      -7.939  17.618  67.156  1.00  0.00    -0.229 A  
HETATM   28  C   UNL     1      -7.040  18.553  67.677  1.00  0.00    -0.215 A  
HETATM   29  C   UNL     1      -9.519  19.385  66.736  1.00  0.00    -0.404 A  
BRANCH  26  30
HETATM   30  O   UNL     1      -6.424  20.717  68.290  1.00  0.00    -0.304 OA 
HETATM   31  C   UNL     1      -6.020  20.376  69.611  1.00  0.00    -0.349 C  
ENDBRANCH  26  30
ENDBRANCH  23  24
ENDBRANCH  21  23
ENDBRANCH   3  21
ENDBRANCH   2   3
TORSDOF 14
ENDMDL
MODEL       92
REMARK 921   NORMALIZED FREE ENERGY PREDICTED BY IDOCK:   -4.70 KCAL/MOL
REMARK 922        TOTAL FREE ENERGY PREDICTED BY IDOCK:  -11.34 KCAL/MOL
REMARK 923 INTER-LIGAND FREE ENERGY PREDICTED BY IDOCK:   -9.08 KCAL/MOL
REMARK 924 INTRA-LIGAND FREE ENERGY PREDICTED BY IDOCK:   -2.25 KCAL/MOL
REMARK 927      BINDING AFFINITY PREDICTED BY RF-SCORE:    0.00 PKD
ROOT
HETATM    1  C   UNL     1     -14.343   7.561  71.337  1.00  0.00    -0.540 C  
HETATM    2  C   UNL     1     -13.379   8.308  72.251  1.00  0.00    -0.209 C  
ENDROOT
BRANCH   2   3
HETATM    3  N   UNL     1     -11.943   8.111  72.023  1.00  0.00    -0.319 NA 
BRANCH   3   4
HETATM    4  C   UNL     1     -11.589   6.891  71.274  1.00  0.00    -0.310 C  
BRANCH   4   5
HETATM    5  C   UNL     1     -11.264   5.680  72.163  1.00  0.00    -0.288 C  
BRANCH   5   6
HETATM    6  C   UNL     1      -9.764   5.381  72.184  1.00  0.00    -0.196 C  
BRANCH   6   7
HETATM    7  C   UNL     1      -9.457   4.168  71.313  1.00  0.00    -0.160 C  
BRANCH   7   8
HETATM    8  O   UNL     1      -8.672   4.569  70.182  1.00  0.00    -0.075 OA 
BRANCH   8   9
HETATM    9  C   UNL     1      -9.293   4.455  68.981  1.00  0.00    -0.154 C  
HETATM   10  O   UNL     1      -9.631   3.420  68.431  1.00  0.00    -0.166 OA 
BRANCH   9  11
HETATM   11  C   UNL     1      -9.476   5.797  68.382  1.00  0.00    -0.137 A  
HETATM   12  C   UNL     1      -8.522   6.810  68.534  1.00  0.00    -0.123 A  
HETATM   13  C   UNL     1      -8.742   8.073  67.975  1.00  0.00    -0.125 A  
HETATM   14  C   UNL     1     -10.870   7.296  67.095  1.00  0.00    -0.378 A  
HETATM   15  C   UNL     1      -9.928   8.317  67.247  1.00  0.00    -0.224 A  
HETATM   16  C   UNL     1     -10.653   6.042  67.670  1.00  0.00    -0.336 A  
BRANCH  13  17
HETATM   17  O   UNL     1      -7.872   9.130  68.089  1.00  0.00    -0.098 OA 
HETATM   18  C   UNL     1      -6.558   8.964  67.576  1.00  0.00    -0.062 C  
ENDBRANCH  13  17
BRANCH  15  19
HETATM   19  O   UNL     1     -10.071   9.581  66.732  1.00  0.00    -0.214 OA 
HETATM   20  C   UNL     1      -9.607   9.806  65.408  1.00  0.00    -0.292 C  
ENDBRANCH  15  19
ENDBRANCH   9  11
ENDBRANCH   8   9
ENDBRANCH   7   8
ENDBRANCH   6   7
ENDBRANCH   5   6
ENDBRANCH   4   5
ENDBRANCH   3   4
BRANCH   3  21
HETATM   21  C   UNL     1     -11.160   9.294  71.587  1.00  0.00    -0.368 C  
HETATM   22  C   UNL     1      -9.678   9.018  71.280  1.00  0.00    -0.371 C  
BRANCH  21  23
HETATM   23  C   UNL     1     -11.776  10.078  70.389  1.00  0.00    -0.365 C  
BRANCH  23  24
HETATM   24  C   UNL     1     -12.199  11.503  70.683  1.00  0.00    -0.473 A  
HETATM   25  C   UNL     1     -13.494  13.091  72.001  1.00  0.00    -0.584 A  
HETATM   26  C   UNL     1     -13.042  14.142  71.206  1.00  0.00    -0.350 A  
HETATM   27  C   UNL     1     -11.760  12.563  69.882  1.00  0.00    -0.327 A  
HETATM   28  C   UNL     1     -12.170  13.872  70.151  1.00  0.00    -0.425 A  
HETATM   29  C   UNL     1     -13.076  11.780  71.740  1.00  0.00    -0.480 A  
BRANCH  26  30
HETATM   30  O   UNL     1     -13.333  15.466  71.395  1.00  0.00    -0.457 OA 
HETATM   31  C   UNL     1     -13.972  15.800  72.621  1.00  0.00    -0.480 C  
ENDBRANCH  26  30
ENDBRANCH  23  24
ENDBRANCH  21  23
ENDBRANCH   3  21
ENDBRANCH   2   3
TORSDOF 14
ENDMDL
MODEL       93
REMARK 921   NORMALIZED FREE ENERGY PREDICTED BY IDOCK:   -4.68 KCAL/MOL
REMARK 922        TOTAL FREE ENERGY PREDICTED BY IDOCK:  -11.31 KCAL/MOL
REMARK 923 INTER-LIGAND FREE ENERGY PREDICTED BY IDOCK:   -8.41 KCAL/MOL
REMARK 924 INTRA-LIGAND FREE ENERGY PREDICTED BY IDOCK:   -2.89 KCAL/MOL
REMARK 927      BINDING AFFINITY PREDICTED BY RF-SCORE:    0.00 PKD
ROOT
HETATM    1  C   UNL     1      -7.350   9.090  65.394  1.00  0.00    -0.085 C  
HETATM    2  C   UNL     1      -8.310  10.256  65.192  1.00  0.00    -0.161 C  
ENDROOT
BRANCH   2   3
HETATM    3  N   UNL     1      -9.291  10.514  66.252  1.00  0.00    -0.166 NA 
BRANCH   3   4
HETATM    4  C   UNL     1      -8.837  10.192  67.618  1.00  0.00    -0.125 C  
BRANCH   4   5
HETATM    5  C   UNL     1      -8.294  11.398  68.400  1.00  0.00    -0.153 C  
BRANCH   5   6
HETATM    6  C   UNL     1      -6.767  11.465  68.347  1.00  0.00    -0.065 C  
BRANCH   6   7
HETATM    7  C   UNL     1      -6.321  12.487  67.307  1.00  0.00    -0.123 C  
BRANCH   7   8
HETATM    8  O   UNL     1      -7.279  13.550  67.229  1.00  0.00    -0.137 OA 
BRANCH   8   9
HETATM    9  C   UNL     1      -6.948  14.675  67.911  1.00  0.00    -0.159 C  
HETATM   10  O   UNL     1      -5.961  14.840  68.607  1.00  0.00    -0.083 OA 
BRANCH   9  11
HETATM   11  C   UNL     1      -8.001  15.701  67.729  1.00  0.00    -0.157 A  
HETATM   12  C   UNL     1      -8.768  15.772  66.560  1.00  0.00    -0.354 A  
HETATM   13  C   UNL     1      -9.735  16.771  66.414  1.00  0.00    -0.290 A  
HETATM   14  C   UNL     1      -9.176  17.616  68.623  1.00  0.00    -0.266 A  
HETATM   15  C   UNL     1      -9.942  17.701  67.457  1.00  0.00    -0.322 A  
HETATM   16  C   UNL     1      -8.200  16.626  68.756  1.00  0.00    -0.249 A  
BRANCH  13  17
HETATM   17  O   UNL     1     -10.520  16.929  65.298  1.00  0.00    -0.638 OA 
HETATM   18  C   UNL     1     -11.082  15.763  64.713  1.00  0.00    -0.400 C  
ENDBRANCH  13  17
BRANCH  15  19
HETATM   19  O   UNL     1     -10.907  18.652  67.237  1.00  0.00    -0.426 OA 
HETATM   20  C   UNL     1     -10.479  20.000  67.096  1.00  0.00    -0.377 C  
ENDBRANCH  15  19
ENDBRANCH   9  11
ENDBRANCH   8   9
ENDBRANCH   7   8
ENDBRANCH   6   7
ENDBRANCH   5   6
ENDBRANCH   4   5
ENDBRANCH   3   4
BRANCH   3  21
HETATM   21  C   UNL     1     -10.034  11.797  66.186  1.00  0.00    -0.226 C  
HETATM   22  C   UNL     1     -10.075  12.455  64.796  1.00  0.00    -0.260 C  
BRANCH  21  23
HETATM   23  C   UNL     1     -11.485  11.740  66.750  1.00  0.00    -0.352 C  
BRANCH  23  24
HETATM   24  C   UNL     1     -11.720  12.498  68.040  1.00  0.00    -0.410 A  
HETATM   25  C   UNL     1     -12.180  12.501  70.434  1.00  0.00    -0.368 A  
HETATM   26  C   UNL     1     -12.217  13.894  70.440  1.00  0.00    -0.368 A  
HETATM   27  C   UNL     1     -11.772  13.897  68.054  1.00  0.00    -0.387 A  
HETATM   28  C   UNL     1     -12.006  14.586  69.247  1.00  0.00    -0.355 A  
HETATM   29  C   UNL     1     -11.935  11.809  69.241  1.00  0.00    -0.354 A  
BRANCH  26  30
HETATM   30  O   UNL     1     -12.391  14.681  71.545  1.00  0.00    -0.320 OA 
HETATM   31  C   UNL     1     -11.243  15.388  72.001  1.00  0.00    -0.275 C  
ENDBRANCH  26  30
ENDBRANCH  23  24
ENDBRANCH  21  23
ENDBRANCH   3  21
ENDBRANCH   2   3
TORSDOF 14
ENDMDL
MODEL       94
REMARK 921   NORMALIZED FREE ENERGY PREDICTED BY IDOCK:   -4.68 KCAL/MOL
REMARK 922        TOTAL FREE ENERGY PREDICTED BY IDOCK:  -11.30 KCAL/MOL
REMARK 923 INTER-LIGAND FREE ENERGY PREDICTED BY IDOCK:   -9.71 KCAL/MOL
REMARK 924 INTRA-LIGAND FREE ENERGY PREDICTED BY IDOCK:   -1.59 KCAL/MOL
REMARK 927      BINDING AFFINITY PREDICTED BY RF-SCORE:    0.00 PKD
ROOT
HETATM    1  C   UNL     1      -9.179  11.143  65.754  1.00  0.00    -0.234 C  
HETATM    2  C   UNL     1     -10.093  10.729  66.901  1.00  0.00    -0.212 C  
ENDROOT
BRANCH   2   3
HETATM    3  N   UNL     1     -11.422  11.349  66.962  1.00  0.00    -0.487 NA 
BRANCH   3   4
HETATM    4  C   UNL     1     -12.004  11.452  68.312  1.00  0.00    -0.164 C  
BRANCH   4   5
HETATM    5  C   UNL     1     -11.476  10.406  69.306  1.00  0.00    -0.281 C  
BRANCH   5   6
HETATM    6  C   UNL     1     -11.858  10.750  70.746  1.00  0.00    -0.443 C  
BRANCH   6   7
HETATM    7  C   UNL     1     -13.110   9.983  71.157  1.00  0.00    -0.386 C  
BRANCH   7   8
HETATM    8  O   UNL     1     -12.749   8.881  72.000  1.00  0.00    -0.340 OA 
BRANCH   8   9
HETATM    9  C   UNL     1     -13.239   7.676  71.613  1.00  0.00    -0.352 C  
HETATM   10  O   UNL     1     -14.405   7.321  71.645  1.00  0.00    -0.437 OA 
BRANCH   9  11
HETATM   11  C   UNL     1     -12.129   6.800  71.173  1.00  0.00    -0.422 A  
HETATM   12  C   UNL     1     -11.767   6.687  69.825  1.00  0.00    -0.279 A  
HETATM   13  C   UNL     1     -10.730   5.830  69.445  1.00  0.00    -0.326 A  
HETATM   14  C   UNL     1     -10.406   5.213  71.773  1.00  0.00    -0.274 A  
HETATM   15  C   UNL     1     -10.042   5.087  70.429  1.00  0.00    -0.260 A  
HETATM   16  C   UNL     1     -11.453   6.058  72.145  1.00  0.00    -0.356 A  
BRANCH  13  17
HETATM   17  O   UNL     1     -10.320   5.642  68.147  1.00  0.00    -0.181 OA 
HETATM   18  C   UNL     1     -10.942   6.423  67.137  1.00  0.00    -0.399 C  
ENDBRANCH  13  17
BRANCH  15  19
HETATM   19  O   UNL     1      -9.039   4.267  69.977  1.00  0.00    -0.091 OA 
HETATM   20  C   UNL     1      -9.169   2.874  70.226  1.00  0.00    -0.138 C  
ENDBRANCH  15  19
ENDBRANCH   9  11
ENDBRANCH   8   9
ENDBRANCH   7   8
ENDBRANCH   6   7
ENDBRANCH   5   6
ENDBRANCH   4   5
ENDBRANCH   3   4
BRANCH   3  21
HETATM   21  C   UNL     1     -11.630  12.578  66.156  1.00  0.00    -0.395 C  
HETATM   22  C   UNL     1     -12.392  12.370  64.835  1.00  0.00    -0.475 C  
BRANCH  21  23
HETATM   23  C   UNL     1     -12.291  13.760  66.928  1.00  0.00    -0.328 C  
BRANCH  23  24
HETATM   24  C   UNL     1     -11.381  14.929  67.245  1.00  0.00    -0.355 A  
HETATM   25  C   UNL     1      -9.535  16.396  66.630  1.00  0.00    -0.277 A  
HETATM   26  C   UNL     1      -9.642  17.065  67.848  1.00  0.00    -0.249 A  
HETATM   27  C   UNL     1     -11.472  15.598  68.471  1.00  0.00    -0.380 A  
HETATM   28  C   UNL     1     -10.617  16.665  68.762  1.00  0.00    -0.340 A  
HETATM   29  C   UNL     1     -10.399  15.334  66.333  1.00  0.00    -0.296 A  
BRANCH  26  30
HETATM   30  O   UNL     1      -8.897  18.148  68.229  1.00  0.00    -0.269 OA 
HETATM   31  C   UNL     1      -7.540  17.889  68.568  1.00  0.00    -0.289 C  
ENDBRANCH  26  30
ENDBRANCH  23  24
ENDBRANCH  21  23
ENDBRANCH   3  21
ENDBRANCH   2   3
TORSDOF 14
ENDMDL
MODEL       95
REMARK 921   NORMALIZED FREE ENERGY PREDICTED BY IDOCK:   -4.68 KCAL/MOL
REMARK 922        TOTAL FREE ENERGY PREDICTED BY IDOCK:  -11.30 KCAL/MOL
REMARK 923 INTER-LIGAND FREE ENERGY PREDICTED BY IDOCK:  -10.16 KCAL/MOL
REMARK 924 INTRA-LIGAND FREE ENERGY PREDICTED BY IDOCK:   -1.14 KCAL/MOL
REMARK 927      BINDING AFFINITY PREDICTED BY RF-SCORE:    0.00 PKD
ROOT
HETATM    1  C   UNL     1     -11.912  12.549  63.619  1.00  0.00    -0.621 C  
HETATM    2  C   UNL     1     -10.649  13.096  64.274  1.00  0.00    -0.412 C  
ENDROOT
BRANCH   2   3
HETATM    3  N   UNL     1     -10.410  12.742  65.678  1.00  0.00    -0.276 NA 
BRANCH   3   4
HETATM    4  C   UNL     1      -9.372  11.718  65.898  1.00  0.00    -0.202 C  
BRANCH   4   5
HETATM    5  C   UNL     1      -9.800  10.581  66.839  1.00  0.00    -0.235 C  
BRANCH   5   6
HETATM    6  C   UNL     1      -9.655   9.212  66.175  1.00  0.00    -0.333 C  
BRANCH   6   7
HETATM    7  C   UNL     1     -10.558   8.194  66.863  1.00  0.00    -0.241 C  
BRANCH   7   8
HETATM    8  O   UNL     1      -9.764   7.290  67.643  1.00  0.00    -0.135 OA 
BRANCH   8   9
HETATM    9  C   UNL     1     -10.328   6.078  67.871  1.00  0.00    -0.206 C  
HETATM   10  O   UNL     1     -10.629   5.245  67.032  1.00  0.00    -0.244 OA 
BRANCH   9  11
HETATM   11  C   UNL     1     -10.581   5.907  69.320  1.00  0.00    -0.379 A  
HETATM   12  C   UNL     1     -11.592   6.615  69.982  1.00  0.00    -0.423 A  
HETATM   13  C   UNL     1     -11.784   6.446  71.356  1.00  0.00    -0.306 A  
HETATM   14  C   UNL     1      -9.959   4.842  71.400  1.00  0.00    -0.266 A  
HETATM   15  C   UNL     1     -10.960   5.549  72.072  1.00  0.00    -0.214 A  
HETATM   16  C   UNL     1      -9.760   5.027  70.030  1.00  0.00    -0.278 A  
BRANCH  13  17
HETATM   17  O   UNL     1     -12.737   7.111  72.090  1.00  0.00    -0.218 OA 
HETATM   18  C   UNL     1     -13.887   7.586  71.406  1.00  0.00    -0.338 C  
ENDBRANCH  13  17
BRANCH  15  19
HETATM   19  O   UNL     1     -11.209   5.442  73.417  1.00  0.00    -0.294 OA 
HETATM   20  C   UNL     1     -10.140   5.732  74.307  1.00  0.00    -0.273 C  
ENDBRANCH  15  19
ENDBRANCH   9  11
ENDBRANCH   8   9
ENDBRANCH   7   8
ENDBRANCH   6   7
ENDBRANCH   5   6
ENDBRANCH   4   5
ENDBRANCH   3   4
BRANCH   3  21
HETATM   21  C   UNL     1     -10.323  13.860  66.651  1.00  0.00    -0.278 C  
HETATM   22  C   UNL     1      -9.523  15.082  66.168  1.00  0.00    -0.347 C  
BRANCH  21  23
HETATM   23  C   UNL     1     -11.695  14.352  67.202  1.00  0.00    -0.424 C  
BRANCH  23  24
HETATM   24  C   UNL     1     -11.759  14.581  68.698  1.00  0.00    -0.364 A  
HETATM   25  C   UNL     1     -12.350  13.802  70.930  1.00  0.00    -0.456 A  
HETATM   26  C   UNL     1     -11.938  15.015  71.479  1.00  0.00    -0.357 A  
HETATM   27  C   UNL     1     -11.359  15.801  69.257  1.00  0.00    -0.350 A  
HETATM   28  C   UNL     1     -11.437  16.009  70.636  1.00  0.00    -0.427 A  
HETATM   29  C   UNL     1     -12.262  13.588  69.549  1.00  0.00    -0.289 A  
BRANCH  26  30
HETATM   30  O   UNL     1     -11.923  15.322  72.812  1.00  0.00    -0.386 OA 
HETATM   31  C   UNL     1     -13.091  15.950  73.326  1.00  0.00    -0.589 C  
ENDBRANCH  26  30
ENDBRANCH  23  24
ENDBRANCH  21  23
ENDBRANCH   3  21
ENDBRANCH   2   3
TORSDOF 14
ENDMDL
MODEL       96
REMARK 921   NORMALIZED FREE ENERGY PREDICTED BY IDOCK:   -4.68 KCAL/MOL
REMARK 922        TOTAL FREE ENERGY PREDICTED BY IDOCK:  -11.30 KCAL/MOL
REMARK 923 INTER-LIGAND FREE ENERGY PREDICTED BY IDOCK:   -8.87 KCAL/MOL
REMARK 924 INTRA-LIGAND FREE ENERGY PREDICTED BY IDOCK:   -2.43 KCAL/MOL
REMARK 927      BINDING AFFINITY PREDICTED BY RF-SCORE:    0.00 PKD
ROOT
HETATM    1  C   UNL     1      -9.598   7.437  66.817  1.00  0.00    -0.249 C  
HETATM    2  C   UNL     1      -9.838   8.769  66.116  1.00  0.00    -0.227 C  
ENDROOT
BRANCH   2   3
HETATM    3  N   UNL     1      -8.678   9.647  65.921  1.00  0.00    -0.139 NA 
BRANCH   3   4
HETATM    4  C   UNL     1      -8.968  10.927  65.247  1.00  0.00    -0.186 C  
BRANCH   4   5
HETATM    5  C   UNL     1     -10.449  11.130  64.892  1.00  0.00    -0.372 C  
BRANCH   5   6
HETATM    6  C   UNL     1     -10.616  11.972  63.627  1.00  0.00    -0.503 C  
BRANCH   6   7
HETATM    7  C   UNL     1     -11.279  13.303  63.964  1.00  0.00    -0.339 C  
BRANCH   7   8
HETATM    8  O   UNL     1     -10.314  14.194  64.539  1.00  0.00    -0.390 OA 
BRANCH   8   9
HETATM    9  C   UNL     1     -10.817  15.365  65.002  1.00  0.00    -0.444 C  
HETATM   10  O   UNL     1     -11.243  16.290  64.331  1.00  0.00    -0.716 OA 
BRANCH   9  11
HETATM   11  C   UNL     1     -10.739  15.396  66.481  1.00  0.00    -0.308 A  
HETATM   12  C   UNL     1      -9.556  15.727  67.152  1.00  0.00    -0.224 A  
HETATM   13  C   UNL     1      -9.514  15.720  68.549  1.00  0.00    -0.201 A  
HETATM   14  C   UNL     1     -11.854  15.065  68.601  1.00  0.00    -0.325 A  
HETATM   15  C   UNL     1     -10.676  15.387  69.281  1.00  0.00    -0.251 A  
HETATM   16  C   UNL     1     -11.885  15.058  67.205  1.00  0.00    -0.163 A  
BRANCH  13  17
HETATM   17  O   UNL     1      -8.395  16.013  69.290  1.00  0.00    -0.243 OA 
HETATM   18  C   UNL     1      -7.213  16.375  68.589  1.00  0.00    -0.178 C  
ENDBRANCH  13  17
BRANCH  15  19
HETATM   19  O   UNL     1     -10.553  15.400  70.648  1.00  0.00    -0.290 OA 
HETATM   20  C   UNL     1     -11.687  15.009  71.411  1.00  0.00    -0.357 C  
ENDBRANCH  15  19
ENDBRANCH   9  11
ENDBRANCH   8   9
ENDBRANCH   7   8
ENDBRANCH   6   7
ENDBRANCH   5   6
ENDBRANCH   4   5
ENDBRANCH   3   4
BRANCH   3  21
HETATM   21  C   UNL     1      -7.750   9.804  67.068  1.00  0.00    -0.095 C  
HETATM   22  C   UNL     1      -6.268   9.974  66.688  1.00  0.00    -0.069 C  
BRANCH  21  23
HETATM   23  C   UNL     1      -8.137  10.932  68.071  1.00  0.00    -0.119 C  
BRANCH  23  24
HETATM   24  C   UNL     1      -9.488  10.782  68.739  1.00  0.00    -0.187 A  
HETATM   25  C   UNL     1     -11.799  11.505  69.016  1.00  0.00    -0.408 A  
HETATM   26  C   UNL     1     -11.992  10.555  70.016  1.00  0.00    -0.288 A  
HETATM   27  C   UNL     1      -9.688   9.839  69.755  1.00  0.00    -0.256 A  
HETATM   28  C   UNL     1     -10.934   9.720  70.377  1.00  0.00    -0.371 A  
HETATM   29  C   UNL     1     -10.554  11.618  68.383  1.00  0.00    -0.235 A  
BRANCH  26  30
HETATM   30  O   UNL     1     -13.172  10.312  70.666  1.00  0.00    -0.354 OA 
HETATM   31  C   UNL     1     -13.162  10.499  72.076  1.00  0.00    -0.378 C  
ENDBRANCH  26  30
ENDBRANCH  23  24
ENDBRANCH  21  23
ENDBRANCH   3  21
ENDBRANCH   2   3
TORSDOF 14
ENDMDL
MODEL       97
REMARK 921   NORMALIZED FREE ENERGY PREDICTED BY IDOCK:   -4.67 KCAL/MOL
REMARK 922        TOTAL FREE ENERGY PREDICTED BY IDOCK:  -11.28 KCAL/MOL
REMARK 923 INTER-LIGAND FREE ENERGY PREDICTED BY IDOCK:   -8.92 KCAL/MOL
REMARK 924 INTRA-LIGAND FREE ENERGY PREDICTED BY IDOCK:   -2.35 KCAL/MOL
REMARK 927      BINDING AFFINITY PREDICTED BY RF-SCORE:    0.00 PKD
ROOT
HETATM    1  C   UNL     1     -12.148  12.830  63.861  1.00  0.00    -0.562 C  
HETATM    2  C   UNL     1     -12.658  12.907  65.295  1.00  0.00    -0.439 C  
ENDROOT
BRANCH   2   3
HETATM    3  N   UNL     1     -11.731  13.408  66.315  1.00  0.00    -0.349 NA 
BRANCH   3   4
HETATM    4  C   UNL     1     -11.579  14.874  66.359  1.00  0.00    -0.238 C  
BRANCH   4   5
HETATM    5  C   UNL     1     -10.252  15.386  65.777  1.00  0.00    -0.378 C  
BRANCH   5   6
HETATM    6  C   UNL     1      -9.406  16.092  66.837  1.00  0.00    -0.246 C  
BRANCH   6   7
HETATM    7  C   UNL     1      -8.147  15.283  67.133  1.00  0.00    -0.216 C  
BRANCH   7   8
HETATM    8  O   UNL     1      -8.381  13.898  66.842  1.00  0.00    -0.138 OA 
BRANCH   8   9
HETATM    9  C   UNL     1      -7.386  13.056  67.217  1.00  0.00    -0.057 C  
HETATM   10  O   UNL     1      -6.225  13.354  67.441  1.00  0.00    -0.297 OA 
BRANCH   9  11
HETATM   11  C   UNL     1      -7.900  11.668  67.278  1.00  0.00    -0.157 A  
HETATM   12  C   UNL     1      -7.915  10.938  68.473  1.00  0.00    -0.134 A  
HETATM   13  C   UNL     1      -8.384   9.621  68.486  1.00  0.00    -0.117 A  
HETATM   14  C   UNL     1      -8.841   9.775  66.104  1.00  0.00    -0.162 A  
HETATM   15  C   UNL     1      -8.853   9.034  67.289  1.00  0.00    -0.117 A  
HETATM   16  C   UNL     1      -8.356  11.084  66.093  1.00  0.00    -0.163 A  
BRANCH  13  17
HETATM   17  O   UNL     1      -8.418   8.825  69.605  1.00  0.00    -0.122 OA 
HETATM   18  C   UNL     1      -9.255   9.229  70.679  1.00  0.00    -0.264 C  
ENDBRANCH  13  17
BRANCH  15  19
HETATM   19  O   UNL     1      -9.294   7.739  67.384  1.00  0.00    -0.137 OA 
HETATM   20  C   UNL     1     -10.652   7.483  67.052  1.00  0.00    -0.339 C  
ENDBRANCH  15  19
ENDBRANCH   9  11
ENDBRANCH   8   9
ENDBRANCH   7   8
ENDBRANCH   6   7
ENDBRANCH   5   6
ENDBRANCH   4   5
ENDBRANCH   3   4
BRANCH   3  21
HETATM   21  C   UNL     1     -11.826  12.804  67.668  1.00  0.00    -0.339 C  
HETATM   22  C   UNL     1     -11.645  11.277  67.714  1.00  0.00    -0.307 C  
BRANCH  21  23
HETATM   23  C   UNL     1     -10.891  13.446  68.736  1.00  0.00    -0.275 C  
BRANCH  23  24
HETATM   24  C   UNL     1     -11.587  14.122  69.899  1.00  0.00    -0.329 A  
HETATM   25  C   UNL     1     -13.299  14.106  71.633  1.00  0.00    -0.440 A  
HETATM   26  C   UNL     1     -12.931  15.391  72.029  1.00  0.00    -0.401 A  
HETATM   27  C   UNL     1     -11.233  15.417  70.296  1.00  0.00    -0.328 A  
HETATM   28  C   UNL     1     -11.892  16.038  71.360  1.00  0.00    -0.531 A  
HETATM   29  C   UNL     1     -12.632  13.478  70.575  1.00  0.00    -0.311 A  
BRANCH  26  30
HETATM   30  O   UNL     1     -13.467  16.084  73.080  1.00  0.00    -0.550 OA 
HETATM   31  C   UNL     1     -12.596  16.334  74.177  1.00  0.00    -0.479 C  
ENDBRANCH  26  30
ENDBRANCH  23  24
ENDBRANCH  21  23
ENDBRANCH   3  21
ENDBRANCH   2   3
TORSDOF 14
ENDMDL
MODEL       98
REMARK 921   NORMALIZED FREE ENERGY PREDICTED BY IDOCK:   -4.67 KCAL/MOL
REMARK 922        TOTAL FREE ENERGY PREDICTED BY IDOCK:  -11.27 KCAL/MOL
REMARK 923 INTER-LIGAND FREE ENERGY PREDICTED BY IDOCK:   -9.39 KCAL/MOL
REMARK 924 INTRA-LIGAND FREE ENERGY PREDICTED BY IDOCK:   -1.88 KCAL/MOL
REMARK 927      BINDING AFFINITY PREDICTED BY RF-SCORE:    0.00 PKD
ROOT
HETATM    1  C   UNL     1     -10.521   6.204  67.024  1.00  0.00    -0.341 C  
HETATM    2  C   UNL     1     -10.585   7.722  67.144  1.00  0.00    -0.331 C  
ENDROOT
BRANCH   2   3
HETATM    3  N   UNL     1      -9.384   8.411  67.629  1.00  0.00    -0.136 NA 
BRANCH   3   4
HETATM    4  C   UNL     1      -8.957   9.570  66.824  1.00  0.00    -0.138 C  
BRANCH   4   5
HETATM    5  C   UNL     1     -10.040  10.109  65.876  1.00  0.00    -0.325 C  
BRANCH   5   6
HETATM    6  C   UNL     1      -9.433  10.691  64.598  1.00  0.00    -0.308 C  
BRANCH   6   7
HETATM    7  C   UNL     1     -10.534  11.032  63.600  1.00  0.00    -0.322 C  
BRANCH   7   8
HETATM    8  O   UNL     1     -10.934  12.399  63.767  1.00  0.00    -0.377 OA 
BRANCH   8   9
HETATM    9  C   UNL     1     -12.083  12.580  64.465  1.00  0.00    -0.425 C  
HETATM   10  O   UNL     1     -13.194  12.184  64.153  1.00  0.00    -0.740 OA 
BRANCH   9  11
HETATM   11  C   UNL     1     -11.813  13.389  65.676  1.00  0.00    -0.403 A  
HETATM   12  C   UNL     1     -12.095  12.911  66.961  1.00  0.00    -0.296 A  
HETATM   13  C   UNL     1     -11.850  13.714  68.079  1.00  0.00    -0.362 A  
HETATM   14  C   UNL     1     -11.023  15.471  66.618  1.00  0.00    -0.248 A  
HETATM   15  C   UNL     1     -11.307  15.007  67.905  1.00  0.00    -0.333 A  
HETATM   16  C   UNL     1     -11.285  14.671  65.504  1.00  0.00    -0.343 A  
BRANCH  13  17
HETATM   17  O   UNL     1     -12.112  13.336  69.373  1.00  0.00    -0.300 OA 
HETATM   18  C   UNL     1     -11.756  12.017  69.763  1.00  0.00    -0.319 C  
ENDBRANCH  13  17
BRANCH  15  19
HETATM   19  O   UNL     1     -11.098  15.734  69.050  1.00  0.00    -0.244 OA 
HETATM   20  C   UNL     1      -9.760  15.861  69.511  1.00  0.00    -0.255 C  
ENDBRANCH  15  19
ENDBRANCH   9  11
ENDBRANCH   8   9
ENDBRANCH   7   8
ENDBRANCH   6   7
ENDBRANCH   5   6
ENDBRANCH   4   5
ENDBRANCH   3   4
BRANCH   3  21
HETATM   21  C   UNL     1      -9.297   8.667  69.089  1.00  0.00    -0.153 C  
HETATM   22  C   UNL     1      -8.631   9.999  69.478  1.00  0.00    -0.197 C  
BRANCH  21  23
HETATM   23  C   UNL     1     -10.649   8.548  69.854  1.00  0.00    -0.228 C  
BRANCH  23  24
HETATM   24  C   UNL     1     -10.669   7.564  71.005  1.00  0.00    -0.243 A  
HETATM   25  C   UNL     1     -10.722   5.268  71.821  1.00  0.00    -0.240 A  
HETATM   26  C   UNL     1     -10.765   5.721  73.138  1.00  0.00    -0.262 A  
HETATM   27  C   UNL     1     -10.725   8.010  72.331  1.00  0.00    -0.386 A  
HETATM   28  C   UNL     1     -10.760   7.094  73.387  1.00  0.00    -0.410 A  
HETATM   29  C   UNL     1     -10.676   6.184  70.762  1.00  0.00    -0.326 A  
BRANCH  26  30
HETATM   30  O   UNL     1     -10.756   4.929  74.253  1.00  0.00    -0.292 OA 
HETATM   31  C   UNL     1      -9.655   4.037  74.381  1.00  0.00    -0.113 C  
ENDBRANCH  26  30
ENDBRANCH  23  24
ENDBRANCH  21  23
ENDBRANCH   3  21
ENDBRANCH   2   3
TORSDOF 14
ENDMDL
MODEL       99
REMARK 921   NORMALIZED FREE ENERGY PREDICTED BY IDOCK:   -4.66 KCAL/MOL
REMARK 922        TOTAL FREE ENERGY PREDICTED BY IDOCK:  -11.27 KCAL/MOL
REMARK 923 INTER-LIGAND FREE ENERGY PREDICTED BY IDOCK:   -9.88 KCAL/MOL
REMARK 924 INTRA-LIGAND FREE ENERGY PREDICTED BY IDOCK:   -1.39 KCAL/MOL
REMARK 927      BINDING AFFINITY PREDICTED BY RF-SCORE:    0.00 PKD
ROOT
HETATM    1  C   UNL     1     -12.074  13.079  69.827  1.00  0.00    -0.325 C  
HETATM    2  C   UNL     1     -11.145  12.813  68.649  1.00  0.00    -0.266 C  
ENDROOT
BRANCH   2   3
HETATM    3  N   UNL     1     -11.544  11.769  67.697  1.00  0.00    -0.481 NA 
BRANCH   3   4
HETATM    4  C   UNL     1     -11.450  12.149  66.275  1.00  0.00    -0.374 C  
BRANCH   4   5
HETATM    5  C   UNL     1     -12.174  13.458  65.925  1.00  0.00    -0.502 C  
BRANCH   5   6
HETATM    6  C   UNL     1     -11.356  14.314  64.957  1.00  0.00    -0.365 C  
BRANCH   6   7
HETATM    7  C   UNL     1     -10.310  15.119  65.720  1.00  0.00    -0.339 C  
BRANCH   7   8
HETATM    8  O   UNL     1     -10.869  16.371  66.136  1.00  0.00    -0.213 OA 
BRANCH   8   9
HETATM    9  C   UNL     1     -10.535  16.762  67.392  1.00  0.00    -0.310 C  
HETATM   10  O   UNL     1     -10.950  16.288  68.436  1.00  0.00    -0.320 OA 
BRANCH   9  11
HETATM   11  C   UNL     1      -9.599  17.908  67.328  1.00  0.00    -0.273 A  
HETATM   12  C   UNL     1      -8.445  17.965  68.119  1.00  0.00    -0.268 A  
HETATM   13  C   UNL     1      -7.599  19.076  68.050  1.00  0.00    -0.270 A  
HETATM   14  C   UNL     1      -9.061  20.067  66.380  1.00  0.00    -0.427 A  
HETATM   15  C   UNL     1      -7.910  20.137  67.170  1.00  0.00    -0.322 A  
HETATM   16  C   UNL     1      -9.911  18.962  66.465  1.00  0.00    -0.426 A  
BRANCH  13  17
HETATM   17  O   UNL     1      -6.458  19.225  68.799  1.00  0.00    -0.239 OA 
HETATM   18  C   UNL     1      -6.582  19.818  70.084  1.00  0.00    -0.197 C  
ENDBRANCH  13  17
BRANCH  15  19
HETATM   19  O   UNL     1      -7.033  21.192  67.162  1.00  0.00    -0.401 OA 
HETATM   20  C   UNL     1      -6.063  21.230  66.125  1.00  0.00    -0.236 C  
ENDBRANCH  15  19
ENDBRANCH   9  11
ENDBRANCH   8   9
ENDBRANCH   7   8
ENDBRANCH   6   7
ENDBRANCH   5   6
ENDBRANCH   4   5
ENDBRANCH   3   4
BRANCH   3  21
HETATM   21  C   UNL     1     -11.045  10.395  67.955  1.00  0.00    -0.298 C  
HETATM   22  C   UNL     1     -10.585   9.624  66.705  1.00  0.00    -0.209 C  
BRANCH  21  23
HETATM   23  C   UNL     1      -9.926  10.300  69.035  1.00  0.00    -0.223 C  
BRANCH  23  24
HETATM   24  C   UNL     1     -10.276   9.505  70.276  1.00  0.00    -0.312 A  
HETATM   25  C   UNL     1     -11.940   8.656  71.841  1.00  0.00    -0.424 A  
HETATM   26  C   UNL     1     -10.938   8.077  72.616  1.00  0.00    -0.382 A  
HETATM   27  C   UNL     1      -9.275   8.930  71.069  1.00  0.00    -0.307 A  
HETATM   28  C   UNL     1      -9.607   8.212  72.221  1.00  0.00    -0.319 A  
HETATM   29  C   UNL     1     -11.610   9.366  70.680  1.00  0.00    -0.330 A  
BRANCH  26  30
HETATM   30  O   UNL     1     -11.137   7.316  73.736  1.00  0.00    -0.172 OA 
HETATM   31  C   UNL     1     -10.044   6.501  74.144  1.00  0.00    -0.351 C  
ENDBRANCH  26  30
ENDBRANCH  23  24
ENDBRANCH  21  23
ENDBRANCH   3  21
ENDBRANCH   2   3
TORSDOF 14
ENDMDL
MODEL      100
REMARK 921   NORMALIZED FREE ENERGY PREDICTED BY IDOCK:   -4.66 KCAL/MOL
REMARK 922        TOTAL FREE ENERGY PREDICTED BY IDOCK:  -11.26 KCAL/MOL
REMARK 923 INTER-LIGAND FREE ENERGY PREDICTED BY IDOCK:   -9.26 KCAL/MOL
REMARK 924 INTRA-LIGAND FREE ENERGY PREDICTED BY IDOCK:   -2.00 KCAL/MOL
REMARK 927      BINDING AFFINITY PREDICTED BY RF-SCORE:    0.00 PKD
ROOT
HETATM    1  C   UNL     1      -8.556   7.649  72.633  1.00  0.00    -0.171 C  
HETATM    2  C   UNL     1      -9.793   8.535  72.547  1.00  0.00    -0.254 C  
ENDROOT
BRANCH   2   3
HETATM    3  N   UNL     1     -10.206   8.990  71.215  1.00  0.00    -0.286 NA 
BRANCH   3   4
HETATM    4  C   UNL     1      -9.362   8.519  70.102  1.00  0.00    -0.161 C  
BRANCH   4   5
HETATM    5  C   UNL     1      -9.296   9.486  68.909  1.00  0.00    -0.149 C  
BRANCH   5   6
HETATM    6  C   UNL     1      -8.430  10.707  69.220  1.00  0.00    -0.102 C  
BRANCH   6   7
HETATM    7  C   UNL     1      -8.344  11.617  67.999  1.00  0.00    -0.148 C  
BRANCH   7   8
HETATM    8  O   UNL     1      -8.153  12.974  68.418  1.00  0.00    -0.148 OA 
BRANCH   8   9
HETATM    9  C   UNL     1      -7.316  13.705  67.640  1.00  0.00    -0.176 C  
HETATM   10  O   UNL     1      -6.170  13.418  67.335  1.00  0.00    -0.297 OA 
BRANCH   9  11
HETATM   11  C   UNL     1      -7.981  14.963  67.230  1.00  0.00    -0.237 A  
HETATM   12  C   UNL     1      -9.108  14.965  66.398  1.00  0.00    -0.293 A  
HETATM   13  C   UNL     1      -9.693  16.174  66.011  1.00  0.00    -0.344 A  
HETATM   14  C   UNL     1      -8.028  17.379  67.308  1.00  0.00    -0.218 A  
HETATM   15  C   UNL     1      -9.148  17.394  66.472  1.00  0.00    -0.266 A  
HETATM   16  C   UNL     1      -7.437  16.169  67.678  1.00  0.00    -0.166 A  
BRANCH  13  17
HETATM   17  O   UNL     1     -10.785  16.274  65.184  1.00  0.00    -0.541 OA 
HETATM   18  C   UNL     1     -11.215  15.099  64.511  1.00  0.00    -0.272 C  
ENDBRANCH  13  17
BRANCH  15  19
HETATM   19  O   UNL     1      -9.777  18.536  66.046  1.00  0.00    -0.494 OA 
HETATM   20  C   UNL     1      -9.283  19.777  66.534  1.00  0.00    -0.383 C  
ENDBRANCH  15  19
ENDBRANCH   9  11
ENDBRANCH   8   9
ENDBRANCH   7   8
ENDBRANCH   6   7
ENDBRANCH   5   6
ENDBRANCH   4   5
ENDBRANCH   3   4
BRANCH   3  21
HETATM   21  C   UNL     1     -11.655   8.925  70.899  1.00  0.00    -0.283 C  
HETATM   22  C   UNL     1     -12.354   7.617  71.312  1.00  0.00    -0.334 C  
BRANCH  21  23
HETATM   23  C   UNL     1     -12.494  10.125  71.433  1.00  0.00    -0.524 C  
BRANCH  23  24
HETATM   24  C   UNL     1     -12.353  11.421  70.662  1.00  0.00    -0.466 A  
HETATM   25  C   UNL     1     -11.734  12.611  68.628  1.00  0.00    -0.364 A  
HETATM   26  C   UNL     1     -12.031  13.830  69.233  1.00  0.00    -0.352 A  
HETATM   27  C   UNL     1     -12.637  12.651  71.266  1.00  0.00    -0.339 A  
HETATM   28  C   UNL     1     -12.488  13.843  70.551  1.00  0.00    -0.422 A  
HETATM   29  C   UNL     1     -11.893  11.414  69.339  1.00  0.00    -0.419 A  
BRANCH  26  30
HETATM   30  O   UNL     1     -11.970  15.055  68.627  1.00  0.00    -0.313 OA 
HETATM   31  C   UNL     1     -11.137  16.025  69.252  1.00  0.00    -0.331 C  
ENDBRANCH  26  30
ENDBRANCH  23  24
ENDBRANCH  21  23
ENDBRANCH   3  21
ENDBRANCH   2   3
TORSDOF 14
ENDMDL
MODEL      101
REMARK 921   NORMALIZED FREE ENERGY PREDICTED BY IDOCK:   -4.65 KCAL/MOL
REMARK 922        TOTAL FREE ENERGY PREDICTED BY IDOCK:  -11.24 KCAL/MOL
REMARK 923 INTER-LIGAND FREE ENERGY PREDICTED BY IDOCK:  -10.20 KCAL/MOL
REMARK 924 INTRA-LIGAND FREE ENERGY PREDICTED BY IDOCK:   -1.04 KCAL/MOL
REMARK 927      BINDING AFFINITY PREDICTED BY RF-SCORE:    0.00 PKD
ROOT
HETATM    1  C   UNL     1     -12.312  15.498  73.954  1.00  0.00    -0.757 C  
HETATM    2  C   UNL     1     -12.311  16.027  72.525  1.00  0.00    -0.496 C  
ENDROOT
BRANCH   2   3
HETATM    3  N   UNL     1     -11.985  15.077  71.455  1.00  0.00    -0.318 NA 
BRANCH   3   4
HETATM    4  C   UNL     1     -13.069  14.146  71.092  1.00  0.00    -0.328 C  
BRANCH   4   5
HETATM    5  C   UNL     1     -13.428  13.139  72.195  1.00  0.00    -0.653 C  
BRANCH   5   6
HETATM    6  C   UNL     1     -13.129  11.702  71.768  1.00  0.00    -0.487 C  
BRANCH   6   7
HETATM    7  C   UNL     1     -12.255  11.695  70.518  1.00  0.00    -0.361 C  
BRANCH   7   8
HETATM    8  O   UNL     1     -11.410  10.537  70.523  1.00  0.00    -0.312 OA 
BRANCH   8   9
HETATM    9  C   UNL     1     -10.576  10.428  69.459  1.00  0.00    -0.246 C  
HETATM   10  O   UNL     1      -9.919  11.322  68.955  1.00  0.00    -0.203 OA 
BRANCH   9  11
HETATM   11  C   UNL     1     -10.602   9.040  68.941  1.00  0.00    -0.203 A  
HETATM   12  C   UNL     1     -10.717   7.936  69.795  1.00  0.00    -0.233 A  
HETATM   13  C   UNL     1     -10.711   6.640  69.271  1.00  0.00    -0.265 A  
HETATM   14  C   UNL     1     -10.492   7.560  67.032  1.00  0.00    -0.409 A  
HETATM   15  C   UNL     1     -10.599   6.450  67.875  1.00  0.00    -0.258 A  
HETATM   16  C   UNL     1     -10.482   8.852  67.562  1.00  0.00    -0.337 A  
BRANCH  13  17
HETATM   17  O   UNL     1     -10.800   5.499  70.031  1.00  0.00    -0.317 OA 
HETATM   18  C   UNL     1     -10.608   5.621  71.433  1.00  0.00    -0.253 C  
ENDBRANCH  13  17
BRANCH  15  19
HETATM   19  O   UNL     1     -10.598   5.149  67.440  1.00  0.00    -0.153 OA 
HETATM   20  C   UNL     1     -10.603   4.928  66.036  1.00  0.00    -0.261 C  
ENDBRANCH  15  19
ENDBRANCH   9  11
ENDBRANCH   8   9
ENDBRANCH   7   8
ENDBRANCH   6   7
ENDBRANCH   5   6
ENDBRANCH   4   5
ENDBRANCH   3   4
BRANCH   3  21
HETATM   21  C   UNL     1     -11.275  15.617  70.268  1.00  0.00    -0.344 C  
HETATM   22  C   UNL     1      -9.961  14.899  69.914  1.00  0.00     0.080 C  
BRANCH  21  23
HETATM   23  C   UNL     1     -12.145  15.721  68.979  1.00  0.00    -0.190 C  
BRANCH  23  24
HETATM   24  C   UNL     1     -11.646  14.938  67.783  1.00  0.00    -0.358 A  
HETATM   25  C   UNL     1     -10.330  14.821  65.735  1.00  0.00    -0.358 A  
HETATM   26  C   UNL     1     -10.753  13.511  65.520  1.00  0.00    -0.290 A  
HETATM   27  C   UNL     1     -12.076  13.626  67.551  1.00  0.00    -0.352 A  
HETATM   28  C   UNL     1     -11.622  12.917  66.436  1.00  0.00    -0.425 A  
HETATM   29  C   UNL     1     -10.774  15.529  66.859  1.00  0.00    -0.317 A  
BRANCH  26  30
HETATM   30  O   UNL     1     -10.347  12.701  64.495  1.00  0.00    -0.325 OA 
HETATM   31  C   UNL     1     -11.359  12.279  63.588  1.00  0.00    -0.470 C  
ENDBRANCH  26  30
ENDBRANCH  23  24
ENDBRANCH  21  23
ENDBRANCH   3  21
ENDBRANCH   2   3
TORSDOF 14
ENDMDL
MODEL      102
REMARK 921   NORMALIZED FREE ENERGY PREDICTED BY IDOCK:   -4.64 KCAL/MOL
REMARK 922        TOTAL FREE ENERGY PREDICTED BY IDOCK:  -11.23 KCAL/MOL
REMARK 923 INTER-LIGAND FREE ENERGY PREDICTED BY IDOCK:   -8.93 KCAL/MOL
REMARK 924 INTRA-LIGAND FREE ENERGY PREDICTED BY IDOCK:   -2.30 KCAL/MOL
REMARK 927      BINDING AFFINITY PREDICTED BY RF-SCORE:    0.00 PKD
ROOT
HETATM    1  C   UNL     1     -14.369   7.441  71.826  1.00  0.00    -0.586 C  
HETATM    2  C   UNL     1     -12.868   7.282  71.617  1.00  0.00    -0.375 C  
ENDROOT
BRANCH   2   3
HETATM    3  N   UNL     1     -12.152   8.398  70.988  1.00  0.00    -0.247 NA 
BRANCH   3   4
HETATM    4  C   UNL     1     -12.799   9.716  71.128  1.00  0.00    -0.316 C  
BRANCH   4   5
HETATM    5  C   UNL     1     -11.891  10.903  70.768  1.00  0.00    -0.424 C  
BRANCH   5   6
HETATM    6  C   UNL     1     -12.156  11.408  69.350  1.00  0.00    -0.358 C  
BRANCH   6   7
HETATM    7  C   UNL     1     -12.017  12.925  69.295  1.00  0.00    -0.260 C  
BRANCH   7   8
HETATM    8  O   UNL     1     -10.857  13.278  68.530  1.00  0.00    -0.249 OA 
BRANCH   8   9
HETATM    9  C   UNL     1     -11.112  13.748  67.283  1.00  0.00    -0.304 C  
HETATM   10  O   UNL     1     -11.907  13.288  66.480  1.00  0.00    -0.360 OA 
BRANCH   9  11
HETATM   11  C   UNL     1     -10.238  14.908  66.994  1.00  0.00    -0.256 A  
HETATM   12  C   UNL     1     -10.760  16.186  66.758  1.00  0.00    -0.235 A  
HETATM   13  C   UNL     1      -9.904  17.251  66.463  1.00  0.00    -0.298 A  
HETATM   14  C   UNL     1      -7.998  15.756  66.662  1.00  0.00    -0.233 A  
HETATM   15  C   UNL     1      -8.509  17.034  66.417  1.00  0.00    -0.283 A  
HETATM   16  C   UNL     1      -8.858  14.692  66.939  1.00  0.00    -0.267 A  
BRANCH  13  17
HETATM   17  O   UNL     1     -10.327  18.531  66.200  1.00  0.00    -0.414 OA 
HETATM   18  C   UNL     1     -10.930  19.260  67.259  1.00  0.00    -0.338 C  
ENDBRANCH  13  17
BRANCH  15  19
HETATM   19  O   UNL     1      -7.736  18.128  66.119  1.00  0.00    -0.344 OA 
HETATM   20  C   UNL     1      -6.368  17.900  65.810  1.00  0.00    -0.223 C  
ENDBRANCH  15  19
ENDBRANCH   9  11
ENDBRANCH   8   9
ENDBRANCH   7   8
ENDBRANCH   6   7
ENDBRANCH   5   6
ENDBRANCH   4   5
ENDBRANCH   3   4
BRANCH   3  21
HETATM   21  C   UNL     1     -10.684   8.459  71.194  1.00  0.00    -0.230 C  
HETATM   22  C   UNL     1     -10.190   7.886  72.534  1.00  0.00    -0.342 C  
BRANCH  21  23
HETATM   23  C   UNL     1      -9.838   7.832  70.045  1.00  0.00    -0.181 C  
BRANCH  23  24
HETATM   24  C   UNL     1      -9.651   8.699  68.817  1.00  0.00    -0.157 A  
HETATM   25  C   UNL     1      -8.800  10.732  67.777  1.00  0.00    -0.130 A  
HETATM   26  C   UNL     1      -9.346  10.351  66.552  1.00  0.00    -0.163 A  
HETATM   27  C   UNL     1     -10.206   8.331  67.586  1.00  0.00    -0.294 A  
HETATM   28  C   UNL     1     -10.043   9.146  66.462  1.00  0.00    -0.357 A  
HETATM   29  C   UNL     1      -8.954   9.911  68.901  1.00  0.00    -0.153 A  
BRANCH  26  30
HETATM   30  O   UNL     1      -9.216  11.037  65.375  1.00  0.00    -0.203 OA 
HETATM   31  C   UNL     1     -10.296  10.917  64.456  1.00  0.00    -0.348 C  
ENDBRANCH  26  30
ENDBRANCH  23  24
ENDBRANCH  21  23
ENDBRANCH   3  21
ENDBRANCH   2   3
TORSDOF 14
ENDMDL
MODEL      103
REMARK 921   NORMALIZED FREE ENERGY PREDICTED BY IDOCK:   -4.64 KCAL/MOL
REMARK 922        TOTAL FREE ENERGY PREDICTED BY IDOCK:  -11.23 KCAL/MOL
REMARK 923 INTER-LIGAND FREE ENERGY PREDICTED BY IDOCK:   -7.54 KCAL/MOL
REMARK 924 INTRA-LIGAND FREE ENERGY PREDICTED BY IDOCK:   -3.69 KCAL/MOL
REMARK 927      BINDING AFFINITY PREDICTED BY RF-SCORE:    0.00 PKD
ROOT
HETATM    1  C   UNL     1     -11.754  12.374  65.263  1.00  0.00    -0.437 C  
HETATM    2  C   UNL     1     -10.820  13.235  66.105  1.00  0.00    -0.280 C  
ENDROOT
BRANCH   2   3
HETATM    3  N   UNL     1     -10.083  12.572  67.187  1.00  0.00    -0.213 NA 
BRANCH   3   4
HETATM    4  C   UNL     1      -8.672  12.978  67.325  1.00  0.00    -0.209 C  
BRANCH   4   5
HETATM    5  C   UNL     1      -7.955  12.355  68.533  1.00  0.00    -0.110 C  
BRANCH   5   6
HETATM    6  C   UNL     1      -6.692  11.602  68.114  1.00  0.00    -0.063 C  
BRANCH   6   7
HETATM    7  C   UNL     1      -6.579  11.568  66.594  1.00  0.00    -0.081 C  
BRANCH   7   8
HETATM    8  O   UNL     1      -6.754  10.225  66.124  1.00  0.00    -0.095 OA 
BRANCH   8   9
HETATM    9  C   UNL     1      -7.981   9.949  65.614  1.00  0.00    -0.130 C  
HETATM   10  O   UNL     1      -8.523  10.512  64.677  1.00  0.00    -0.174 OA 
BRANCH   9  11
HETATM   11  C   UNL     1      -8.618   8.866  66.397  1.00  0.00    -0.136 A  
HETATM   12  C   UNL     1      -7.866   7.967  67.164  1.00  0.00    -0.105 A  
HETATM   13  C   UNL     1      -8.502   6.942  67.869  1.00  0.00    -0.120 A  
HETATM   14  C   UNL     1     -10.650   7.730  67.050  1.00  0.00    -0.396 A  
HETATM   15  C   UNL     1      -9.909   6.823  67.813  1.00  0.00    -0.126 A  
HETATM   16  C   UNL     1     -10.009   8.742  66.334  1.00  0.00    -0.346 A  
BRANCH  13  17
HETATM   17  O   UNL     1      -7.845   6.006  68.630  1.00  0.00    -0.097 OA 
HETATM   18  C   UNL     1      -7.146   6.460  69.780  1.00  0.00    -0.072 C  
ENDBRANCH  13  17
BRANCH  15  19
HETATM   19  O   UNL     1     -10.457   5.789  68.530  1.00  0.00    -0.197 OA 
HETATM   20  C   UNL     1     -11.360   6.123  69.575  1.00  0.00    -0.356 C  
ENDBRANCH  15  19
ENDBRANCH   9  11
ENDBRANCH   8   9
ENDBRANCH   7   8
ENDBRANCH   6   7
ENDBRANCH   5   6
ENDBRANCH   4   5
ENDBRANCH   3   4
BRANCH   3  21
HETATM   21  C   UNL     1     -10.772  12.451  68.496  1.00  0.00    -0.238 C  
HETATM   22  C   UNL     1     -11.693  13.630  68.860  1.00  0.00    -0.377 C  
BRANCH  21  23
HETATM   23  C   UNL     1     -11.565  11.124  68.696  1.00  0.00    -0.383 C  
BRANCH  23  24
HETATM   24  C   UNL     1     -11.145  10.279  69.880  1.00  0.00    -0.362 A  
HETATM   25  C   UNL     1      -9.444   8.990  71.057  1.00  0.00    -0.342 A  
HETATM   26  C   UNL     1     -10.363   8.655  72.049  1.00  0.00    -0.346 A  
HETATM   27  C   UNL     1     -12.064   9.926  70.875  1.00  0.00    -0.431 A  
HETATM   28  C   UNL     1     -11.671   9.131  71.955  1.00  0.00    -0.436 A  
HETATM   29  C   UNL     1      -9.833   9.795  69.979  1.00  0.00    -0.295 A  
BRANCH  26  30
HETATM   30  O   UNL     1     -10.090   7.925  73.174  1.00  0.00    -0.297 OA 
HETATM   31  C   UNL     1     -10.770   6.681  73.296  1.00  0.00    -0.287 C  
ENDBRANCH  26  30
ENDBRANCH  23  24
ENDBRANCH  21  23
ENDBRANCH   3  21
ENDBRANCH   2   3
TORSDOF 14
ENDMDL
MODEL      104
REMARK 921   NORMALIZED FREE ENERGY PREDICTED BY IDOCK:   -4.63 KCAL/MOL
REMARK 922        TOTAL FREE ENERGY PREDICTED BY IDOCK:  -11.20 KCAL/MOL
REMARK 923 INTER-LIGAND FREE ENERGY PREDICTED BY IDOCK:   -8.87 KCAL/MOL
REMARK 924 INTRA-LIGAND FREE ENERGY PREDICTED BY IDOCK:   -2.34 KCAL/MOL
REMARK 927      BINDING AFFINITY PREDICTED BY RF-SCORE:    0.00 PKD
ROOT
HETATM    1  C   UNL     1     -11.930  11.335  68.897  1.00  0.00    -0.378 C  
HETATM    2  C   UNL     1     -11.774  12.684  69.588  1.00  0.00    -0.303 C  
ENDROOT
BRANCH   2   3
HETATM    3  N   UNL     1     -11.582  13.861  68.734  1.00  0.00    -0.310 NA 
BRANCH   3   4
HETATM    4  C   UNL     1     -12.155  13.753  67.379  1.00  0.00    -0.343 C  
BRANCH   4   5
HETATM    5  C   UNL     1     -11.191  14.163  66.255  1.00  0.00    -0.329 C  
BRANCH   5   6
HETATM    6  C   UNL     1     -11.832  14.005  64.876  1.00  0.00    -0.402 C  
BRANCH   6   7
HETATM    7  C   UNL     1     -11.037  13.013  64.035  1.00  0.00    -0.395 C  
BRANCH   7   8
HETATM    8  O   UNL     1     -11.246  11.683  64.527  1.00  0.00    -0.315 OA 
BRANCH   8   9
HETATM    9  C   UNL     1     -10.197  10.838  64.368  1.00  0.00    -0.364 C  
HETATM   10  O   UNL     1      -9.726  10.454  63.310  1.00  0.00    -0.313 OA 
BRANCH   9  11
HETATM   11  C   UNL     1      -9.705  10.392  65.692  1.00  0.00    -0.294 A  
HETATM   12  C   UNL     1      -9.929   9.093  66.164  1.00  0.00    -0.338 A  
HETATM   13  C   UNL     1      -9.472   8.717  67.430  1.00  0.00    -0.150 A  
HETATM   14  C   UNL     1      -8.549  10.943  67.743  1.00  0.00    -0.128 A  
HETATM   15  C   UNL     1      -8.774   9.651  68.227  1.00  0.00    -0.120 A  
HETATM   16  C   UNL     1      -9.022  11.319  66.484  1.00  0.00    -0.189 A  
BRANCH  13  17
HETATM   17  O   UNL     1      -9.662   7.473  67.981  1.00  0.00    -0.142 OA 
HETATM   18  C   UNL     1     -10.831   6.756  67.611  1.00  0.00    -0.289 C  
ENDBRANCH  13  17
BRANCH  15  19
HETATM   19  O   UNL     1      -8.360   9.207  69.457  1.00  0.00    -0.115 OA 
HETATM   20  C   UNL     1      -7.314   9.926  70.097  1.00  0.00    -0.160 C  
ENDBRANCH  15  19
ENDBRANCH   9  11
ENDBRANCH   8   9
ENDBRANCH   7   8
ENDBRANCH   6   7
ENDBRANCH   5   6
ENDBRANCH   4   5
ENDBRANCH   3   4
BRANCH   3  21
HETATM   21  C   UNL     1     -11.824  15.189  69.351  1.00  0.00    -0.330 C  
HETATM   22  C   UNL     1     -12.836  15.194  70.511  1.00  0.00    -0.395 C  
BRANCH  21  23
HETATM   23  C   UNL     1     -10.538  15.938  69.813  1.00  0.00    -0.322 C  
BRANCH  23  24
HETATM   24  C   UNL     1      -9.728  16.593  68.714  1.00  0.00    -0.254 A  
HETATM   25  C   UNL     1      -7.570  17.181  67.746  1.00  0.00    -0.185 A  
HETATM   26  C   UNL     1      -8.204  17.857  66.706  1.00  0.00    -0.250 A  
HETATM   27  C   UNL     1     -10.356  17.287  67.672  1.00  0.00    -0.350 A  
HETATM   28  C   UNL     1      -9.598  17.901  66.672  1.00  0.00    -0.311 A  
HETATM   29  C   UNL     1      -8.328  16.554  68.743  1.00  0.00    -0.248 A  
BRANCH  26  30
HETATM   30  O   UNL     1      -7.578  18.458  65.648  1.00  0.00    -0.522 OA 
HETATM   31  C   UNL     1      -7.355  19.859  65.763  1.00  0.00    -0.321 C  
ENDBRANCH  26  30
ENDBRANCH  23  24
ENDBRANCH  21  23
ENDBRANCH   3  21
ENDBRANCH   2   3
TORSDOF 14
ENDMDL
MODEL      105
REMARK 921   NORMALIZED FREE ENERGY PREDICTED BY IDOCK:   -4.63 KCAL/MOL
REMARK 922        TOTAL FREE ENERGY PREDICTED BY IDOCK:  -11.20 KCAL/MOL
REMARK 923 INTER-LIGAND FREE ENERGY PREDICTED BY IDOCK:   -9.36 KCAL/MOL
REMARK 924 INTRA-LIGAND FREE ENERGY PREDICTED BY IDOCK:   -1.85 KCAL/MOL
REMARK 927      BINDING AFFINITY PREDICTED BY RF-SCORE:    0.00 PKD
ROOT
HETATM    1  C   UNL     1      -8.504   8.016  73.848  1.00  0.00    -0.321 C  
HETATM    2  C   UNL     1      -9.098   8.343  72.483  1.00  0.00    -0.256 C  
ENDROOT
BRANCH   2   3
HETATM    3  N   UNL     1     -10.560   8.401  72.379  1.00  0.00    -0.337 NA 
BRANCH   3   4
HETATM    4  C   UNL     1     -11.085   9.456  71.493  1.00  0.00    -0.376 C  
BRANCH   4   5
HETATM    5  C   UNL     1     -10.186   9.767  70.286  1.00  0.00    -0.346 C  
BRANCH   5   6
HETATM    6  C   UNL     1     -10.944   9.624  68.965  1.00  0.00    -0.161 C  
BRANCH   6   7
HETATM    7  C   UNL     1     -10.130  10.222  67.823  1.00  0.00    -0.180 C  
BRANCH   7   8
HETATM    8  O   UNL     1     -10.147  11.653  67.912  1.00  0.00    -0.180 OA 
BRANCH   8   9
HETATM    9  C   UNL     1     -11.368  12.224  67.759  1.00  0.00    -0.301 C  
HETATM   10  O   UNL     1     -12.155  12.028  66.848  1.00  0.00    -0.608 OA 
BRANCH   9  11
HETATM   11  C   UNL     1     -11.615  13.184  68.859  1.00  0.00    -0.354 A  
HETATM   12  C   UNL     1     -11.181  14.514  68.791  1.00  0.00    -0.281 A  
HETATM   13  C   UNL     1     -11.409  15.384  69.861  1.00  0.00    -0.304 A  
HETATM   14  C   UNL     1     -12.525  13.590  71.063  1.00  0.00    -0.451 A  
HETATM   15  C   UNL     1     -12.090  14.917  71.008  1.00  0.00    -0.321 A  
HETATM   16  C   UNL     1     -12.279  12.721  69.997  1.00  0.00    -0.279 A  
BRANCH  13  17
HETATM   17  O   UNL     1     -11.004  16.696  69.889  1.00  0.00    -0.347 OA 
HETATM   18  C   UNL     1     -10.142  17.145  68.853  1.00  0.00    -0.322 C  
ENDBRANCH  13  17
BRANCH  15  19
HETATM   19  O   UNL     1     -12.273  15.830  72.015  1.00  0.00    -0.379 OA 
HETATM   20  C   UNL     1     -13.479  15.749  72.763  1.00  0.00    -0.574 C  
ENDBRANCH  15  19
ENDBRANCH   9  11
ENDBRANCH   8   9
ENDBRANCH   7   8
ENDBRANCH   6   7
ENDBRANCH   5   6
ENDBRANCH   4   5
ENDBRANCH   3   4
BRANCH   3  21
HETATM   21  C   UNL     1     -11.277   7.111  72.217  1.00  0.00    -0.261 C  
HETATM   22  C   UNL     1     -12.608   7.197  71.449  1.00  0.00    -0.432 C  
BRANCH  21  23
HETATM   23  C   UNL     1     -10.422   5.964  71.598  1.00  0.00    -0.285 C  
BRANCH  23  24
HETATM   24  C   UNL     1     -10.056   6.131  70.138  1.00  0.00    -0.233 A  
HETATM   25  C   UNL     1      -8.392   6.587  68.417  1.00  0.00    -0.117 A  
HETATM   26  C   UNL     1      -9.370   6.501  67.427  1.00  0.00    -0.121 A  
HETATM   27  C   UNL     1     -11.034   6.060  69.138  1.00  0.00    -0.429 A  
HETATM   28  C   UNL     1     -10.689   6.231  67.795  1.00  0.00    -0.383 A  
HETATM   29  C   UNL     1      -8.734   6.404  69.762  1.00  0.00    -0.138 A  
BRANCH  26  30
HETATM   30  O   UNL     1      -9.152   6.605  66.081  1.00  0.00    -0.157 OA 
HETATM   31  C   UNL     1      -8.914   5.386  65.387  1.00  0.00    -0.124 C  
ENDBRANCH  26  30
ENDBRANCH  23  24
ENDBRANCH  21  23
ENDBRANCH   3  21
ENDBRANCH   2   3
TORSDOF 14
ENDMDL
MODEL      106
REMARK 921   NORMALIZED FREE ENERGY PREDICTED BY IDOCK:   -4.63 KCAL/MOL
REMARK 922        TOTAL FREE ENERGY PREDICTED BY IDOCK:  -11.20 KCAL/MOL
REMARK 923 INTER-LIGAND FREE ENERGY PREDICTED BY IDOCK:   -9.02 KCAL/MOL
REMARK 924 INTRA-LIGAND FREE ENERGY PREDICTED BY IDOCK:   -2.18 KCAL/MOL
REMARK 927      BINDING AFFINITY PREDICTED BY RF-SCORE:    0.00 PKD
ROOT
HETATM    1  C   UNL     1      -8.879   9.544  63.367  1.00  0.00    -0.236 C  
HETATM    2  C   UNL     1      -9.784  10.770  63.347  1.00  0.00    -0.351 C  
ENDROOT
BRANCH   2   3
HETATM    3  N   UNL     1     -10.575  11.046  64.551  1.00  0.00    -0.339 NA 
BRANCH   3   4
HETATM    4  C   UNL     1      -9.968  10.593  65.817  1.00  0.00    -0.257 C  
BRANCH   4   5
HETATM    5  C   UNL     1      -8.963  11.584  66.423  1.00  0.00    -0.200 C  
BRANCH   5   6
HETATM    6  C   UNL     1      -7.588  10.945  66.622  1.00  0.00    -0.139 C  
BRANCH   6   7
HETATM    7  C   UNL     1      -7.144  11.090  68.073  1.00  0.00    -0.077 C  
BRANCH   7   8
HETATM    8  O   UNL     1      -8.227  10.747  68.948  1.00  0.00    -0.135 OA 
BRANCH   8   9
HETATM    9  C   UNL     1      -8.084   9.569  69.606  1.00  0.00    -0.128 C  
HETATM   10  O   UNL     1      -7.097   8.852  69.609  1.00  0.00    -0.052 OA 
BRANCH   9  11
HETATM   11  C   UNL     1      -9.342   9.231  70.311  1.00  0.00    -0.277 A  
HETATM   12  C   UNL     1      -9.450   8.100  71.128  1.00  0.00    -0.192 A  
HETATM   13  C   UNL     1     -10.662   7.800  71.756  1.00  0.00    -0.223 A  
HETATM   14  C   UNL     1     -11.653   9.782  70.759  1.00  0.00    -0.417 A  
HETATM   15  C   UNL     1     -11.775   8.650  71.571  1.00  0.00    -0.305 A  
HETATM   16  C   UNL     1     -10.445  10.067  70.120  1.00  0.00    -0.338 A  
BRANCH  13  17
HETATM   17  O   UNL     1     -10.865   6.704  72.559  1.00  0.00    -0.220 OA 
HETATM   18  C   UNL     1     -10.283   6.715  73.855  1.00  0.00    -0.354 C  
ENDBRANCH  13  17
BRANCH  15  19
HETATM   19  O   UNL     1     -12.928   8.287  72.218  1.00  0.00    -0.316 OA 
HETATM   20  C   UNL     1     -14.151   8.817  71.726  1.00  0.00    -0.401 C  
ENDBRANCH  15  19
ENDBRANCH   9  11
ENDBRANCH   8   9
ENDBRANCH   7   8
ENDBRANCH   6   7
ENDBRANCH   5   6
ENDBRANCH   4   5
ENDBRANCH   3   4
BRANCH   3  21
HETATM   21  C   UNL     1     -11.186  12.394  64.663  1.00  0.00    -0.312 C  
HETATM   22  C   UNL     1     -11.751  12.964  63.350  1.00  0.00    -0.526 C  
BRANCH  21  23
HETATM   23  C   UNL     1     -12.275  12.527  65.770  1.00  0.00    -0.361 C  
BRANCH  23  24
HETATM   24  C   UNL     1     -11.897  13.375  66.966  1.00  0.00    -0.443 A  
HETATM   25  C   UNL     1     -11.584  13.613  69.371  1.00  0.00    -0.368 A  
HETATM   26  C   UNL     1     -11.253  14.956  69.210  1.00  0.00    -0.284 A  
HETATM   27  C   UNL     1     -11.576  14.729  66.816  1.00  0.00    -0.333 A  
HETATM   28  C   UNL     1     -11.244  15.507  67.928  1.00  0.00    -0.325 A  
HETATM   29  C   UNL     1     -11.905  12.828  68.256  1.00  0.00    -0.357 A  
BRANCH  26  30
HETATM   30  O   UNL     1     -10.868  15.807  70.211  1.00  0.00    -0.311 OA 
HETATM   31  C   UNL     1     -11.777  15.952  71.296  1.00  0.00    -0.448 C  
ENDBRANCH  26  30
ENDBRANCH  23  24
ENDBRANCH  21  23
ENDBRANCH   3  21
ENDBRANCH   2   3
TORSDOF 14
ENDMDL
MODEL      107
REMARK 921   NORMALIZED FREE ENERGY PREDICTED BY IDOCK:   -4.62 KCAL/MOL
REMARK 922        TOTAL FREE ENERGY PREDICTED BY IDOCK:  -11.18 KCAL/MOL
REMARK 923 INTER-LIGAND FREE ENERGY PREDICTED BY IDOCK:   -8.33 KCAL/MOL
REMARK 924 INTRA-LIGAND FREE ENERGY PREDICTED BY IDOCK:   -2.86 KCAL/MOL
REMARK 927      BINDING AFFINITY PREDICTED BY RF-SCORE:    0.00 PKD
ROOT
HETATM    1  C   UNL     1      -9.080  10.605  65.661  1.00  0.00    -0.206 C  
HETATM    2  C   UNL     1      -9.366  11.967  66.282  1.00  0.00    -0.227 C  
ENDROOT
BRANCH   2   3
HETATM    3  N   UNL     1      -9.383  12.051  67.746  1.00  0.00    -0.184 NA 
BRANCH   3   4
HETATM    4  C   UNL     1     -10.140  10.984  68.427  1.00  0.00    -0.184 C  
BRANCH   4   5
HETATM    5  C   UNL     1     -11.660  11.209  68.451  1.00  0.00    -0.376 C  
BRANCH   5   6
HETATM    6  C   UNL     1     -12.243  10.981  69.846  1.00  0.00    -0.408 C  
BRANCH   6   7
HETATM    7  C   UNL     1     -12.204  12.276  70.651  1.00  0.00    -0.287 C  
BRANCH   7   8
HETATM    8  O   UNL     1     -12.227  13.401  69.763  1.00  0.00    -0.302 OA 
BRANCH   8   9
HETATM    9  C   UNL     1     -11.648  14.528  70.246  1.00  0.00    -0.268 C  
HETATM   10  O   UNL     1     -11.544  14.848  71.418  1.00  0.00    -0.336 OA 
BRANCH   9  11
HETATM   11  C   UNL     1     -11.178  15.372  69.123  1.00  0.00    -0.291 A  
HETATM   12  C   UNL     1     -11.240  14.935  67.794  1.00  0.00    -0.329 A  
HETATM   13  C   UNL     1     -10.763  15.750  66.764  1.00  0.00    -0.293 A  
HETATM   14  C   UNL     1     -10.178  17.451  68.398  1.00  0.00    -0.362 A  
HETATM   15  C   UNL     1     -10.228  17.022  67.069  1.00  0.00    -0.303 A  
HETATM   16  C   UNL     1     -10.641  16.626  69.425  1.00  0.00    -0.333 A  
BRANCH  13  17
HETATM   17  O   UNL     1     -10.767  15.398  65.436  1.00  0.00    -0.347 OA 
HETATM   18  C   UNL     1     -11.881  14.663  64.949  1.00  0.00    -0.403 C  
ENDBRANCH  13  17
BRANCH  15  19
HETATM   19  O   UNL     1      -9.779  17.760  66.003  1.00  0.00    -0.496 OA 
HETATM   20  C   UNL     1     -10.313  19.067  65.840  1.00  0.00    -0.371 C  
ENDBRANCH  15  19
ENDBRANCH   9  11
ENDBRANCH   8   9
ENDBRANCH   7   8
ENDBRANCH   6   7
ENDBRANCH   5   6
ENDBRANCH   4   5
ENDBRANCH   3   4
BRANCH   3  21
HETATM   21  C   UNL     1      -8.095  12.354  68.419  1.00  0.00    -0.143 C  
HETATM   22  C   UNL     1      -7.349  11.131  68.981  1.00  0.00    -0.120 C  
BRANCH  21  23
HETATM   23  C   UNL     1      -7.097  13.195  67.568  1.00  0.00    -0.156 C  
BRANCH  23  24
HETATM   24  C   UNL     1      -6.808  14.591  68.081  1.00  0.00    -0.129 A  
HETATM   25  C   UNL     1      -6.139  16.078  69.892  1.00  0.00    -0.166 A  
HETATM   26  C   UNL     1      -6.322  17.187  69.068  1.00  0.00    -0.204 A  
HETATM   27  C   UNL     1      -7.002  15.712  67.266  1.00  0.00    -0.224 A  
HETATM   28  C   UNL     1      -6.749  16.997  67.754  1.00  0.00    -0.163 A  
HETATM   29  C   UNL     1      -6.382  14.789  69.401  1.00  0.00    -0.124 A  
BRANCH  26  30
HETATM   30  O   UNL     1      -6.066  18.486  69.413  1.00  0.00    -0.242 OA 
HETATM   31  C   UNL     1      -7.110  19.420  69.165  1.00  0.00    -0.349 C  
ENDBRANCH  26  30
ENDBRANCH  23  24
ENDBRANCH  21  23
ENDBRANCH   3  21
ENDBRANCH   2   3
TORSDOF 14
ENDMDL
MODEL      108
REMARK 921   NORMALIZED FREE ENERGY PREDICTED BY IDOCK:   -4.61 KCAL/MOL
REMARK 922        TOTAL FREE ENERGY PREDICTED BY IDOCK:  -11.17 KCAL/MOL
REMARK 923 INTER-LIGAND FREE ENERGY PREDICTED BY IDOCK:   -9.17 KCAL/MOL
REMARK 924 INTRA-LIGAND FREE ENERGY PREDICTED BY IDOCK:   -2.00 KCAL/MOL
REMARK 927      BINDING AFFINITY PREDICTED BY RF-SCORE:    0.00 PKD
ROOT
HETATM    1  C   UNL     1     -13.396  14.081  72.556  1.00  0.00    -0.639 C  
HETATM    2  C   UNL     1     -12.270  14.353  71.565  1.00  0.00    -0.334 C  
ENDROOT
BRANCH   2   3
HETATM    3  N   UNL     1     -12.606  14.328  70.137  1.00  0.00    -0.334 NA 
BRANCH   3   4
HETATM    4  C   UNL     1     -12.152  15.499  69.365  1.00  0.00    -0.277 C  
BRANCH   4   5
HETATM    5  C   UNL     1     -10.806  16.076  69.832  1.00  0.00    -0.351 C  
BRANCH   5   6
HETATM    6  C   UNL     1     -10.458  17.368  69.092  1.00  0.00    -0.231 C  
BRANCH   6   7
HETATM    7  C   UNL     1      -9.022  17.313  68.582  1.00  0.00    -0.265 C  
BRANCH   7   8
HETATM    8  O   UNL     1      -8.853  16.171  67.732  1.00  0.00    -0.181 OA 
BRANCH   8   9
HETATM    9  C   UNL     1      -9.133  16.382  66.422  1.00  0.00    -0.306 C  
HETATM   10  O   UNL     1      -8.931  17.406  65.790  1.00  0.00    -0.521 OA 
BRANCH   9  11
HETATM   11  C   UNL     1      -9.780  15.180  65.846  1.00  0.00    -0.385 A  
HETATM   12  C   UNL     1      -9.310  13.889  66.114  1.00  0.00    -0.124 A  
HETATM   13  C   UNL     1      -9.931  12.780  65.532  1.00  0.00    -0.221 A  
HETATM   14  C   UNL     1     -11.509  14.262  64.427  1.00  0.00    -0.321 A  
HETATM   15  C   UNL     1     -11.043  12.969  64.681  1.00  0.00    -0.332 A  
HETATM   16  C   UNL     1     -10.874  15.367  64.998  1.00  0.00    -0.462 A  
BRANCH  13  17
HETATM   17  O   UNL     1      -9.527  11.481  65.722  1.00  0.00    -0.227 OA 
HETATM   18  C   UNL     1      -8.157  11.249  66.017  1.00  0.00    -0.009 C  
ENDBRANCH  13  17
BRANCH  15  19
HETATM   19  O   UNL     1     -11.595  11.832  64.147  1.00  0.00    -0.350 OA 
HETATM   20  C   UNL     1     -12.751  11.984  63.334  1.00  0.00    -0.398 C  
ENDBRANCH  15  19
ENDBRANCH   9  11
ENDBRANCH   8   9
ENDBRANCH   7   8
ENDBRANCH   6   7
ENDBRANCH   5   6
ENDBRANCH   4   5
ENDBRANCH   3   4
BRANCH   3  21
HETATM   21  C   UNL     1     -12.388  13.049  69.415  1.00  0.00     0.027 C  
HETATM   22  C   UNL     1     -12.250  13.179  67.888  1.00  0.00    -0.103 C  
BRANCH  21  23
HETATM   23  C   UNL     1     -11.200  12.194  69.949  1.00  0.00     0.018 C  
BRANCH  23  24
HETATM   24  C   UNL     1     -11.550  10.791  70.400  1.00  0.00    -0.431 A  
HETATM   25  C   UNL     1     -13.076   9.249  71.510  1.00  0.00    -0.430 A  
HETATM   26  C   UNL     1     -12.189   8.196  71.298  1.00  0.00    -0.279 A  
HETATM   27  C   UNL     1     -10.660   9.729  70.204  1.00  0.00    -0.337 A  
HETATM   28  C   UNL     1     -10.985   8.441  70.639  1.00  0.00    -0.266 A  
HETATM   29  C   UNL     1     -12.757  10.538  71.065  1.00  0.00    -0.504 A  
BRANCH  26  30
HETATM   30  O   UNL     1     -12.411   6.888  71.635  1.00  0.00    -0.350 OA 
HETATM   31  C   UNL     1     -11.314   6.000  71.462  1.00  0.00    -0.246 C  
ENDBRANCH  26  30
ENDBRANCH  23  24
ENDBRANCH  21  23
ENDBRANCH   3  21
ENDBRANCH   2   3
TORSDOF 14
ENDMDL
MODEL      109
REMARK 921   NORMALIZED FREE ENERGY PREDICTED BY IDOCK:   -4.60 KCAL/MOL
REMARK 922        TOTAL FREE ENERGY PREDICTED BY IDOCK:  -11.16 KCAL/MOL
REMARK 923 INTER-LIGAND FREE ENERGY PREDICTED BY IDOCK:   -8.60 KCAL/MOL
REMARK 924 INTRA-LIGAND FREE ENERGY PREDICTED BY IDOCK:   -2.56 KCAL/MOL
REMARK 927      BINDING AFFINITY PREDICTED BY RF-SCORE:    0.00 PKD
ROOT
HETATM    1  C   UNL     1      -8.141   8.079  72.753  1.00  0.00    -0.205 C  
HETATM    2  C   UNL     1      -9.578   8.424  72.381  1.00  0.00    -0.303 C  
ENDROOT
BRANCH   2   3
HETATM    3  N   UNL     1      -9.813   8.989  71.047  1.00  0.00    -0.257 NA 
BRANCH   3   4
HETATM    4  C   UNL     1      -8.975   8.426  69.972  1.00  0.00    -0.138 C  
BRANCH   4   5
HETATM    5  C   UNL     1      -8.993   9.241  68.669  1.00  0.00    -0.132 C  
BRANCH   5   6
HETATM    6  C   UNL     1      -8.314  10.600  68.843  1.00  0.00    -0.150 C  
BRANCH   6   7
HETATM    7  C   UNL     1      -8.296  11.353  67.517  1.00  0.00    -0.137 C  
BRANCH   7   8
HETATM    8  O   UNL     1      -8.554  12.745  67.746  1.00  0.00    -0.161 OA 
BRANCH   8   9
HETATM    9  C   UNL     1      -7.512  13.574  67.486  1.00  0.00    -0.167 C  
HETATM   10  O   UNL     1      -6.358  13.246  67.265  1.00  0.00    -0.284 OA 
BRANCH   9  11
HETATM   11  C   UNL     1      -7.963  14.983  67.552  1.00  0.00    -0.198 A  
HETATM   12  C   UNL     1      -7.574  15.928  66.594  1.00  0.00    -0.150 A  
HETATM   13  C   UNL     1      -7.999  17.255  66.704  1.00  0.00    -0.261 A  
HETATM   14  C   UNL     1      -9.221  16.682  68.725  1.00  0.00    -0.253 A  
HETATM   15  C   UNL     1      -8.833  17.635  67.780  1.00  0.00    -0.240 A  
HETATM   16  C   UNL     1      -8.779  15.361  68.620  1.00  0.00    -0.191 A  
BRANCH  13  17
HETATM   17  O   UNL     1      -7.653  18.252  65.824  1.00  0.00    -0.509 OA 
HETATM   18  C   UNL     1      -6.281  18.384  65.480  1.00  0.00    -0.262 C  
ENDBRANCH  13  17
BRANCH  15  19
HETATM   19  O   UNL     1      -9.205  18.955  67.819  1.00  0.00    -0.287 OA 
HETATM   20  C   UNL     1     -10.540  19.271  67.447  1.00  0.00    -0.487 C  
ENDBRANCH  15  19
ENDBRANCH   9  11
ENDBRANCH   8   9
ENDBRANCH   7   8
ENDBRANCH   6   7
ENDBRANCH   5   6
ENDBRANCH   4   5
ENDBRANCH   3   4
BRANCH   3  21
HETATM   21  C   UNL     1     -11.226   9.172  70.631  1.00  0.00    -0.270 C  
HETATM   22  C   UNL     1     -12.185   8.051  71.068  1.00  0.00    -0.199 C  
BRANCH  21  23
HETATM   23  C   UNL     1     -11.851  10.543  71.032  1.00  0.00    -0.438 C  
BRANCH  23  24
HETATM   24  C   UNL     1     -11.887  11.593  69.941  1.00  0.00    -0.434 A  
HETATM   25  C   UNL     1     -12.059  13.927  69.263  1.00  0.00    -0.383 A  
HETATM   26  C   UNL     1     -12.016  13.556  67.921  1.00  0.00    -0.337 A  
HETATM   27  C   UNL     1     -11.858  11.229  68.590  1.00  0.00    -0.369 A  
HETATM   28  C   UNL     1     -11.909  12.204  67.591  1.00  0.00    -0.316 A  
HETATM   29  C   UNL     1     -11.996  12.952  70.266  1.00  0.00    -0.359 A  
BRANCH  26  30
HETATM   30  O   UNL     1     -12.012  14.416  66.856  1.00  0.00    -0.410 OA 
HETATM   31  C   UNL     1     -11.114  14.103  65.798  1.00  0.00    -0.309 C  
ENDBRANCH  26  30
ENDBRANCH  23  24
ENDBRANCH  21  23
ENDBRANCH   3  21
ENDBRANCH   2   3
TORSDOF 14
ENDMDL
MODEL      110
REMARK 921   NORMALIZED FREE ENERGY PREDICTED BY IDOCK:   -4.60 KCAL/MOL
REMARK 922        TOTAL FREE ENERGY PREDICTED BY IDOCK:  -11.15 KCAL/MOL
REMARK 923 INTER-LIGAND FREE ENERGY PREDICTED BY IDOCK:   -8.36 KCAL/MOL
REMARK 924 INTRA-LIGAND FREE ENERGY PREDICTED BY IDOCK:   -2.79 KCAL/MOL
REMARK 927      BINDING AFFINITY PREDICTED BY RF-SCORE:    0.00 PKD
ROOT
HETATM    1  C   UNL     1     -10.447  19.999  68.005  1.00  0.00    -0.448 C  
HETATM    2  C   UNL     1      -9.850  18.776  68.691  1.00  0.00    -0.392 C  
ENDROOT
BRANCH   2   3
HETATM    3  N   UNL     1      -9.295  17.724  67.832  1.00  0.00    -0.261 NA 
BRANCH   3   4
HETATM    4  C   UNL     1      -9.720  17.778  66.421  1.00  0.00    -0.308 C  
BRANCH   4   5
HETATM    5  C   UNL     1     -10.482  16.530  65.946  1.00  0.00    -0.335 C  
BRANCH   5   6
HETATM    6  C   UNL     1      -9.530  15.385  65.599  1.00  0.00    -0.255 C  
BRANCH   6   7
HETATM    7  C   UNL     1     -10.277  14.288  64.849  1.00  0.00    -0.329 C  
BRANCH   7   8
HETATM    8  O   UNL     1     -10.664  13.253  65.762  1.00  0.00    -0.272 OA 
BRANCH   8   9
HETATM    9  C   UNL     1     -11.948  13.316  66.194  1.00  0.00    -0.418 C  
HETATM   10  O   UNL     1     -12.908  13.731  65.565  1.00  0.00    -0.596 OA 
BRANCH   9  11
HETATM   11  C   UNL     1     -12.032  12.840  67.593  1.00  0.00    -0.331 A  
HETATM   12  C   UNL     1     -12.097  13.728  68.674  1.00  0.00    -0.333 A  
HETATM   13  C   UNL     1     -12.148  13.241  69.983  1.00  0.00    -0.315 A  
HETATM   14  C   UNL     1     -12.088  10.968  69.123  1.00  0.00    -0.333 A  
HETATM   15  C   UNL     1     -12.146  11.846  70.209  1.00  0.00    -0.325 A  
HETATM   16  C   UNL     1     -12.020  11.461  67.819  1.00  0.00    -0.073 A  
BRANCH  13  17
HETATM   17  O   UNL     1     -12.195  14.036  71.102  1.00  0.00    -0.343 OA 
HETATM   18  C   UNL     1     -12.856  15.289  70.996  1.00  0.00    -0.440 C  
ENDBRANCH  13  17
BRANCH  15  19
HETATM   19  O   UNL     1     -12.196  11.447  71.521  1.00  0.00    -0.144 OA 
HETATM   20  C   UNL     1     -13.055  10.361  71.844  1.00  0.00    -0.458 C  
ENDBRANCH  15  19
ENDBRANCH   9  11
ENDBRANCH   8   9
ENDBRANCH   7   8
ENDBRANCH   6   7
ENDBRANCH   5   6
ENDBRANCH   4   5
ENDBRANCH   3   4
BRANCH   3  21
HETATM   21  C   UNL     1      -7.849  17.425  67.981  1.00  0.00    -0.207 C  
HETATM   22  C   UNL     1      -6.950  18.652  68.214  1.00  0.00    -0.262 C  
BRANCH  21  23
HETATM   23  C   UNL     1      -7.512  16.353  69.060  1.00  0.00    -0.227 C  
BRANCH  23  24
HETATM   24  C   UNL     1      -7.391  14.929  68.558  1.00  0.00    -0.119 A  
HETATM   25  C   UNL     1      -8.353  12.713  68.240  1.00  0.00    -0.165 A  
HETATM   26  C   UNL     1      -7.160  12.259  67.681  1.00  0.00    -0.126 A  
HETATM   27  C   UNL     1      -6.192  14.460  68.007  1.00  0.00    -0.162 A  
HETATM   28  C   UNL     1      -6.085  13.140  67.562  1.00  0.00    -0.112 A  
HETATM   29  C   UNL     1      -8.466  14.039  68.677  1.00  0.00    -0.103 A  
BRANCH  26  30
HETATM   30  O   UNL     1      -6.945  11.008  67.169  1.00  0.00    -0.089 OA 
HETATM   31  C   UNL     1      -5.643  10.755  66.654  1.00  0.00    -0.075 C  
ENDBRANCH  26  30
ENDBRANCH  23  24
ENDBRANCH  21  23
ENDBRANCH   3  21
ENDBRANCH   2   3
TORSDOF 14
ENDMDL
MODEL      111
REMARK 921   NORMALIZED FREE ENERGY PREDICTED BY IDOCK:   -4.59 KCAL/MOL
REMARK 922        TOTAL FREE ENERGY PREDICTED BY IDOCK:  -11.13 KCAL/MOL
REMARK 923 INTER-LIGAND FREE ENERGY PREDICTED BY IDOCK:   -8.57 KCAL/MOL
REMARK 924 INTRA-LIGAND FREE ENERGY PREDICTED BY IDOCK:   -2.56 KCAL/MOL
REMARK 927      BINDING AFFINITY PREDICTED BY RF-SCORE:    0.00 PKD
ROOT
HETATM    1  C   UNL     1     -10.663  16.661  69.435  1.00  0.00    -0.331 C  
HETATM    2  C   UNL     1      -9.252  16.104  69.288  1.00  0.00    -0.223 C  
ENDROOT
BRANCH   2   3
HETATM    3  N   UNL     1      -8.382  16.726  68.283  1.00  0.00    -0.205 NA 
BRANCH   3   4
HETATM    4  C   UNL     1      -8.284  18.195  68.363  1.00  0.00    -0.303 C  
BRANCH   4   5
HETATM    5  C   UNL     1      -8.576  18.918  67.038  1.00  0.00    -0.301 C  
BRANCH   5   6
HETATM    6  C   UNL     1     -10.075  19.141  66.835  1.00  0.00    -0.453 C  
BRANCH   6   7
HETATM    7  C   UNL     1     -10.560  18.379  65.607  1.00  0.00    -0.103 C  
BRANCH   7   8
HETATM    8  O   UNL     1     -10.623  16.977  65.899  1.00  0.00    -0.318 OA 
BRANCH   8   9
HETATM    9  C   UNL     1     -11.177  16.211  64.926  1.00  0.00    -0.285 C  
HETATM   10  O   UNL     1     -11.588  16.594  63.844  1.00  0.00    -1.204 OA 
BRANCH   9  11
HETATM   11  C   UNL     1     -11.263  14.805  65.383  1.00  0.00    -0.347 A  
HETATM   12  C   UNL     1     -11.182  13.731  64.487  1.00  0.00    -0.381 A  
HETATM   13  C   UNL     1     -11.293  12.418  64.953  1.00  0.00    -0.317 A  
HETATM   14  C   UNL     1     -11.548  13.257  67.219  1.00  0.00    -0.404 A  
HETATM   15  C   UNL     1     -11.477  12.179  66.333  1.00  0.00    -0.370 A  
HETATM   16  C   UNL     1     -11.453  14.568  66.747  1.00  0.00    -0.376 A  
BRANCH  13  17
HETATM   17  O   UNL     1     -11.244  11.306  64.147  1.00  0.00    -0.321 OA 
HETATM   18  C   UNL     1     -10.051  11.072  63.413  1.00  0.00    -0.370 C  
ENDBRANCH  13  17
BRANCH  15  19
HETATM   19  O   UNL     1     -11.579  10.864  66.711  1.00  0.00    -0.254 OA 
HETATM   20  C   UNL     1     -11.261  10.542  68.058  1.00  0.00    -0.294 C  
ENDBRANCH  15  19
ENDBRANCH   9  11
ENDBRANCH   8   9
ENDBRANCH   7   8
ENDBRANCH   6   7
ENDBRANCH   5   6
ENDBRANCH   4   5
ENDBRANCH   3   4
BRANCH   3  21
HETATM   21  C   UNL     1      -7.070  16.079  68.034  1.00  0.00    -0.132 C  
HETATM   22  C   UNL     1      -5.847  16.995  68.218  1.00  0.00    -0.130 C  
BRANCH  21  23
HETATM   23  C   UNL     1      -6.829  14.764  68.834  1.00  0.00    -0.105 C  
BRANCH  23  24
HETATM   24  C   UNL     1      -6.779  13.493  68.011  1.00  0.00    -0.138 A  
HETATM   25  C   UNL     1      -7.920  11.631  66.931  1.00  0.00    -0.161 A  
HETATM   26  C   UNL     1      -6.698  11.095  66.529  1.00  0.00    -0.128 A  
HETATM   27  C   UNL     1      -5.555  12.940  67.615  1.00  0.00    -0.120 A  
HETATM   28  C   UNL     1      -5.519  11.759  66.870  1.00  0.00    -0.122 A  
HETATM   29  C   UNL     1      -7.959  12.821  67.668  1.00  0.00    -0.165 A  
BRANCH  26  30
HETATM   30  O   UNL     1      -6.534   9.974  65.762  1.00  0.00    -0.085 OA 
HETATM   31  C   UNL     1      -5.883  10.160  64.510  1.00  0.00    -0.126 C  
ENDBRANCH  26  30
ENDBRANCH  23  24
ENDBRANCH  21  23
ENDBRANCH   3  21
ENDBRANCH   2   3
TORSDOF 14
ENDMDL
MODEL      112
REMARK 921   NORMALIZED FREE ENERGY PREDICTED BY IDOCK:   -4.58 KCAL/MOL
REMARK 922        TOTAL FREE ENERGY PREDICTED BY IDOCK:  -11.12 KCAL/MOL
REMARK 923 INTER-LIGAND FREE ENERGY PREDICTED BY IDOCK:   -9.20 KCAL/MOL
REMARK 924 INTRA-LIGAND FREE ENERGY PREDICTED BY IDOCK:   -1.92 KCAL/MOL
REMARK 927      BINDING AFFINITY PREDICTED BY RF-SCORE:    0.00 PKD
ROOT
HETATM    1  C   UNL     1      -7.233   6.739  70.315  1.00  0.00    -0.076 C  
HETATM    2  C   UNL     1      -7.880   5.397  70.636  1.00  0.00    -0.090 C  
ENDROOT
BRANCH   2   3
HETATM    3  N   UNL     1      -9.346   5.350  70.685  1.00  0.00    -0.157 NA 
BRANCH   3   4
HETATM    4  C   UNL     1     -10.006   5.013  69.410  1.00  0.00    -0.220 C  
BRANCH   4   5
HETATM    5  C   UNL     1     -10.825   6.162  68.803  1.00  0.00    -0.402 C  
BRANCH   5   6
HETATM    6  C   UNL     1     -10.236   6.635  67.474  1.00  0.00    -0.229 C  
BRANCH   6   7
HETATM    7  C   UNL     1     -10.085   8.152  67.474  1.00  0.00    -0.224 C  
BRANCH   7   8
HETATM    8  O   UNL     1     -10.270   8.659  66.146  1.00  0.00    -0.210 OA 
BRANCH   8   9
HETATM    9  C   UNL     1      -9.508   9.735  65.828  1.00  0.00    -0.240 C  
HETATM   10  O   UNL     1      -8.290   9.780  65.797  1.00  0.00    -0.124 OA 
BRANCH   9  11
HETATM   11  C   UNL     1     -10.377  10.903  65.556  1.00  0.00    -0.316 A  
HETATM   12  C   UNL     1     -10.935  11.665  66.590  1.00  0.00    -0.349 A  
HETATM   13  C   UNL     1     -11.771  12.746  66.294  1.00  0.00    -0.402 A  
HETATM   14  C   UNL     1     -11.473  12.308  63.922  1.00  0.00    -0.512 A  
HETATM   15  C   UNL     1     -12.041  13.071  64.946  1.00  0.00    -0.413 A  
HETATM   16  C   UNL     1     -10.651  11.220  64.224  1.00  0.00    -0.422 A  
BRANCH  13  17
HETATM   17  O   UNL     1     -12.376  13.536  67.241  1.00  0.00    -0.297 OA 
HETATM   18  C   UNL     1     -11.618  13.893  68.388  1.00  0.00    -0.332 C  
ENDBRANCH  13  17
BRANCH  15  19
HETATM   19  O   UNL     1     -12.873  14.143  64.738  1.00  0.00    -0.677 OA 
HETATM   20  C   UNL     1     -12.273  15.372  64.352  1.00  0.00    -0.151 C  
ENDBRANCH  15  19
ENDBRANCH   9  11
ENDBRANCH   8   9
ENDBRANCH   7   8
ENDBRANCH   6   7
ENDBRANCH   5   6
ENDBRANCH   4   5
ENDBRANCH   3   4
BRANCH   3  21
HETATM   21  C   UNL     1      -9.960   4.657  71.846  1.00  0.00    -0.189 C  
HETATM   22  C   UNL     1      -9.044   3.649  72.562  1.00  0.00    -0.136 C  
BRANCH  21  23
HETATM   23  C   UNL     1     -10.586   5.603  72.914  1.00  0.00    -0.268 C  
BRANCH  23  24
HETATM   24  C   UNL     1     -11.268   6.843  72.375  1.00  0.00    -0.303 A  
HETATM   25  C   UNL     1     -11.208   9.217  71.825  1.00  0.00    -0.451 A  
HETATM   26  C   UNL     1     -12.543   9.174  71.429  1.00  0.00    -0.323 A  
HETATM   27  C   UNL     1     -12.613   6.813  71.988  1.00  0.00    -0.259 A  
HETATM   28  C   UNL     1     -13.239   7.967  71.507  1.00  0.00    -0.320 A  
HETATM   29  C   UNL     1     -10.576   8.059  72.296  1.00  0.00    -0.356 A  
BRANCH  26  30
HETATM   30  O   UNL     1     -13.251  10.220  70.902  1.00  0.00    -0.395 OA 
HETATM   31  C   UNL     1     -12.656  11.506  71.024  1.00  0.00    -0.357 C  
ENDBRANCH  26  30
ENDBRANCH  23  24
ENDBRANCH  21  23
ENDBRANCH   3  21
ENDBRANCH   2   3
TORSDOF 14
ENDMDL
MODEL      113
REMARK 921   NORMALIZED FREE ENERGY PREDICTED BY IDOCK:   -4.58 KCAL/MOL
REMARK 922        TOTAL FREE ENERGY PREDICTED BY IDOCK:  -11.12 KCAL/MOL
REMARK 923 INTER-LIGAND FREE ENERGY PREDICTED BY IDOCK:   -9.16 KCAL/MOL
REMARK 924 INTRA-LIGAND FREE ENERGY PREDICTED BY IDOCK:   -1.96 KCAL/MOL
REMARK 927      BINDING AFFINITY PREDICTED BY RF-SCORE:    0.00 PKD
ROOT
HETATM    1  C   UNL     1      -8.467  14.067  67.184  1.00  0.00    -0.207 C  
HETATM    2  C   UNL     1      -9.893  13.891  67.691  1.00  0.00    -0.236 C  
ENDROOT
BRANCH   2   3
HETATM    3  N   UNL     1     -10.847  14.969  67.409  1.00  0.00    -0.298 NA 
BRANCH   3   4
HETATM    4  C   UNL     1     -11.794  14.698  66.312  1.00  0.00    -0.291 C  
BRANCH   4   5
HETATM    5  C   UNL     1     -12.215  13.225  66.195  1.00  0.00    -0.466 C  
BRANCH   5   6
HETATM    6  C   UNL     1     -12.518  12.837  64.747  1.00  0.00    -0.539 C  
BRANCH   6   7
HETATM    7  C   UNL     1     -11.221  12.617  63.978  1.00  0.00    -0.406 C  
BRANCH   7   8
HETATM    8  O   UNL     1     -10.242  12.020  64.838  1.00  0.00    -0.258 OA 
BRANCH   8   9
HETATM    9  C   UNL     1      -9.913  10.739  64.534  1.00  0.00    -0.333 C  
HETATM   10  O   UNL     1      -9.698  10.287  63.422  1.00  0.00    -0.301 OA 
BRANCH   9  11
HETATM   11  C   UNL     1      -9.889   9.921  65.768  1.00  0.00    -0.356 A  
HETATM   12  C   UNL     1      -9.281   8.660  65.807  1.00  0.00    -0.245 A  
HETATM   13  C   UNL     1      -9.302   7.905  66.983  1.00  0.00    -0.160 A  
HETATM   14  C   UNL     1     -10.527   9.689  68.089  1.00  0.00    -0.266 A  
HETATM   15  C   UNL     1      -9.930   8.426  68.137  1.00  0.00    -0.191 A  
HETATM   16  C   UNL     1     -10.518  10.432  66.906  1.00  0.00    -0.300 A  
BRANCH  13  17
HETATM   17  O   UNL     1      -8.749   6.654  67.108  1.00  0.00    -0.111 OA 
HETATM   18  C   UNL     1      -9.100   5.675  66.139  1.00  0.00    -0.152 C  
ENDBRANCH  13  17
BRANCH  15  19
HETATM   19  O   UNL     1      -9.911   7.625  69.250  1.00  0.00    -0.164 OA 
HETATM   20  C   UNL     1     -11.161   7.185  69.763  1.00  0.00    -0.210 C  
ENDBRANCH  15  19
ENDBRANCH   9  11
ENDBRANCH   8   9
ENDBRANCH   7   8
ENDBRANCH   6   7
ENDBRANCH   5   6
ENDBRANCH   4   5
ENDBRANCH   3   4
BRANCH   3  21
HETATM   21  C   UNL     1     -11.498  15.616  68.577  1.00  0.00    -0.375 C  
HETATM   22  C   UNL     1     -11.947  14.652  69.689  1.00  0.00    -0.368 C  
BRANCH  21  23
HETATM   23  C   UNL     1     -10.675  16.770  69.224  1.00  0.00    -0.324 C  
BRANCH  23  24
HETATM   24  C   UNL     1      -9.964  17.694  68.257  1.00  0.00    -0.339 A  
HETATM   25  C   UNL     1     -10.040  19.273  66.402  1.00  0.00    -0.507 A  
HETATM   26  C   UNL     1      -8.650  19.374  66.412  1.00  0.00    -0.354 A  
HETATM   27  C   UNL     1      -8.568  17.792  68.251  1.00  0.00    -0.277 A  
HETATM   28  C   UNL     1      -7.920  18.635  67.344  1.00  0.00    -0.247 A  
HETATM   29  C   UNL     1     -10.691  18.437  67.318  1.00  0.00    -0.389 A  
BRANCH  26  30
HETATM   30  O   UNL     1      -7.905  20.194  65.609  1.00  0.00    -0.270 OA 
HETATM   31  C   UNL     1      -6.664  20.639  66.144  1.00  0.00    -0.214 C  
ENDBRANCH  26  30
ENDBRANCH  23  24
ENDBRANCH  21  23
ENDBRANCH   3  21
ENDBRANCH   2   3
TORSDOF 14
ENDMDL
MODEL      114
REMARK 921   NORMALIZED FREE ENERGY PREDICTED BY IDOCK:   -4.58 KCAL/MOL
REMARK 922        TOTAL FREE ENERGY PREDICTED BY IDOCK:  -11.11 KCAL/MOL
REMARK 923 INTER-LIGAND FREE ENERGY PREDICTED BY IDOCK:   -9.76 KCAL/MOL
REMARK 924 INTRA-LIGAND FREE ENERGY PREDICTED BY IDOCK:   -1.35 KCAL/MOL
REMARK 927      BINDING AFFINITY PREDICTED BY RF-SCORE:    0.00 PKD
ROOT
HETATM    1  C   UNL     1     -13.177  11.329  71.780  1.00  0.00    -0.480 C  
HETATM    2  C   UNL     1     -12.901   9.831  71.728  1.00  0.00    -0.434 C  
ENDROOT
BRANCH   2   3
HETATM    3  N   UNL     1     -11.955   9.354  70.713  1.00  0.00    -0.263 NA 
BRANCH   3   4
HETATM    4  C   UNL     1     -11.201  10.410  70.013  1.00  0.00    -0.316 C  
BRANCH   4   5
HETATM    5  C   UNL     1     -11.509  10.513  68.511  1.00  0.00    -0.284 C  
BRANCH   5   6
HETATM    6  C   UNL     1     -11.299  11.934  67.987  1.00  0.00    -0.352 C  
BRANCH   6   7
HETATM    7  C   UNL     1     -11.315  12.929  69.142  1.00  0.00    -0.273 C  
BRANCH   7   8
HETATM    8  O   UNL     1     -12.332  13.915  68.919  1.00  0.00    -0.301 OA 
BRANCH   8   9
HETATM    9  C   UNL     1     -12.095  15.125  69.484  1.00  0.00    -0.283 C  
HETATM   10  O   UNL     1     -12.503  15.517  70.564  1.00  0.00    -0.399 OA 
BRANCH   9  11
HETATM   11  C   UNL     1     -11.280  15.955  68.567  1.00  0.00    -0.362 A  
HETATM   12  C   UNL     1     -11.250  15.719  67.187  1.00  0.00    -0.110 A  
HETATM   13  C   UNL     1     -10.449  16.508  66.356  1.00  0.00    -0.274 A  
HETATM   14  C   UNL     1      -9.723  17.785  68.293  1.00  0.00    -0.320 A  
HETATM   15  C   UNL     1      -9.679  17.553  66.915  1.00  0.00    -0.291 A  
HETATM   16  C   UNL     1     -10.512  16.983  69.120  1.00  0.00    -0.323 A  
BRANCH  13  17
HETATM   17  O   UNL     1     -10.342  16.338  64.998  1.00  0.00    -0.593 OA 
HETATM   18  C   UNL     1     -11.339  15.563  64.347  1.00  0.00    -0.252 C  
ENDBRANCH  13  17
BRANCH  15  19
HETATM   19  O   UNL     1      -8.917  18.280  66.036  1.00  0.00    -0.500 OA 
HETATM   20  C   UNL     1      -7.510  18.282  66.233  1.00  0.00    -0.260 C  
ENDBRANCH  15  19
ENDBRANCH   9  11
ENDBRANCH   8   9
ENDBRANCH   7   8
ENDBRANCH   6   7
ENDBRANCH   5   6
ENDBRANCH   4   5
ENDBRANCH   3   4
BRANCH   3  21
HETATM   21  C   UNL     1     -11.106   8.191  71.074  1.00  0.00    -0.253 C  
HETATM   22  C   UNL     1     -10.691   8.124  72.555  1.00  0.00    -0.419 C  
BRANCH  21  23
HETATM   23  C   UNL     1     -11.686   6.806  70.659  1.00  0.00    -0.440 C  
BRANCH  23  24
HETATM   24  C   UNL     1     -11.019   6.142  69.473  1.00  0.00    -0.463 A  
HETATM   25  C   UNL     1     -10.680   5.967  67.066  1.00  0.00    -0.396 A  
HETATM   26  C   UNL     1      -9.829   4.879  67.250  1.00  0.00    -0.184 A  
HETATM   27  C   UNL     1     -10.173   5.040  69.647  1.00  0.00    -0.306 A  
HETATM   28  C   UNL     1      -9.574   4.424  68.544  1.00  0.00    -0.208 A  
HETATM   29  C   UNL     1     -11.272   6.592  68.170  1.00  0.00    -0.207 A  
BRANCH  26  30
HETATM   30  O   UNL     1      -9.150   4.222  66.260  1.00  0.00    -0.119 OA 
HETATM   31  C   UNL     1      -8.376   3.100  66.666  1.00  0.00    -0.096 C  
ENDBRANCH  26  30
ENDBRANCH  23  24
ENDBRANCH  21  23
ENDBRANCH   3  21
ENDBRANCH   2   3
TORSDOF 14
ENDMDL
MODEL      115
REMARK 921   NORMALIZED FREE ENERGY PREDICTED BY IDOCK:   -4.57 KCAL/MOL
REMARK 922        TOTAL FREE ENERGY PREDICTED BY IDOCK:  -11.10 KCAL/MOL
REMARK 923 INTER-LIGAND FREE ENERGY PREDICTED BY IDOCK:   -8.24 KCAL/MOL
REMARK 924 INTRA-LIGAND FREE ENERGY PREDICTED BY IDOCK:   -2.85 KCAL/MOL
REMARK 927      BINDING AFFINITY PREDICTED BY RF-SCORE:    0.00 PKD
ROOT
HETATM    1  C   UNL     1     -14.395   8.357  71.781  1.00  0.00    -0.558 C  
HETATM    2  C   UNL     1     -13.092   8.944  72.312  1.00  0.00    -0.436 C  
ENDROOT
BRANCH   2   3
HETATM    3  N   UNL     1     -11.839   8.376  71.803  1.00  0.00    -0.295 NA 
BRANCH   3   4
HETATM    4  C   UNL     1     -11.981   7.107  71.064  1.00  0.00    -0.347 C  
BRANCH   4   5
HETATM    5  C   UNL     1     -11.168   5.943  71.653  1.00  0.00    -0.300 C  
BRANCH   5   6
HETATM    6  C   UNL     1      -9.980   5.577  70.763  1.00  0.00    -0.263 C  
BRANCH   6   7
HETATM    7  C   UNL     1     -10.452   5.308  69.338  1.00  0.00    -0.214 C  
BRANCH   7   8
HETATM    8  O   UNL     1      -9.473   5.783  68.405  1.00  0.00    -0.119 OA 
BRANCH   8   9
HETATM    9  C   UNL     1      -9.973   6.466  67.345  1.00  0.00    -0.138 C  
HETATM   10  O   UNL     1     -10.914   6.134  66.643  1.00  0.00    -0.301 OA 
BRANCH   9  11
HETATM   11  C   UNL     1      -9.173   7.691  67.114  1.00  0.00    -0.158 A  
HETATM   12  C   UNL     1      -9.283   8.433  65.931  1.00  0.00    -0.217 A  
HETATM   13  C   UNL     1      -8.492   9.569  65.739  1.00  0.00    -0.134 A  
HETATM   14  C   UNL     1      -7.494   9.228  67.929  1.00  0.00    -0.084 A  
HETATM   15  C   UNL     1      -7.589   9.972  66.749  1.00  0.00    -0.103 A  
HETATM   16  C   UNL     1      -8.274   8.084  68.109  1.00  0.00    -0.126 A  
BRANCH  13  17
HETATM   17  O   UNL     1      -8.518  10.346  64.606  1.00  0.00    -0.174 OA 
HETATM   18  C   UNL     1      -9.769  10.885  64.202  1.00  0.00    -0.296 C  
ENDBRANCH  13  17
BRANCH  15  19
HETATM   19  O   UNL     1      -6.847  11.095  66.484  1.00  0.00    -0.135 OA 
HETATM   20  C   UNL     1      -7.346  12.338  66.960  1.00  0.00    -0.050 C  
ENDBRANCH  15  19
ENDBRANCH   9  11
ENDBRANCH   8   9
ENDBRANCH   7   8
ENDBRANCH   6   7
ENDBRANCH   5   6
ENDBRANCH   4   5
ENDBRANCH   3   4
BRANCH   3  21
HETATM   21  C   UNL     1     -10.890   9.312  71.151  1.00  0.00    -0.337 C  
HETATM   22  C   UNL     1      -9.408   9.082  71.494  1.00  0.00    -0.294 C  
BRANCH  21  23
HETATM   23  C   UNL     1     -11.030   9.410  69.602  1.00  0.00    -0.216 C  
BRANCH  23  24
HETATM   24  C   UNL     1     -11.307  10.793  69.052  1.00  0.00    -0.349 A  
HETATM   25  C   UNL     1     -11.972  13.111  69.403  1.00  0.00    -0.347 A  
HETATM   26  C   UNL     1     -11.881  13.361  68.035  1.00  0.00    -0.357 A  
HETATM   27  C   UNL     1     -11.231  11.050  67.678  1.00  0.00    -0.373 A  
HETATM   28  C   UNL     1     -11.503  12.326  67.178  1.00  0.00    -0.419 A  
HETATM   29  C   UNL     1     -11.688  11.836  69.907  1.00  0.00    -0.399 A  
BRANCH  26  30
HETATM   30  O   UNL     1     -12.078  14.573  67.432  1.00  0.00    -0.380 OA 
HETATM   31  C   UNL     1     -10.910  15.343  67.173  1.00  0.00    -0.321 C  
ENDBRANCH  26  30
ENDBRANCH  23  24
ENDBRANCH  21  23
ENDBRANCH   3  21
ENDBRANCH   2   3
TORSDOF 14
ENDMDL
MODEL      116
REMARK 921   NORMALIZED FREE ENERGY PREDICTED BY IDOCK:   -4.57 KCAL/MOL
REMARK 922        TOTAL FREE ENERGY PREDICTED BY IDOCK:  -11.09 KCAL/MOL
REMARK 923 INTER-LIGAND FREE ENERGY PREDICTED BY IDOCK:   -8.99 KCAL/MOL
REMARK 924 INTRA-LIGAND FREE ENERGY PREDICTED BY IDOCK:   -2.10 KCAL/MOL
REMARK 927      BINDING AFFINITY PREDICTED BY RF-SCORE:    0.00 PKD
ROOT
HETATM    1  C   UNL     1     -12.211  13.803  69.880  1.00  0.00    -0.383 C  
HETATM    2  C   UNL     1     -11.893  13.329  68.467  1.00  0.00    -0.349 C  
ENDROOT
BRANCH   2   3
HETATM    3  N   UNL     1     -11.290  14.302  67.549  1.00  0.00    -0.310 NA 
BRANCH   3   4
HETATM    4  C   UNL     1      -9.818  14.381  67.597  1.00  0.00    -0.224 C  
BRANCH   4   5
HETATM    5  C   UNL     1      -9.146  13.171  68.264  1.00  0.00    -0.181 C  
BRANCH   5   6
HETATM    6  C   UNL     1      -7.879  12.747  67.520  1.00  0.00    -0.171 C  
BRANCH   6   7
HETATM    7  C   UNL     1      -7.255  11.529  68.193  1.00  0.00    -0.080 C  
BRANCH   7   8
HETATM    8  O   UNL     1      -8.283  10.606  68.574  1.00  0.00    -0.114 OA 
BRANCH   8   9
HETATM    9  C   UNL     1      -8.135  10.057  69.806  1.00  0.00    -0.177 C  
HETATM   10  O   UNL     1      -7.196  10.219  70.567  1.00  0.00    -0.297 OA 
BRANCH   9  11
HETATM   11  C   UNL     1      -9.282   9.168  70.100  1.00  0.00    -0.231 A  
HETATM   12  C   UNL     1      -9.676   8.153  69.219  1.00  0.00    -0.170 A  
HETATM   13  C   UNL     1     -10.781   7.351  69.519  1.00  0.00    -0.224 A  
HETATM   14  C   UNL     1     -11.085   8.572  71.598  1.00  0.00    -0.360 A  
HETATM   15  C   UNL     1     -11.491   7.562  70.722  1.00  0.00    -0.284 A  
HETATM   16  C   UNL     1      -9.991   9.382  71.285  1.00  0.00    -0.274 A  
BRANCH  13  17
HETATM   17  O   UNL     1     -11.249   6.347  68.707  1.00  0.00    -0.333 OA 
HETATM   18  C   UNL     1     -11.025   6.467  67.309  1.00  0.00    -0.392 C  
ENDBRANCH  13  17
BRANCH  15  19
HETATM   19  O   UNL     1     -12.564   6.735  70.943  1.00  0.00    -0.336 OA 
HETATM   20  C   UNL     1     -13.728   7.313  71.519  1.00  0.00    -0.351 C  
ENDBRANCH  15  19
ENDBRANCH   9  11
ENDBRANCH   8   9
ENDBRANCH   7   8
ENDBRANCH   6   7
ENDBRANCH   5   6
ENDBRANCH   4   5
ENDBRANCH   3   4
BRANCH   3  21
HETATM   21  C   UNL     1     -11.818  14.337  66.162  1.00  0.00    -0.402 C  
HETATM   22  C   UNL     1     -10.868  14.952  65.119  1.00  0.00    -0.428 C  
BRANCH  21  23
HETATM   23  C   UNL     1     -12.325  12.965  65.622  1.00  0.00    -0.482 C  
BRANCH  23  24
HETATM   24  C   UNL     1     -11.261  12.047  65.057  1.00  0.00    -0.374 A  
HETATM   25  C   UNL     1      -9.932  11.264  63.171  1.00  0.00    -0.398 A  
HETATM   26  C   UNL     1      -9.324  10.305  63.978  1.00  0.00    -0.289 A  
HETATM   27  C   UNL     1     -10.654  11.071  65.857  1.00  0.00    -0.270 A  
HETATM   28  C   UNL     1      -9.686  10.218  65.322  1.00  0.00    -0.354 A  
HETATM   29  C   UNL     1     -10.895  12.128  63.707  1.00  0.00    -0.490 A  
BRANCH  26  30
HETATM   30  O   UNL     1      -8.334   9.445  63.585  1.00  0.00    -0.161 OA 
HETATM   31  C   UNL     1      -7.526   8.902  64.623  1.00  0.00    -0.104 C  
ENDBRANCH  26  30
ENDBRANCH  23  24
ENDBRANCH  21  23
ENDBRANCH   3  21
ENDBRANCH   2   3
TORSDOF 14
ENDMDL
MODEL      117
REMARK 921   NORMALIZED FREE ENERGY PREDICTED BY IDOCK:   -4.56 KCAL/MOL
REMARK 922        TOTAL FREE ENERGY PREDICTED BY IDOCK:  -11.09 KCAL/MOL
REMARK 923 INTER-LIGAND FREE ENERGY PREDICTED BY IDOCK:   -9.54 KCAL/MOL
REMARK 924 INTRA-LIGAND FREE ENERGY PREDICTED BY IDOCK:   -1.55 KCAL/MOL
REMARK 927      BINDING AFFINITY PREDICTED BY RF-SCORE:    0.00 PKD
ROOT
HETATM    1  C   UNL     1     -11.810  13.483  68.371  1.00  0.00    -0.408 C  
HETATM    2  C   UNL     1     -11.990  13.809  66.893  1.00  0.00    -0.421 C  
ENDROOT
BRANCH   2   3
HETATM    3  N   UNL     1     -10.790  14.170  66.130  1.00  0.00    -0.293 NA 
BRANCH   3   4
HETATM    4  C   UNL     1     -10.528  13.338  64.941  1.00  0.00    -0.371 C  
BRANCH   4   5
HETATM    5  C   UNL     1     -11.216  11.964  64.972  1.00  0.00    -0.350 C  
BRANCH   5   6
HETATM    6  C   UNL     1     -10.262  10.845  64.551  1.00  0.00    -0.422 C  
BRANCH   6   7
HETATM    7  C   UNL     1      -9.947   9.946  65.741  1.00  0.00    -0.277 C  
BRANCH   7   8
HETATM    8  O   UNL     1     -10.381  10.575  66.954  1.00  0.00    -0.219 OA 
BRANCH   8   9
HETATM    9  C   UNL     1      -9.427  10.705  67.909  1.00  0.00    -0.159 C  
HETATM   10  O   UNL     1      -8.412  11.378  67.837  1.00  0.00    -0.129 OA 
BRANCH   9  11
HETATM   11  C   UNL     1      -9.766   9.858  69.076  1.00  0.00    -0.195 A  
HETATM   12  C   UNL     1     -10.838  10.164  69.924  1.00  0.00    -0.347 A  
HETATM   13  C   UNL     1     -11.111   9.355  71.031  1.00  0.00    -0.344 A  
HETATM   14  C   UNL     1      -9.244   7.921  70.426  1.00  0.00    -0.158 A  
HETATM   15  C   UNL     1     -10.307   8.221  71.283  1.00  0.00    -0.205 A  
HETATM   16  C   UNL     1      -8.965   8.742  69.331  1.00  0.00    -0.145 A  
BRANCH  13  17
HETATM   17  O   UNL     1     -12.128   9.588  71.925  1.00  0.00    -0.371 OA 
HETATM   18  C   UNL     1     -13.405   9.924  71.402  1.00  0.00    -0.365 C  
ENDBRANCH  13  17
BRANCH  15  19
HETATM   19  O   UNL     1     -10.637   7.480  72.389  1.00  0.00    -0.219 OA 
HETATM   20  C   UNL     1      -9.791   7.586  73.526  1.00  0.00    -0.317 C  
ENDBRANCH  15  19
ENDBRANCH   9  11
ENDBRANCH   8   9
ENDBRANCH   7   8
ENDBRANCH   6   7
ENDBRANCH   5   6
ENDBRANCH   4   5
ENDBRANCH   3   4
BRANCH   3  21
HETATM   21  C   UNL     1     -10.563  15.615  65.876  1.00  0.00    -0.343 C  
HETATM   22  C   UNL     1     -11.359  16.203  64.697  1.00  0.00    -0.287 C  
BRANCH  21  23
HETATM   23  C   UNL     1     -10.764  16.535  67.118  1.00  0.00    -0.220 C  
BRANCH  23  24
HETATM   24  C   UNL     1      -9.916  17.789  67.152  1.00  0.00    -0.322 A  
HETATM   25  C   UNL     1      -9.712  20.207  66.927  1.00  0.00    -0.582 A  
HETATM   26  C   UNL     1      -8.340  20.128  67.155  1.00  0.00    -0.337 A  
HETATM   27  C   UNL     1      -8.534  17.718  67.366  1.00  0.00    -0.230 A  
HETATM   28  C   UNL     1      -7.758  18.879  67.379  1.00  0.00    -0.247 A  
HETATM   29  C   UNL     1     -10.494  19.045  66.925  1.00  0.00    -0.505 A  
BRANCH  26  30
HETATM   30  O   UNL     1      -7.483  21.191  67.236  1.00  0.00    -0.412 OA 
HETATM   31  C   UNL     1      -6.277  20.972  67.959  1.00  0.00    -0.335 C  
ENDBRANCH  26  30
ENDBRANCH  23  24
ENDBRANCH  21  23
ENDBRANCH   3  21
ENDBRANCH   2   3
TORSDOF 14
ENDMDL
MODEL      118
REMARK 921   NORMALIZED FREE ENERGY PREDICTED BY IDOCK:   -4.55 KCAL/MOL
REMARK 922        TOTAL FREE ENERGY PREDICTED BY IDOCK:  -11.07 KCAL/MOL
REMARK 923 INTER-LIGAND FREE ENERGY PREDICTED BY IDOCK:   -9.27 KCAL/MOL
REMARK 924 INTRA-LIGAND FREE ENERGY PREDICTED BY IDOCK:   -1.80 KCAL/MOL
REMARK 927      BINDING AFFINITY PREDICTED BY RF-SCORE:    0.00 PKD
ROOT
HETATM    1  C   UNL     1     -11.927  12.037  63.784  1.00  0.00    -0.588 C  
HETATM    2  C   UNL     1     -12.452  12.935  64.897  1.00  0.00    -0.478 C  
ENDROOT
BRANCH   2   3
HETATM    3  N   UNL     1     -11.574  13.163  66.051  1.00  0.00    -0.337 NA 
BRANCH   3   4
HETATM    4  C   UNL     1     -10.675  12.043  66.385  1.00  0.00    -0.259 C  
BRANCH   4   5
HETATM    5  C   UNL     1      -9.182  12.406  66.359  1.00  0.00    -0.192 C  
BRANCH   5   6
HETATM    6  C   UNL     1      -8.400  11.660  67.440  1.00  0.00    -0.152 C  
BRANCH   6   7
HETATM    7  C   UNL     1      -7.912  10.317  66.906  1.00  0.00    -0.112 C  
BRANCH   7   8
HETATM    8  O   UNL     1      -8.375   9.260  67.757  1.00  0.00    -0.115 OA 
BRANCH   8   9
HETATM    9  C   UNL     1      -9.509   8.642  67.343  1.00  0.00    -0.150 C  
HETATM   10  O   UNL     1      -9.906   8.542  66.194  1.00  0.00    -0.244 OA 
BRANCH   9  11
HETATM   11  C   UNL     1     -10.255   8.125  68.513  1.00  0.00    -0.233 A  
HETATM   12  C   UNL     1     -10.648   8.959  69.567  1.00  0.00    -0.233 A  
HETATM   13  C   UNL     1     -11.328   8.429  70.667  1.00  0.00    -0.244 A  
HETATM   14  C   UNL     1     -11.235   6.226  69.645  1.00  0.00    -0.506 A  
HETATM   15  C   UNL     1     -11.626   7.048  70.706  1.00  0.00    -0.338 A  
HETATM   16  C   UNL     1     -10.542   6.758  68.556  1.00  0.00    -0.265 A  
BRANCH  13  17
HETATM   17  O   UNL     1     -11.735   9.167  71.752  1.00  0.00    -0.346 OA 
HETATM   18  C   UNL     1     -12.759  10.131  71.551  1.00  0.00    -0.436 C  
ENDBRANCH  13  17
BRANCH  15  19
HETATM   19  O   UNL     1     -12.292   6.605  71.820  1.00  0.00    -0.345 OA 
HETATM   20  C   UNL     1     -11.568   5.798  72.739  1.00  0.00    -0.214 C  
ENDBRANCH  15  19
ENDBRANCH   9  11
ENDBRANCH   8   9
ENDBRANCH   7   8
ENDBRANCH   6   7
ENDBRANCH   5   6
ENDBRANCH   4   5
ENDBRANCH   3   4
BRANCH   3  21
HETATM   21  C   UNL     1     -10.897  14.482  66.133  1.00  0.00    -0.317 C  
HETATM   22  C   UNL     1     -11.134  15.412  64.930  1.00  0.00    -0.435 C  
BRANCH  21  23
HETATM   23  C   UNL     1     -11.182  15.280  67.440  1.00  0.00    -0.311 C  
BRANCH  23  24
HETATM   24  C   UNL     1     -10.243  16.434  67.725  1.00  0.00    -0.274 A  
HETATM   25  C   UNL     1      -8.005  17.263  68.215  1.00  0.00    -0.244 A  
HETATM   26  C   UNL     1      -8.492  18.564  68.313  1.00  0.00    -0.318 A  
HETATM   27  C   UNL     1     -10.725  17.743  67.838  1.00  0.00    -0.327 A  
HETATM   28  C   UNL     1      -9.853  18.799  68.117  1.00  0.00    -0.396 A  
HETATM   29  C   UNL     1      -8.875  16.205  67.924  1.00  0.00    -0.182 A  
BRANCH  26  30
HETATM   30  O   UNL     1      -7.736  19.683  68.535  1.00  0.00    -0.336 OA 
HETATM   31  C   UNL     1      -7.543  20.544  67.419  1.00  0.00    -0.339 C  
ENDBRANCH  26  30
ENDBRANCH  23  24
ENDBRANCH  21  23
ENDBRANCH   3  21
ENDBRANCH   2   3
TORSDOF 14
ENDMDL
MODEL      119
REMARK 921   NORMALIZED FREE ENERGY PREDICTED BY IDOCK:   -4.55 KCAL/MOL
REMARK 922        TOTAL FREE ENERGY PREDICTED BY IDOCK:  -11.06 KCAL/MOL
REMARK 923 INTER-LIGAND FREE ENERGY PREDICTED BY IDOCK:   -8.35 KCAL/MOL
REMARK 924 INTRA-LIGAND FREE ENERGY PREDICTED BY IDOCK:   -2.72 KCAL/MOL
REMARK 927      BINDING AFFINITY PREDICTED BY RF-SCORE:    0.00 PKD
ROOT
HETATM    1  C   UNL     1     -10.548  18.100  66.962  1.00  0.00    -0.346 C  
HETATM    2  C   UNL     1     -10.716  16.718  67.581  1.00  0.00    -0.305 C  
ENDROOT
BRANCH   2   3
HETATM    3  N   UNL     1     -10.600  15.560  66.688  1.00  0.00    -0.304 NA 
BRANCH   3   4
HETATM    4  C   UNL     1      -9.231  15.041  66.509  1.00  0.00    -0.290 C  
BRANCH   4   5
HETATM    5  C   UNL     1      -8.280  15.363  67.671  1.00  0.00    -0.171 C  
BRANCH   5   6
HETATM    6  C   UNL     1      -7.098  14.394  67.719  1.00  0.00    -0.191 C  
BRANCH   6   7
HETATM    7  C   UNL     1      -7.306  13.361  68.821  1.00  0.00    -0.076 C  
BRANCH   7   8
HETATM    8  O   UNL     1      -6.834  12.081  68.383  1.00  0.00    -0.062 OA 
BRANCH   8   9
HETATM    9  C   UNL     1      -7.132  11.045  69.206  1.00  0.00    -0.123 C  
HETATM   10  O   UNL     1      -6.709  10.867  70.336  1.00  0.00    -0.278 OA 
BRANCH   9  11
HETATM   11  C   UNL     1      -8.038  10.099  68.514  1.00  0.00    -0.106 A  
HETATM   12  C   UNL     1      -8.349  10.234  67.155  1.00  0.00    -0.122 A  
HETATM   13  C   UNL     1      -9.228   9.336  66.543  1.00  0.00    -0.161 A  
HETATM   14  C   UNL     1      -9.469   8.155  68.654  1.00  0.00    -0.147 A  
HETATM   15  C   UNL     1      -9.793   8.285  67.300  1.00  0.00    -0.197 A  
HETATM   16  C   UNL     1      -8.603   9.064  69.264  1.00  0.00    -0.136 A  
BRANCH  13  17
HETATM   17  O   UNL     1      -9.605   9.402  65.224  1.00  0.00    -0.269 OA 
HETATM   18  C   UNL     1      -9.884  10.684  64.678  1.00  0.00    -0.321 C  
ENDBRANCH  13  17
BRANCH  15  19
HETATM   19  O   UNL     1     -10.648   7.448  66.628  1.00  0.00    -0.257 OA 
HETATM   20  C   UNL     1     -11.012   6.232  67.268  1.00  0.00    -0.366 C  
ENDBRANCH  15  19
ENDBRANCH   9  11
ENDBRANCH   8   9
ENDBRANCH   7   8
ENDBRANCH   6   7
ENDBRANCH   5   6
ENDBRANCH   4   5
ENDBRANCH   3   4
BRANCH   3  21
HETATM   21  C   UNL     1     -11.603  14.478  66.853  1.00  0.00    -0.385 C  
HETATM   22  C   UNL     1     -12.539  14.269  65.649  1.00  0.00    -0.429 C  
BRANCH  21  23
HETATM   23  C   UNL     1     -11.011  13.097  67.266  1.00  0.00    -0.288 C  
BRANCH  23  24
HETATM   24  C   UNL     1     -11.546  12.511  68.556  1.00  0.00    -0.364 A  
HETATM   25  C   UNL     1     -12.282  12.801  70.861  1.00  0.00    -0.284 A  
HETATM   26  C   UNL     1     -12.487  11.428  70.984  1.00  0.00    -0.383 A  
HETATM   27  C   UNL     1     -11.743  11.132  68.693  1.00  0.00    -0.389 A  
HETATM   28  C   UNL     1     -12.221  10.599  69.893  1.00  0.00    -0.346 A  
HETATM   29  C   UNL     1     -11.813  13.338  69.655  1.00  0.00    -0.391 A  
BRANCH  26  30
HETATM   30  O   UNL     1     -12.992  10.794  72.086  1.00  0.00    -0.424 OA 
HETATM   31  C   UNL     1     -13.108   9.378  71.998  1.00  0.00    -0.433 C  
ENDBRANCH  26  30
ENDBRANCH  23  24
ENDBRANCH  21  23
ENDBRANCH   3  21
ENDBRANCH   2   3
TORSDOF 14
ENDMDL
MODEL      120
REMARK 921   NORMALIZED FREE ENERGY PREDICTED BY IDOCK:   -4.54 KCAL/MOL
REMARK 922        TOTAL FREE ENERGY PREDICTED BY IDOCK:  -11.05 KCAL/MOL
REMARK 923 INTER-LIGAND FREE ENERGY PREDICTED BY IDOCK:   -9.53 KCAL/MOL
REMARK 924 INTRA-LIGAND FREE ENERGY PREDICTED BY IDOCK:   -1.52 KCAL/MOL
REMARK 927      BINDING AFFINITY PREDICTED BY RF-SCORE:    0.00 PKD
ROOT
HETATM    1  C   UNL     1     -10.135  10.226  65.588  1.00  0.00    -0.341 C  
HETATM    2  C   UNL     1     -10.361  10.934  66.919  1.00  0.00    -0.238 C  
ENDROOT
BRANCH   2   3
HETATM    3  N   UNL     1     -11.578  11.742  67.055  1.00  0.00    -0.542 NA 
BRANCH   3   4
HETATM    4  C   UNL     1     -12.012  11.992  68.441  1.00  0.00    -0.194 C  
BRANCH   4   5
HETATM    5  C   UNL     1     -11.780  10.811  69.396  1.00  0.00    -0.378 C  
BRANCH   5   6
HETATM    6  C   UNL     1     -12.354  11.087  70.786  1.00  0.00    -0.496 C  
BRANCH   6   7
HETATM    7  C   UNL     1     -13.316   9.975  71.190  1.00  0.00    -0.305 C  
BRANCH   7   8
HETATM    8  O   UNL     1     -12.771   9.238  72.292  1.00  0.00    -0.382 OA 
BRANCH   8   9
HETATM    9  C   UNL     1     -12.230   8.036  71.971  1.00  0.00    -0.331 C  
HETATM   10  O   UNL     1     -12.812   7.084  71.480  1.00  0.00    -0.376 OA 
BRANCH   9  11
HETATM   11  C   UNL     1     -10.798   8.014  72.346  1.00  0.00    -0.392 A  
HETATM   12  C   UNL     1      -9.809   8.564  71.521  1.00  0.00    -0.309 A  
HETATM   13  C   UNL     1      -8.464   8.501  71.897  1.00  0.00    -0.170 A  
HETATM   14  C   UNL     1      -9.104   7.351  73.940  1.00  0.00    -0.298 A  
HETATM   15  C   UNL     1      -8.109   7.890  73.120  1.00  0.00    -0.162 A  
HETATM   16  C   UNL     1     -10.445   7.402  73.551  1.00  0.00    -0.396 A  
BRANCH  13  17
HETATM   17  O   UNL     1      -7.428   8.996  71.143  1.00  0.00    -0.108 OA 
HETATM   18  C   UNL     1      -7.740   9.931  70.121  1.00  0.00    -0.175 C  
ENDBRANCH  13  17
BRANCH  15  19
HETATM   19  O   UNL     1      -6.769   7.865  73.417  1.00  0.00    -0.081 OA 
HETATM   20  C   UNL     1      -6.239   6.662  73.955  1.00  0.00    -0.065 C  
ENDBRANCH  15  19
ENDBRANCH   9  11
ENDBRANCH   8   9
ENDBRANCH   7   8
ENDBRANCH   6   7
ENDBRANCH   5   6
ENDBRANCH   4   5
ENDBRANCH   3   4
BRANCH   3  21
HETATM   21  C   UNL     1     -11.686  12.949  66.197  1.00  0.00    -0.396 C  
HETATM   22  C   UNL     1     -12.615  12.801  64.979  1.00  0.00    -0.538 C  
BRANCH  21  23
HETATM   23  C   UNL     1     -12.066  14.256  66.955  1.00  0.00    -0.440 C  
BRANCH  23  24
HETATM   24  C   UNL     1     -10.988  15.319  67.015  1.00  0.00    -0.324 A  
HETATM   25  C   UNL     1      -8.975  16.339  66.096  1.00  0.00    -0.374 A  
HETATM   26  C   UNL     1      -8.942  17.255  67.145  1.00  0.00    -0.226 A  
HETATM   27  C   UNL     1     -10.939  16.234  68.072  1.00  0.00    -0.328 A  
HETATM   28  C   UNL     1      -9.931  17.201  68.128  1.00  0.00    -0.297 A  
HETATM   29  C   UNL     1      -9.991  15.377  66.033  1.00  0.00    -0.350 A  
BRANCH  26  30
HETATM   30  O   UNL     1      -8.037  18.272  67.286  1.00  0.00    -0.225 OA 
HETATM   31  C   UNL     1      -7.459  18.423  68.578  1.00  0.00    -0.293 C  
ENDBRANCH  26  30
ENDBRANCH  23  24
ENDBRANCH  21  23
ENDBRANCH   3  21
ENDBRANCH   2   3
TORSDOF 14
ENDMDL
MODEL      121
REMARK 921   NORMALIZED FREE ENERGY PREDICTED BY IDOCK:   -4.54 KCAL/MOL
REMARK 922        TOTAL FREE ENERGY PREDICTED BY IDOCK:  -11.04 KCAL/MOL
REMARK 923 INTER-LIGAND FREE ENERGY PREDICTED BY IDOCK:   -8.63 KCAL/MOL
REMARK 924 INTRA-LIGAND FREE ENERGY PREDICTED BY IDOCK:   -2.41 KCAL/MOL
REMARK 927      BINDING AFFINITY PREDICTED BY RF-SCORE:    0.00 PKD
ROOT
HETATM    1  C   UNL     1      -8.062   8.367  70.218  1.00  0.00    -0.104 C  
HETATM    2  C   UNL     1      -9.187   9.376  70.024  1.00  0.00    -0.220 C  
ENDROOT
BRANCH   2   3
HETATM    3  N   UNL     1      -9.436   9.854  68.659  1.00  0.00    -0.149 NA 
BRANCH   3   4
HETATM    4  C   UNL     1     -10.368   9.030  67.867  1.00  0.00    -0.235 C  
BRANCH   4   5
HETATM    5  C   UNL     1      -9.789   8.530  66.534  1.00  0.00    -0.342 C  
BRANCH   5   6
HETATM    6  C   UNL     1      -8.386   7.950  66.711  1.00  0.00    -0.120 C  
BRANCH   6   7
HETATM    7  C   UNL     1      -8.389   6.458  66.396  1.00  0.00    -0.119 C  
BRANCH   7   8
HETATM    8  O   UNL     1      -9.717   5.935  66.538  1.00  0.00    -0.153 OA 
BRANCH   8   9
HETATM    9  C   UNL     1      -9.814   4.808  67.286  1.00  0.00    -0.184 C  
HETATM   10  O   UNL     1      -9.760   3.659  66.882  1.00  0.00    -0.196 OA 
BRANCH   9  11
HETATM   11  C   UNL     1     -10.047   5.166  68.704  1.00  0.00    -0.220 A  
HETATM   12  C   UNL     1      -9.247   4.657  69.735  1.00  0.00    -0.185 A  
HETATM   13  C   UNL     1      -9.514   4.997  71.065  1.00  0.00    -0.162 A  
HETATM   14  C   UNL     1     -11.374   6.375  70.324  1.00  0.00    -0.468 A  
HETATM   15  C   UNL     1     -10.588   5.866  71.362  1.00  0.00    -0.252 A  
HETATM   16  C   UNL     1     -11.114   6.018  68.999  1.00  0.00    -0.377 A  
BRANCH  13  17
HETATM   17  O   UNL     1      -8.796   4.532  72.140  1.00  0.00    -0.119 OA 
HETATM   18  C   UNL     1      -7.640   3.750  71.876  1.00  0.00    -0.058 C  
ENDBRANCH  13  17
BRANCH  15  19
HETATM   19  O   UNL     1     -10.786   6.150  72.689  1.00  0.00    -0.221 OA 
HETATM   20  C   UNL     1     -10.668   7.508  73.094  1.00  0.00    -0.398 C  
ENDBRANCH  15  19
ENDBRANCH   9  11
ENDBRANCH   8   9
ENDBRANCH   7   8
ENDBRANCH   6   7
ENDBRANCH   5   6
ENDBRANCH   4   5
ENDBRANCH   3   4
BRANCH   3  21
HETATM   21  C   UNL     1      -9.674  11.309  68.486  1.00  0.00    -0.198 C  
HETATM   22  C   UNL     1      -8.853  11.975  67.368  1.00  0.00    -0.178 C  
BRANCH  21  23
HETATM   23  C   UNL     1     -11.169  11.709  68.309  1.00  0.00    -0.320 C  
BRANCH  23  24
HETATM   24  C   UNL     1     -11.843  12.296  69.531  1.00  0.00    -0.380 A  
HETATM   25  C   UNL     1     -12.996  11.992  71.657  1.00  0.00    -0.439 A  
HETATM   26  C   UNL     1     -13.152  13.371  71.786  1.00  0.00    -0.388 A  
HETATM   27  C   UNL     1     -12.017  13.678  69.664  1.00  0.00    -0.402 A  
HETATM   28  C   UNL     1     -12.654  14.209  70.788  1.00  0.00    -0.432 A  
HETATM   29  C   UNL     1     -12.347  11.459  70.536  1.00  0.00    -0.439 A  
BRANCH  26  30
HETATM   30  O   UNL     1     -13.716  14.011  72.856  1.00  0.00    -0.677 OA 
HETATM   31  C   UNL     1     -13.955  15.405  72.699  1.00  0.00    -0.496 C  
ENDBRANCH  26  30
ENDBRANCH  23  24
ENDBRANCH  21  23
ENDBRANCH   3  21
ENDBRANCH   2   3
TORSDOF 14
ENDMDL
MODEL      122
REMARK 921   NORMALIZED FREE ENERGY PREDICTED BY IDOCK:   -4.52 KCAL/MOL
REMARK 922        TOTAL FREE ENERGY PREDICTED BY IDOCK:  -11.01 KCAL/MOL
REMARK 923 INTER-LIGAND FREE ENERGY PREDICTED BY IDOCK:   -8.49 KCAL/MOL
REMARK 924 INTRA-LIGAND FREE ENERGY PREDICTED BY IDOCK:   -2.52 KCAL/MOL
REMARK 927      BINDING AFFINITY PREDICTED BY RF-SCORE:    0.00 PKD
ROOT
HETATM    1  C   UNL     1      -8.081   3.819  72.007  1.00  0.00    -0.072 C  
HETATM    2  C   UNL     1      -8.831   4.544  70.896  1.00  0.00    -0.113 C  
ENDROOT
BRANCH   2   3
HETATM    3  N   UNL     1      -9.459   5.827  71.231  1.00  0.00    -0.153 NA 
BRANCH   3   4
HETATM    4  C   UNL     1      -8.542   6.854  71.761  1.00  0.00    -0.119 C  
BRANCH   4   5
HETATM    5  C   UNL     1      -7.774   7.629  70.679  1.00  0.00    -0.088 C  
BRANCH   5   6
HETATM    6  C   UNL     1      -7.925   9.141  70.853  1.00  0.00    -0.192 C  
BRANCH   6   7
HETATM    7  C   UNL     1      -7.428   9.867  69.608  1.00  0.00    -0.122 C  
BRANCH   7   8
HETATM    8  O   UNL     1      -8.473  10.694  69.078  1.00  0.00    -0.143 OA 
BRANCH   8   9
HETATM    9  C   UNL     1      -9.090  10.203  67.974  1.00  0.00    -0.131 C  
HETATM   10  O   UNL     1      -8.950   9.090  67.496  1.00  0.00    -0.123 OA 
BRANCH   9  11
HETATM   11  C   UNL     1      -9.954  11.248  67.377  1.00  0.00    -0.206 A  
HETATM   12  C   UNL     1     -10.269  12.427  68.063  1.00  0.00    -0.219 A  
HETATM   13  C   UNL     1     -11.109  13.378  67.476  1.00  0.00    -0.274 A  
HETATM   14  C   UNL     1     -11.302  11.971  65.504  1.00  0.00    -0.381 A  
HETATM   15  C   UNL     1     -11.630  13.148  66.183  1.00  0.00    -0.355 A  
HETATM   16  C   UNL     1     -10.476  11.016  66.102  1.00  0.00    -0.301 A  
BRANCH  13  17
HETATM   17  O   UNL     1     -11.487  14.552  68.081  1.00  0.00    -0.282 OA 
HETATM   18  C   UNL     1     -10.588  15.135  69.014  1.00  0.00    -0.245 C  
ENDBRANCH  13  17
BRANCH  15  19
HETATM   19  O   UNL     1     -12.448  14.127  65.678  1.00  0.00    -0.457 OA 
HETATM   20  C   UNL     1     -12.126  14.654  64.398  1.00  0.00    -0.462 C  
ENDBRANCH  15  19
ENDBRANCH   9  11
ENDBRANCH   8   9
ENDBRANCH   7   8
ENDBRANCH   6   7
ENDBRANCH   5   6
ENDBRANCH   4   5
ENDBRANCH   3   4
BRANCH   3  21
HETATM   21  C   UNL     1     -10.429   6.379  70.252  1.00  0.00    -0.219 C  
HETATM   22  C   UNL     1     -10.536   5.599  68.930  1.00  0.00    -0.310 C  
BRANCH  21  23
HETATM   23  C   UNL     1     -11.865   6.603  70.813  1.00  0.00    -0.441 C  
BRANCH  23  24
HETATM   24  C   UNL     1     -12.242   8.041  71.102  1.00  0.00    -0.262 A  
HETATM   25  C   UNL     1     -11.811  10.427  70.856  1.00  0.00    -0.475 A  
HETATM   26  C   UNL     1     -12.896  10.723  71.678  1.00  0.00    -0.457 A  
HETATM   27  C   UNL     1     -13.322   8.348  71.937  1.00  0.00    -0.380 A  
HETATM   28  C   UNL     1     -13.652   9.678  72.211  1.00  0.00    -0.449 A  
HETATM   29  C   UNL     1     -11.486   9.095  70.572  1.00  0.00    -0.271 A  
BRANCH  26  30
HETATM   30  O   UNL     1     -13.345  11.979  71.983  1.00  0.00    -0.495 OA 
HETATM   31  C   UNL     1     -12.743  13.052  71.269  1.00  0.00    -0.293 C  
ENDBRANCH  26  30
ENDBRANCH  23  24
ENDBRANCH  21  23
ENDBRANCH   3  21
ENDBRANCH   2   3
TORSDOF 14
ENDMDL
MODEL      123
REMARK 921   NORMALIZED FREE ENERGY PREDICTED BY IDOCK:   -4.52 KCAL/MOL
REMARK 922        TOTAL FREE ENERGY PREDICTED BY IDOCK:  -11.01 KCAL/MOL
REMARK 923 INTER-LIGAND FREE ENERGY PREDICTED BY IDOCK:   -8.20 KCAL/MOL
REMARK 924 INTRA-LIGAND FREE ENERGY PREDICTED BY IDOCK:   -2.81 KCAL/MOL
REMARK 927      BINDING AFFINITY PREDICTED BY RF-SCORE:    0.00 PKD
ROOT
HETATM    1  C   UNL     1     -10.529  19.544  65.772  1.00  0.00    -0.518 C  
HETATM    2  C   UNL     1     -10.395  18.258  66.581  1.00  0.00    -0.381 C  
ENDROOT
BRANCH   2   3
HETATM    3  N   UNL     1     -10.025  17.039  65.853  1.00  0.00    -0.521 NA 
BRANCH   3   4
HETATM    4  C   UNL     1      -8.656  16.551  66.102  1.00  0.00    -0.299 C  
BRANCH   4   5
HETATM    5  C   UNL     1      -7.998  17.141  67.359  1.00  0.00    -0.197 C  
BRANCH   5   6
HETATM    6  C   UNL     1      -6.873  16.246  67.880  1.00  0.00    -0.152 C  
BRANCH   6   7
HETATM    7  C   UNL     1      -7.452  14.985  68.511  1.00  0.00    -0.119 C  
BRANCH   7   8
HETATM    8  O   UNL     1      -7.288  13.876  67.618  1.00  0.00    -0.147 OA 
BRANCH   8   9
HETATM    9  C   UNL     1      -6.911  12.713  68.207  1.00  0.00    -0.084 C  
HETATM   10  O   UNL     1      -5.858  12.498  68.784  1.00  0.00    -0.061 OA 
BRANCH   9  11
HETATM   11  C   UNL     1      -7.962  11.688  68.014  1.00  0.00    -0.132 A  
HETATM   12  C   UNL     1      -8.401  10.873  69.064  1.00  0.00    -0.118 A  
HETATM   13  C   UNL     1      -9.377   9.899  68.837  1.00  0.00    -0.170 A  
HETATM   14  C   UNL     1      -9.488  10.573  66.505  1.00  0.00    -0.200 A  
HETATM   15  C   UNL     1      -9.927   9.748  67.544  1.00  0.00    -0.184 A  
HETATM   16  C   UNL     1      -8.500  11.533  66.733  1.00  0.00    -0.168 A  
BRANCH  13  17
HETATM   17  O   UNL     1      -9.853   9.043  69.801  1.00  0.00    -0.170 OA 
HETATM   18  C   UNL     1     -10.690   9.586  70.812  1.00  0.00    -0.321 C  
ENDBRANCH  13  17
BRANCH  15  19
HETATM   19  O   UNL     1     -10.878   8.769  67.402  1.00  0.00    -0.213 OA 
HETATM   20  C   UNL     1     -10.465   7.532  66.836  1.00  0.00    -0.315 C  
ENDBRANCH  15  19
ENDBRANCH   9  11
ENDBRANCH   8   9
ENDBRANCH   7   8
ENDBRANCH   6   7
ENDBRANCH   5   6
ENDBRANCH   4   5
ENDBRANCH   3   4
BRANCH   3  21
HETATM   21  C   UNL     1     -11.025  15.942  65.823  1.00  0.00    -0.177 C  
HETATM   22  C   UNL     1     -11.509  15.540  64.418  1.00  0.00    -0.264 C  
BRANCH  21  23
HETATM   23  C   UNL     1     -10.601  14.653  66.589  1.00  0.00    -0.289 C  
BRANCH  23  24
HETATM   24  C   UNL     1     -11.187  14.489  67.976  1.00  0.00    -0.308 A  
HETATM   25  C   UNL     1     -11.900  13.053  69.811  1.00  0.00    -0.381 A  
HETATM   26  C   UNL     1     -12.329  14.165  70.534  1.00  0.00    -0.364 A  
HETATM   27  C   UNL     1     -11.632  15.599  68.704  1.00  0.00    -0.391 A  
HETATM   28  C   UNL     1     -12.186  15.436  69.977  1.00  0.00    -0.392 A  
HETATM   29  C   UNL     1     -11.334  13.215  68.540  1.00  0.00    -0.321 A  
BRANCH  26  30
HETATM   30  O   UNL     1     -12.843  14.140  71.801  1.00  0.00    -0.320 OA 
HETATM   31  C   UNL     1     -13.603  12.988  72.149  1.00  0.00    -0.526 C  
ENDBRANCH  26  30
ENDBRANCH  23  24
ENDBRANCH  21  23
ENDBRANCH   3  21
ENDBRANCH   2   3
TORSDOF 14
ENDMDL
MODEL      124
REMARK 921   NORMALIZED FREE ENERGY PREDICTED BY IDOCK:   -4.51 KCAL/MOL
REMARK 922        TOTAL FREE ENERGY PREDICTED BY IDOCK:  -11.00 KCAL/MOL
REMARK 923 INTER-LIGAND FREE ENERGY PREDICTED BY IDOCK:   -9.18 KCAL/MOL
REMARK 924 INTRA-LIGAND FREE ENERGY PREDICTED BY IDOCK:   -1.81 KCAL/MOL
REMARK 927      BINDING AFFINITY PREDICTED BY RF-SCORE:    0.00 PKD
ROOT
HETATM    1  C   UNL     1     -11.281  10.479  68.625  1.00  0.00    -0.328 C  
HETATM    2  C   UNL     1      -9.925  11.163  68.753  1.00  0.00    -0.198 C  
ENDROOT
BRANCH   2   3
HETATM    3  N   UNL     1      -9.535  12.092  67.686  1.00  0.00    -0.180 NA 
BRANCH   3   4
HETATM    4  C   UNL     1      -9.879  11.657  66.320  1.00  0.00    -0.219 C  
BRANCH   4   5
HETATM    5  C   UNL     1      -8.939  10.583  65.747  1.00  0.00    -0.199 C  
BRANCH   5   6
HETATM    6  C   UNL     1      -9.692   9.294  65.413  1.00  0.00    -0.170 C  
BRANCH   6   7
HETATM    7  C   UNL     1      -9.263   8.175  66.356  1.00  0.00    -0.199 C  
BRANCH   7   8
HETATM    8  O   UNL     1     -10.422   7.538  66.910  1.00  0.00    -0.309 OA 
BRANCH   8   9
HETATM    9  C   UNL     1     -10.172   6.415  67.629  1.00  0.00    -0.169 C  
HETATM   10  O   UNL     1      -9.892   5.314  67.186  1.00  0.00    -0.139 OA 
BRANCH   9  11
HETATM   11  C   UNL     1     -10.331   6.698  69.074  1.00  0.00    -0.216 A  
HETATM   12  C   UNL     1     -11.567   6.569  69.720  1.00  0.00    -0.392 A  
HETATM   13  C   UNL     1     -11.683   6.871  71.080  1.00  0.00    -0.336 A  
HETATM   14  C   UNL     1      -9.316   7.414  71.149  1.00  0.00    -0.156 A  
HETATM   15  C   UNL     1     -10.546   7.296  71.802  1.00  0.00    -0.205 A  
HETATM   16  C   UNL     1      -9.208   7.128  69.786  1.00  0.00    -0.143 A  
BRANCH  13  17
HETATM   17  O   UNL     1     -12.856   6.791  71.791  1.00  0.00    -0.358 OA 
HETATM   18  C   UNL     1     -13.860   7.760  71.523  1.00  0.00    -0.358 C  
ENDBRANCH  13  17
BRANCH  15  19
HETATM   19  O   UNL     1     -10.742   7.575  73.131  1.00  0.00    -0.348 OA 
HETATM   20  C   UNL     1     -10.270   6.626  74.077  1.00  0.00    -0.369 C  
ENDBRANCH  15  19
ENDBRANCH   9  11
ENDBRANCH   8   9
ENDBRANCH   7   8
ENDBRANCH   6   7
ENDBRANCH   5   6
ENDBRANCH   4   5
ENDBRANCH   3   4
BRANCH   3  21
HETATM   21  C   UNL     1      -9.811  13.533  67.912  1.00  0.00    -0.235 C  
HETATM   22  C   UNL     1      -9.270  14.478  66.824  1.00  0.00    -0.286 C  
BRANCH  21  23
HETATM   23  C   UNL     1     -11.309  13.878  68.167  1.00  0.00    -0.324 C  
BRANCH  23  24
HETATM   24  C   UNL     1     -11.613  14.552  69.488  1.00  0.00    -0.350 A  
HETATM   25  C   UNL     1     -11.372  16.454  70.993  1.00  0.00    -0.207 A  
HETATM   26  C   UNL     1     -12.122  15.798  71.967  1.00  0.00    -0.473 A  
HETATM   27  C   UNL     1     -12.354  13.896  70.478  1.00  0.00    -0.439 A  
HETATM   28  C   UNL     1     -12.616  14.521  71.700  1.00  0.00    -0.419 A  
HETATM   29  C   UNL     1     -11.119  15.834  69.763  1.00  0.00    -0.322 A  
BRANCH  26  30
HETATM   30  O   UNL     1     -12.482  16.319  73.180  1.00  0.00    -0.470 OA 
HETATM   31  C   UNL     1     -12.405  15.434  74.291  1.00  0.00    -0.664 C  
ENDBRANCH  26  30
ENDBRANCH  23  24
ENDBRANCH  21  23
ENDBRANCH   3  21
ENDBRANCH   2   3
TORSDOF 14
ENDMDL
MODEL      125
REMARK 921   NORMALIZED FREE ENERGY PREDICTED BY IDOCK:   -4.51 KCAL/MOL
REMARK 922        TOTAL FREE ENERGY PREDICTED BY IDOCK:  -11.00 KCAL/MOL
REMARK 923 INTER-LIGAND FREE ENERGY PREDICTED BY IDOCK:   -9.15 KCAL/MOL
REMARK 924 INTRA-LIGAND FREE ENERGY PREDICTED BY IDOCK:   -1.85 KCAL/MOL
REMARK 927      BINDING AFFINITY PREDICTED BY RF-SCORE:    0.00 PKD
ROOT
HETATM    1  C   UNL     1      -8.190   8.942  63.651  1.00  0.00    -0.172 C  
HETATM    2  C   UNL     1      -8.545   8.672  65.109  1.00  0.00    -0.173 C  
ENDROOT
BRANCH   2   3
HETATM    3  N   UNL     1      -8.894   9.828  65.943  1.00  0.00    -0.144 NA 
BRANCH   3   4
HETATM    4  C   UNL     1      -9.090  11.093  65.212  1.00  0.00    -0.167 C  
BRANCH   4   5
HETATM    5  C   UNL     1     -10.435  11.781  65.495  1.00  0.00    -0.311 C  
BRANCH   5   6
HETATM    6  C   UNL     1     -10.276  13.295  65.637  1.00  0.00    -0.295 C  
BRANCH   6   7
HETATM    7  C   UNL     1     -11.455  13.879  66.408  1.00  0.00    -0.344 C  
BRANCH   7   8
HETATM    8  O   UNL     1     -11.284  15.294  66.557  1.00  0.00    -0.316 OA 
BRANCH   8   9
HETATM    9  C   UNL     1     -11.145  15.726  67.835  1.00  0.00    -0.326 C  
HETATM   10  O   UNL     1     -11.695  15.267  68.822  1.00  0.00    -0.340 OA 
BRANCH   9  11
HETATM   11  C   UNL     1     -10.240  16.898  67.874  1.00  0.00    -0.308 A  
HETATM   12  C   UNL     1      -8.895  16.780  68.247  1.00  0.00    -0.228 A  
HETATM   13  C   UNL     1      -8.078  17.914  68.296  1.00  0.00    -0.293 A  
HETATM   14  C   UNL     1      -9.955  19.281  67.578  1.00  0.00    -0.460 A  
HETATM   15  C   UNL     1      -8.613  19.176  67.957  1.00  0.00    -0.310 A  
HETATM   16  C   UNL     1     -10.771  18.148  67.547  1.00  0.00    -0.365 A  
BRANCH  13  17
HETATM   17  O   UNL     1      -6.756  17.897  68.668  1.00  0.00    -0.219 OA 
HETATM   18  C   UNL     1      -5.825  17.298  67.778  1.00  0.00    -0.123 C  
ENDBRANCH  13  17
BRANCH  15  19
HETATM   19  O   UNL     1      -7.749  20.239  68.033  1.00  0.00    -0.271 OA 
HETATM   20  C   UNL     1      -7.264  20.778  66.810  1.00  0.00    -0.227 C  
ENDBRANCH  15  19
ENDBRANCH   9  11
ENDBRANCH   8   9
ENDBRANCH   7   8
ENDBRANCH   6   7
ENDBRANCH   5   6
ENDBRANCH   4   5
ENDBRANCH   3   4
BRANCH   3  21
HETATM   21  C   UNL     1      -9.916   9.614  66.998  1.00  0.00    -0.206 C  
HETATM   22  C   UNL     1     -10.609   8.240  66.964  1.00  0.00    -0.328 C  
BRANCH  21  23
HETATM   23  C   UNL     1      -9.421   9.884  68.450  1.00  0.00    -0.142 C  
BRANCH  23  24
HETATM   24  C   UNL     1     -10.474  10.373  69.424  1.00  0.00    -0.261 A  
HETATM   25  C   UNL     1     -11.826  10.028  71.421  1.00  0.00    -0.447 A  
HETATM   26  C   UNL     1     -12.472  11.245  71.212  1.00  0.00    -0.336 A  
HETATM   27  C   UNL     1     -11.138  11.588  69.215  1.00  0.00    -0.305 A  
HETATM   28  C   UNL     1     -12.119  12.023  70.110  1.00  0.00    -0.377 A  
HETATM   29  C   UNL     1     -10.835   9.595  70.531  1.00  0.00    -0.371 A  
BRANCH  26  30
HETATM   30  O   UNL     1     -13.413  11.799  72.037  1.00  0.00    -0.422 OA 
HETATM   31  C   UNL     1     -13.420  13.219  72.118  1.00  0.00    -0.562 C  
ENDBRANCH  26  30
ENDBRANCH  23  24
ENDBRANCH  21  23
ENDBRANCH   3  21
ENDBRANCH   2   3
TORSDOF 14
ENDMDL
MODEL      126
REMARK 921   NORMALIZED FREE ENERGY PREDICTED BY IDOCK:   -4.51 KCAL/MOL
REMARK 922        TOTAL FREE ENERGY PREDICTED BY IDOCK:  -11.00 KCAL/MOL
REMARK 923 INTER-LIGAND FREE ENERGY PREDICTED BY IDOCK:   -9.30 KCAL/MOL
REMARK 924 INTRA-LIGAND FREE ENERGY PREDICTED BY IDOCK:   -1.70 KCAL/MOL
REMARK 927      BINDING AFFINITY PREDICTED BY RF-SCORE:    0.00 PKD
ROOT
HETATM    1  C   UNL     1      -7.158   6.954  70.059  1.00  0.00    -0.074 C  
HETATM    2  C   UNL     1      -8.164   6.663  68.952  1.00  0.00    -0.120 C  
ENDROOT
BRANCH   2   3
HETATM    3  N   UNL     1      -9.101   7.734  68.594  1.00  0.00    -0.136 NA 
BRANCH   3   4
HETATM    4  C   UNL     1      -8.975   8.243  67.216  1.00  0.00    -0.137 C  
BRANCH   4   5
HETATM    5  C   UNL     1     -10.197   9.034  66.723  1.00  0.00    -0.341 C  
BRANCH   5   6
HETATM    6  C   UNL     1      -9.955   9.646  65.343  1.00  0.00    -0.230 C  
BRANCH   6   7
HETATM    7  C   UNL     1      -9.388  11.054  65.483  1.00  0.00    -0.215 C  
BRANCH   7   8
HETATM    8  O   UNL     1     -10.120  11.775  66.483  1.00  0.00    -0.198 OA 
BRANCH   8   9
HETATM    9  C   UNL     1     -11.072  12.616  66.005  1.00  0.00    -0.287 C  
HETATM   10  O   UNL     1     -12.190  12.310  65.627  1.00  0.00    -0.605 OA 
BRANCH   9  11
HETATM   11  C   UNL     1     -10.543  13.998  65.959  1.00  0.00    -0.297 A  
HETATM   12  C   UNL     1      -9.400  14.376  66.674  1.00  0.00    -0.297 A  
HETATM   13  C   UNL     1      -8.946  15.697  66.626  1.00  0.00    -0.284 A  
HETATM   14  C   UNL     1     -10.776  16.257  65.128  1.00  0.00    -0.350 A  
HETATM   15  C   UNL     1      -9.640  16.647  65.844  1.00  0.00    -0.214 A  
HETATM   16  C   UNL     1     -11.234  14.940  65.193  1.00  0.00    -0.389 A  
BRANCH  13  17
HETATM   17  O   UNL     1      -7.847  16.161  67.308  1.00  0.00    -0.147 OA 
HETATM   18  C   UNL     1      -7.066  15.217  68.027  1.00  0.00    -0.128 C  
ENDBRANCH  13  17
BRANCH  15  19
HETATM   19  O   UNL     1      -9.134  17.922  65.850  1.00  0.00    -0.512 OA 
HETATM   20  C   UNL     1     -10.059  18.994  65.977  1.00  0.00    -0.347 C  
ENDBRANCH  15  19
ENDBRANCH   9  11
ENDBRANCH   8   9
ENDBRANCH   7   8
ENDBRANCH   6   7
ENDBRANCH   5   6
ENDBRANCH   4   5
ENDBRANCH   3   4
BRANCH   3  21
HETATM   21  C   UNL     1     -10.516   7.558  69.009  1.00  0.00    -0.208 C  
HETATM   22  C   UNL     1     -11.149   6.213  68.612  1.00  0.00    -0.378 C  
BRANCH  21  23
HETATM   23  C   UNL     1     -10.786   7.805  70.524  1.00  0.00    -0.238 C  
BRANCH  23  24
HETATM   24  C   UNL     1     -11.478   9.109  70.865  1.00  0.00    -0.357 A  
HETATM   25  C   UNL     1     -13.129  10.347  72.161  1.00  0.00    -0.427 A  
HETATM   26  C   UNL     1     -12.817  11.516  71.470  1.00  0.00    -0.380 A  
HETATM   27  C   UNL     1     -11.181  10.285  70.167  1.00  0.00    -0.387 A  
HETATM   28  C   UNL     1     -11.837  11.479  70.478  1.00  0.00    -0.363 A  
HETATM   29  C   UNL     1     -12.464   9.152  71.859  1.00  0.00    -0.459 A  
BRANCH  26  30
HETATM   30  O   UNL     1     -13.354  12.751  71.711  1.00  0.00    -0.426 OA 
HETATM   31  C   UNL     1     -12.662  13.858  71.145  1.00  0.00    -0.367 C  
ENDBRANCH  26  30
ENDBRANCH  23  24
ENDBRANCH  21  23
ENDBRANCH   3  21
ENDBRANCH   2   3
TORSDOF 14
ENDMDL
MODEL      127
REMARK 921   NORMALIZED FREE ENERGY PREDICTED BY IDOCK:   -4.51 KCAL/MOL
REMARK 922        TOTAL FREE ENERGY PREDICTED BY IDOCK:  -10.99 KCAL/MOL
REMARK 923 INTER-LIGAND FREE ENERGY PREDICTED BY IDOCK:   -9.56 KCAL/MOL
REMARK 924 INTRA-LIGAND FREE ENERGY PREDICTED BY IDOCK:   -1.43 KCAL/MOL
REMARK 927      BINDING AFFINITY PREDICTED BY RF-SCORE:    0.00 PKD
ROOT
HETATM    1  C   UNL     1     -10.069   9.854  66.034  1.00  0.00    -0.314 C  
HETATM    2  C   UNL     1     -10.815  10.111  67.338  1.00  0.00    -0.261 C  
ENDROOT
BRANCH   2   3
HETATM    3  N   UNL     1     -11.568  11.366  67.449  1.00  0.00    -0.561 NA 
BRANCH   3   4
HETATM    4  C   UNL     1     -12.000  11.720  68.814  1.00  0.00    -0.257 C  
BRANCH   4   5
HETATM    5  C   UNL     1     -11.840  10.585  69.837  1.00  0.00    -0.358 C  
BRANCH   5   6
HETATM    6  C   UNL     1     -12.430  10.963  71.196  1.00  0.00    -0.511 C  
BRANCH   6   7
HETATM    7  C   UNL     1     -13.473   9.935  71.622  1.00  0.00    -0.336 C  
BRANCH   7   8
HETATM    8  O   UNL     1     -12.835   8.854  72.314  1.00  0.00    -0.378 OA 
BRANCH   8   9
HETATM    9  C   UNL     1     -13.034   7.626  71.773  1.00  0.00    -0.328 C  
HETATM   10  O   UNL     1     -14.066   6.976  71.804  1.00  0.00    -0.353 OA 
BRANCH   9  11
HETATM   11  C   UNL     1     -11.780   7.139  71.155  1.00  0.00    -0.350 A  
HETATM   12  C   UNL     1     -11.761   6.557  69.882  1.00  0.00    -0.349 A  
HETATM   13  C   UNL     1     -10.560   6.086  69.343  1.00  0.00    -0.298 A  
HETATM   14  C   UNL     1      -9.393   6.800  71.351  1.00  0.00    -0.157 A  
HETATM   15  C   UNL     1      -9.364   6.210  70.084  1.00  0.00    -0.155 A  
HETATM   16  C   UNL     1     -10.598   7.254  71.892  1.00  0.00    -0.238 A  
BRANCH  13  17
HETATM   17  O   UNL     1     -10.450   5.485  68.112  1.00  0.00    -0.197 OA 
HETATM   18  C   UNL     1     -10.909   6.208  66.979  1.00  0.00    -0.356 C  
ENDBRANCH  13  17
BRANCH  15  19
HETATM   19  O   UNL     1      -8.229   5.722  69.488  1.00  0.00    -0.105 OA 
HETATM   20  C   UNL     1      -6.980   6.082  70.062  1.00  0.00    -0.069 C  
ENDBRANCH  15  19
ENDBRANCH   9  11
ENDBRANCH   8   9
ENDBRANCH   7   8
ENDBRANCH   6   7
ENDBRANCH   5   6
ENDBRANCH   4   5
ENDBRANCH   3   4
BRANCH   3  21
HETATM   21  C   UNL     1     -11.048  12.533  66.694  1.00  0.00    -0.283 C  
HETATM   22  C   UNL     1     -12.110  13.569  66.283  1.00  0.00    -0.476 C  
BRANCH  21  23
HETATM   23  C   UNL     1      -9.868  13.282  67.383  1.00  0.00    -0.227 C  
BRANCH  23  24
HETATM   24  C   UNL     1      -9.943  14.794  67.358  1.00  0.00    -0.223 A  
HETATM   25  C   UNL     1     -10.712  16.886  68.343  1.00  0.00    -0.368 A  
HETATM   26  C   UNL     1     -10.143  17.606  67.295  1.00  0.00    -0.331 A  
HETATM   27  C   UNL     1      -9.386  15.525  66.302  1.00  0.00    -0.355 A  
HETATM   28  C   UNL     1      -9.476  16.920  66.280  1.00  0.00    -0.298 A  
HETATM   29  C   UNL     1     -10.614  15.490  68.373  1.00  0.00    -0.252 A  
BRANCH  26  30
HETATM   30  O   UNL     1     -10.124  18.970  67.183  1.00  0.00    -0.326 OA 
HETATM   31  C   UNL     1     -10.525  19.503  65.926  1.00  0.00    -0.491 C  
ENDBRANCH  26  30
ENDBRANCH  23  24
ENDBRANCH  21  23
ENDBRANCH   3  21
ENDBRANCH   2   3
TORSDOF 14
ENDMDL
MODEL      128
REMARK 921   NORMALIZED FREE ENERGY PREDICTED BY IDOCK:   -4.48 KCAL/MOL
REMARK 922        TOTAL FREE ENERGY PREDICTED BY IDOCK:  -10.94 KCAL/MOL
REMARK 923 INTER-LIGAND FREE ENERGY PREDICTED BY IDOCK:   -9.62 KCAL/MOL
REMARK 924 INTRA-LIGAND FREE ENERGY PREDICTED BY IDOCK:   -1.32 KCAL/MOL
REMARK 927      BINDING AFFINITY PREDICTED BY RF-SCORE:    0.00 PKD
ROOT
HETATM    1  C   UNL     1     -12.235  12.252  63.600  1.00  0.00    -0.665 C  
HETATM    2  C   UNL     1     -12.667  12.731  64.981  1.00  0.00    -0.380 C  
ENDROOT
BRANCH   2   3
HETATM    3  N   UNL     1     -11.791  12.405  66.112  1.00  0.00    -0.540 NA 
BRANCH   3   4
HETATM    4  C   UNL     1     -10.614  11.582  65.777  1.00  0.00    -0.263 C  
BRANCH   4   5
HETATM    5  C   UNL     1     -10.510  10.277  66.582  1.00  0.00    -0.260 C  
BRANCH   5   6
HETATM    6  C   UNL     1      -9.666   9.230  65.855  1.00  0.00    -0.355 C  
BRANCH   6   7
HETATM    7  C   UNL     1      -9.489   7.994  66.731  1.00  0.00    -0.202 C  
BRANCH   7   8
HETATM    8  O   UNL     1     -10.771   7.447  67.062  1.00  0.00    -0.340 OA 
BRANCH   8   9
HETATM    9  C   UNL     1     -10.768   6.130  67.390  1.00  0.00    -0.322 C  
HETATM   10  O   UNL     1     -10.741   5.188  66.617  1.00  0.00    -0.279 OA 
BRANCH   9  11
HETATM   11  C   UNL     1     -10.847   5.979  68.861  1.00  0.00    -0.400 A  
HETATM   12  C   UNL     1     -11.690   6.780  69.642  1.00  0.00    -0.164 A  
HETATM   13  C   UNL     1     -11.719   6.625  71.031  1.00  0.00    -0.360 A  
HETATM   14  C   UNL     1     -10.069   4.850  70.853  1.00  0.00    -0.292 A  
HETATM   15  C   UNL     1     -10.901   5.649  71.642  1.00  0.00    -0.237 A  
HETATM   16  C   UNL     1     -10.032   5.020  69.467  1.00  0.00    -0.302 A  
BRANCH  13  17
HETATM   17  O   UNL     1     -12.499   7.377  71.875  1.00  0.00    -0.309 OA 
HETATM   18  C   UNL     1     -13.894   7.434  71.613  1.00  0.00    -0.382 C  
ENDBRANCH  13  17
BRANCH  15  19
HETATM   19  O   UNL     1     -10.984   5.560  73.008  1.00  0.00    -0.249 OA 
HETATM   20  C   UNL     1     -10.784   4.281  73.596  1.00  0.00    -0.257 C  
ENDBRANCH  15  19
ENDBRANCH   9  11
ENDBRANCH   8   9
ENDBRANCH   7   8
ENDBRANCH   6   7
ENDBRANCH   5   6
ENDBRANCH   4   5
ENDBRANCH   3   4
BRANCH   3  21
HETATM   21  C   UNL     1     -11.467  13.507  67.053  1.00  0.00    -0.340 C  
HETATM   22  C   UNL     1     -11.935  13.285  68.502  1.00  0.00    -0.340 C  
BRANCH  21  23
HETATM   23  C   UNL     1      -9.965  13.923  67.076  1.00  0.00    -0.258 C  
BRANCH  23  24
HETATM   24  C   UNL     1      -9.696  15.414  67.076  1.00  0.00    -0.231 A  
HETATM   25  C   UNL     1      -8.958  17.426  68.235  1.00  0.00    -0.268 A  
HETATM   26  C   UNL     1      -9.245  18.197  67.110  1.00  0.00    -0.256 A  
HETATM   27  C   UNL     1      -9.994  16.199  65.956  1.00  0.00    -0.373 A  
HETATM   28  C   UNL     1      -9.758  17.576  65.971  1.00  0.00    -0.160 A  
HETATM   29  C   UNL     1      -9.183  16.044  68.217  1.00  0.00    -0.191 A  
BRANCH  26  30
HETATM   30  O   UNL     1      -9.017  19.541  66.986  1.00  0.00    -0.288 OA 
HETATM   31  C   UNL     1      -9.885  20.396  67.721  1.00  0.00    -0.353 C  
ENDBRANCH  26  30
ENDBRANCH  23  24
ENDBRANCH  21  23
ENDBRANCH   3  21
ENDBRANCH   2   3
TORSDOF 14
ENDMDL
MODEL      129
REMARK 921   NORMALIZED FREE ENERGY PREDICTED BY IDOCK:   -4.47 KCAL/MOL
REMARK 922        TOTAL FREE ENERGY PREDICTED BY IDOCK:  -10.92 KCAL/MOL
REMARK 923 INTER-LIGAND FREE ENERGY PREDICTED BY IDOCK:   -9.02 KCAL/MOL
REMARK 924 INTRA-LIGAND FREE ENERGY PREDICTED BY IDOCK:   -1.91 KCAL/MOL
REMARK 927      BINDING AFFINITY PREDICTED BY RF-SCORE:    0.00 PKD
ROOT
HETATM    1  C   UNL     1     -12.334  12.708  65.110  1.00  0.00    -0.547 C  
HETATM    2  C   UNL     1     -12.060  13.296  66.489  1.00  0.00    -0.375 C  
ENDROOT
BRANCH   2   3
HETATM    3  N   UNL     1     -11.027  12.649  67.305  1.00  0.00    -0.248 NA 
BRANCH   3   4
HETATM    4  C   UNL     1      -9.638  12.989  66.943  1.00  0.00    -0.243 C  
BRANCH   4   5
HETATM    5  C   UNL     1      -8.583  12.433  67.912  1.00  0.00    -0.171 C  
BRANCH   5   6
HETATM    6  C   UNL     1      -7.167  12.596  67.358  1.00  0.00    -0.138 C  
BRANCH   6   7
HETATM    7  C   UNL     1      -6.267  13.257  68.397  1.00  0.00    -0.086 C  
BRANCH   7   8
HETATM    8  O   UNL     1      -6.182  14.665  68.140  1.00  0.00    -0.115 OA 
BRANCH   8   9
HETATM    9  C   UNL     1      -6.374  15.460  69.222  1.00  0.00    -0.128 C  
HETATM   10  O   UNL     1      -5.907  15.298  70.337  1.00  0.00    -0.139 OA 
BRANCH   9  11
HETATM   11  C   UNL     1      -7.293  16.568  68.873  1.00  0.00    -0.219 A  
HETATM   12  C   UNL     1      -6.831  17.874  68.666  1.00  0.00    -0.248 A  
HETATM   13  C   UNL     1      -7.733  18.899  68.364  1.00  0.00    -0.319 A  
HETATM   14  C   UNL     1      -9.560  17.299  68.458  1.00  0.00    -0.291 A  
HETATM   15  C   UNL     1      -9.111  18.608  68.257  1.00  0.00    -0.322 A  
HETATM   16  C   UNL     1      -8.657  16.283  68.776  1.00  0.00    -0.240 A  
BRANCH  13  17
HETATM   17  O   UNL     1      -7.373  20.209  68.164  1.00  0.00    -0.288 OA 
HETATM   18  C   UNL     1      -6.034  20.581  68.459  1.00  0.00    -0.322 C  
ENDBRANCH  13  17
BRANCH  15  19
HETATM   19  O   UNL     1      -9.931  19.667  67.961  1.00  0.00    -0.376 OA 
HETATM   20  C   UNL     1     -10.499  19.711  66.659  1.00  0.00    -0.497 C  
ENDBRANCH  15  19
ENDBRANCH   9  11
ENDBRANCH   8   9
ENDBRANCH   7   8
ENDBRANCH   6   7
ENDBRANCH   5   6
ENDBRANCH   4   5
ENDBRANCH   3   4
BRANCH   3  21
HETATM   21  C   UNL     1     -11.244  12.626  68.774  1.00  0.00    -0.280 C  
HETATM   22  C   UNL     1     -11.509  14.000  69.415  1.00  0.00    -0.343 C  
BRANCH  21  23
HETATM   23  C   UNL     1     -12.346  11.634  69.254  1.00  0.00    -0.088 C  
BRANCH  23  24
HETATM   24  C   UNL     1     -11.897  10.583  70.248  1.00  0.00    -0.418 A  
HETATM   25  C   UNL     1     -12.368   9.143  72.156  1.00  0.00    -0.424 A  
HETATM   26  C   UNL     1     -11.058   8.669  72.141  1.00  0.00    -0.364 A  
HETATM   27  C   UNL     1     -10.579  10.110  70.249  1.00  0.00    -0.324 A  
HETATM   28  C   UNL     1     -10.170   9.152  71.180  1.00  0.00    -0.384 A  
HETATM   29  C   UNL     1     -12.783  10.095  71.217  1.00  0.00    -0.509 A  
BRANCH  26  30
HETATM   30  O   UNL     1     -10.551   7.703  72.967  1.00  0.00    -0.314 OA 
HETATM   31  C   UNL     1      -9.162   7.794  73.263  1.00  0.00    -0.258 C  
ENDBRANCH  26  30
ENDBRANCH  23  24
ENDBRANCH  21  23
ENDBRANCH   3  21
ENDBRANCH   2   3
TORSDOF 14
ENDMDL
MODEL      130
REMARK 921   NORMALIZED FREE ENERGY PREDICTED BY IDOCK:   -4.47 KCAL/MOL
REMARK 922        TOTAL FREE ENERGY PREDICTED BY IDOCK:  -10.92 KCAL/MOL
REMARK 923 INTER-LIGAND FREE ENERGY PREDICTED BY IDOCK:   -9.05 KCAL/MOL
REMARK 924 INTRA-LIGAND FREE ENERGY PREDICTED BY IDOCK:   -1.87 KCAL/MOL
REMARK 927      BINDING AFFINITY PREDICTED BY RF-SCORE:    0.00 PKD
ROOT
HETATM    1  C   UNL     1     -13.157  10.780  71.777  1.00  0.00    -0.573 C  
HETATM    2  C   UNL     1     -12.776   9.312  71.919  1.00  0.00    -0.394 C  
ENDROOT
BRANCH   2   3
HETATM    3  N   UNL     1     -11.680   8.815  71.080  1.00  0.00    -0.284 NA 
BRANCH   3   4
HETATM    4  C   UNL     1     -10.790   9.854  70.530  1.00  0.00    -0.326 C  
BRANCH   4   5
HETATM    5  C   UNL     1      -9.369   9.361  70.213  1.00  0.00    -0.294 C  
BRANCH   5   6
HETATM    6  C   UNL     1      -8.879   9.882  68.862  1.00  0.00    -0.145 C  
BRANCH   6   7
HETATM    7  C   UNL     1     -10.057  10.072  67.912  1.00  0.00    -0.169 C  
BRANCH   7   8
HETATM    8  O   UNL     1     -10.033  11.398  67.369  1.00  0.00    -0.184 OA 
BRANCH   8   9
HETATM    9  C   UNL     1     -11.136  12.145  67.625  1.00  0.00    -0.268 C  
HETATM   10  O   UNL     1     -12.273  11.733  67.784  1.00  0.00    -0.536 OA 
BRANCH   9  11
HETATM   11  C   UNL     1     -10.777  13.581  67.645  1.00  0.00    -0.257 A  
HETATM   12  C   UNL     1      -9.586  14.053  67.079  1.00  0.00    -0.253 A  
HETATM   13  C   UNL     1      -9.269  15.413  67.140  1.00  0.00    -0.213 A  
HETATM   14  C   UNL     1     -11.351  15.831  68.322  1.00  0.00    -0.354 A  
HETATM   15  C   UNL     1     -10.162  16.311  67.767  1.00  0.00    -0.270 A  
HETATM   16  C   UNL     1     -11.655  14.469  68.273  1.00  0.00    -0.358 A  
BRANCH  13  17
HETATM   17  O   UNL     1      -8.118  15.961  66.629  1.00  0.00    -0.247 OA 
HETATM   18  C   UNL     1      -6.904  15.723  67.329  1.00  0.00    -0.185 C  
ENDBRANCH  13  17
BRANCH  15  19
HETATM   19  O   UNL     1      -9.778  17.628  67.788  1.00  0.00    -0.267 OA 
HETATM   20  C   UNL     1     -10.479  18.529  66.941  1.00  0.00    -0.396 C  
ENDBRANCH  15  19
ENDBRANCH   9  11
ENDBRANCH   8   9
ENDBRANCH   7   8
ENDBRANCH   6   7
ENDBRANCH   5   6
ENDBRANCH   4   5
ENDBRANCH   3   4
BRANCH   3  21
HETATM   21  C   UNL     1     -10.935   7.629  71.575  1.00  0.00    -0.233 C  
HETATM   22  C   UNL     1     -10.834   7.517  73.106  1.00  0.00    -0.448 C  
BRANCH  21  23
HETATM   23  C   UNL     1     -11.432   6.265  71.009  1.00  0.00    -0.370 C  
BRANCH  23  24
HETATM   24  C   UNL     1     -10.921   5.899  69.631  1.00  0.00    -0.447 A  
HETATM   25  C   UNL     1      -9.500   4.530  68.201  1.00  0.00    -0.201 A  
HETATM   26  C   UNL     1      -9.916   5.244  67.079  1.00  0.00    -0.189 A  
HETATM   27  C   UNL     1     -11.322   6.619  68.500  1.00  0.00    -0.128 A  
HETATM   28  C   UNL     1     -10.832   6.284  67.235  1.00  0.00    -0.457 A  
HETATM   29  C   UNL     1      -9.999   4.856  69.468  1.00  0.00    -0.295 A  
BRANCH  26  30
HETATM   30  O   UNL     1      -9.545   4.984  65.788  1.00  0.00    -0.159 OA 
HETATM   31  C   UNL     1      -8.477   5.769  65.271  1.00  0.00    -0.148 C  
ENDBRANCH  26  30
ENDBRANCH  23  24
ENDBRANCH  21  23
ENDBRANCH   3  21
ENDBRANCH   2   3
TORSDOF 14
ENDMDL
MODEL      131
REMARK 921   NORMALIZED FREE ENERGY PREDICTED BY IDOCK:   -4.45 KCAL/MOL
REMARK 922        TOTAL FREE ENERGY PREDICTED BY IDOCK:  -10.88 KCAL/MOL
REMARK 923 INTER-LIGAND FREE ENERGY PREDICTED BY IDOCK:   -9.06 KCAL/MOL
REMARK 924 INTRA-LIGAND FREE ENERGY PREDICTED BY IDOCK:   -1.82 KCAL/MOL
REMARK 927      BINDING AFFINITY PREDICTED BY RF-SCORE:    0.00 PKD
ROOT
HETATM    1  C   UNL     1     -11.910  15.841  69.090  1.00  0.00    -0.367 C  
HETATM    2  C   UNL     1     -10.941  14.676  68.927  1.00  0.00    -0.253 C  
ENDROOT
BRANCH   2   3
HETATM    3  N   UNL     1     -10.199  14.587  67.664  1.00  0.00    -0.225 NA 
BRANCH   3   4
HETATM    4  C   UNL     1     -10.868  15.198  66.500  1.00  0.00    -0.317 C  
BRANCH   4   5
HETATM    5  C   UNL     1     -10.755  14.374  65.207  1.00  0.00    -0.387 C  
BRANCH   5   6
HETATM    6  C   UNL     1     -11.925  13.401  65.053  1.00  0.00    -0.405 C  
BRANCH   6   7
HETATM    7  C   UNL     1     -11.407  11.976  64.891  1.00  0.00    -0.310 C  
BRANCH   7   8
HETATM    8  O   UNL     1     -10.458  11.685  65.925  1.00  0.00    -0.239 OA 
BRANCH   8   9
HETATM    9  C   UNL     1     -10.284  10.366  66.192  1.00  0.00    -0.223 C  
HETATM   10  O   UNL     1      -9.958   9.499  65.398  1.00  0.00    -0.284 OA 
BRANCH   9  11
HETATM   11  C   UNL     1     -10.597  10.096  67.614  1.00  0.00    -0.316 A  
HETATM   12  C   UNL     1     -10.375   8.841  68.194  1.00  0.00    -0.266 A  
HETATM   13  C   UNL     1     -10.707   8.618  69.534  1.00  0.00    -0.182 A  
HETATM   14  C   UNL     1     -11.468  10.919  69.715  1.00  0.00    -0.390 A  
HETATM   15  C   UNL     1     -11.258   9.668  70.302  1.00  0.00    -0.271 A  
HETATM   16  C   UNL     1     -11.150  11.132  68.372  1.00  0.00    -0.303 A  
BRANCH  13  17
HETATM   17  O   UNL     1     -10.541   7.417  70.180  1.00  0.00    -0.219 OA 
HETATM   18  C   UNL     1     -11.339   6.321  69.755  1.00  0.00    -0.436 C  
ENDBRANCH  13  17
BRANCH  15  19
HETATM   19  O   UNL     1     -11.559   9.368  71.607  1.00  0.00    -0.362 OA 
HETATM   20  C   UNL     1     -12.932   9.342  71.973  1.00  0.00    -0.425 C  
ENDBRANCH  15  19
ENDBRANCH   9  11
ENDBRANCH   8   9
ENDBRANCH   7   8
ENDBRANCH   6   7
ENDBRANCH   5   6
ENDBRANCH   4   5
ENDBRANCH   3   4
BRANCH   3  21
HETATM   21  C   UNL     1      -8.747  14.892  67.712  1.00  0.00    -0.167 C  
HETATM   22  C   UNL     1      -7.825  13.737  67.285  1.00  0.00    -0.115 C  
BRANCH  21  23
HETATM   23  C   UNL     1      -8.324  16.176  66.936  1.00  0.00    -0.271 C  
BRANCH  23  24
HETATM   24  C   UNL     1      -7.829  17.326  67.788  1.00  0.00    -0.194 A  
HETATM   25  C   UNL     1      -7.979  19.657  68.482  1.00  0.00    -0.350 A  
HETATM   26  C   UNL     1      -6.881  19.492  69.324  1.00  0.00    -0.346 A  
HETATM   27  C   UNL     1      -6.718  17.174  68.626  1.00  0.00    -0.189 A  
HETATM   28  C   UNL     1      -6.258  18.246  69.396  1.00  0.00    -0.261 A  
HETATM   29  C   UNL     1      -8.448  18.581  67.719  1.00  0.00    -0.285 A  
BRANCH  26  30
HETATM   30  O   UNL     1      -6.366  20.448  70.157  1.00  0.00    -0.367 OA 
HETATM   31  C   UNL     1      -5.689  19.973  71.315  1.00  0.00    -0.336 C  
ENDBRANCH  26  30
ENDBRANCH  23  24
ENDBRANCH  21  23
ENDBRANCH   3  21
ENDBRANCH   2   3
TORSDOF 14
ENDMDL
MODEL      132
REMARK 921   NORMALIZED FREE ENERGY PREDICTED BY IDOCK:   -4.45 KCAL/MOL
REMARK 922        TOTAL FREE ENERGY PREDICTED BY IDOCK:  -10.88 KCAL/MOL
REMARK 923 INTER-LIGAND FREE ENERGY PREDICTED BY IDOCK:   -9.35 KCAL/MOL
REMARK 924 INTRA-LIGAND FREE ENERGY PREDICTED BY IDOCK:   -1.53 KCAL/MOL
REMARK 927      BINDING AFFINITY PREDICTED BY RF-SCORE:    0.00 PKD
ROOT
HETATM    1  C   UNL     1     -13.268  11.240  71.899  1.00  0.00    -0.491 C  
HETATM    2  C   UNL     1     -13.088   9.776  71.512  1.00  0.00    -0.411 C  
ENDROOT
BRANCH   2   3
HETATM    3  N   UNL     1     -12.010   9.455  70.570  1.00  0.00    -0.164 NA 
BRANCH   3   4
HETATM    4  C   UNL     1     -11.235  10.613  70.086  1.00  0.00    -0.302 C  
BRANCH   4   5
HETATM    5  C   UNL     1     -11.796  11.255  68.808  1.00  0.00    -0.396 C  
BRANCH   5   6
HETATM    6  C   UNL     1     -11.664  12.778  68.837  1.00  0.00    -0.370 C  
BRANCH   6   7
HETATM    7  C   UNL     1     -12.061  13.367  67.487  1.00  0.00    -0.279 C  
BRANCH   7   8
HETATM    8  O   UNL     1     -12.237  12.314  66.531  1.00  0.00    -0.588 OA 
BRANCH   8   9
HETATM    9  C   UNL     1     -11.942  12.646  65.249  1.00  0.00    -0.439 C  
HETATM   10  O   UNL     1     -12.546  13.437  64.545  1.00  0.00    -0.601 OA 
BRANCH   9  11
HETATM   11  C   UNL     1     -10.775  11.862  64.783  1.00  0.00    -0.356 A  
HETATM   12  C   UNL     1      -9.747  11.479  65.654  1.00  0.00    -0.261 A  
HETATM   13  C   UNL     1      -8.648  10.762  65.171  1.00  0.00    -0.128 A  
HETATM   14  C   UNL     1      -9.620  10.797  62.944  1.00  0.00    -0.366 A  
HETATM   15  C   UNL     1      -8.585  10.416  63.803  1.00  0.00    -0.177 A  
HETATM   16  C   UNL     1     -10.708  11.528  63.428  1.00  0.00    -0.444 A  
BRANCH  13  17
HETATM   17  O   UNL     1      -7.588  10.361  65.947  1.00  0.00    -0.135 OA 
HETATM   18  C   UNL     1      -7.826  10.134  67.329  1.00  0.00    -0.103 C  
ENDBRANCH  13  17
BRANCH  15  19
HETATM   19  O   UNL     1      -7.475   9.715  63.407  1.00  0.00    -0.110 OA 
HETATM   20  C   UNL     1      -6.683  10.274  62.368  1.00  0.00    -0.129 C  
ENDBRANCH  15  19
ENDBRANCH   9  11
ENDBRANCH   8   9
ENDBRANCH   7   8
ENDBRANCH   6   7
ENDBRANCH   5   6
ENDBRANCH   4   5
ENDBRANCH   3   4
BRANCH   3  21
HETATM   21  C   UNL     1     -11.150   8.291  70.900  1.00  0.00    -0.261 C  
HETATM   22  C   UNL     1     -10.651   8.242  72.355  1.00  0.00    -0.408 C  
BRANCH  21  23
HETATM   23  C   UNL     1     -11.763   6.905  70.540  1.00  0.00    -0.401 C  
BRANCH  23  24
HETATM   24  C   UNL     1     -10.943   6.047  69.599  1.00  0.00    -0.470 A  
HETATM   25  C   UNL     1     -10.243   5.471  67.337  1.00  0.00    -0.253 A  
HETATM   26  C   UNL     1      -9.468   4.422  67.828  1.00  0.00    -0.163 A  
HETATM   27  C   UNL     1     -10.172   4.983  70.081  1.00  0.00    -0.329 A  
HETATM   28  C   UNL     1      -9.432   4.187  69.203  1.00  0.00    -0.248 A  
HETATM   29  C   UNL     1     -10.976   6.276  68.217  1.00  0.00    -0.408 A  
BRANCH  26  30
HETATM   30  O   UNL     1      -8.667   3.604  67.078  1.00  0.00    -0.105 OA 
HETATM   31  C   UNL     1      -7.595   2.971  67.767  1.00  0.00    -0.057 C  
ENDBRANCH  26  30
ENDBRANCH  23  24
ENDBRANCH  21  23
ENDBRANCH   3  21
ENDBRANCH   2   3
TORSDOF 14
ENDMDL
MODEL      133
REMARK 921   NORMALIZED FREE ENERGY PREDICTED BY IDOCK:   -4.45 KCAL/MOL
REMARK 922        TOTAL FREE ENERGY PREDICTED BY IDOCK:  -10.87 KCAL/MOL
REMARK 923 INTER-LIGAND FREE ENERGY PREDICTED BY IDOCK:   -8.16 KCAL/MOL
REMARK 924 INTRA-LIGAND FREE ENERGY PREDICTED BY IDOCK:   -2.72 KCAL/MOL
REMARK 927      BINDING AFFINITY PREDICTED BY RF-SCORE:    0.00 PKD
ROOT
HETATM    1  C   UNL     1     -12.017  14.714  64.445  1.00  0.00    -0.454 C  
HETATM    2  C   UNL     1     -12.601  14.010  65.665  1.00  0.00    -0.512 C  
ENDROOT
BRANCH   2   3
HETATM    3  N   UNL     1     -11.700  13.759  66.795  1.00  0.00    -0.369 NA 
BRANCH   3   4
HETATM    4  C   UNL     1     -11.842  14.691  67.929  1.00  0.00    -0.320 C  
BRANCH   4   5
HETATM    5  C   UNL     1     -10.848  15.862  67.908  1.00  0.00    -0.327 C  
BRANCH   5   6
HETATM    6  C   UNL     1      -9.460  15.434  68.387  1.00  0.00    -0.200 C  
BRANCH   6   7
HETATM    7  C   UNL     1      -8.533  15.223  67.195  1.00  0.00    -0.209 C  
BRANCH   7   8
HETATM    8  O   UNL     1      -8.270  13.824  67.027  1.00  0.00    -0.144 OA 
BRANCH   8   9
HETATM    9  C   UNL     1      -7.050  13.412  67.456  1.00  0.00    -0.144 C  
HETATM   10  O   UNL     1      -6.038  14.088  67.528  1.00  0.00    -0.323 OA 
BRANCH   9  11
HETATM   11  C   UNL     1      -7.098  11.972  67.799  1.00  0.00    -0.108 A  
HETATM   12  C   UNL     1      -7.239  10.984  66.817  1.00  0.00    -0.139 A  
HETATM   13  C   UNL     1      -7.306   9.636  67.181  1.00  0.00    -0.087 A  
HETATM   14  C   UNL     1      -7.073  10.270  69.516  1.00  0.00    -0.107 A  
HETATM   15  C   UNL     1      -7.220   9.275  68.545  1.00  0.00    -0.072 A  
HETATM   16  C   UNL     1      -7.023  11.616  69.148  1.00  0.00    -0.105 A  
BRANCH  13  17
HETATM   17  O   UNL     1      -7.461   8.602  66.290  1.00  0.00    -0.087 OA 
HETATM   18  C   UNL     1      -8.477   8.725  65.304  1.00  0.00    -0.174 C  
ENDBRANCH  13  17
BRANCH  15  19
HETATM   19  O   UNL     1      -7.297   7.934  68.821  1.00  0.00    -0.082 OA 
HETATM   20  C   UNL     1      -8.558   7.419  69.228  1.00  0.00    -0.137 C  
ENDBRANCH  15  19
ENDBRANCH   9  11
ENDBRANCH   8   9
ENDBRANCH   7   8
ENDBRANCH   6   7
ENDBRANCH   5   6
ENDBRANCH   4   5
ENDBRANCH   3   4
BRANCH   3  21
HETATM   21  C   UNL     1     -11.543  12.349  67.232  1.00  0.00    -0.365 C  
HETATM   22  C   UNL     1     -10.989  11.393  66.160  1.00  0.00    -0.294 C  
BRANCH  21  23
HETATM   23  C   UNL     1     -10.716  12.160  68.539  1.00  0.00    -0.257 C  
BRANCH  23  24
HETATM   24  C   UNL     1     -11.363  11.305  69.609  1.00  0.00    -0.359 A  
HETATM   25  C   UNL     1     -12.959  11.056  71.433  1.00  0.00    -0.517 A  
HETATM   26  C   UNL     1     -12.536   9.745  71.644  1.00  0.00    -0.416 A  
HETATM   27  C   UNL     1     -10.935   9.992  69.837  1.00  0.00    -0.339 A  
HETATM   28  C   UNL     1     -11.527   9.217  70.838  1.00  0.00    -0.357 A  
HETATM   29  C   UNL     1     -12.375  11.830  70.423  1.00  0.00    -0.362 A  
BRANCH  26  30
HETATM   30  O   UNL     1     -13.066   8.874  72.557  1.00  0.00    -0.422 OA 
HETATM   31  C   UNL     1     -14.401   8.446  72.316  1.00  0.00    -0.371 C  
ENDBRANCH  26  30
ENDBRANCH  23  24
ENDBRANCH  21  23
ENDBRANCH   3  21
ENDBRANCH   2   3
TORSDOF 14
ENDMDL
MODEL      134
REMARK 921   NORMALIZED FREE ENERGY PREDICTED BY IDOCK:   -4.43 KCAL/MOL
REMARK 922        TOTAL FREE ENERGY PREDICTED BY IDOCK:  -10.84 KCAL/MOL
REMARK 923 INTER-LIGAND FREE ENERGY PREDICTED BY IDOCK:   -7.57 KCAL/MOL
REMARK 924 INTRA-LIGAND FREE ENERGY PREDICTED BY IDOCK:   -3.27 KCAL/MOL
REMARK 927      BINDING AFFINITY PREDICTED BY RF-SCORE:    0.00 PKD
ROOT
HETATM    1  C   UNL     1     -11.115  16.373  68.734  1.00  0.00    -0.337 C  
HETATM    2  C   UNL     1     -10.656  14.924  68.634  1.00  0.00    -0.251 C  
ENDROOT
BRANCH   2   3
HETATM    3  N   UNL     1     -10.213  14.445  67.320  1.00  0.00    -0.251 NA 
BRANCH   3   4
HETATM    4  C   UNL     1     -10.909  15.045  66.167  1.00  0.00    -0.329 C  
BRANCH   4   5
HETATM    5  C   UNL     1     -10.771  14.244  64.863  1.00  0.00    -0.448 C  
BRANCH   5   6
HETATM    6  C   UNL     1     -11.972  13.326  64.634  1.00  0.00    -0.440 C  
BRANCH   6   7
HETATM    7  C   UNL     1     -11.536  11.866  64.678  1.00  0.00    -0.279 C  
BRANCH   7   8
HETATM    8  O   UNL     1     -10.604  11.670  65.750  1.00  0.00    -0.256 OA 
BRANCH   8   9
HETATM    9  C   UNL     1     -10.373  10.376  66.083  1.00  0.00    -0.200 C  
HETATM   10  O   UNL     1     -10.014   9.484  65.332  1.00  0.00    -0.284 OA 
BRANCH   9  11
HETATM   11  C   UNL     1     -10.665  10.167  67.520  1.00  0.00    -0.347 A  
HETATM   12  C   UNL     1     -10.449   8.933  68.145  1.00  0.00    -0.254 A  
HETATM   13  C   UNL     1     -10.762   8.767  69.498  1.00  0.00    -0.188 A  
HETATM   14  C   UNL     1     -11.491  11.083  69.600  1.00  0.00    -0.375 A  
HETATM   15  C   UNL     1     -11.286   9.854  70.233  1.00  0.00    -0.291 A  
HETATM   16  C   UNL     1     -11.192  11.239  68.244  1.00  0.00    -0.331 A  
BRANCH  13  17
HETATM   17  O   UNL     1     -10.602   7.590  70.189  1.00  0.00    -0.224 OA 
HETATM   18  C   UNL     1     -11.292   6.444  69.713  1.00  0.00    -0.427 C  
ENDBRANCH  13  17
BRANCH  15  19
HETATM   19  O   UNL     1     -11.570   9.610  71.553  1.00  0.00    -0.370 OA 
HETATM   20  C   UNL     1     -12.935   9.642  71.946  1.00  0.00    -0.435 C  
ENDBRANCH  15  19
ENDBRANCH   9  11
ENDBRANCH   8   9
ENDBRANCH   7   8
ENDBRANCH   6   7
ENDBRANCH   5   6
ENDBRANCH   4   5
ENDBRANCH   3   4
BRANCH   3  21
HETATM   21  C   UNL     1      -8.749  14.327  67.103  1.00  0.00    -0.227 C  
HETATM   22  C   UNL     1      -8.032  15.646  66.767  1.00  0.00    -0.246 C  
BRANCH  21  23
HETATM   23  C   UNL     1      -7.974  13.621  68.257  1.00  0.00    -0.150 C  
BRANCH  23  24
HETATM   24  C   UNL     1      -7.587  12.179  68.004  1.00  0.00    -0.123 A  
HETATM   25  C   UNL     1      -7.243   9.910  68.823  1.00  0.00    -0.076 A  
HETATM   26  C   UNL     1      -6.813   9.504  67.562  1.00  0.00    -0.083 A  
HETATM   27  C   UNL     1      -7.140  11.765  66.744  1.00  0.00    -0.047 A  
HETATM   28  C   UNL     1      -6.769  10.435  66.524  1.00  0.00    -0.099 A  
HETATM   29  C   UNL     1      -7.626  11.240  69.042  1.00  0.00    -0.106 A  
BRANCH  26  30
HETATM   30  O   UNL     1      -6.467   8.227  67.212  1.00  0.00    -0.055 OA 
HETATM   31  C   UNL     1      -6.477   7.933  65.819  1.00  0.00    -0.042 C  
ENDBRANCH  26  30
ENDBRANCH  23  24
ENDBRANCH  21  23
ENDBRANCH   3  21
ENDBRANCH   2   3
TORSDOF 14
ENDMDL
MODEL      135
REMARK 921   NORMALIZED FREE ENERGY PREDICTED BY IDOCK:   -4.40 KCAL/MOL
REMARK 922        TOTAL FREE ENERGY PREDICTED BY IDOCK:  -10.79 KCAL/MOL
REMARK 923 INTER-LIGAND FREE ENERGY PREDICTED BY IDOCK:   -8.64 KCAL/MOL
REMARK 924 INTRA-LIGAND FREE ENERGY PREDICTED BY IDOCK:   -2.15 KCAL/MOL
REMARK 927      BINDING AFFINITY PREDICTED BY RF-SCORE:    0.00 PKD
ROOT
HETATM    1  C   UNL     1     -12.178  14.044  65.389  1.00  0.00    -0.453 C  
HETATM    2  C   UNL     1     -12.441  13.343  66.716  1.00  0.00    -0.104 C  
ENDROOT
BRANCH   2   3
HETATM    3  N   UNL     1     -11.578  13.697  67.849  1.00  0.00    -0.320 NA 
BRANCH   3   4
HETATM    4  C   UNL     1     -12.285  14.179  69.050  1.00  0.00    -0.239 C  
BRANCH   4   5
HETATM    5  C   UNL     1     -11.875  13.467  70.348  1.00  0.00    -0.293 C  
BRANCH   5   6
HETATM    6  C   UNL     1     -13.016  13.447  71.366  1.00  0.00    -0.412 C  
BRANCH   6   7
HETATM    7  C   UNL     1     -13.238  12.030  71.882  1.00  0.00    -0.364 C  
BRANCH   7   8
HETATM    8  O   UNL     1     -12.740  11.083  70.928  1.00  0.00    -0.354 OA 
BRANCH   8   9
HETATM    9  C   UNL     1     -12.939   9.781  71.252  1.00  0.00    -0.380 C  
HETATM   10  O   UNL     1     -14.002   9.182  71.242  1.00  0.00    -0.302 OA 
BRANCH   9  11
HETATM   11  C   UNL     1     -11.659   9.167  71.677  1.00  0.00    -0.449 A  
HETATM   12  C   UNL     1     -10.430   9.585  71.152  1.00  0.00    -0.358 A  
HETATM   13  C   UNL     1      -9.245   8.964  71.559  1.00  0.00    -0.252 A  
HETATM   14  C   UNL     1     -10.526   7.517  73.033  1.00  0.00    -0.396 A  
HETATM   15  C   UNL     1      -9.294   7.921  72.510  1.00  0.00    -0.197 A  
HETATM   16  C   UNL     1     -11.708   8.129  72.610  1.00  0.00    -0.419 A  
BRANCH  13  17
HETATM   17  O   UNL     1      -7.999   9.294  71.085  1.00  0.00    -0.292 OA 
HETATM   18  C   UNL     1      -7.828   9.387  69.678  1.00  0.00    -0.105 C  
ENDBRANCH  13  17
BRANCH  15  19
HETATM   19  O   UNL     1      -8.090   7.361  72.855  1.00  0.00    -0.102 OA 
HETATM   20  C   UNL     1      -8.034   6.623  74.069  1.00  0.00    -0.114 C  
ENDBRANCH  15  19
ENDBRANCH   9  11
ENDBRANCH   8   9
ENDBRANCH   7   8
ENDBRANCH   6   7
ENDBRANCH   5   6
ENDBRANCH   4   5
ENDBRANCH   3   4
BRANCH   3  21
HETATM   21  C   UNL     1     -10.474  12.760  68.175  1.00  0.00    -0.236 C  
HETATM   22  C   UNL     1     -10.708  11.302  67.740  1.00  0.00    -0.265 C  
BRANCH  21  23
HETATM   23  C   UNL     1      -9.068  13.207  67.672  1.00  0.00    -0.201 C  
BRANCH  23  24
HETATM   24  C   UNL     1      -8.813  14.700  67.677  1.00  0.00    -0.184 A  
HETATM   25  C   UNL     1      -8.527  16.797  66.469  1.00  0.00    -0.318 A  
HETATM   26  C   UNL     1      -8.280  17.469  67.665  1.00  0.00    -0.215 A  
HETATM   27  C   UNL     1      -8.550  15.381  68.871  1.00  0.00    -0.207 A  
HETATM   28  C   UNL     1      -8.299  16.756  68.864  1.00  0.00    -0.222 A  
HETATM   29  C   UNL     1      -8.790  15.421  66.476  1.00  0.00    -0.347 A  
BRANCH  26  30
HETATM   30  O   UNL     1      -8.066  18.814  67.792  1.00  0.00    -0.249 OA 
HETATM   31  C   UNL     1      -8.035  19.563  66.583  1.00  0.00    -0.293 C  
ENDBRANCH  26  30
ENDBRANCH  23  24
ENDBRANCH  21  23
ENDBRANCH   3  21
ENDBRANCH   2   3
TORSDOF 14
ENDMDL
MODEL      136
REMARK 921   NORMALIZED FREE ENERGY PREDICTED BY IDOCK:   -4.40 KCAL/MOL
REMARK 922        TOTAL FREE ENERGY PREDICTED BY IDOCK:  -10.79 KCAL/MOL
REMARK 923 INTER-LIGAND FREE ENERGY PREDICTED BY IDOCK:  -10.03 KCAL/MOL
REMARK 924 INTRA-LIGAND FREE ENERGY PREDICTED BY IDOCK:   -0.76 KCAL/MOL
REMARK 927      BINDING AFFINITY PREDICTED BY RF-SCORE:    0.00 PKD
ROOT
HETATM    1  C   UNL     1     -10.733  13.248  64.526  1.00  0.00    -0.428 C  
HETATM    2  C   UNL     1     -10.434  14.575  65.214  1.00  0.00    -0.390 C  
ENDROOT
BRANCH   2   3
HETATM    3  N   UNL     1     -11.159  14.870  66.455  1.00  0.00    -0.341 NA 
BRANCH   3   4
HETATM    4  C   UNL     1     -12.078  13.810  66.911  1.00  0.00    -0.413 C  
BRANCH   4   5
HETATM    5  C   UNL     1     -11.894  13.409  68.383  1.00  0.00    -0.401 C  
BRANCH   5   6
HETATM    6  C   UNL     1     -11.280  12.015  68.515  1.00  0.00    -0.306 C  
BRANCH   6   7
HETATM    7  C   UNL     1     -12.209  11.104  69.312  1.00  0.00    -0.226 C  
BRANCH   7   8
HETATM    8  O   UNL     1     -11.517  10.587  70.456  1.00  0.00    -0.313 OA 
BRANCH   8   9
HETATM    9  C   UNL     1     -12.312  10.056  71.418  1.00  0.00    -0.415 C  
HETATM   10  O   UNL     1     -13.298  10.573  71.916  1.00  0.00    -0.418 OA 
BRANCH   9  11
HETATM   11  C   UNL     1     -11.785   8.735  71.832  1.00  0.00    -0.429 A  
HETATM   12  C   UNL     1     -10.489   8.584  72.341  1.00  0.00    -0.367 A  
HETATM   13  C   UNL     1     -10.017   7.317  72.698  1.00  0.00    -0.184 A  
HETATM   14  C   UNL     1     -12.153   6.355  72.049  1.00  0.00    -0.353 A  
HETATM   15  C   UNL     1     -10.858   6.192  72.551  1.00  0.00    -0.240 A  
HETATM   16  C   UNL     1     -12.613   7.620  71.679  1.00  0.00    -0.365 A  
BRANCH  13  17
HETATM   17  O   UNL     1      -8.757   7.072  73.187  1.00  0.00    -0.122 OA 
HETATM   18  C   UNL     1      -8.255   7.943  74.190  1.00  0.00    -0.251 C  
ENDBRANCH  13  17
BRANCH  15  19
HETATM   19  O   UNL     1     -10.322   4.984  72.920  1.00  0.00    -0.176 OA 
HETATM   20  C   UNL     1      -9.717   4.197  71.902  1.00  0.00    -0.168 C  
ENDBRANCH  15  19
ENDBRANCH   9  11
ENDBRANCH   8   9
ENDBRANCH   7   8
ENDBRANCH   6   7
ENDBRANCH   5   6
ENDBRANCH   4   5
ENDBRANCH   3   4
BRANCH   3  21
HETATM   21  C   UNL     1     -10.378  15.465  67.568  1.00  0.00    -0.264 C  
HETATM   22  C   UNL     1      -8.864  15.574  67.315  1.00  0.00    -0.218 C  
BRANCH  21  23
HETATM   23  C   UNL     1     -10.898  16.847  68.064  1.00  0.00    -0.338 C  
BRANCH  23  24
HETATM   24  C   UNL     1      -9.995  18.030  67.782  1.00  0.00    -0.329 A  
HETATM   25  C   UNL     1      -9.269  19.828  66.306  1.00  0.00    -0.461 A  
HETATM   26  C   UNL     1      -8.282  20.198  67.217  1.00  0.00    -0.336 A  
HETATM   27  C   UNL     1      -8.992  18.401  68.685  1.00  0.00    -0.308 A  
HETATM   28  C   UNL     1      -8.153  19.483  68.408  1.00  0.00    -0.377 A  
HETATM   29  C   UNL     1     -10.119  18.751  66.587  1.00  0.00    -0.418 A  
BRANCH  26  30
HETATM   30  O   UNL     1      -7.432  21.262  67.083  1.00  0.00    -0.416 OA 
HETATM   31  C   UNL     1      -6.283  21.049  66.271  1.00  0.00    -0.261 C  
ENDBRANCH  26  30
ENDBRANCH  23  24
ENDBRANCH  21  23
ENDBRANCH   3  21
ENDBRANCH   2   3
TORSDOF 14
ENDMDL
MODEL      137
REMARK 921   NORMALIZED FREE ENERGY PREDICTED BY IDOCK:   -4.38 KCAL/MOL
REMARK 922        TOTAL FREE ENERGY PREDICTED BY IDOCK:  -10.76 KCAL/MOL
REMARK 923 INTER-LIGAND FREE ENERGY PREDICTED BY IDOCK:   -8.68 KCAL/MOL
REMARK 924 INTRA-LIGAND FREE ENERGY PREDICTED BY IDOCK:   -2.08 KCAL/MOL
REMARK 927      BINDING AFFINITY PREDICTED BY RF-SCORE:    0.00 PKD
ROOT
HETATM    1  C   UNL     1     -13.992   9.216  72.234  1.00  0.00    -0.489 C  
HETATM    2  C   UNL     1     -13.234   7.961  71.820  1.00  0.00    -0.329 C  
ENDROOT
BRANCH   2   3
HETATM    3  N   UNL     1     -11.960   8.144  71.116  1.00  0.00    -0.290 NA 
BRANCH   3   4
HETATM    4  C   UNL     1     -11.222   9.372  71.464  1.00  0.00    -0.386 C  
BRANCH   4   5
HETATM    5  C   UNL     1     -10.696  10.155  70.251  1.00  0.00    -0.352 C  
BRANCH   5   6
HETATM    6  C   UNL     1     -11.784  11.031  69.629  1.00  0.00    -0.401 C  
BRANCH   6   7
HETATM    7  C   UNL     1     -11.656  11.031  68.110  1.00  0.00    -0.272 C  
BRANCH   7   8
HETATM    8  O   UNL     1     -10.704  12.023  67.703  1.00  0.00    -0.207 OA 
BRANCH   8   9
HETATM    9  C   UNL     1     -11.234  13.122  67.111  1.00  0.00    -0.294 C  
HETATM   10  O   UNL     1     -12.151  13.145  66.308  1.00  0.00    -0.403 OA 
BRANCH   9  11
HETATM   11  C   UNL     1     -10.501  14.332  67.551  1.00  0.00    -0.252 A  
HETATM   12  C   UNL     1     -11.003  15.620  67.331  1.00  0.00    -0.293 A  
HETATM   13  C   UNL     1     -10.269  16.739  67.737  1.00  0.00    -0.303 A  
HETATM   14  C   UNL     1      -8.535  15.271  68.600  1.00  0.00    -0.168 A  
HETATM   15  C   UNL     1      -9.023  16.562  68.380  1.00  0.00    -0.219 A  
HETATM   16  C   UNL     1      -9.264  14.157  68.178  1.00  0.00    -0.194 A  
BRANCH  13  17
HETATM   17  O   UNL     1     -10.673  18.038  67.547  1.00  0.00    -0.404 OA 
HETATM   18  C   UNL     1     -10.451  18.621  66.271  1.00  0.00    -0.424 C  
ENDBRANCH  13  17
BRANCH  15  19
HETATM   19  O   UNL     1      -8.363  17.708  68.745  1.00  0.00    -0.279 OA 
HETATM   20  C   UNL     1      -6.946  17.648  68.837  1.00  0.00    -0.251 C  
ENDBRANCH  15  19
ENDBRANCH   9  11
ENDBRANCH   8   9
ENDBRANCH   7   8
ENDBRANCH   6   7
ENDBRANCH   5   6
ENDBRANCH   4   5
ENDBRANCH   3   4
BRANCH   3  21
HETATM   21  C   UNL     1     -11.073   6.958  71.007  1.00  0.00    -0.266 C  
HETATM   22  C   UNL     1     -11.356   5.838  72.024  1.00  0.00    -0.289 C  
BRANCH  21  23
HETATM   23  C   UNL     1     -11.000   6.327  69.583  1.00  0.00    -0.440 C  
BRANCH  23  24
HETATM   24  C   UNL     1     -10.164   7.082  68.572  1.00  0.00    -0.183 A  
HETATM   25  C   UNL     1      -8.033   8.055  67.899  1.00  0.00    -0.128 A  
HETATM   26  C   UNL     1      -8.607   8.536  66.724  1.00  0.00    -0.114 A  
HETATM   27  C   UNL     1     -10.734   7.580  67.395  1.00  0.00    -0.331 A  
HETATM   28  C   UNL     1      -9.957   8.290  66.475  1.00  0.00    -0.320 A  
HETATM   29  C   UNL     1      -8.808   7.334  68.817  1.00  0.00    -0.127 A  
BRANCH  26  30
HETATM   30  O   UNL     1      -7.944   9.202  65.729  1.00  0.00    -0.100 OA 
HETATM   31  C   UNL     1      -8.500  10.450  65.330  1.00  0.00    -0.168 C  
ENDBRANCH  26  30
ENDBRANCH  23  24
ENDBRANCH  21  23
ENDBRANCH   3  21
ENDBRANCH   2   3
TORSDOF 14
ENDMDL
MODEL      138
REMARK 921   NORMALIZED FREE ENERGY PREDICTED BY IDOCK:   -4.38 KCAL/MOL
REMARK 922        TOTAL FREE ENERGY PREDICTED BY IDOCK:  -10.75 KCAL/MOL
REMARK 923 INTER-LIGAND FREE ENERGY PREDICTED BY IDOCK:   -8.80 KCAL/MOL
REMARK 924 INTRA-LIGAND FREE ENERGY PREDICTED BY IDOCK:   -1.95 KCAL/MOL
REMARK 927      BINDING AFFINITY PREDICTED BY RF-SCORE:    0.00 PKD
ROOT
HETATM    1  C   UNL     1      -8.563  13.756  67.842  1.00  0.00    -0.183 C  
HETATM    2  C   UNL     1      -9.998  13.887  68.337  1.00  0.00    -0.233 C  
ENDROOT
BRANCH   2   3
HETATM    3  N   UNL     1     -10.761  15.059  67.893  1.00  0.00    -0.262 NA 
BRANCH   3   4
HETATM    4  C   UNL     1     -11.610  14.842  66.707  1.00  0.00    -0.324 C  
BRANCH   4   5
HETATM    5  C   UNL     1     -12.255  13.448  66.643  1.00  0.00    -0.391 C  
BRANCH   5   6
HETATM    6  C   UNL     1     -12.070  12.804  65.268  1.00  0.00    -0.505 C  
BRANCH   6   7
HETATM    7  C   UNL     1     -11.219  11.545  65.387  1.00  0.00    -0.140 C  
BRANCH   7   8
HETATM    8  O   UNL     1     -11.475  10.902  66.642  1.00  0.00    -0.233 OA 
BRANCH   8   9
HETATM    9  C   UNL     1     -10.571   9.954  66.998  1.00  0.00    -0.203 C  
HETATM   10  O   UNL     1      -9.682   9.497  66.300  1.00  0.00    -0.205 OA 
BRANCH   9  11
HETATM   11  C   UNL     1     -10.841   9.498  68.381  1.00  0.00    -0.183 A  
HETATM   12  C   UNL     1     -11.371  10.357  69.352  1.00  0.00    -0.310 A  
HETATM   13  C   UNL     1     -11.587   9.897  70.654  1.00  0.00    -0.335 A  
HETATM   14  C   UNL     1     -10.758   7.708  70.004  1.00  0.00    -0.245 A  
HETATM   15  C   UNL     1     -11.279   8.558  70.983  1.00  0.00    -0.268 A  
HETATM   16  C   UNL     1     -10.528   8.177  68.709  1.00  0.00    -0.198 A  
BRANCH  13  17
HETATM   17  O   UNL     1     -12.085  10.672  71.674  1.00  0.00    -0.255 OA 
HETATM   18  C   UNL     1     -12.862  11.809  71.324  1.00  0.00    -0.308 C  
ENDBRANCH  13  17
BRANCH  15  19
HETATM   19  O   UNL     1     -11.517   8.184  72.281  1.00  0.00    -0.318 OA 
HETATM   20  C   UNL     1     -10.426   7.653  73.021  1.00  0.00    -0.356 C  
ENDBRANCH  15  19
ENDBRANCH   9  11
ENDBRANCH   8   9
ENDBRANCH   7   8
ENDBRANCH   6   7
ENDBRANCH   5   6
ENDBRANCH   4   5
ENDBRANCH   3   4
BRANCH   3  21
HETATM   21  C   UNL     1     -11.441  15.859  68.943  1.00  0.00    -0.386 C  
HETATM   22  C   UNL     1     -11.840  15.073  70.204  1.00  0.00    -0.357 C  
BRANCH  21  23
HETATM   23  C   UNL     1     -10.675  17.144  69.381  1.00  0.00    -0.086 C  
BRANCH  23  24
HETATM   24  C   UNL     1      -9.875  17.835  68.297  1.00  0.00    -0.340 A  
HETATM   25  C   UNL     1      -7.727  18.391  67.288  1.00  0.00    -0.228 A  
HETATM   26  C   UNL     1      -8.366  19.163  66.319  1.00  0.00    -0.299 A  
HETATM   27  C   UNL     1     -10.506  18.623  67.327  1.00  0.00    -0.468 A  
HETATM   28  C   UNL     1      -9.757  19.270  66.341  1.00  0.00    -0.435 A  
HETATM   29  C   UNL     1      -8.477  17.733  68.270  1.00  0.00    -0.277 A  
BRANCH  26  30
HETATM   30  O   UNL     1      -7.750  19.805  65.280  1.00  0.00    -0.317 OA 
HETATM   31  C   UNL     1      -6.522  19.242  64.832  1.00  0.00    -0.159 C  
ENDBRANCH  26  30
ENDBRANCH  23  24
ENDBRANCH  21  23
ENDBRANCH   3  21
ENDBRANCH   2   3
TORSDOF 14
ENDMDL
MODEL      139
REMARK 921   NORMALIZED FREE ENERGY PREDICTED BY IDOCK:   -4.38 KCAL/MOL
REMARK 922        TOTAL FREE ENERGY PREDICTED BY IDOCK:  -10.75 KCAL/MOL
REMARK 923 INTER-LIGAND FREE ENERGY PREDICTED BY IDOCK:   -9.49 KCAL/MOL
REMARK 924 INTRA-LIGAND FREE ENERGY PREDICTED BY IDOCK:   -1.26 KCAL/MOL
REMARK 927      BINDING AFFINITY PREDICTED BY RF-SCORE:    0.00 PKD
ROOT
HETATM    1  C   UNL     1     -14.411   8.414  72.052  1.00  0.00    -0.555 C  
HETATM    2  C   UNL     1     -12.962   8.864  72.200  1.00  0.00    -0.416 C  
ENDROOT
BRANCH   2   3
HETATM    3  N   UNL     1     -12.230   9.196  70.973  1.00  0.00    -0.276 NA 
BRANCH   3   4
HETATM    4  C   UNL     1     -11.923  10.627  70.793  1.00  0.00    -0.374 C  
BRANCH   4   5
HETATM    5  C   UNL     1     -11.306  10.971  69.429  1.00  0.00    -0.352 C  
BRANCH   5   6
HETATM    6  C   UNL     1     -11.892  12.260  68.852  1.00  0.00    -0.355 C  
BRANCH   6   7
HETATM    7  C   UNL     1     -11.783  12.254  67.331  1.00  0.00    -0.335 C  
BRANCH   7   8
HETATM    8  O   UNL     1     -11.928  13.589  66.829  1.00  0.00    -0.382 OA 
BRANCH   8   9
HETATM    9  C   UNL     1     -10.888  14.041  66.085  1.00  0.00    -0.291 C  
HETATM   10  O   UNL     1     -10.436  13.525  65.076  1.00  0.00    -0.335 OA 
BRANCH   9  11
HETATM   11  C   UNL     1     -10.322  15.263  66.701  1.00  0.00    -0.281 A  
HETATM   12  C   UNL     1     -10.224  16.468  65.996  1.00  0.00    -0.372 A  
HETATM   13  C   UNL     1      -9.660  17.594  66.604  1.00  0.00    -0.295 A  
HETATM   14  C   UNL     1      -9.310  16.305  68.634  1.00  0.00    -0.219 A  
HETATM   15  C   UNL     1      -9.200  17.512  67.937  1.00  0.00    -0.265 A  
HETATM   16  C   UNL     1      -9.858  15.179  68.017  1.00  0.00    -0.213 A  
BRANCH  13  17
HETATM   17  O   UNL     1      -9.506  18.810  65.984  1.00  0.00    -0.480 OA 
HETATM   18  C   UNL     1     -10.653  19.641  65.862  1.00  0.00    -0.466 C  
ENDBRANCH  13  17
BRANCH  15  19
HETATM   19  O   UNL     1      -8.658  18.658  68.461  1.00  0.00    -0.330 OA 
HETATM   20  C   UNL     1      -7.310  18.600  68.909  1.00  0.00    -0.273 C  
ENDBRANCH  15  19
ENDBRANCH   9  11
ENDBRANCH   8   9
ENDBRANCH   7   8
ENDBRANCH   6   7
ENDBRANCH   5   6
ENDBRANCH   4   5
ENDBRANCH   3   4
BRANCH   3  21
HETATM   21  C   UNL     1     -11.088   8.318  70.610  1.00  0.00    -0.253 C  
HETATM   22  C   UNL     1      -9.962   8.249  71.656  1.00  0.00    -0.277 C  
BRANCH  21  23
HETATM   23  C   UNL     1     -11.484   6.865  70.211  1.00  0.00    -0.373 C  
BRANCH  23  24
HETATM   24  C   UNL     1     -10.780   6.301  68.995  1.00  0.00    -0.362 A  
HETATM   25  C   UNL     1      -9.590   4.478  67.900  1.00  0.00    -0.208 A  
HETATM   26  C   UNL     1      -9.414   5.258  66.759  1.00  0.00    -0.140 A  
HETATM   27  C   UNL     1     -10.586   7.082  67.849  1.00  0.00    -0.276 A  
HETATM   28  C   UNL     1      -9.920   6.558  66.738  1.00  0.00    -0.224 A  
HETATM   29  C   UNL     1     -10.267   4.997  69.010  1.00  0.00    -0.207 A  
BRANCH  26  30
HETATM   30  O   UNL     1      -8.822   4.847  65.596  1.00  0.00    -0.129 OA 
HETATM   31  C   UNL     1      -9.659   4.160  64.673  1.00  0.00    -0.173 C  
ENDBRANCH  26  30
ENDBRANCH  23  24
ENDBRANCH  21  23
ENDBRANCH   3  21
ENDBRANCH   2   3
TORSDOF 14
ENDMDL
MODEL      140
REMARK 921   NORMALIZED FREE ENERGY PREDICTED BY IDOCK:   -4.37 KCAL/MOL
REMARK 922        TOTAL FREE ENERGY PREDICTED BY IDOCK:  -10.74 KCAL/MOL
REMARK 923 INTER-LIGAND FREE ENERGY PREDICTED BY IDOCK:   -9.31 KCAL/MOL
REMARK 924 INTRA-LIGAND FREE ENERGY PREDICTED BY IDOCK:   -1.43 KCAL/MOL
REMARK 927      BINDING AFFINITY PREDICTED BY RF-SCORE:    0.00 PKD
ROOT
HETATM    1  C   UNL     1     -14.025  13.436  72.134  1.00  0.00    -0.531 C  
HETATM    2  C   UNL     1     -12.708  12.715  71.872  1.00  0.00    -0.081 C  
ENDROOT
BRANCH   2   3
HETATM    3  N   UNL     1     -12.757  11.492  71.064  1.00  0.00    -0.361 NA 
BRANCH   3   4
HETATM    4  C   UNL     1     -11.971  11.531  69.817  1.00  0.00    -0.346 C  
BRANCH   4   5
HETATM    5  C   UNL     1     -11.585  12.948  69.362  1.00  0.00    -0.363 C  
BRANCH   5   6
HETATM    6  C   UNL     1     -11.985  13.203  67.908  1.00  0.00    -0.347 C  
BRANCH   6   7
HETATM    7  C   UNL     1     -11.242  12.247  66.982  1.00  0.00    -0.310 C  
BRANCH   7   8
HETATM    8  O   UNL     1     -10.057  12.880  66.481  1.00  0.00    -0.249 OA 
BRANCH   8   9
HETATM    9  C   UNL     1     -10.247  13.701  65.419  1.00  0.00    -0.313 C  
HETATM   10  O   UNL     1     -10.612  13.374  64.302  1.00  0.00    -0.420 OA 
BRANCH   9  11
HETATM   11  C   UNL     1      -9.901  15.092  65.791  1.00  0.00    -0.384 A  
HETATM   12  C   UNL     1      -8.668  15.417  66.370  1.00  0.00    -0.307 A  
HETATM   13  C   UNL     1      -8.387  16.738  66.732  1.00  0.00    -0.237 A  
HETATM   14  C   UNL     1     -10.575  17.411  65.916  1.00  0.00    -0.201 A  
HETATM   15  C   UNL     1      -9.350  17.745  66.501  1.00  0.00    -0.279 A  
HETATM   16  C   UNL     1     -10.857  16.088  65.572  1.00  0.00    -0.301 A  
BRANCH  13  17
HETATM   17  O   UNL     1      -7.214  17.145  67.320  1.00  0.00    -0.149 OA 
HETATM   18  C   UNL     1      -6.962  16.726  68.654  1.00  0.00    -0.180 C  
ENDBRANCH  13  17
BRANCH  15  19
HETATM   19  O   UNL     1      -9.001  19.015  66.886  1.00  0.00    -0.283 OA 
HETATM   20  C   UNL     1      -9.730  19.599  67.957  1.00  0.00    -0.396 C  
ENDBRANCH  15  19
ENDBRANCH   9  11
ENDBRANCH   8   9
ENDBRANCH   7   8
ENDBRANCH   6   7
ENDBRANCH   5   6
ENDBRANCH   4   5
ENDBRANCH   3   4
BRANCH   3  21
HETATM   21  C   UNL     1     -12.618  10.201  71.784  1.00  0.00    -0.403 C  
HETATM   22  C   UNL     1     -13.944   9.547  72.210  1.00  0.00    -0.287 C  
BRANCH  21  23
HETATM   23  C   UNL     1     -11.752   9.134  71.050  1.00  0.00    -0.363 C  
BRANCH  23  24
HETATM   24  C   UNL     1     -11.345   7.934  71.878  1.00  0.00    -0.324 A  
HETATM   25  C   UNL     1     -10.048   6.969  73.703  1.00  0.00    -0.376 A  
HETATM   26  C   UNL     1     -10.531   5.699  73.394  1.00  0.00    -0.242 A  
HETATM   27  C   UNL     1     -11.814   6.652  71.568  1.00  0.00    -0.387 A  
HETATM   28  C   UNL     1     -11.420   5.548  72.329  1.00  0.00    -0.221 A  
HETATM   29  C   UNL     1     -10.452   8.078  72.948  1.00  0.00    -0.402 A  
BRANCH  26  30
HETATM   30  O   UNL     1     -10.256   4.552  74.088  1.00  0.00    -0.172 OA 
HETATM   31  C   UNL     1      -8.995   3.947  73.827  1.00  0.00    -0.091 C  
ENDBRANCH  26  30
ENDBRANCH  23  24
ENDBRANCH  21  23
ENDBRANCH   3  21
ENDBRANCH   2   3
TORSDOF 14
ENDMDL
MODEL      141
REMARK 921   NORMALIZED FREE ENERGY PREDICTED BY IDOCK:   -4.37 KCAL/MOL
REMARK 922        TOTAL FREE ENERGY PREDICTED BY IDOCK:  -10.74 KCAL/MOL
REMARK 923 INTER-LIGAND FREE ENERGY PREDICTED BY IDOCK:   -8.99 KCAL/MOL
REMARK 924 INTRA-LIGAND FREE ENERGY PREDICTED BY IDOCK:   -1.75 KCAL/MOL
REMARK 927      BINDING AFFINITY PREDICTED BY RF-SCORE:    0.00 PKD
ROOT
HETATM    1  C   UNL     1      -6.562   7.935  69.145  1.00  0.00    -0.040 C  
HETATM    2  C   UNL     1      -7.755   7.614  68.252  1.00  0.00    -0.120 C  
ENDROOT
BRANCH   2   3
HETATM    3  N   UNL     1      -8.755   8.670  68.059  1.00  0.00    -0.140 NA 
BRANCH   3   4
HETATM    4  C   UNL     1      -8.619   9.442  66.810  1.00  0.00    -0.127 C  
BRANCH   4   5
HETATM    5  C   UNL     1      -9.529  10.678  66.733  1.00  0.00    -0.189 C  
BRANCH   5   6
HETATM    6  C   UNL     1     -10.354  10.693  65.446  1.00  0.00    -0.303 C  
BRANCH   6   7
HETATM    7  C   UNL     1     -11.035  12.046  65.272  1.00  0.00    -0.308 C  
BRANCH   7   8
HETATM    8  O   UNL     1     -10.541  12.968  66.253  1.00  0.00    -0.266 OA 
BRANCH   8   9
HETATM    9  C   UNL     1     -11.273  14.100  66.398  1.00  0.00    -0.328 C  
HETATM   10  O   UNL     1     -12.477  14.215  66.240  1.00  0.00    -0.466 OA 
BRANCH   9  11
HETATM   11  C   UNL     1     -10.383  15.233  66.744  1.00  0.00    -0.279 A  
HETATM   12  C   UNL     1     -10.439  16.453  66.059  1.00  0.00    -0.333 A  
HETATM   13  C   UNL     1      -9.565  17.489  66.397  1.00  0.00    -0.269 A  
HETATM   14  C   UNL     1      -8.588  16.084  68.123  1.00  0.00    -0.171 A  
HETATM   15  C   UNL     1      -8.631  17.304  67.441  1.00  0.00    -0.205 A  
HETATM   16  C   UNL     1      -9.453  15.046  67.770  1.00  0.00    -0.195 A  
BRANCH  13  17
HETATM   17  O   UNL     1      -9.536  18.711  65.769  1.00  0.00    -0.440 OA 
HETATM   18  C   UNL     1     -10.640  19.583  65.966  1.00  0.00    -0.491 C  
ENDBRANCH  13  17
BRANCH  15  19
HETATM   19  O   UNL     1      -7.806  18.367  67.710  1.00  0.00    -0.235 OA 
HETATM   20  C   UNL     1      -8.070  19.118  68.887  1.00  0.00    -0.294 C  
ENDBRANCH  15  19
ENDBRANCH   9  11
ENDBRANCH   8   9
ENDBRANCH   7   8
ENDBRANCH   6   7
ENDBRANCH   5   6
ENDBRANCH   4   5
ENDBRANCH   3   4
BRANCH   3  21
HETATM   21  C   UNL     1     -10.166   8.326  68.366  1.00  0.00    -0.209 C  
HETATM   22  C   UNL     1     -10.713   7.094  67.623  1.00  0.00    -0.314 C  
BRANCH  21  23
HETATM   23  C   UNL     1     -10.484   8.171  69.884  1.00  0.00    -0.226 C  
BRANCH  23  24
HETATM   24  C   UNL     1     -11.387   9.231  70.479  1.00  0.00    -0.306 A  
HETATM   25  C   UNL     1     -13.065   9.900  72.115  1.00  0.00    -0.497 A  
HETATM   26  C   UNL     1     -13.117  11.177  71.561  1.00  0.00    -0.385 A  
HETATM   27  C   UNL     1     -11.457  10.513  69.921  1.00  0.00    -0.384 A  
HETATM   28  C   UNL     1     -12.306  11.479  70.467  1.00  0.00    -0.432 A  
HETATM   29  C   UNL     1     -12.206   8.934  71.576  1.00  0.00    -0.388 A  
BRANCH  26  30
HETATM   30  O   UNL     1     -13.870  12.219  72.031  1.00  0.00    -0.176 OA 
HETATM   31  C   UNL     1     -13.175  13.434  72.281  1.00  0.00    -0.472 C  
ENDBRANCH  26  30
ENDBRANCH  23  24
ENDBRANCH  21  23
ENDBRANCH   3  21
ENDBRANCH   2   3
TORSDOF 14
ENDMDL
MODEL      142
REMARK 921   NORMALIZED FREE ENERGY PREDICTED BY IDOCK:   -4.36 KCAL/MOL
REMARK 922        TOTAL FREE ENERGY PREDICTED BY IDOCK:  -10.72 KCAL/MOL
REMARK 923 INTER-LIGAND FREE ENERGY PREDICTED BY IDOCK:   -8.47 KCAL/MOL
REMARK 924 INTRA-LIGAND FREE ENERGY PREDICTED BY IDOCK:   -2.25 KCAL/MOL
REMARK 927      BINDING AFFINITY PREDICTED BY RF-SCORE:    0.00 PKD
ROOT
HETATM    1  C   UNL     1      -9.039  12.867  67.029  1.00  0.00    -0.228 C  
HETATM    2  C   UNL     1      -8.949  12.056  68.316  1.00  0.00    -0.186 C  
ENDROOT
BRANCH   2   3
HETATM    3  N   UNL     1      -9.254  10.623  68.234  1.00  0.00    -0.147 NA 
BRANCH   3   4
HETATM    4  C   UNL     1      -8.105   9.725  68.454  1.00  0.00    -0.104 C  
BRANCH   4   5
HETATM    5  C   UNL     1      -7.559   9.078  67.171  1.00  0.00    -0.091 C  
BRANCH   5   6
HETATM    6  C   UNL     1      -8.684   8.675  66.218  1.00  0.00    -0.165 C  
BRANCH   6   7
HETATM    7  C   UNL     1      -8.572   7.195  65.866  1.00  0.00    -0.148 C  
BRANCH   7   8
HETATM    8  O   UNL     1      -8.750   6.401  67.047  1.00  0.00    -0.114 OA 
BRANCH   8   9
HETATM    9  C   UNL     1     -10.033   6.271  67.465  1.00  0.00    -0.134 C  
HETATM   10  O   UNL     1     -11.022   6.167  66.759  1.00  0.00    -0.333 OA 
BRANCH   9  11
HETATM   11  C   UNL     1     -10.086   6.318  68.945  1.00  0.00    -0.200 A  
HETATM   12  C   UNL     1     -11.300   6.293  69.642  1.00  0.00    -0.492 A  
HETATM   13  C   UNL     1     -11.311   6.364  71.038  1.00  0.00    -0.328 A  
HETATM   14  C   UNL     1      -8.882   6.468  71.037  1.00  0.00    -0.139 A  
HETATM   15  C   UNL     1     -10.089   6.451  71.742  1.00  0.00    -0.185 A  
HETATM   16  C   UNL     1      -8.879   6.413  69.641  1.00  0.00    -0.137 A  
BRANCH  13  17
HETATM   17  O   UNL     1     -12.452   6.365  71.802  1.00  0.00    -0.316 OA 
HETATM   18  C   UNL     1     -13.424   7.366  71.540  1.00  0.00    -0.372 C  
ENDBRANCH  13  17
BRANCH  15  19
HETATM   19  O   UNL     1     -10.183   6.520  73.109  1.00  0.00    -0.187 OA 
HETATM   20  C   UNL     1      -9.480   7.569  73.762  1.00  0.00    -0.276 C  
ENDBRANCH  15  19
ENDBRANCH   9  11
ENDBRANCH   8   9
ENDBRANCH   7   8
ENDBRANCH   6   7
ENDBRANCH   5   6
ENDBRANCH   4   5
ENDBRANCH   3   4
BRANCH   3  21
HETATM   21  C   UNL     1     -10.484  10.155  68.920  1.00  0.00    -0.210 C  
HETATM   22  C   UNL     1     -10.338   9.929  70.436  1.00  0.00    -0.322 C  
BRANCH  21  23
HETATM   23  C   UNL     1     -11.745  11.035  68.670  1.00  0.00    -0.367 C  
BRANCH  23  24
HETATM   24  C   UNL     1     -12.221  11.855  69.851  1.00  0.00    -0.269 A  
HETATM   25  C   UNL     1     -13.473  12.029  71.934  1.00  0.00    -0.305 A  
HETATM   26  C   UNL     1     -13.162  13.384  72.026  1.00  0.00    -0.438 A  
HETATM   27  C   UNL     1     -11.924  13.220  69.945  1.00  0.00    -0.400 A  
HETATM   28  C   UNL     1     -12.381  13.972  71.030  1.00  0.00    -0.443 A  
HETATM   29  C   UNL     1     -13.007  11.271  70.853  1.00  0.00    -0.237 A  
BRANCH  26  30
HETATM   30  O   UNL     1     -13.510  14.213  73.057  1.00  0.00    -0.661 OA 
HETATM   31  C   UNL     1     -12.507  15.120  73.500  1.00  0.00    -0.540 C  
ENDBRANCH  26  30
ENDBRANCH  23  24
ENDBRANCH  21  23
ENDBRANCH   3  21
ENDBRANCH   2   3
TORSDOF 14
ENDMDL
MODEL      143
REMARK 921   NORMALIZED FREE ENERGY PREDICTED BY IDOCK:   -4.36 KCAL/MOL
REMARK 922        TOTAL FREE ENERGY PREDICTED BY IDOCK:  -10.72 KCAL/MOL
REMARK 923 INTER-LIGAND FREE ENERGY PREDICTED BY IDOCK:   -7.77 KCAL/MOL
REMARK 924 INTRA-LIGAND FREE ENERGY PREDICTED BY IDOCK:   -2.95 KCAL/MOL
REMARK 927      BINDING AFFINITY PREDICTED BY RF-SCORE:    0.00 PKD
ROOT
HETATM    1  C   UNL     1     -12.950  15.560  71.584  1.00  0.00    -0.540 C  
HETATM    2  C   UNL     1     -12.487  14.424  70.680  1.00  0.00    -0.350 C  
ENDROOT
BRANCH   2   3
HETATM    3  N   UNL     1     -11.675  14.781  69.511  1.00  0.00    -0.302 NA 
BRANCH   3   4
HETATM    4  C   UNL     1     -10.421  15.494  69.812  1.00  0.00    -0.301 C  
BRANCH   4   5
HETATM    5  C   UNL     1     -10.132  16.680  68.878  1.00  0.00    -0.274 C  
BRANCH   5   6
HETATM    6  C   UNL     1      -8.679  16.682  68.401  1.00  0.00    -0.225 C  
BRANCH   6   7
HETATM    7  C   UNL     1      -8.441  15.533  67.428  1.00  0.00    -0.180 C  
BRANCH   7   8
HETATM    8  O   UNL     1      -7.119  15.009  67.609  1.00  0.00    -0.151 OA 
BRANCH   8   9
HETATM    9  C   UNL     1      -6.985  14.124  68.627  1.00  0.00    -0.107 C  
HETATM   10  O   UNL     1      -6.638  14.375  69.769  1.00  0.00    -0.138 OA 
BRANCH   9  11
HETATM   11  C   UNL     1      -7.283  12.755  68.146  1.00  0.00    -0.115 A  
HETATM   12  C   UNL     1      -8.276  11.964  68.736  1.00  0.00     0.000 A  
HETATM   13  C   UNL     1      -8.510  10.667  68.270  1.00  0.00    -0.127 A  
HETATM   14  C   UNL     1      -6.764  10.964  66.606  1.00  0.00    -0.127 A  
HETATM   15  C   UNL     1      -7.747  10.163  67.193  1.00  0.00    -0.092 A  
HETATM   16  C   UNL     1      -6.523  12.253  67.087  1.00  0.00    -0.118 A  
BRANCH  13  17
HETATM   17  O   UNL     1      -9.448   9.815  68.799  1.00  0.00    -0.147 OA 
HETATM   18  C   UNL     1      -9.147   9.182  70.035  1.00  0.00    -0.192 C  
ENDBRANCH  13  17
BRANCH  15  19
HETATM   19  O   UNL     1      -8.035   8.882  66.796  1.00  0.00    -0.105 OA 
HETATM   20  C   UNL     1      -8.611   8.708  65.508  1.00  0.00    -0.175 C  
ENDBRANCH  15  19
ENDBRANCH   9  11
ENDBRANCH   8   9
ENDBRANCH   7   8
ENDBRANCH   6   7
ENDBRANCH   5   6
ENDBRANCH   4   5
ENDBRANCH   3   4
BRANCH   3  21
HETATM   21  C   UNL     1     -11.502  13.739  68.467  1.00  0.00    -0.307 C  
HETATM   22  C   UNL     1     -11.960  12.327  68.874  1.00  0.00    -0.300 C  
BRANCH  21  23
HETATM   23  C   UNL     1     -12.137  14.087  67.087  1.00  0.00    -0.436 C  
BRANCH  23  24
HETATM   24  C   UNL     1     -11.661  13.254  65.915  1.00  0.00    -0.403 A  
HETATM   25  C   UNL     1     -12.125  12.093  63.824  1.00  0.00    -0.620 A  
HETATM   26  C   UNL     1     -10.805  11.654  63.757  1.00  0.00    -0.424 A  
HETATM   27  C   UNL     1     -10.340  12.797  65.846  1.00  0.00    -0.298 A  
HETATM   28  C   UNL     1      -9.915  12.015  64.769  1.00  0.00    -0.241 A  
HETATM   29  C   UNL     1     -12.550  12.886  64.897  1.00  0.00    -0.525 A  
BRANCH  26  30
HETATM   30  O   UNL     1     -10.258  10.925  62.736  1.00  0.00    -0.171 OA 
HETATM   31  C   UNL     1      -8.864  11.102  62.513  1.00  0.00    -0.281 C  
ENDBRANCH  26  30
ENDBRANCH  23  24
ENDBRANCH  21  23
ENDBRANCH   3  21
ENDBRANCH   2   3
TORSDOF 14
ENDMDL
MODEL      144
REMARK 921   NORMALIZED FREE ENERGY PREDICTED BY IDOCK:   -4.35 KCAL/MOL
REMARK 922        TOTAL FREE ENERGY PREDICTED BY IDOCK:  -10.70 KCAL/MOL
REMARK 923 INTER-LIGAND FREE ENERGY PREDICTED BY IDOCK:   -9.40 KCAL/MOL
REMARK 924 INTRA-LIGAND FREE ENERGY PREDICTED BY IDOCK:   -1.31 KCAL/MOL
REMARK 927      BINDING AFFINITY PREDICTED BY RF-SCORE:    0.00 PKD
ROOT
HETATM    1  C   UNL     1     -10.881  16.053  69.870  1.00  0.00    -0.351 C  
HETATM    2  C   UNL     1     -11.737  15.166  68.974  1.00  0.00    -0.335 C  
ENDROOT
BRANCH   2   3
HETATM    3  N   UNL     1     -11.103  13.973  68.402  1.00  0.00    -0.243 NA 
BRANCH   3   4
HETATM    4  C   UNL     1     -11.860  12.719  68.570  1.00  0.00    -0.306 C  
BRANCH   4   5
HETATM    5  C   UNL     1     -11.763  12.110  69.978  1.00  0.00    -0.330 C  
BRANCH   5   6
HETATM    6  C   UNL     1     -12.003  10.600  69.958  1.00  0.00    -0.408 C  
BRANCH   6   7
HETATM    7  C   UNL     1     -13.015  10.213  71.031  1.00  0.00    -0.385 C  
BRANCH   7   8
HETATM    8  O   UNL     1     -12.537   9.076  71.761  1.00  0.00    -0.322 OA 
BRANCH   8   9
HETATM    9  C   UNL     1     -13.122   7.896  71.437  1.00  0.00    -0.254 C  
HETATM   10  O   UNL     1     -14.319   7.669  71.378  1.00  0.00    -0.433 OA 
BRANCH   9  11
HETATM   11  C   UNL     1     -12.083   6.868  71.198  1.00  0.00    -0.428 A  
HETATM   12  C   UNL     1     -11.447   6.202  72.253  1.00  0.00    -0.360 A  
HETATM   13  C   UNL     1     -10.451   5.257  71.988  1.00  0.00    -0.222 A  
HETATM   14  C   UNL     1     -10.744   5.636  69.606  1.00  0.00    -0.398 A  
HETATM   15  C   UNL     1     -10.098   4.970  70.651  1.00  0.00    -0.243 A  
HETATM   16  C   UNL     1     -11.726   6.591  69.876  1.00  0.00    -0.349 A  
BRANCH  13  17
HETATM   17  O   UNL     1      -9.762   4.569  72.957  1.00  0.00    -0.134 OA 
HETATM   18  C   UNL     1     -10.490   4.111  74.089  1.00  0.00    -0.233 C  
ENDBRANCH  13  17
BRANCH  15  19
HETATM   19  O   UNL     1      -9.111   4.033  70.474  1.00  0.00    -0.093 OA 
HETATM   20  C   UNL     1      -9.331   3.026  69.495  1.00  0.00    -0.143 C  
ENDBRANCH  15  19
ENDBRANCH   9  11
ENDBRANCH   8   9
ENDBRANCH   7   8
ENDBRANCH   6   7
ENDBRANCH   5   6
ENDBRANCH   4   5
ENDBRANCH   3   4
BRANCH   3  21
HETATM   21  C   UNL     1     -10.515  14.106  67.046  1.00  0.00    -0.271 C  
HETATM   22  C   UNL     1     -10.678  12.872  66.141  1.00  0.00    -0.290 C  
BRANCH  21  23
HETATM   23  C   UNL     1     -10.980  15.366  66.255  1.00  0.00    -0.278 C  
BRANCH  23  24
HETATM   24  C   UNL     1     -10.021  16.539  66.263  1.00  0.00    -0.346 A  
HETATM   25  C   UNL     1      -7.743  17.404  66.248  1.00  0.00    -0.340 A  
HETATM   26  C   UNL     1      -8.223  18.710  66.337  1.00  0.00    -0.277 A  
HETATM   27  C   UNL     1     -10.493  17.853  66.366  1.00  0.00    -0.318 A  
HETATM   28  C   UNL     1      -9.600  18.927  66.389  1.00  0.00    -0.377 A  
HETATM   29  C   UNL     1      -8.637  16.327  66.212  1.00  0.00    -0.374 A  
BRANCH  26  30
HETATM   30  O   UNL     1      -7.456  19.842  66.323  1.00  0.00    -0.270 OA 
HETATM   31  C   UNL     1      -6.697  20.073  65.141  1.00  0.00    -0.286 C  
ENDBRANCH  26  30
ENDBRANCH  23  24
ENDBRANCH  21  23
ENDBRANCH   3  21
ENDBRANCH   2   3
TORSDOF 14
ENDMDL
MODEL      145
REMARK 921   NORMALIZED FREE ENERGY PREDICTED BY IDOCK:   -4.34 KCAL/MOL
REMARK 922        TOTAL FREE ENERGY PREDICTED BY IDOCK:  -10.69 KCAL/MOL
REMARK 923 INTER-LIGAND FREE ENERGY PREDICTED BY IDOCK:   -8.64 KCAL/MOL
REMARK 924 INTRA-LIGAND FREE ENERGY PREDICTED BY IDOCK:   -2.05 KCAL/MOL
REMARK 927      BINDING AFFINITY PREDICTED BY RF-SCORE:    0.00 PKD
ROOT
HETATM    1  C   UNL     1      -6.073   8.013  68.040  1.00  0.00    -0.046 C  
HETATM    2  C   UNL     1      -6.942   6.767  67.917  1.00  0.00    -0.083 C  
ENDROOT
BRANCH   2   3
HETATM    3  N   UNL     1      -8.361   6.896  68.268  1.00  0.00    -0.122 NA 
BRANCH   3   4
HETATM    4  C   UNL     1      -9.199   7.565  67.256  1.00  0.00    -0.131 C  
BRANCH   4   5
HETATM    5  C   UNL     1      -9.465   9.051  67.544  1.00  0.00    -0.168 C  
BRANCH   5   6
HETATM    6  C   UNL     1     -10.940   9.311  67.851  1.00  0.00    -0.076 C  
BRANCH   6   7
HETATM    7  C   UNL     1     -11.121  10.714  68.422  1.00  0.00    -0.272 C  
BRANCH   7   8
HETATM    8  O   UNL     1     -12.083  11.435  67.641  1.00  0.00    -0.630 OA 
BRANCH   8   9
HETATM    9  C   UNL     1     -11.563  12.190  66.641  1.00  0.00    -0.350 C  
HETATM   10  O   UNL     1     -11.303  11.820  65.509  1.00  0.00    -0.300 OA 
BRANCH   9  11
HETATM   11  C   UNL     1     -11.301  13.563  67.133  1.00  0.00    -0.346 A  
HETATM   12  C   UNL     1     -11.902  14.058  68.296  1.00  0.00    -0.406 A  
HETATM   13  C   UNL     1     -11.650  15.368  68.714  1.00  0.00    -0.368 A  
HETATM   14  C   UNL     1     -10.176  15.678  66.807  1.00  0.00    -0.278 A  
HETATM   15  C   UNL     1     -10.777  16.186  67.963  1.00  0.00    -0.321 A  
HETATM   16  C   UNL     1     -10.444  14.375  66.385  1.00  0.00    -0.295 A  
BRANCH  13  17
HETATM   17  O   UNL     1     -12.210  15.944  69.829  1.00  0.00    -0.308 OA 
HETATM   18  C   UNL     1     -12.234  15.180  71.027  1.00  0.00    -0.334 C  
ENDBRANCH  13  17
BRANCH  15  19
HETATM   19  O   UNL     1     -10.583  17.459  68.436  1.00  0.00    -0.367 OA 
HETATM   20  C   UNL     1      -9.249  17.949  68.473  1.00  0.00    -0.284 C  
ENDBRANCH  15  19
ENDBRANCH   9  11
ENDBRANCH   8   9
ENDBRANCH   7   8
ENDBRANCH   6   7
ENDBRANCH   5   6
ENDBRANCH   4   5
ENDBRANCH   3   4
BRANCH   3  21
HETATM   21  C   UNL     1      -9.021   5.703  68.857  1.00  0.00    -0.111 C  
HETATM   22  C   UNL     1      -8.322   4.363  68.569  1.00  0.00    -0.090 C  
BRANCH  21  23
HETATM   23  C   UNL     1      -9.296   5.800  70.387  1.00  0.00    -0.186 C  
BRANCH  23  24
HETATM   24  C   UNL     1     -10.326   6.828  70.807  1.00  0.00    -0.227 A  
HETATM   25  C   UNL     1     -10.870   9.028  71.703  1.00  0.00    -0.437 A  
HETATM   26  C   UNL     1     -12.230   8.731  71.647  1.00  0.00    -0.339 A  
HETATM   27  C   UNL     1     -11.694   6.534  70.767  1.00  0.00    -0.427 A  
HETATM   28  C   UNL     1     -12.636   7.484  71.172  1.00  0.00    -0.293 A  
HETATM   29  C   UNL     1      -9.925   8.082  71.287  1.00  0.00    -0.211 A  
BRANCH  26  30
HETATM   30  O   UNL     1     -13.246   9.588  71.971  1.00  0.00    -0.392 OA 
HETATM   31  C   UNL     1     -12.989  10.973  71.767  1.00  0.00    -0.438 C  
ENDBRANCH  26  30
ENDBRANCH  23  24
ENDBRANCH  21  23
ENDBRANCH   3  21
ENDBRANCH   2   3
TORSDOF 14
ENDMDL
MODEL      146
REMARK 921   NORMALIZED FREE ENERGY PREDICTED BY IDOCK:   -4.34 KCAL/MOL
REMARK 922        TOTAL FREE ENERGY PREDICTED BY IDOCK:  -10.68 KCAL/MOL
REMARK 923 INTER-LIGAND FREE ENERGY PREDICTED BY IDOCK:   -8.81 KCAL/MOL
REMARK 924 INTRA-LIGAND FREE ENERGY PREDICTED BY IDOCK:   -1.87 KCAL/MOL
REMARK 927      BINDING AFFINITY PREDICTED BY RF-SCORE:    0.00 PKD
ROOT
HETATM    1  C   UNL     1      -8.025   5.613  67.264  1.00  0.00    -0.102 C  
HETATM    2  C   UNL     1      -9.165   6.583  66.980  1.00  0.00    -0.134 C  
ENDROOT
BRANCH   2   3
HETATM    3  N   UNL     1      -9.322   7.725  67.888  1.00  0.00    -0.140 NA 
BRANCH   3   4
HETATM    4  C   UNL     1      -9.112   9.049  67.272  1.00  0.00    -0.133 C  
BRANCH   4   5
HETATM    5  C   UNL     1     -10.337   9.596  66.523  1.00  0.00    -0.264 C  
BRANCH   5   6
HETATM    6  C   UNL     1     -10.202  11.091  66.236  1.00  0.00    -0.295 C  
BRANCH   6   7
HETATM    7  C   UNL     1      -8.879  11.616  66.782  1.00  0.00    -0.184 C  
BRANCH   7   8
HETATM    8  O   UNL     1      -9.109  12.795  67.564  1.00  0.00    -0.177 OA 
BRANCH   8   9
HETATM    9  C   UNL     1      -8.147  13.746  67.467  1.00  0.00    -0.185 C  
HETATM   10  O   UNL     1      -6.941  13.572  67.527  1.00  0.00    -0.163 OA 
BRANCH   9  11
HETATM   11  C   UNL     1      -8.774  15.080  67.316  1.00  0.00    -0.221 A  
HETATM   12  C   UNL     1      -9.621  15.380  66.242  1.00  0.00    -0.342 A  
HETATM   13  C   UNL     1     -10.173  16.659  66.120  1.00  0.00    -0.348 A  
HETATM   14  C   UNL     1      -9.040  17.329  68.162  1.00  0.00    -0.257 A  
HETATM   15  C   UNL     1      -9.881  17.642  67.091  1.00  0.00    -0.306 A  
HETATM   16  C   UNL     1      -8.478  16.056  68.271  1.00  0.00    -0.177 A  
BRANCH  13  17
HETATM   17  O   UNL     1     -10.998  17.048  65.093  1.00  0.00    -0.528 OA 
HETATM   18  C   UNL     1     -11.472  16.044  64.207  1.00  0.00    -0.157 C  
ENDBRANCH  13  17
BRANCH  15  19
HETATM   19  O   UNL     1     -10.459  18.872  66.899  1.00  0.00    -0.384 OA 
HETATM   20  C   UNL     1     -10.171  19.887  67.850  1.00  0.00    -0.434 C  
ENDBRANCH  15  19
ENDBRANCH   9  11
ENDBRANCH   8   9
ENDBRANCH   7   8
ENDBRANCH   6   7
ENDBRANCH   5   6
ENDBRANCH   4   5
ENDBRANCH   3   4
BRANCH   3  21
HETATM   21  C   UNL     1     -10.489   7.702  68.805  1.00  0.00    -0.189 C  
HETATM   22  C   UNL     1     -11.161   6.327  68.969  1.00  0.00    -0.446 C  
BRANCH  21  23
HETATM   23  C   UNL     1     -10.216   8.292  70.222  1.00  0.00    -0.199 C  
BRANCH  23  24
HETATM   24  C   UNL     1     -11.127   9.423  70.649  1.00  0.00    -0.351 A  
HETATM   25  C   UNL     1     -12.964  10.252  72.020  1.00  0.00    -0.503 A  
HETATM   26  C   UNL     1     -12.870  11.504  71.415  1.00  0.00    -0.384 A  
HETATM   27  C   UNL     1     -11.049  10.680  70.038  1.00  0.00    -0.359 A  
HETATM   28  C   UNL     1     -11.906  11.713  70.429  1.00  0.00    -0.385 A  
HETATM   29  C   UNL     1     -12.099   9.219  71.638  1.00  0.00    -0.451 A  
BRANCH  26  30
HETATM   30  O   UNL     1     -13.617  12.603  71.740  1.00  0.00    -0.300 OA 
HETATM   31  C   UNL     1     -13.130  13.855  71.270  1.00  0.00    -0.315 C  
ENDBRANCH  26  30
ENDBRANCH  23  24
ENDBRANCH  21  23
ENDBRANCH   3  21
ENDBRANCH   2   3
TORSDOF 14
ENDMDL
MODEL      147
REMARK 921   NORMALIZED FREE ENERGY PREDICTED BY IDOCK:   -4.33 KCAL/MOL
REMARK 922        TOTAL FREE ENERGY PREDICTED BY IDOCK:  -10.67 KCAL/MOL
REMARK 923 INTER-LIGAND FREE ENERGY PREDICTED BY IDOCK:   -8.51 KCAL/MOL
REMARK 924 INTRA-LIGAND FREE ENERGY PREDICTED BY IDOCK:   -2.16 KCAL/MOL
REMARK 927      BINDING AFFINITY PREDICTED BY RF-SCORE:    0.00 PKD
ROOT
HETATM    1  C   UNL     1     -13.764   7.434  71.564  1.00  0.00    -0.467 C  
HETATM    2  C   UNL     1     -12.417   6.779  71.284  1.00  0.00    -0.313 C  
ENDROOT
BRANCH   2   3
HETATM    3  N   UNL     1     -11.425   7.566  70.543  1.00  0.00    -0.267 NA 
BRANCH   3   4
HETATM    4  C   UNL     1     -11.627   7.613  69.083  1.00  0.00     0.786 C  
BRANCH   4   5
HETATM    5  C   UNL     1     -10.817   6.567  68.301  1.00  0.00    -0.359 C  
BRANCH   5   6
HETATM    6  C   UNL     1      -9.522   6.199  69.027  1.00  0.00    -0.138 C  
BRANCH   6   7
HETATM    7  C   UNL     1      -8.388   7.115  68.579  1.00  0.00    -0.125 C  
BRANCH   7   8
HETATM    8  O   UNL     1      -8.929   8.318  68.017  1.00  0.00    -0.137 OA 
BRANCH   8   9
HETATM    9  C   UNL     1      -8.096   8.989  67.183  1.00  0.00    -0.106 C  
HETATM   10  O   UNL     1      -6.881   8.893  67.135  1.00  0.00    -0.072 OA 
BRANCH   9  11
HETATM   11  C   UNL     1      -8.877   9.920  66.336  1.00  0.00    -0.159 A  
HETATM   12  C   UNL     1      -9.428  11.100  66.850  1.00  0.00    -0.203 A  
HETATM   13  C   UNL     1     -10.181  11.941  66.026  1.00  0.00    -0.229 A  
HETATM   14  C   UNL     1      -9.812  10.424  64.164  1.00  0.00    -0.379 A  
HETATM   15  C   UNL     1     -10.373  11.600  64.668  1.00  0.00    -0.292 A  
HETATM   16  C   UNL     1      -9.074   9.579  64.996  1.00  0.00    -0.281 A  
BRANCH  13  17
HETATM   17  O   UNL     1     -10.774  13.107  66.447  1.00  0.00    -0.280 OA 
HETATM   18  C   UNL     1      -9.926  14.168  66.863  1.00  0.00    -0.261 C  
ENDBRANCH  13  17
BRANCH  15  19
HETATM   19  O   UNL     1     -11.125  12.475  63.926  1.00  0.00    -0.359 OA 
HETATM   20  C   UNL     1     -12.443  12.073  63.576  1.00  0.00    -0.540 C  
ENDBRANCH  15  19
ENDBRANCH   9  11
ENDBRANCH   8   9
ENDBRANCH   7   8
ENDBRANCH   6   7
ENDBRANCH   5   6
ENDBRANCH   4   5
ENDBRANCH   3   4
BRANCH   3  21
HETATM   21  C   UNL     1     -11.050   8.885  71.110  1.00  0.00    -0.285 C  
HETATM   22  C   UNL     1      -9.669   8.934  71.788  1.00  0.00    -0.365 C  
BRANCH  21  23
HETATM   23  C   UNL     1     -11.155  10.077  70.112  1.00  0.00    -0.371 C  
BRANCH  23  24
HETATM   24  C   UNL     1     -11.960  11.267  70.591  1.00  0.00    -0.435 A  
HETATM   25  C   UNL     1     -12.492  13.643  70.473  1.00  0.00    -0.394 A  
HETATM   26  C   UNL     1     -13.410  13.504  71.512  1.00  0.00    -0.285 A  
HETATM   27  C   UNL     1     -12.875  11.141  71.643  1.00  0.00    -0.524 A  
HETATM   28  C   UNL     1     -13.602  12.248  72.089  1.00  0.00    -0.348 A  
HETATM   29  C   UNL     1     -11.771  12.531  70.018  1.00  0.00    -0.297 A  
BRANCH  26  30
HETATM   30  O   UNL     1     -14.211  14.498  72.005  1.00  0.00    -0.461 OA 
HETATM   31  C   UNL     1     -13.546  15.578  72.651  1.00  0.00    -0.564 C  
ENDBRANCH  26  30
ENDBRANCH  23  24
ENDBRANCH  21  23
ENDBRANCH   3  21
ENDBRANCH   2   3
TORSDOF 14
ENDMDL
MODEL      148
REMARK 921   NORMALIZED FREE ENERGY PREDICTED BY IDOCK:   -4.33 KCAL/MOL
REMARK 922        TOTAL FREE ENERGY PREDICTED BY IDOCK:  -10.66 KCAL/MOL
REMARK 923 INTER-LIGAND FREE ENERGY PREDICTED BY IDOCK:   -8.08 KCAL/MOL
REMARK 924 INTRA-LIGAND FREE ENERGY PREDICTED BY IDOCK:   -2.58 KCAL/MOL
REMARK 927      BINDING AFFINITY PREDICTED BY RF-SCORE:    0.00 PKD
ROOT
HETATM    1  C   UNL     1      -6.117   7.389  69.387  1.00  0.00    -0.031 C  
HETATM    2  C   UNL     1      -6.713   5.997  69.558  1.00  0.00    -0.056 C  
ENDROOT
BRANCH   2   3
HETATM    3  N   UNL     1      -8.068   5.906  70.114  1.00  0.00    -0.108 NA 
BRANCH   3   4
HETATM    4  C   UNL     1      -9.001   5.053  69.355  1.00  0.00    -0.092 C  
BRANCH   4   5
HETATM    5  C   UNL     1     -10.456   5.121  69.847  1.00  0.00    -0.296 C  
BRANCH   5   6
HETATM    6  C   UNL     1     -11.252   6.197  69.108  1.00  0.00    -0.409 C  
BRANCH   6   7
HETATM    7  C   UNL     1     -10.925   6.166  67.619  1.00  0.00    -0.302 C  
BRANCH   7   8
HETATM    8  O   UNL     1     -11.109   7.470  67.054  1.00  0.00    -0.224 OA 
BRANCH   8   9
HETATM    9  C   UNL     1      -9.964   8.138  66.763  1.00  0.00    -0.279 C  
HETATM   10  O   UNL     1      -8.825   7.731  66.915  1.00  0.00    -0.123 OA 
BRANCH   9  11
HETATM   11  C   UNL     1     -10.288   9.492  66.257  1.00  0.00    -0.226 A  
HETATM   12  C   UNL     1     -10.079   9.850  64.919  1.00  0.00    -0.055 A  
HETATM   13  C   UNL     1     -10.373  11.146  64.485  1.00  0.00    -0.337 A  
HETATM   14  C   UNL     1     -11.102  11.719  66.731  1.00  0.00    -0.360 A  
HETATM   15  C   UNL     1     -10.891  12.089  65.400  1.00  0.00    -0.291 A  
HETATM   16  C   UNL     1     -10.792  10.428  67.163  1.00  0.00    -0.301 A  
BRANCH  13  17
HETATM   17  O   UNL     1     -10.183  11.591  63.199  1.00  0.00    -0.364 OA 
HETATM   18  C   UNL     1      -8.996  11.191  62.528  1.00  0.00    -0.299 C  
ENDBRANCH  13  17
BRANCH  15  19
HETATM   19  O   UNL     1     -11.151  13.339  64.898  1.00  0.00    -0.306 OA 
HETATM   20  C   UNL     1     -10.222  14.372  65.199  1.00  0.00    -0.391 C  
ENDBRANCH  15  19
ENDBRANCH   9  11
ENDBRANCH   8   9
ENDBRANCH   7   8
ENDBRANCH   6   7
ENDBRANCH   5   6
ENDBRANCH   4   5
ENDBRANCH   3   4
BRANCH   3  21
HETATM   21  C   UNL     1      -8.183   5.713  71.581  1.00  0.00    -0.119 C  
HETATM   22  C   UNL     1      -7.054   4.885  72.220  1.00  0.00    -0.079 C  
BRANCH  21  23
HETATM   23  C   UNL     1      -8.358   7.028  72.400  1.00  0.00    -0.120 C  
BRANCH  23  24
HETATM   24  C   UNL     1      -9.612   7.824  72.106  1.00  0.00    -0.230 A  
HETATM   25  C   UNL     1     -10.712   9.704  71.013  1.00  0.00    -0.393 A  
HETATM   26  C   UNL     1     -11.927   9.351  71.596  1.00  0.00    -0.393 A  
HETATM   27  C   UNL     1     -10.835   7.486  72.698  1.00  0.00    -0.365 A  
HETATM   28  C   UNL     1     -11.983   8.237  72.433  1.00  0.00    -0.447 A  
HETATM   29  C   UNL     1      -9.562   8.946  71.268  1.00  0.00    -0.348 A  
BRANCH  26  30
HETATM   30  O   UNL     1     -13.125   9.977  71.381  1.00  0.00    -0.367 OA 
HETATM   31  C   UNL     1     -13.196  11.346  71.762  1.00  0.00    -0.367 C  
ENDBRANCH  26  30
ENDBRANCH  23  24
ENDBRANCH  21  23
ENDBRANCH   3  21
ENDBRANCH   2   3
TORSDOF 14
ENDMDL
MODEL      149
REMARK 921   NORMALIZED FREE ENERGY PREDICTED BY IDOCK:   -4.32 KCAL/MOL
REMARK 922        TOTAL FREE ENERGY PREDICTED BY IDOCK:  -10.65 KCAL/MOL
REMARK 923 INTER-LIGAND FREE ENERGY PREDICTED BY IDOCK:   -8.98 KCAL/MOL
REMARK 924 INTRA-LIGAND FREE ENERGY PREDICTED BY IDOCK:   -1.67 KCAL/MOL
REMARK 927      BINDING AFFINITY PREDICTED BY RF-SCORE:    0.00 PKD
ROOT
HETATM    1  C   UNL     1      -6.747   5.753  66.565  1.00  0.00    -0.057 C  
HETATM    2  C   UNL     1      -7.266   5.846  67.995  1.00  0.00    -0.076 C  
ENDROOT
BRANCH   2   3
HETATM    3  N   UNL     1      -8.703   6.083  68.177  1.00  0.00    -0.114 NA 
BRANCH   3   4
HETATM    4  C   UNL     1      -9.427   6.506  66.964  1.00  0.00    -0.138 C  
BRANCH   4   5
HETATM    5  C   UNL     1     -10.038   7.913  67.055  1.00  0.00    -0.347 C  
BRANCH   5   6
HETATM    6  C   UNL     1      -9.406   8.870  66.043  1.00  0.00    -0.306 C  
BRANCH   6   7
HETATM    7  C   UNL     1      -9.443  10.299  66.574  1.00  0.00    -0.171 C  
BRANCH   7   8
HETATM    8  O   UNL     1     -10.784  10.644  66.944  1.00  0.00    -0.257 OA 
BRANCH   8   9
HETATM    9  C   UNL     1     -11.254  11.793  66.395  1.00  0.00    -0.323 C  
HETATM   10  O   UNL     1     -11.441  12.010  65.210  1.00  0.00    -0.338 OA 
BRANCH   9  11
HETATM   11  C   UNL     1     -11.479  12.801  67.457  1.00  0.00    -0.390 A  
HETATM   12  C   UNL     1     -11.347  14.173  67.212  1.00  0.00    -0.349 A  
HETATM   13  C   UNL     1     -11.542  15.093  68.247  1.00  0.00    -0.339 A  
HETATM   14  C   UNL     1     -12.021  13.260  69.769  1.00  0.00    -0.391 A  
HETATM   15  C   UNL     1     -11.884  14.632  69.537  1.00  0.00    -0.330 A  
HETATM   16  C   UNL     1     -11.808  12.344  68.736  1.00  0.00    -0.358 A  
BRANCH  13  17
HETATM   17  O   UNL     1     -11.415  16.453  68.104  1.00  0.00    -0.283 OA 
HETATM   18  C   UNL     1     -10.513  16.935  67.118  1.00  0.00    -0.296 C  
ENDBRANCH  13  17
BRANCH  15  19
HETATM   19  O   UNL     1     -12.056  15.596  70.498  1.00  0.00    -0.352 OA 
HETATM   20  C   UNL     1     -13.098  15.400  71.444  1.00  0.00    -0.488 C  
ENDBRANCH  15  19
ENDBRANCH   9  11
ENDBRANCH   8   9
ENDBRANCH   7   8
ENDBRANCH   6   7
ENDBRANCH   5   6
ENDBRANCH   4   5
ENDBRANCH   3   4
BRANCH   3  21
HETATM   21  C   UNL     1      -9.457   5.081  68.971  1.00  0.00    -0.137 C  
HETATM   22  C   UNL     1      -9.124   3.613  68.652  1.00  0.00    -0.199 C  
BRANCH  21  23
HETATM   23  C   UNL     1      -9.382   5.282  70.514  1.00  0.00    -0.205 C  
BRANCH  23  24
HETATM   24  C   UNL     1     -10.368   6.273  71.097  1.00  0.00    -0.255 A  
HETATM   25  C   UNL     1     -10.955   7.916  72.799  1.00  0.00    -0.456 A  
HETATM   26  C   UNL     1     -12.216   8.079  72.228  1.00  0.00    -0.318 A  
HETATM   27  C   UNL     1     -11.642   6.433  70.539  1.00  0.00    -0.424 A  
HETATM   28  C   UNL     1     -12.551   7.338  71.094  1.00  0.00    -0.362 A  
HETATM   29  C   UNL     1     -10.039   7.018  72.237  1.00  0.00    -0.195 A  
BRANCH  26  30
HETATM   30  O   UNL     1     -13.173   8.961  72.650  1.00  0.00    -0.427 OA 
HETATM   31  C   UNL     1     -14.405   8.939  71.938  1.00  0.00    -0.292 C  
ENDBRANCH  26  30
ENDBRANCH  23  24
ENDBRANCH  21  23
ENDBRANCH   3  21
ENDBRANCH   2   3
TORSDOF 14
ENDMDL
MODEL      150
REMARK 921   NORMALIZED FREE ENERGY PREDICTED BY IDOCK:   -4.31 KCAL/MOL
REMARK 922        TOTAL FREE ENERGY PREDICTED BY IDOCK:  -10.63 KCAL/MOL
REMARK 923 INTER-LIGAND FREE ENERGY PREDICTED BY IDOCK:   -7.97 KCAL/MOL
REMARK 924 INTRA-LIGAND FREE ENERGY PREDICTED BY IDOCK:   -2.66 KCAL/MOL
REMARK 927      BINDING AFFINITY PREDICTED BY RF-SCORE:    0.00 PKD
ROOT
HETATM    1  C   UNL     1     -11.172  16.196  70.268  1.00  0.00    -0.389 C  
HETATM    2  C   UNL     1     -10.416  15.802  69.005  1.00  0.00    -0.225 C  
ENDROOT
BRANCH   2   3
HETATM    3  N   UNL     1     -11.208  15.538  67.798  1.00  0.00    -0.317 NA 
BRANCH   3   4
HETATM    4  C   UNL     1     -10.601  16.001  66.536  1.00  0.00    -0.284 C  
BRANCH   4   5
HETATM    5  C   UNL     1      -9.178  15.476  66.294  1.00  0.00    -0.364 C  
BRANCH   5   6
HETATM    6  C   UNL     1      -8.142  16.599  66.364  1.00  0.00    -0.359 C  
BRANCH   6   7
HETATM    7  C   UNL     1      -6.967  16.177  67.239  1.00  0.00    -0.199 C  
BRANCH   7   8
HETATM    8  O   UNL     1      -6.730  14.771  67.090  1.00  0.00    -0.250 OA 
BRANCH   8   9
HETATM    9  C   UNL     1      -6.389  14.121  68.231  1.00  0.00    -0.118 C  
HETATM   10  O   UNL     1      -5.693  14.552  69.135  1.00  0.00    -0.090 OA 
BRANCH   9  11
HETATM   11  C   UNL     1      -6.957  12.753  68.218  1.00  0.00    -0.097 A  
HETATM   12  C   UNL     1      -7.583  12.224  67.082  1.00  0.00    -0.118 A  
HETATM   13  C   UNL     1      -8.130  10.938  67.116  1.00  0.00    -0.127 A  
HETATM   14  C   UNL     1      -7.405  10.706  69.424  1.00  0.00    -0.133 A  
HETATM   15  C   UNL     1      -8.038  10.171  68.299  1.00  0.00    -0.102 A  
HETATM   16  C   UNL     1      -6.875  11.998  69.390  1.00  0.00    -0.028 A  
BRANCH  13  17
HETATM   17  O   UNL     1      -8.777  10.346  66.059  1.00  0.00    -0.142 OA 
HETATM   18  C   UNL     1      -8.040  10.142  64.862  1.00  0.00    -0.153 C  
ENDBRANCH  13  17
BRANCH  15  19
HETATM   19  O   UNL     1      -8.601   8.921  68.254  1.00  0.00    -0.132 OA 
HETATM   20  C   UNL     1      -8.686   8.195  69.473  1.00  0.00    -0.142 C  
ENDBRANCH  15  19
ENDBRANCH   9  11
ENDBRANCH   8   9
ENDBRANCH   7   8
ENDBRANCH   6   7
ENDBRANCH   5   6
ENDBRANCH   4   5
ENDBRANCH   3   4
BRANCH   3  21
HETATM   21  C   UNL     1     -11.822  14.192  67.676  1.00  0.00    -0.392 C  
HETATM   22  C   UNL     1     -12.329  13.834  66.268  1.00  0.00    -0.479 C  
BRANCH  21  23
HETATM   23  C   UNL     1     -10.936  13.021  68.196  1.00  0.00    -0.269 C  
BRANCH  23  24
HETATM   24  C   UNL     1     -11.548  12.166  69.286  1.00  0.00    -0.377 A  
HETATM   25  C   UNL     1     -12.014   9.972  70.238  1.00  0.00    -0.264 A  
HETATM   26  C   UNL     1     -12.733  10.559  71.278  1.00  0.00    -0.428 A  
HETATM   27  C   UNL     1     -12.284  12.746  70.327  1.00  0.00    -0.351 A  
HETATM   28  C   UNL     1     -12.859  11.948  71.319  1.00  0.00    -0.391 A  
HETATM   29  C   UNL     1     -11.427  10.771  69.249  1.00  0.00    -0.369 A  
BRANCH  26  30
HETATM   30  O   UNL     1     -13.302   9.892  72.328  1.00  0.00    -0.435 OA 
HETATM   31  C   UNL     1     -14.026   8.710  72.004  1.00  0.00    -0.446 C  
ENDBRANCH  26  30
ENDBRANCH  23  24
ENDBRANCH  21  23
ENDBRANCH   3  21
ENDBRANCH   2   3
TORSDOF 14
ENDMDL
MODEL      151
REMARK 921   NORMALIZED FREE ENERGY PREDICTED BY IDOCK:   -4.31 KCAL/MOL
REMARK 922        TOTAL FREE ENERGY PREDICTED BY IDOCK:  -10.63 KCAL/MOL
REMARK 923 INTER-LIGAND FREE ENERGY PREDICTED BY IDOCK:   -8.78 KCAL/MOL
REMARK 924 INTRA-LIGAND FREE ENERGY PREDICTED BY IDOCK:   -1.85 KCAL/MOL
REMARK 927      BINDING AFFINITY PREDICTED BY RF-SCORE:    0.00 PKD
ROOT
HETATM    1  C   UNL     1     -10.337  11.094  65.116  1.00  0.00    -0.354 C  
HETATM    2  C   UNL     1     -10.558  11.030  66.622  1.00  0.00    -0.262 C  
ENDROOT
BRANCH   2   3
HETATM    3  N   UNL     1     -10.669  12.303  67.343  1.00  0.00    -0.225 NA 
BRANCH   3   4
HETATM    4  C   UNL     1     -11.812  12.402  68.269  1.00  0.00    -0.309 C  
BRANCH   4   5
HETATM    5  C   UNL     1     -12.005  11.167  69.163  1.00  0.00    -0.413 C  
BRANCH   5   6
HETATM    6  C   UNL     1     -12.150  11.553  70.636  1.00  0.00    -0.450 C  
BRANCH   6   7
HETATM    7  C   UNL     1     -13.010  10.528  71.367  1.00  0.00    -0.440 C  
BRANCH   7   8
HETATM    8  O   UNL     1     -12.183   9.470  71.869  1.00  0.00    -0.374 OA 
BRANCH   8   9
HETATM    9  C   UNL     1     -12.492   8.231  71.411  1.00  0.00    -0.292 C  
HETATM   10  O   UNL     1     -13.552   7.646  71.555  1.00  0.00    -0.368 OA 
BRANCH   9  11
HETATM   11  C   UNL     1     -11.318   7.642  70.727  1.00  0.00    -0.296 A  
HETATM   12  C   UNL     1     -10.108   8.336  70.606  1.00  0.00    -0.212 A  
HETATM   13  C   UNL     1      -9.030   7.757  69.931  1.00  0.00    -0.146 A  
HETATM   14  C   UNL     1     -10.374   5.776  69.513  1.00  0.00    -0.333 A  
HETATM   15  C   UNL     1      -9.164   6.463  69.380  1.00  0.00    -0.143 A  
HETATM   16  C   UNL     1     -11.453   6.366  70.174  1.00  0.00    -0.484 A  
BRANCH  13  17
HETATM   17  O   UNL     1      -7.814   8.370  69.748  1.00  0.00    -0.094 OA 
HETATM   18  C   UNL     1      -7.051   8.685  70.904  1.00  0.00    -0.067 C  
ENDBRANCH  13  17
BRANCH  15  19
HETATM   19  O   UNL     1      -8.063   5.965  68.730  1.00  0.00    -0.101 OA 
HETATM   20  C   UNL     1      -8.265   4.881  67.834  1.00  0.00    -0.100 C  
ENDBRANCH  15  19
ENDBRANCH   9  11
ENDBRANCH   8   9
ENDBRANCH   7   8
ENDBRANCH   6   7
ENDBRANCH   5   6
ENDBRANCH   4   5
ENDBRANCH   3   4
BRANCH   3  21
HETATM   21  C   UNL     1      -9.420  12.865  67.916  1.00  0.00    -0.208 C  
HETATM   22  C   UNL     1      -8.366  11.822  68.327  1.00  0.00    -0.159 C  
BRANCH  21  23
HETATM   23  C   UNL     1      -8.728  13.948  67.036  1.00  0.00    -0.215 C  
BRANCH  23  24
HETATM   24  C   UNL     1      -9.313  15.342  67.128  1.00  0.00    -0.225 A  
HETATM   25  C   UNL     1      -9.986  17.266  68.464  1.00  0.00    -0.320 A  
HETATM   26  C   UNL     1     -10.452  17.915  67.323  1.00  0.00    -0.366 A  
HETATM   27  C   UNL     1      -9.796  15.997  65.989  1.00  0.00    -0.365 A  
HETATM   28  C   UNL     1     -10.349  17.276  66.086  1.00  0.00    -0.320 A  
HETATM   29  C   UNL     1      -9.421  15.988  68.367  1.00  0.00    -0.207 A  
BRANCH  26  30
HETATM   30  O   UNL     1     -10.970  19.180  67.282  1.00  0.00    -0.478 OA 
HETATM   31  C   UNL     1     -10.029  20.241  67.160  1.00  0.00    -0.453 C  
ENDBRANCH  26  30
ENDBRANCH  23  24
ENDBRANCH  21  23
ENDBRANCH   3  21
ENDBRANCH   2   3
TORSDOF 14
ENDMDL
MODEL      152
REMARK 921   NORMALIZED FREE ENERGY PREDICTED BY IDOCK:   -4.31 KCAL/MOL
REMARK 922        TOTAL FREE ENERGY PREDICTED BY IDOCK:  -10.63 KCAL/MOL
REMARK 923 INTER-LIGAND FREE ENERGY PREDICTED BY IDOCK:   -8.29 KCAL/MOL
REMARK 924 INTRA-LIGAND FREE ENERGY PREDICTED BY IDOCK:   -2.34 KCAL/MOL
REMARK 927      BINDING AFFINITY PREDICTED BY RF-SCORE:    0.00 PKD
ROOT
HETATM    1  C   UNL     1      -9.598   6.751  74.286  1.00  0.00    -0.305 C  
HETATM    2  C   UNL     1     -10.842   6.922  73.422  1.00  0.00    -0.273 C  
ENDROOT
BRANCH   2   3
HETATM    3  N   UNL     1     -10.983   8.182  72.685  1.00  0.00    -0.372 NA 
BRANCH   3   4
HETATM    4  C   UNL     1      -9.716   8.804  72.258  1.00  0.00    -0.212 C  
BRANCH   4   5
HETATM    5  C   UNL     1      -9.329   8.506  70.801  1.00  0.00    -0.206 C  
BRANCH   5   6
HETATM    6  C   UNL     1      -8.646   9.704  70.141  1.00  0.00    -0.243 C  
BRANCH   6   7
HETATM    7  C   UNL     1      -8.214   9.349  68.723  1.00  0.00    -0.108 C  
BRANCH   7   8
HETATM    8  O   UNL     1      -7.930  10.546  67.988  1.00  0.00    -0.103 OA 
BRANCH   8   9
HETATM    9  C   UNL     1      -8.974  11.403  67.857  1.00  0.00    -0.153 C  
HETATM   10  O   UNL     1     -10.080  11.139  67.418  1.00  0.00    -0.180 OA 
BRANCH   9  11
HETATM   11  C   UNL     1      -8.568  12.759  68.291  1.00  0.00    -0.166 A  
HETATM   12  C   UNL     1      -9.509  13.761  68.559  1.00  0.00    -0.162 A  
HETATM   13  C   UNL     1      -9.086  15.037  68.943  1.00  0.00    -0.202 A  
HETATM   14  C   UNL     1      -6.775  14.298  68.806  1.00  0.00    -0.095 A  
HETATM   15  C   UNL     1      -7.705  15.308  69.069  1.00  0.00    -0.183 A  
HETATM   16  C   UNL     1      -7.202  13.030  68.408  1.00  0.00    -0.110 A  
BRANCH  13  17
HETATM   17  O   UNL     1      -9.935  16.085  69.207  1.00  0.00    -0.225 OA 
HETATM   18  C   UNL     1     -10.696  16.609  68.128  1.00  0.00    -0.349 C  
ENDBRANCH  13  17
BRANCH  15  19
HETATM   19  O   UNL     1      -7.371  16.584  69.446  1.00  0.00    -0.230 OA 
HETATM   20  C   UNL     1      -6.052  16.800  69.930  1.00  0.00    -0.194 C  
ENDBRANCH  15  19
ENDBRANCH   9  11
ENDBRANCH   8   9
ENDBRANCH   7   8
ENDBRANCH   6   7
ENDBRANCH   5   6
ENDBRANCH   4   5
ENDBRANCH   3   4
BRANCH   3  21
HETATM   21  C   UNL     1     -12.028   8.234  71.632  1.00  0.00    -0.303 C  
HETATM   22  C   UNL     1     -12.591   6.867  71.205  1.00  0.00    -0.394 C  
BRANCH  21  23
HETATM   23  C   UNL     1     -13.221   9.186  71.944  1.00  0.00    -0.479 C  
BRANCH  23  24
HETATM   24  C   UNL     1     -12.995  10.650  71.628  1.00  0.00    -0.582 A  
HETATM   25  C   UNL     1     -11.970  12.380  70.250  1.00  0.00    -0.371 A  
HETATM   26  C   UNL     1     -12.516  13.371  71.063  1.00  0.00    -0.353 A  
HETATM   27  C   UNL     1     -13.528  11.653  72.446  1.00  0.00     0.141 A  
HETATM   28  C   UNL     1     -13.300  13.001  72.157  1.00  0.00    -0.622 A  
HETATM   29  C   UNL     1     -12.208  11.028  70.533  1.00  0.00    -0.472 A  
BRANCH  26  30
HETATM   30  O   UNL     1     -12.403  14.719  70.859  1.00  0.00    -0.277 OA 
HETATM   31  C   UNL     1     -13.319  15.542  71.573  1.00  0.00    -0.509 C  
ENDBRANCH  26  30
ENDBRANCH  23  24
ENDBRANCH  21  23
ENDBRANCH   3  21
ENDBRANCH   2   3
TORSDOF 14
ENDMDL
MODEL      153
REMARK 921   NORMALIZED FREE ENERGY PREDICTED BY IDOCK:   -4.31 KCAL/MOL
REMARK 922        TOTAL FREE ENERGY PREDICTED BY IDOCK:  -10.63 KCAL/MOL
REMARK 923 INTER-LIGAND FREE ENERGY PREDICTED BY IDOCK:   -7.54 KCAL/MOL
REMARK 924 INTRA-LIGAND FREE ENERGY PREDICTED BY IDOCK:   -3.09 KCAL/MOL
REMARK 927      BINDING AFFINITY PREDICTED BY RF-SCORE:    0.00 PKD
ROOT
HETATM    1  C   UNL     1     -10.965  16.323  70.194  1.00  0.00    -0.335 C  
HETATM    2  C   UNL     1     -11.674  15.603  69.054  1.00  0.00    -0.395 C  
ENDROOT
BRANCH   2   3
HETATM    3  N   UNL     1     -10.856  14.758  68.177  1.00  0.00    -0.248 NA 
BRANCH   3   4
HETATM    4  C   UNL     1      -9.405  15.013  68.235  1.00  0.00    -0.192 C  
BRANCH   4   5
HETATM    5  C   UNL     1      -8.599  14.315  67.129  1.00  0.00    -0.234 C  
BRANCH   5   6
HETATM    6  C   UNL     1      -7.406  13.548  67.698  1.00  0.00    -0.180 C  
BRANCH   6   7
HETATM    7  C   UNL     1      -7.404  12.114  67.179  1.00  0.00    -0.124 C  
BRANCH   7   8
HETATM    8  O   UNL     1      -6.489  11.321  67.946  1.00  0.00    -0.056 OA 
BRANCH   8   9
HETATM    9  C   UNL     1      -6.946  10.929  69.162  1.00  0.00    -0.096 C  
HETATM   10  O   UNL     1      -6.567  11.334  70.248  1.00  0.00    -0.213 OA 
BRANCH   9  11
HETATM   11  C   UNL     1      -7.974   9.875  68.996  1.00  0.00    -0.101 A  
HETATM   12  C   UNL     1      -7.717   8.699  68.281  1.00  0.00    -0.101 A  
HETATM   13  C   UNL     1      -8.721   7.739  68.124  1.00  0.00    -0.126 A  
HETATM   14  C   UNL     1     -10.236   9.131  69.417  1.00  0.00    -0.212 A  
HETATM   15  C   UNL     1      -9.992   7.956  68.699  1.00  0.00    -0.191 A  
HETATM   16  C   UNL     1      -9.234  10.094  69.557  1.00  0.00    -0.223 A  
BRANCH  13  17
HETATM   17  O   UNL     1      -8.565   6.566  67.425  1.00  0.00    -0.118 OA 
HETATM   18  C   UNL     1      -8.149   6.654  66.069  1.00  0.00    -0.122 C  
ENDBRANCH  13  17
BRANCH  15  19
HETATM   19  O   UNL     1     -10.924   6.969  68.498  1.00  0.00    -0.166 OA 
HETATM   20  C   UNL     1     -11.474   6.343  69.650  1.00  0.00    -0.378 C  
ENDBRANCH  15  19
ENDBRANCH   9  11
ENDBRANCH   8   9
ENDBRANCH   7   8
ENDBRANCH   6   7
ENDBRANCH   5   6
ENDBRANCH   4   5
ENDBRANCH   3   4
BRANCH   3  21
HETATM   21  C   UNL     1     -11.179  13.309  68.145  1.00  0.00    -0.270 C  
HETATM   22  C   UNL     1     -11.842  12.761  69.421  1.00  0.00    -0.359 C  
BRANCH  21  23
HETATM   23  C   UNL     1     -12.023  12.857  66.915  1.00  0.00    -0.402 C  
BRANCH  23  24
HETATM   24  C   UNL     1     -11.266  12.105  65.839  1.00  0.00    -0.384 A  
HETATM   25  C   UNL     1      -9.890  10.214  65.155  1.00  0.00    -0.394 A  
HETATM   26  C   UNL     1      -9.806  10.724  63.862  1.00  0.00    -0.332 A  
HETATM   27  C   UNL     1     -11.165  12.616  64.540  1.00  0.00    -0.375 A  
HETATM   28  C   UNL     1     -10.451  11.923  63.559  1.00  0.00    -0.505 A  
HETATM   29  C   UNL     1     -10.615  10.901  66.137  1.00  0.00    -0.270 A  
BRANCH  26  30
HETATM   30  O   UNL     1      -9.178  10.119  62.807  1.00  0.00    -0.260 OA 
HETATM   31  C   UNL     1      -8.196   9.144  63.135  1.00  0.00    -0.176 C  
ENDBRANCH  26  30
ENDBRANCH  23  24
ENDBRANCH  21  23
ENDBRANCH   3  21
ENDBRANCH   2   3
TORSDOF 14
ENDMDL
MODEL      154
REMARK 921   NORMALIZED FREE ENERGY PREDICTED BY IDOCK:   -4.30 KCAL/MOL
REMARK 922        TOTAL FREE ENERGY PREDICTED BY IDOCK:  -10.61 KCAL/MOL
REMARK 923 INTER-LIGAND FREE ENERGY PREDICTED BY IDOCK:   -7.96 KCAL/MOL
REMARK 924 INTRA-LIGAND FREE ENERGY PREDICTED BY IDOCK:   -2.65 KCAL/MOL
REMARK 927      BINDING AFFINITY PREDICTED BY RF-SCORE:    0.00 PKD
ROOT
HETATM    1  C   UNL     1     -10.561  18.001  67.480  1.00  0.00    -0.402 C  
HETATM    2  C   UNL     1     -10.786  16.510  67.703  1.00  0.00    -0.269 C  
ENDROOT
BRANCH   2   3
HETATM    3  N   UNL     1     -10.616  15.622  66.548  1.00  0.00    -0.305 NA 
BRANCH   3   4
HETATM    4  C   UNL     1      -9.236  15.159  66.311  1.00  0.00    -0.301 C  
BRANCH   4   5
HETATM    5  C   UNL     1      -8.360  15.122  67.573  1.00  0.00    -0.188 C  
BRANCH   5   6
HETATM    6  C   UNL     1      -7.338  13.986  67.519  1.00  0.00    -0.187 C  
BRANCH   6   7
HETATM    7  C   UNL     1      -7.838  12.789  68.320  1.00  0.00    -0.141 C  
BRANCH   7   8
HETATM    8  O   UNL     1      -6.878  11.726  68.255  1.00  0.00    -0.062 OA 
BRANCH   8   9
HETATM    9  C   UNL     1      -6.939  10.963  67.135  1.00  0.00    -0.098 C  
HETATM   10  O   UNL     1      -6.268  11.096  66.126  1.00  0.00    -0.133 OA 
BRANCH   9  11
HETATM   11  C   UNL     1      -7.996   9.936  67.286  1.00  0.00    -0.109 A  
HETATM   12  C   UNL     1      -8.176   9.230  68.482  1.00  0.00    -0.114 A  
HETATM   13  C   UNL     1      -9.167   8.249  68.577  1.00  0.00    -0.136 A  
HETATM   14  C   UNL     1      -9.810   8.696  66.276  1.00  0.00    -0.320 A  
HETATM   15  C   UNL     1      -9.994   7.981  67.463  1.00  0.00    -0.194 A  
HETATM   16  C   UNL     1      -8.807   9.663  66.181  1.00  0.00    -0.173 A  
BRANCH  13  17
HETATM   17  O   UNL     1      -9.403   7.497  69.702  1.00  0.00    -0.154 OA 
HETATM   18  C   UNL     1      -8.820   7.930  70.923  1.00  0.00    -0.138 C  
ENDBRANCH  13  17
BRANCH  15  19
HETATM   19  O   UNL     1     -10.941   7.003  67.635  1.00  0.00    -0.233 OA 
HETATM   20  C   UNL     1     -10.782   5.800  66.896  1.00  0.00    -0.305 C  
ENDBRANCH  15  19
ENDBRANCH   9  11
ENDBRANCH   8   9
ENDBRANCH   7   8
ENDBRANCH   6   7
ENDBRANCH   5   6
ENDBRANCH   4   5
ENDBRANCH   3   4
BRANCH   3  21
HETATM   21  C   UNL     1     -11.618  14.540  66.375  1.00  0.00    -0.364 C  
HETATM   22  C   UNL     1     -12.313  14.509  65.003  1.00  0.00    -0.353 C  
BRANCH  21  23
HETATM   23  C   UNL     1     -11.094  13.108  66.698  1.00  0.00    -0.316 C  
BRANCH  23  24
HETATM   24  C   UNL     1     -11.482  12.556  68.054  1.00  0.00    -0.368 A  
HETATM   25  C   UNL     1     -11.919  10.653  69.512  1.00  0.00    -0.319 A  
HETATM   26  C   UNL     1     -12.260  11.511  70.555  1.00  0.00    -0.377 A  
HETATM   27  C   UNL     1     -11.839  13.410  69.104  1.00  0.00    -0.383 A  
HETATM   28  C   UNL     1     -12.212  12.890  70.346  1.00  0.00    -0.381 A  
HETATM   29  C   UNL     1     -11.534  11.173  68.270  1.00  0.00    -0.373 A  
BRANCH  26  30
HETATM   30  O   UNL     1     -12.597  11.128  71.825  1.00  0.00    -0.308 OA 
HETATM   31  C   UNL     1     -13.156   9.826  71.960  1.00  0.00    -0.452 C  
ENDBRANCH  26  30
ENDBRANCH  23  24
ENDBRANCH  21  23
ENDBRANCH   3  21
ENDBRANCH   2   3
TORSDOF 14
ENDMDL
MODEL      155
REMARK 921   NORMALIZED FREE ENERGY PREDICTED BY IDOCK:   -4.30 KCAL/MOL
REMARK 922        TOTAL FREE ENERGY PREDICTED BY IDOCK:  -10.60 KCAL/MOL
REMARK 923 INTER-LIGAND FREE ENERGY PREDICTED BY IDOCK:   -8.97 KCAL/MOL
REMARK 924 INTRA-LIGAND FREE ENERGY PREDICTED BY IDOCK:   -1.63 KCAL/MOL
REMARK 927      BINDING AFFINITY PREDICTED BY RF-SCORE:    0.00 PKD
ROOT
HETATM    1  C   UNL     1     -13.169  15.079  72.786  1.00  0.00    -0.565 C  
HETATM    2  C   UNL     1     -13.568  13.716  72.234  1.00  0.00    -0.571 C  
ENDROOT
BRANCH   2   3
HETATM    3  N   UNL     1     -12.999  13.318  70.942  1.00  0.00    -0.161 NA 
BRANCH   3   4
HETATM    4  C   UNL     1     -11.794  14.062  70.531  1.00  0.00    -0.269 C  
BRANCH   4   5
HETATM    5  C   UNL     1     -12.010  14.995  69.330  1.00  0.00    -0.336 C  
BRANCH   5   6
HETATM    6  C   UNL     1     -11.254  14.509  68.093  1.00  0.00    -0.301 C  
BRANCH   6   7
HETATM    7  C   UNL     1     -12.222  14.295  66.934  1.00  0.00    -0.331 C  
BRANCH   7   8
HETATM    8  O   UNL     1     -11.910  13.067  66.262  1.00  0.00    -0.370 OA 
BRANCH   8   9
HETATM    9  C   UNL     1     -10.734  13.064  65.587  1.00  0.00    -0.275 C  
HETATM   10  O   UNL     1     -10.316  13.940  64.848  1.00  0.00    -0.397 OA 
BRANCH   9  11
HETATM   11  C   UNL     1     -10.015  11.793  65.837  1.00  0.00    -0.266 A  
HETATM   12  C   UNL     1      -9.204  11.613  66.964  1.00  0.00    -0.185 A  
HETATM   13  C   UNL     1      -8.521  10.408  67.152  1.00  0.00    -0.126 A  
HETATM   14  C   UNL     1      -9.479   9.557  65.087  1.00  0.00    -0.305 A  
HETATM   15  C   UNL     1      -8.661   9.369  66.205  1.00  0.00    -0.140 A  
HETATM   16  C   UNL     1     -10.147  10.769  64.896  1.00  0.00    -0.387 A  
BRANCH  13  17
HETATM   17  O   UNL     1      -7.691  10.149  68.216  1.00  0.00    -0.086 OA 
HETATM   18  C   UNL     1      -8.289   9.952  69.490  1.00  0.00    -0.168 C  
ENDBRANCH  13  17
BRANCH  15  19
HETATM   19  O   UNL     1      -7.957   8.219  66.460  1.00  0.00    -0.097 OA 
HETATM   20  C   UNL     1      -8.605   6.982  66.195  1.00  0.00    -0.143 C  
ENDBRANCH  15  19
ENDBRANCH   9  11
ENDBRANCH   8   9
ENDBRANCH   7   8
ENDBRANCH   6   7
ENDBRANCH   5   6
ENDBRANCH   4   5
ENDBRANCH   3   4
BRANCH   3  21
HETATM   21  C   UNL     1     -12.890  11.862  70.673  1.00  0.00     0.025 C  
HETATM   22  C   UNL     1     -11.688  11.449  69.804  1.00  0.00    -0.418 C  
BRANCH  21  23
HETATM   23  C   UNL     1     -12.916  10.960  71.943  1.00  0.00    -0.502 C  
BRANCH  23  24
HETATM   24  C   UNL     1     -12.477   9.525  71.740  1.00  0.00    -0.484 A  
HETATM   25  C   UNL     1     -13.027   7.185  71.343  1.00  0.00    -0.419 A  
HETATM   26  C   UNL     1     -11.679   6.839  71.419  1.00  0.00    -0.325 A  
HETATM   27  C   UNL     1     -11.126   9.166  71.828  1.00  0.00    -0.437 A  
HETATM   28  C   UNL     1     -10.733   7.837  71.656  1.00  0.00    -0.257 A  
HETATM   29  C   UNL     1     -13.422   8.518  71.504  1.00  0.00    -0.325 A  
BRANCH  26  30
HETATM   30  O   UNL     1     -11.166   5.586  71.224  1.00  0.00    -0.149 OA 
HETATM   31  C   UNL     1     -10.211   5.142  72.180  1.00  0.00    -0.202 C  
ENDBRANCH  26  30
ENDBRANCH  23  24
ENDBRANCH  21  23
ENDBRANCH   3  21
ENDBRANCH   2   3
TORSDOF 14
ENDMDL
MODEL      156
REMARK 921   NORMALIZED FREE ENERGY PREDICTED BY IDOCK:   -4.29 KCAL/MOL
REMARK 922        TOTAL FREE ENERGY PREDICTED BY IDOCK:  -10.60 KCAL/MOL
REMARK 923 INTER-LIGAND FREE ENERGY PREDICTED BY IDOCK:   -8.58 KCAL/MOL
REMARK 924 INTRA-LIGAND FREE ENERGY PREDICTED BY IDOCK:   -2.02 KCAL/MOL
REMARK 927      BINDING AFFINITY PREDICTED BY RF-SCORE:    0.00 PKD
ROOT
HETATM    1  C   UNL     1      -6.348  18.880  69.387  1.00  0.00    -0.299 C  
HETATM    2  C   UNL     1      -6.598  17.379  69.483  1.00  0.00    -0.172 C  
ENDROOT
BRANCH   2   3
HETATM    3  N   UNL     1      -7.640  16.812  68.620  1.00  0.00    -0.210 NA 
BRANCH   3   4
HETATM    4  C   UNL     1      -8.812  17.680  68.400  1.00  0.00    -0.281 C  
BRANCH   4   5
HETATM    5  C   UNL     1      -9.886  17.066  67.487  1.00  0.00    -0.258 C  
BRANCH   5   6
HETATM    6  C   UNL     1     -10.806  16.117  68.256  1.00  0.00    -0.326 C  
BRANCH   6   7
HETATM    7  C   UNL     1     -10.929  16.563  69.708  1.00  0.00    -0.292 C  
BRANCH   7   8
HETATM    8  O   UNL     1     -11.104  15.419  70.554  1.00  0.00    -0.294 OA 
BRANCH   8   9
HETATM    9  C   UNL     1     -12.392  15.045  70.758  1.00  0.00    -0.343 C  
HETATM   10  O   UNL     1     -13.358  15.783  70.846  1.00  0.00    -0.576 OA 
BRANCH   9  11
HETATM   11  C   UNL     1     -12.470  13.574  70.908  1.00  0.00    -0.448 A  
HETATM   12  C   UNL     1     -11.761  12.707  70.066  1.00  0.00    -0.289 A  
HETATM   13  C   UNL     1     -11.881  11.323  70.222  1.00  0.00    -0.357 A  
HETATM   14  C   UNL     1     -13.409  11.678  72.079  1.00  0.00    -0.405 A  
HETATM   15  C   UNL     1     -12.712  10.803  71.240  1.00  0.00    -0.441 A  
HETATM   16  C   UNL     1     -13.298  13.059  71.908  1.00  0.00    -0.539 A  
BRANCH  13  17
HETATM   17  O   UNL     1     -11.240  10.399  69.433  1.00  0.00    -0.233 OA 
HETATM   18  C   UNL     1      -9.953   9.958  69.843  1.00  0.00    -0.252 C  
ENDBRANCH  13  17
BRANCH  15  19
HETATM   19  O   UNL     1     -12.778   9.436  71.327  1.00  0.00    -0.318 OA 
HETATM   20  C   UNL     1     -13.694   8.882  72.262  1.00  0.00    -0.471 C  
ENDBRANCH  15  19
ENDBRANCH   9  11
ENDBRANCH   8   9
ENDBRANCH   7   8
ENDBRANCH   6   7
ENDBRANCH   5   6
ENDBRANCH   4   5
ENDBRANCH   3   4
BRANCH   3  21
HETATM   21  C   UNL     1      -7.192  16.133  67.378  1.00  0.00    -0.182 C  
HETATM   22  C   UNL     1      -6.284  16.977  66.466  1.00  0.00    -0.205 C  
BRANCH  21  23
HETATM   23  C   UNL     1      -6.519  14.746  67.600  1.00  0.00    -0.162 C  
BRANCH  23  24
HETATM   24  C   UNL     1      -7.353  13.541  67.215  1.00  0.00    -0.030 A  
HETATM   25  C   UNL     1      -9.512  12.559  66.658  1.00  0.00    -0.242 A  
HETATM   26  C   UNL     1      -8.928  11.297  66.554  1.00  0.00    -0.184 A  
HETATM   27  C   UNL     1      -6.778  12.268  67.122  1.00  0.00    -0.105 A  
HETATM   28  C   UNL     1      -7.559  11.160  66.782  1.00  0.00    -0.146 A  
HETATM   29  C   UNL     1      -8.729  13.672  66.987  1.00  0.00    -0.204 A  
BRANCH  26  30
HETATM   30  O   UNL     1      -9.574  10.149  66.186  1.00  0.00    -0.180 OA 
HETATM   31  C   UNL     1      -8.980   8.929  66.615  1.00  0.00    -0.136 C  
ENDBRANCH  26  30
ENDBRANCH  23  24
ENDBRANCH  21  23
ENDBRANCH   3  21
ENDBRANCH   2   3
TORSDOF 14
ENDMDL
MODEL      157
REMARK 921   NORMALIZED FREE ENERGY PREDICTED BY IDOCK:   -4.29 KCAL/MOL
REMARK 922        TOTAL FREE ENERGY PREDICTED BY IDOCK:  -10.59 KCAL/MOL
REMARK 923 INTER-LIGAND FREE ENERGY PREDICTED BY IDOCK:   -7.68 KCAL/MOL
REMARK 924 INTRA-LIGAND FREE ENERGY PREDICTED BY IDOCK:   -2.91 KCAL/MOL
REMARK 927      BINDING AFFINITY PREDICTED BY RF-SCORE:    0.00 PKD
ROOT
HETATM    1  C   UNL     1     -10.755   5.514  69.716  1.00  0.00    -0.355 C  
HETATM    2  C   UNL     1      -9.411   5.532  70.435  1.00  0.00    -0.159 C  
ENDROOT
BRANCH   2   3
HETATM    3  N   UNL     1      -9.430   5.507  71.901  1.00  0.00    -0.148 NA 
BRANCH   3   4
HETATM    4  C   UNL     1      -8.276   6.152  72.555  1.00  0.00    -0.108 C  
BRANCH   4   5
HETATM    5  C   UNL     1      -7.362   6.928  71.593  1.00  0.00    -0.084 C  
BRANCH   5   6
HETATM    6  C   UNL     1      -6.980   8.297  72.157  1.00  0.00    -0.098 C  
BRANCH   6   7
HETATM    7  C   UNL     1      -6.334   9.152  71.073  1.00  0.00    -0.071 C  
BRANCH   7   8
HETATM    8  O   UNL     1      -7.227  10.205  70.689  1.00  0.00    -0.317 OA 
BRANCH   8   9
HETATM    9  C   UNL     1      -6.777  11.007  69.691  1.00  0.00    -0.137 C  
HETATM   10  O   UNL     1      -5.714  11.603  69.661  1.00  0.00    -0.067 OA 
BRANCH   9  11
HETATM   11  C   UNL     1      -7.799  11.101  68.624  1.00  0.00    -0.138 A  
HETATM   12  C   UNL     1      -8.304   9.964  67.981  1.00  0.00    -0.113 A  
HETATM   13  C   UNL     1      -9.249  10.095  66.960  1.00  0.00    -0.146 A  
HETATM   14  C   UNL     1      -9.195  12.509  67.239  1.00  0.00    -0.190 A  
HETATM   15  C   UNL     1      -9.700  11.381  66.586  1.00  0.00    -0.200 A  
HETATM   16  C   UNL     1      -8.239  12.373  68.248  1.00  0.00    -0.170 A  
BRANCH  13  17
HETATM   17  O   UNL     1      -9.785   9.040  66.263  1.00  0.00    -0.235 OA 
HETATM   18  C   UNL     1     -10.500   8.056  66.998  1.00  0.00    -0.340 C  
ENDBRANCH  13  17
BRANCH  15  19
HETATM   19  O   UNL     1     -10.626  11.427  65.575  1.00  0.00    -0.268 OA 
HETATM   20  C   UNL     1     -11.765  12.255  65.765  1.00  0.00    -0.385 C  
ENDBRANCH  15  19
ENDBRANCH   9  11
ENDBRANCH   8   9
ENDBRANCH   7   8
ENDBRANCH   6   7
ENDBRANCH   5   6
ENDBRANCH   4   5
ENDBRANCH   3   4
BRANCH   3  21
HETATM   21  C   UNL     1     -10.717   5.833  72.565  1.00  0.00    -0.237 C  
HETATM   22  C   UNL     1     -11.216   4.781  73.571  1.00  0.00    -0.392 C  
BRANCH  21  23
HETATM   23  C   UNL     1     -10.761   7.233  73.249  1.00  0.00    -0.428 C  
BRANCH  23  24
HETATM   24  C   UNL     1     -11.346   8.354  72.415  1.00  0.00    -0.448 A  
HETATM   25  C   UNL     1     -13.247   9.737  71.773  1.00  0.00    -0.532 A  
HETATM   26  C   UNL     1     -12.465  10.400  70.830  1.00  0.00    -0.368 A  
HETATM   27  C   UNL     1     -10.572   9.017  71.456  1.00  0.00    -0.415 A  
HETATM   28  C   UNL     1     -11.126  10.039  70.680  1.00  0.00    -0.408 A  
HETATM   29  C   UNL     1     -12.691   8.720  72.559  1.00  0.00    -0.378 A  
BRANCH  26  30
HETATM   30  O   UNL     1     -12.877  11.442  70.045  1.00  0.00    -0.021 OA 
HETATM   31  C   UNL     1     -11.858  12.321  69.582  1.00  0.00    -0.324 C  
ENDBRANCH  26  30
ENDBRANCH  23  24
ENDBRANCH  21  23
ENDBRANCH   3  21
ENDBRANCH   2   3
TORSDOF 14
ENDMDL
MODEL      158
REMARK 921   NORMALIZED FREE ENERGY PREDICTED BY IDOCK:   -4.29 KCAL/MOL
REMARK 922        TOTAL FREE ENERGY PREDICTED BY IDOCK:  -10.58 KCAL/MOL
REMARK 923 INTER-LIGAND FREE ENERGY PREDICTED BY IDOCK:   -8.12 KCAL/MOL
REMARK 924 INTRA-LIGAND FREE ENERGY PREDICTED BY IDOCK:   -2.46 KCAL/MOL
REMARK 927      BINDING AFFINITY PREDICTED BY RF-SCORE:    0.00 PKD
ROOT
HETATM    1  C   UNL     1     -11.139  10.440  70.096  1.00  0.00    -0.383 C  
HETATM    2  C   UNL     1     -10.355   9.288  69.477  1.00  0.00    -0.216 C  
ENDROOT
BRANCH   2   3
HETATM    3  N   UNL     1      -9.236   9.631  68.593  1.00  0.00    -0.134 NA 
BRANCH   3   4
HETATM    4  C   UNL     1      -7.945   9.848  69.272  1.00  0.00    -0.121 C  
BRANCH   4   5
HETATM    5  C   UNL     1      -7.403  11.281  69.150  1.00  0.00    -0.104 C  
BRANCH   5   6
HETATM    6  C   UNL     1      -6.066  11.319  68.410  1.00  0.00    -0.045 C  
BRANCH   6   7
HETATM    7  C   UNL     1      -6.181  12.182  67.158  1.00  0.00    -0.143 C  
BRANCH   7   8
HETATM    8  O   UNL     1      -7.104  13.253  67.391  1.00  0.00    -0.159 OA 
BRANCH   8   9
HETATM    9  C   UNL     1      -6.543  14.484  67.495  1.00  0.00    -0.081 C  
HETATM   10  O   UNL     1      -5.354  14.749  67.443  1.00  0.00    -0.335 OA 
BRANCH   9  11
HETATM   11  C   UNL     1      -7.597  15.497  67.734  1.00  0.00    -0.162 A  
HETATM   12  C   UNL     1      -8.951  15.151  67.811  1.00  0.00    -0.178 A  
HETATM   13  C   UNL     1      -9.919  16.139  68.011  1.00  0.00    -0.238 A  
HETATM   14  C   UNL     1      -8.167  17.822  68.076  1.00  0.00    -0.248 A  
HETATM   15  C   UNL     1      -9.523  17.488  68.147  1.00  0.00    -0.291 A  
HETATM   16  C   UNL     1      -7.206  16.833  67.859  1.00  0.00    -0.159 A  
BRANCH  13  17
HETATM   17  O   UNL     1     -11.269  15.894  68.082  1.00  0.00    -0.338 OA 
HETATM   18  C   UNL     1     -11.691  14.672  68.669  1.00  0.00    -0.329 C  
ENDBRANCH  13  17
BRANCH  15  19
HETATM   19  O   UNL     1     -10.532  18.398  68.338  1.00  0.00    -0.347 OA 
HETATM   20  C   UNL     1     -10.626  19.476  67.416  1.00  0.00    -0.485 C  
ENDBRANCH  15  19
ENDBRANCH   9  11
ENDBRANCH   8   9
ENDBRANCH   7   8
ENDBRANCH   6   7
ENDBRANCH   5   6
ENDBRANCH   4   5
ENDBRANCH   3   4
BRANCH   3  21
HETATM   21  C   UNL     1      -9.098   8.843  67.343  1.00  0.00    -0.132 C  
HETATM   22  C   UNL     1     -10.352   8.053  66.929  1.00  0.00    -0.408 C  
BRANCH  21  23
HETATM   23  C   UNL     1      -8.597   9.656  66.111  1.00  0.00    -0.138 C  
BRANCH  23  24
HETATM   24  C   UNL     1      -9.579  10.660  65.542  1.00  0.00    -0.271 A  
HETATM   25  C   UNL     1     -10.893  12.698  65.782  1.00  0.00    -0.304 A  
HETATM   26  C   UNL     1     -11.449  12.506  64.519  1.00  0.00    -0.337 A  
HETATM   27  C   UNL     1     -10.153  10.468  64.280  1.00  0.00    -0.380 A  
HETATM   28  C   UNL     1     -11.070  11.391  63.770  1.00  0.00    -0.417 A  
HETATM   29  C   UNL     1      -9.965  11.780  66.290  1.00  0.00    -0.246 A  
BRANCH  26  30
HETATM   30  O   UNL     1     -12.319  13.357  63.894  1.00  0.00    -0.615 OA 
HETATM   31  C   UNL     1     -12.261  14.721  64.296  1.00  0.00    -0.379 C  
ENDBRANCH  26  30
ENDBRANCH  23  24
ENDBRANCH  21  23
ENDBRANCH   3  21
ENDBRANCH   2   3
TORSDOF 14
ENDMDL
MODEL      159
REMARK 921   NORMALIZED FREE ENERGY PREDICTED BY IDOCK:   -4.28 KCAL/MOL
REMARK 922        TOTAL FREE ENERGY PREDICTED BY IDOCK:  -10.58 KCAL/MOL
REMARK 923 INTER-LIGAND FREE ENERGY PREDICTED BY IDOCK:   -7.61 KCAL/MOL
REMARK 924 INTRA-LIGAND FREE ENERGY PREDICTED BY IDOCK:   -2.97 KCAL/MOL
REMARK 927      BINDING AFFINITY PREDICTED BY RF-SCORE:    0.00 PKD
ROOT
HETATM    1  C   UNL     1     -11.381   6.254  69.612  1.00  0.00    -0.492 C  
HETATM    2  C   UNL     1     -11.773   6.477  71.067  1.00  0.00    -0.343 C  
ENDROOT
BRANCH   2   3
HETATM    3  N   UNL     1     -11.276   7.693  71.721  1.00  0.00    -0.241 NA 
BRANCH   3   4
HETATM    4  C   UNL     1     -12.200   8.842  71.694  1.00  0.00    -0.339 C  
BRANCH   4   5
HETATM    5  C   UNL     1     -11.575  10.139  71.157  1.00  0.00    -0.430 C  
BRANCH   5   6
HETATM    6  C   UNL     1     -12.643  11.156  70.752  1.00  0.00    -0.445 C  
BRANCH   6   7
HETATM    7  C   UNL     1     -12.090  12.110  69.699  1.00  0.00    -0.218 C  
BRANCH   7   8
HETATM    8  O   UNL     1     -12.271  11.548  68.393  1.00  0.00    -0.540 OA 
BRANCH   8   9
HETATM    9  C   UNL     1     -11.417  12.010  67.445  1.00  0.00    -0.336 C  
HETATM   10  O   UNL     1     -11.286  13.169  67.086  1.00  0.00    -0.275 OA 
BRANCH   9  11
HETATM   11  C   UNL     1     -10.670  10.880  66.848  1.00  0.00    -0.318 A  
HETATM   12  C   UNL     1      -9.958  11.015  65.650  1.00  0.00    -0.299 A  
HETATM   13  C   UNL     1      -9.286   9.918  65.104  1.00  0.00    -0.234 A  
HETATM   14  C   UNL     1     -10.026   8.552  66.973  1.00  0.00    -0.318 A  
HETATM   15  C   UNL     1      -9.319   8.674  65.773  1.00  0.00    -0.158 A  
HETATM   16  C   UNL     1     -10.710   9.647  67.505  1.00  0.00    -0.321 A  
BRANCH  13  17
HETATM   17  O   UNL     1      -8.579   9.953  63.926  1.00  0.00    -0.162 OA 
HETATM   18  C   UNL     1      -9.252  10.417  62.764  1.00  0.00    -0.305 C  
ENDBRANCH  13  17
BRANCH  15  19
HETATM   19  O   UNL     1      -8.637   7.646  65.173  1.00  0.00    -0.095 OA 
HETATM   20  C   UNL     1      -8.728   6.361  65.773  1.00  0.00    -0.127 C  
ENDBRANCH  15  19
ENDBRANCH   9  11
ENDBRANCH   8   9
ENDBRANCH   7   8
ENDBRANCH   6   7
ENDBRANCH   5   6
ENDBRANCH   4   5
ENDBRANCH   3   4
BRANCH   3  21
HETATM   21  C   UNL     1     -10.611   7.527  73.038  1.00  0.00    -0.368 C  
HETATM   22  C   UNL     1     -10.765   6.135  73.675  1.00  0.00    -0.234 C  
BRANCH  21  23
HETATM   23  C   UNL     1      -9.103   7.918  73.060  1.00  0.00    -0.300 C  
BRANCH  23  24
HETATM   24  C   UNL     1      -8.400   7.904  71.719  1.00  0.00    -0.144 A  
HETATM   25  C   UNL     1      -7.531   9.095  69.778  1.00  0.00    -0.069 A  
HETATM   26  C   UNL     1      -7.144   7.890  69.194  1.00  0.00    -0.069 A  
HETATM   27  C   UNL     1      -8.019   6.699  71.118  1.00  0.00    -0.107 A  
HETATM   28  C   UNL     1      -7.385   6.696  69.873  1.00  0.00    -0.086 A  
HETATM   29  C   UNL     1      -8.156   9.101  71.031  1.00  0.00    -0.179 A  
BRANCH  26  30
HETATM   30  O   UNL     1      -6.479   7.759  68.005  1.00  0.00    -0.051 OA 
HETATM   31  C   UNL     1      -5.561   6.676  67.915  1.00  0.00    -0.012 C  
ENDBRANCH  26  30
ENDBRANCH  23  24
ENDBRANCH  21  23
ENDBRANCH   3  21
ENDBRANCH   2   3
TORSDOF 14
ENDMDL
MODEL      160
REMARK 921   NORMALIZED FREE ENERGY PREDICTED BY IDOCK:   -4.27 KCAL/MOL
REMARK 922        TOTAL FREE ENERGY PREDICTED BY IDOCK:  -10.56 KCAL/MOL
REMARK 923 INTER-LIGAND FREE ENERGY PREDICTED BY IDOCK:   -8.52 KCAL/MOL
REMARK 924 INTRA-LIGAND FREE ENERGY PREDICTED BY IDOCK:   -2.03 KCAL/MOL
REMARK 927      BINDING AFFINITY PREDICTED BY RF-SCORE:    0.00 PKD
ROOT
HETATM    1  C   UNL     1     -10.906  16.296  70.155  1.00  0.00    -0.299 C  
HETATM    2  C   UNL     1     -11.723  15.868  68.942  1.00  0.00    -0.370 C  
ENDROOT
BRANCH   2   3
HETATM    3  N   UNL     1     -11.019  15.146  67.876  1.00  0.00    -0.292 NA 
BRANCH   3   4
HETATM    4  C   UNL     1      -9.584  15.459  67.748  1.00  0.00    -0.210 C  
BRANCH   4   5
HETATM    5  C   UNL     1      -8.755  14.348  67.085  1.00  0.00    -0.243 C  
BRANCH   5   6
HETATM    6  C   UNL     1      -7.866  13.625  68.098  1.00  0.00    -0.143 C  
BRANCH   6   7
HETATM    7  C   UNL     1      -7.872  12.124  67.829  1.00  0.00    -0.148 C  
BRANCH   7   8
HETATM    8  O   UNL     1      -8.482  11.436  68.928  1.00  0.00    -0.123 OA 
BRANCH   8   9
HETATM    9  C   UNL     1      -8.439  10.082  68.855  1.00  0.00    -0.132 C  
HETATM   10  O   UNL     1      -8.115   9.415  67.886  1.00  0.00    -0.102 OA 
BRANCH   9  11
HETATM   11  C   UNL     1      -8.894   9.495  70.136  1.00  0.00    -0.266 A  
HETATM   12  C   UNL     1     -10.248   9.454  70.490  1.00  0.00    -0.332 A  
HETATM   13  C   UNL     1     -10.637   8.915  71.720  1.00  0.00    -0.362 A  
HETATM   14  C   UNL     1      -8.309   8.442  72.233  1.00  0.00    -0.218 A  
HETATM   15  C   UNL     1      -9.658   8.402  72.599  1.00  0.00    -0.267 A  
HETATM   16  C   UNL     1      -7.925   8.996  71.010  1.00  0.00    -0.186 A  
BRANCH  13  17
HETATM   17  O   UNL     1     -11.938   8.850  72.158  1.00  0.00    -0.357 OA 
HETATM   18  C   UNL     1     -12.866   9.779  71.616  1.00  0.00    -0.421 C  
ENDBRANCH  13  17
BRANCH  15  19
HETATM   19  O   UNL     1     -10.119   7.893  73.787  1.00  0.00    -0.121 OA 
HETATM   20  C   UNL     1      -9.268   6.998  74.490  1.00  0.00    -0.169 C  
ENDBRANCH  15  19
ENDBRANCH   9  11
ENDBRANCH   8   9
ENDBRANCH   7   8
ENDBRANCH   6   7
ENDBRANCH   5   6
ENDBRANCH   4   5
ENDBRANCH   3   4
BRANCH   3  21
HETATM   21  C   UNL     1     -11.300  13.694  67.745  1.00  0.00    -0.306 C  
HETATM   22  C   UNL     1     -12.000  13.055  68.957  1.00  0.00    -0.312 C  
BRANCH  21  23
HETATM   23  C   UNL     1     -12.078  13.294  66.456  1.00  0.00    -0.435 C  
BRANCH  23  24
HETATM   24  C   UNL     1     -11.313  12.444  65.463  1.00  0.00    -0.387 A  
HETATM   25  C   UNL     1      -9.894  10.522  64.981  1.00  0.00    -0.369 A  
HETATM   26  C   UNL     1      -9.837  10.883  63.637  1.00  0.00    -0.351 A  
HETATM   27  C   UNL     1     -11.239  12.805  64.113  1.00  0.00    -0.435 A  
HETATM   28  C   UNL     1     -10.517  12.023  63.208  1.00  0.00    -0.403 A  
HETATM   29  C   UNL     1     -10.627  11.299  65.888  1.00  0.00    -0.309 A  
BRANCH  26  30
HETATM   30  O   UNL     1      -9.204  10.178  62.650  1.00  0.00    -0.259 OA 
HETATM   31  C   UNL     1      -8.376   9.102  63.077  1.00  0.00    -0.196 C  
ENDBRANCH  26  30
ENDBRANCH  23  24
ENDBRANCH  21  23
ENDBRANCH   3  21
ENDBRANCH   2   3
TORSDOF 14
ENDMDL
MODEL      161
REMARK 921   NORMALIZED FREE ENERGY PREDICTED BY IDOCK:   -4.25 KCAL/MOL
REMARK 922        TOTAL FREE ENERGY PREDICTED BY IDOCK:  -10.51 KCAL/MOL
REMARK 923 INTER-LIGAND FREE ENERGY PREDICTED BY IDOCK:   -8.53 KCAL/MOL
REMARK 924 INTRA-LIGAND FREE ENERGY PREDICTED BY IDOCK:   -1.99 KCAL/MOL
REMARK 927      BINDING AFFINITY PREDICTED BY RF-SCORE:    0.00 PKD
ROOT
HETATM    1  C   UNL     1     -10.702  19.954  65.849  1.00  0.00    -0.445 C  
HETATM    2  C   UNL     1      -9.756  20.088  67.037  1.00  0.00    -0.421 C  
ENDROOT
BRANCH   2   3
HETATM    3  N   UNL     1      -9.122  18.862  67.536  1.00  0.00    -0.279 NA 
BRANCH   3   4
HETATM    4  C   UNL     1      -9.792  17.607  67.148  1.00  0.00    -0.306 C  
BRANCH   4   5
HETATM    5  C   UNL     1     -10.313  16.781  68.334  1.00  0.00    -0.319 C  
BRANCH   5   6
HETATM    6  C   UNL     1     -10.200  15.279  68.069  1.00  0.00    -0.230 C  
BRANCH   6   7
HETATM    7  C   UNL     1     -11.552  14.715  67.646  1.00  0.00    -0.361 C  
BRANCH   7   8
HETATM    8  O   UNL     1     -11.715  14.859  66.229  1.00  0.00    -0.297 OA 
BRANCH   8   9
HETATM    9  C   UNL     1     -12.439  13.880  65.630  1.00  0.00    -0.505 C  
HETATM   10  O   UNL     1     -13.647  13.864  65.467  1.00  0.00    -0.579 OA 
BRANCH   9  11
HETATM   11  C   UNL     1     -11.544  12.772  65.224  1.00  0.00    -0.379 A  
HETATM   12  C   UNL     1     -11.110  11.801  66.135  1.00  0.00    -0.358 A  
HETATM   13  C   UNL     1     -10.245  10.785  65.721  1.00  0.00    -0.257 A  
HETATM   14  C   UNL     1     -10.264  11.706  63.472  1.00  0.00    -0.474 A  
HETATM   15  C   UNL     1      -9.819  10.736  64.374  1.00  0.00    -0.315 A  
HETATM   16  C   UNL     1     -11.115  12.728  63.895  1.00  0.00    -0.477 A  
BRANCH  13  17
HETATM   17  O   UNL     1      -9.754   9.803  66.547  1.00  0.00    -0.183 OA 
HETATM   18  C   UNL     1     -10.262   9.739  67.872  1.00  0.00    -0.194 C  
ENDBRANCH  13  17
BRANCH  15  19
HETATM   19  O   UNL     1      -8.968   9.710  64.046  1.00  0.00    -0.227 OA 
HETATM   20  C   UNL     1      -8.614   9.565  62.678  1.00  0.00    -0.210 C  
ENDBRANCH  15  19
ENDBRANCH   9  11
ENDBRANCH   8   9
ENDBRANCH   7   8
ENDBRANCH   6   7
ENDBRANCH   5   6
ENDBRANCH   4   5
ENDBRANCH   3   4
BRANCH   3  21
HETATM   21  C   UNL     1      -7.644  18.777  67.430  1.00  0.00    -0.227 C  
HETATM   22  C   UNL     1      -6.944  20.082  67.011  1.00  0.00    -0.251 C  
BRANCH  21  23
HETATM   23  C   UNL     1      -6.931  18.216  68.697  1.00  0.00    -0.262 C  
BRANCH  23  24
HETATM   24  C   UNL     1      -6.665  16.725  68.698  1.00  0.00    -0.174 A  
HETATM   25  C   UNL     1      -6.298  14.646  67.482  1.00  0.00    -0.042 A  
HETATM   26  C   UNL     1      -6.229  13.939  68.681  1.00  0.00    -0.089 A  
HETATM   27  C   UNL     1      -6.607  16.005  69.896  1.00  0.00    -0.079 A  
HETATM   28  C   UNL     1      -6.378  14.627  69.886  1.00  0.00    -0.158 A  
HETATM   29  C   UNL     1      -6.516  16.029  67.491  1.00  0.00    -0.207 A  
BRANCH  26  30
HETATM   30  O   UNL     1      -5.966  12.602  68.803  1.00  0.00    -0.062 OA 
HETATM   31  C   UNL     1      -5.933  12.087  70.129  1.00  0.00    -0.159 C  
ENDBRANCH  26  30
ENDBRANCH  23  24
ENDBRANCH  21  23
ENDBRANCH   3  21
ENDBRANCH   2   3
TORSDOF 14
ENDMDL
MODEL      162
REMARK 921   NORMALIZED FREE ENERGY PREDICTED BY IDOCK:   -4.25 KCAL/MOL
REMARK 922        TOTAL FREE ENERGY PREDICTED BY IDOCK:  -10.51 KCAL/MOL
REMARK 923 INTER-LIGAND FREE ENERGY PREDICTED BY IDOCK:   -7.94 KCAL/MOL
REMARK 924 INTRA-LIGAND FREE ENERGY PREDICTED BY IDOCK:   -2.57 KCAL/MOL
REMARK 927      BINDING AFFINITY PREDICTED BY RF-SCORE:    0.00 PKD
ROOT
HETATM    1  C   UNL     1     -12.005   7.233  71.018  1.00  0.00    -0.362 C  
HETATM    2  C   UNL     1     -11.194   6.594  69.897  1.00  0.00    -0.364 C  
ENDROOT
BRANCH   2   3
HETATM    3  N   UNL     1     -10.238   7.449  69.185  1.00  0.00    -0.191 NA 
BRANCH   3   4
HETATM    4  C   UNL     1      -9.035   7.820  69.953  1.00  0.00    -0.146 C  
BRANCH   4   5
HETATM    5  C   UNL     1      -9.000   9.291  70.394  1.00  0.00    -0.278 C  
BRANCH   5   6
HETATM    6  C   UNL     1      -7.581   9.858  70.359  1.00  0.00    -0.118 C  
BRANCH   6   7
HETATM    7  C   UNL     1      -7.317  10.535  69.018  1.00  0.00    -0.103 C  
BRANCH   7   8
HETATM    8  O   UNL     1      -8.037  11.772  68.949  1.00  0.00    -0.088 OA 
BRANCH   8   9
HETATM    9  C   UNL     1      -7.960  12.418  67.758  1.00  0.00    -0.156 C  
HETATM   10  O   UNL     1      -7.351  12.048  66.768  1.00  0.00    -0.088 OA 
BRANCH   9  11
HETATM   11  C   UNL     1      -8.702  13.697  67.831  1.00  0.00    -0.184 A  
HETATM   12  C   UNL     1      -9.870  13.832  68.592  1.00  0.00    -0.158 A  
HETATM   13  C   UNL     1     -10.557  15.049  68.615  1.00  0.00    -0.237 A  
HETATM   14  C   UNL     1      -8.889  16.003  67.127  1.00  0.00    -0.224 A  
HETATM   15  C   UNL     1     -10.060  16.146  67.877  1.00  0.00    -0.244 A  
HETATM   16  C   UNL     1      -8.216  14.780  67.094  1.00  0.00    -0.239 A  
BRANCH  13  17
HETATM   17  O   UNL     1     -11.718  15.266  69.316  1.00  0.00    -0.301 OA 
HETATM   18  C   UNL     1     -12.270  14.174  70.038  1.00  0.00    -0.357 C  
ENDBRANCH  13  17
BRANCH  15  19
HETATM   19  O   UNL     1     -10.792  17.304  67.949  1.00  0.00    -0.369 OA 
HETATM   20  C   UNL     1     -10.500  18.325  67.004  1.00  0.00    -0.385 C  
ENDBRANCH  15  19
ENDBRANCH   9  11
ENDBRANCH   8   9
ENDBRANCH   7   8
ENDBRANCH   6   7
ENDBRANCH   5   6
ENDBRANCH   4   5
ENDBRANCH   3   4
BRANCH   3  21
HETATM   21  C   UNL     1      -9.927   7.087  67.779  1.00  0.00    -0.152 C  
HETATM   22  C   UNL     1     -11.142   6.677  66.928  1.00  0.00    -0.319 C  
BRANCH  21  23
HETATM   23  C   UNL     1      -9.112   8.159  66.995  1.00  0.00    -0.170 C  
BRANCH  23  24
HETATM   24  C   UNL     1      -9.884   9.391  66.569  1.00  0.00    -0.325 A  
HETATM   25  C   UNL     1     -10.444  11.052  64.877  1.00  0.00    -0.371 A  
HETATM   26  C   UNL     1     -11.270  11.717  65.781  1.00  0.00    -0.281 A  
HETATM   27  C   UNL     1     -10.705  10.074  67.475  1.00  0.00    -0.339 A  
HETATM   28  C   UNL     1     -11.401  11.219  67.077  1.00  0.00    -0.262 A  
HETATM   29  C   UNL     1      -9.756   9.898  65.270  1.00  0.00    -0.383 A  
BRANCH  26  30
HETATM   30  O   UNL     1     -12.034  12.817  65.501  1.00  0.00    -0.399 OA 
HETATM   31  C   UNL     1     -11.355  13.922  64.917  1.00  0.00    -0.347 C  
ENDBRANCH  26  30
ENDBRANCH  23  24
ENDBRANCH  21  23
ENDBRANCH   3  21
ENDBRANCH   2   3
TORSDOF 14
ENDMDL
MODEL      163
REMARK 921   NORMALIZED FREE ENERGY PREDICTED BY IDOCK:   -4.24 KCAL/MOL
REMARK 922        TOTAL FREE ENERGY PREDICTED BY IDOCK:  -10.50 KCAL/MOL
REMARK 923 INTER-LIGAND FREE ENERGY PREDICTED BY IDOCK:   -8.00 KCAL/MOL
REMARK 924 INTRA-LIGAND FREE ENERGY PREDICTED BY IDOCK:   -2.50 KCAL/MOL
REMARK 927      BINDING AFFINITY PREDICTED BY RF-SCORE:    0.00 PKD
ROOT
HETATM    1  C   UNL     1     -11.593  15.802  70.883  1.00  0.00    -0.440 C  
HETATM    2  C   UNL     1     -10.952  16.296  69.592  1.00  0.00    -0.346 C  
ENDROOT
BRANCH   2   3
HETATM    3  N   UNL     1     -10.527  15.282  68.619  1.00  0.00    -0.230 NA 
BRANCH   3   4
HETATM    4  C   UNL     1      -9.112  14.878  68.713  1.00  0.00    -0.189 C  
BRANCH   4   5
HETATM    5  C   UNL     1      -8.284  15.192  67.458  1.00  0.00    -0.196 C  
BRANCH   5   6
HETATM    6  C   UNL     1      -6.953  14.440  67.456  1.00  0.00    -0.182 C  
BRANCH   6   7
HETATM    7  C   UNL     1      -7.038  13.216  68.362  1.00  0.00    -0.107 C  
BRANCH   7   8
HETATM    8  O   UNL     1      -6.879  12.023  67.582  1.00  0.00    -0.092 OA 
BRANCH   8   9
HETATM    9  C   UNL     1      -8.035  11.434  67.188  1.00  0.00    -0.156 C  
HETATM   10  O   UNL     1      -8.774  11.808  66.293  1.00  0.00    -0.181 OA 
BRANCH   9  11
HETATM   11  C   UNL     1      -8.319  10.261  68.046  1.00  0.00    -0.114 A  
HETATM   12  C   UNL     1      -8.844   9.073  67.523  1.00  0.00    -0.128 A  
HETATM   13  C   UNL     1      -9.122   7.995  68.368  1.00  0.00    -0.136 A  
HETATM   14  C   UNL     1      -8.330   9.295  70.263  1.00  0.00    -0.204 A  
HETATM   15  C   UNL     1      -8.861   8.107  69.752  1.00  0.00    -0.143 A  
HETATM   16  C   UNL     1      -8.069  10.374  69.416  1.00  0.00    -0.161 A  
BRANCH  13  17
HETATM   17  O   UNL     1      -9.654   6.801  67.947  1.00  0.00    -0.122 OA 
HETATM   18  C   UNL     1     -10.796   6.845  67.103  1.00  0.00    -0.377 C  
ENDBRANCH  13  17
BRANCH  15  19
HETATM   19  O   UNL     1      -9.163   7.007  70.515  1.00  0.00    -0.158 OA 
HETATM   20  C   UNL     1     -10.240   7.125  71.436  1.00  0.00    -0.192 C  
ENDBRANCH  15  19
ENDBRANCH   9  11
ENDBRANCH   8   9
ENDBRANCH   7   8
ENDBRANCH   6   7
ENDBRANCH   5   6
ENDBRANCH   4   5
ENDBRANCH   3   4
BRANCH   3  21
HETATM   21  C   UNL     1     -11.437  14.129  68.406  1.00  0.00    -0.302 C  
HETATM   22  C   UNL     1     -12.023  14.016  66.987  1.00  0.00    -0.472 C  
BRANCH  21  23
HETATM   23  C   UNL     1     -10.842  12.746  68.808  1.00  0.00    -0.270 C  
BRANCH  23  24
HETATM   24  C   UNL     1     -11.671  11.931  69.778  1.00  0.00    -0.403 A  
HETATM   25  C   UNL     1     -13.102  11.807  71.747  1.00  0.00    -0.480 A  
HETATM   26  C   UNL     1     -13.171  10.420  71.628  1.00  0.00    -0.400 A  
HETATM   27  C   UNL     1     -11.736  10.536  69.675  1.00  0.00    -0.328 A  
HETATM   28  C   UNL     1     -12.490   9.791  70.585  1.00  0.00    -0.220 A  
HETATM   29  C   UNL     1     -12.356  12.556  70.829  1.00  0.00    -0.376 A  
BRANCH  26  30
HETATM   30  O   UNL     1     -13.909   9.588  72.426  1.00  0.00    -0.424 OA 
HETATM   31  C   UNL     1     -14.306   8.351  71.845  1.00  0.00    -0.473 C  
ENDBRANCH  26  30
ENDBRANCH  23  24
ENDBRANCH  21  23
ENDBRANCH   3  21
ENDBRANCH   2   3
TORSDOF 14
ENDMDL
MODEL      164
REMARK 921   NORMALIZED FREE ENERGY PREDICTED BY IDOCK:   -4.23 KCAL/MOL
REMARK 922        TOTAL FREE ENERGY PREDICTED BY IDOCK:  -10.49 KCAL/MOL
REMARK 923 INTER-LIGAND FREE ENERGY PREDICTED BY IDOCK:   -8.59 KCAL/MOL
REMARK 924 INTRA-LIGAND FREE ENERGY PREDICTED BY IDOCK:   -1.89 KCAL/MOL
REMARK 927      BINDING AFFINITY PREDICTED BY RF-SCORE:    0.00 PKD
ROOT
HETATM    1  C   UNL     1      -8.346  13.501  67.999  1.00  0.00    -0.168 C  
HETATM    2  C   UNL     1      -9.837  13.790  67.872  1.00  0.00    -0.232 C  
ENDROOT
BRANCH   2   3
HETATM    3  N   UNL     1     -10.298  14.427  66.633  1.00  0.00    -0.271 NA 
BRANCH   3   4
HETATM    4  C   UNL     1     -11.171  13.594  65.787  1.00  0.00    -0.295 C  
BRANCH   4   5
HETATM    5  C   UNL     1     -10.600  13.300  64.391  1.00  0.00    -0.438 C  
BRANCH   5   6
HETATM    6  C   UNL     1     -11.082  11.952  63.855  1.00  0.00    -0.483 C  
BRANCH   6   7
HETATM    7  C   UNL     1     -10.040  10.873  64.130  1.00  0.00    -0.355 C  
BRANCH   7   8
HETATM    8  O   UNL     1     -10.409  10.128  65.298  1.00  0.00    -0.266 OA 
BRANCH   8   9
HETATM    9  C   UNL     1      -9.420   9.963  66.212  1.00  0.00    -0.193 C  
HETATM   10  O   UNL     1      -8.245   9.734  65.979  1.00  0.00    -0.114 OA 
BRANCH   9  11
HETATM   11  C   UNL     1      -9.979  10.057  67.580  1.00  0.00    -0.232 A  
HETATM   12  C   UNL     1      -9.284   9.578  68.697  1.00  0.00    -0.135 A  
HETATM   13  C   UNL     1      -9.856   9.661  69.970  1.00  0.00    -0.246 A  
HETATM   14  C   UNL     1     -11.816  10.724  69.004  1.00  0.00    -0.325 A  
HETATM   15  C   UNL     1     -11.134  10.241  70.125  1.00  0.00    -0.319 A  
HETATM   16  C   UNL     1     -11.247  10.623  67.733  1.00  0.00    -0.383 A  
BRANCH  13  17
HETATM   17  O   UNL     1      -9.257   9.201  71.117  1.00  0.00    -0.250 OA 
HETATM   18  C   UNL     1      -8.257   8.200  70.986  1.00  0.00    -0.108 C  
ENDBRANCH  13  17
BRANCH  15  19
HETATM   19  O   UNL     1     -11.628  10.284  71.404  1.00  0.00    -0.317 OA 
HETATM   20  C   UNL     1     -12.707   9.414  71.719  1.00  0.00    -0.390 C  
ENDBRANCH  15  19
ENDBRANCH   9  11
ENDBRANCH   8   9
ENDBRANCH   7   8
ENDBRANCH   6   7
ENDBRANCH   5   6
ENDBRANCH   4   5
ENDBRANCH   3   4
BRANCH   3  21
HETATM   21  C   UNL     1     -10.770  15.831  66.732  1.00  0.00    -0.293 C  
HETATM   22  C   UNL     1     -10.910  16.371  68.166  1.00  0.00    -0.346 C  
BRANCH  21  23
HETATM   23  C   UNL     1      -9.948  16.856  65.895  1.00  0.00    -0.274 C  
BRANCH  23  24
HETATM   24  C   UNL     1      -8.873  17.610  66.650  1.00  0.00    -0.283 A  
HETATM   25  C   UNL     1      -6.653  17.682  67.653  1.00  0.00    -0.185 A  
HETATM   26  C   UNL     1      -6.883  18.980  68.104  1.00  0.00    -0.244 A  
HETATM   27  C   UNL     1      -9.099  18.910  67.118  1.00  0.00    -0.305 A  
HETATM   28  C   UNL     1      -8.106  19.591  67.828  1.00  0.00    -0.331 A  
HETATM   29  C   UNL     1      -7.643  17.002  66.932  1.00  0.00    -0.244 A  
BRANCH  26  30
HETATM   30  O   UNL     1      -5.979  19.765  68.767  1.00  0.00    -0.228 OA 
HETATM   31  C   UNL     1      -5.750  21.059  68.221  1.00  0.00    -0.340 C  
ENDBRANCH  26  30
ENDBRANCH  23  24
ENDBRANCH  21  23
ENDBRANCH   3  21
ENDBRANCH   2   3
TORSDOF 14
ENDMDL
MODEL      165
REMARK 921   NORMALIZED FREE ENERGY PREDICTED BY IDOCK:   -4.23 KCAL/MOL
REMARK 922        TOTAL FREE ENERGY PREDICTED BY IDOCK:  -10.48 KCAL/MOL
REMARK 923 INTER-LIGAND FREE ENERGY PREDICTED BY IDOCK:   -9.55 KCAL/MOL
REMARK 924 INTRA-LIGAND FREE ENERGY PREDICTED BY IDOCK:   -0.94 KCAL/MOL
REMARK 927      BINDING AFFINITY PREDICTED BY RF-SCORE:    0.00 PKD
ROOT
HETATM    1  C   UNL     1      -8.209  15.029  69.460  1.00  0.00    -0.106 C  
HETATM    2  C   UNL     1      -9.413  15.665  68.776  1.00  0.00    -0.214 C  
ENDROOT
BRANCH   2   3
HETATM    3  N   UNL     1     -10.273  16.530  69.592  1.00  0.00    -0.206 NA 
BRANCH   3   4
HETATM    4  C   UNL     1     -10.109  17.977  69.358  1.00  0.00     0.043 C  
BRANCH   4   5
HETATM    5  C   UNL     1      -9.620  18.334  67.946  1.00  0.00    -0.297 C  
BRANCH   5   6
HETATM    6  C   UNL     1     -10.782  18.452  66.959  1.00  0.00    -0.330 C  
BRANCH   6   7
HETATM    7  C   UNL     1     -10.362  17.939  65.586  1.00  0.00    -0.059 C  
BRANCH   7   8
HETATM    8  O   UNL     1     -10.325  16.506  65.594  1.00  0.00    -0.438 OA 
BRANCH   8   9
HETATM    9  C   UNL     1     -11.181  15.903  64.731  1.00  0.00    -0.355 C  
HETATM   10  O   UNL     1     -12.003  16.454  64.018  1.00  0.00    -0.979 OA 
BRANCH   9  11
HETATM   11  C   UNL     1     -11.013  14.433  64.801  1.00  0.00    -0.409 A  
HETATM   12  C   UNL     1     -10.231  13.826  65.791  1.00  0.00    -0.322 A  
HETATM   13  C   UNL     1     -10.075  12.437  65.809  1.00  0.00    -0.253 A  
HETATM   14  C   UNL     1     -11.502  12.265  63.849  1.00  0.00    -0.512 A  
HETATM   15  C   UNL     1     -10.718  11.648  64.829  1.00  0.00    -0.309 A  
HETATM   16  C   UNL     1     -11.641  13.654  63.826  1.00  0.00    -0.205 A  
BRANCH  13  17
HETATM   17  O   UNL     1      -9.315  11.757  66.730  1.00  0.00    -0.183 OA 
HETATM   18  C   UNL     1      -7.974  12.184  66.925  1.00  0.00    -0.089 C  
ENDBRANCH  13  17
BRANCH  15  19
HETATM   19  O   UNL     1     -10.514  10.294  64.913  1.00  0.00    -0.212 OA 
HETATM   20  C   UNL     1      -9.251   9.795  64.491  1.00  0.00    -0.253 C  
ENDBRANCH  15  19
ENDBRANCH   9  11
ENDBRANCH   8   9
ENDBRANCH   7   8
ENDBRANCH   6   7
ENDBRANCH   5   6
ENDBRANCH   4   5
ENDBRANCH   3   4
BRANCH   3  21
HETATM   21  C   UNL     1     -11.697  16.132  69.725  1.00  0.00    -0.189 C  
HETATM   22  C   UNL     1     -12.219  15.198  68.619  1.00  0.00    -0.067 C  
BRANCH  21  23
HETATM   23  C   UNL     1     -12.077  15.523  71.108  1.00  0.00    -0.433 C  
BRANCH  23  24
HETATM   24  C   UNL     1     -12.344  14.032  71.119  1.00  0.00    -0.443 A  
HETATM   25  C   UNL     1     -13.454  12.093  72.091  1.00  0.00    -0.383 A  
HETATM   26  C   UNL     1     -12.806  11.251  71.189  1.00  0.00    -0.352 A  
HETATM   27  C   UNL     1     -11.687  13.177  70.226  1.00  0.00    -0.203 A  
HETATM   28  C   UNL     1     -11.928  11.800  70.255  1.00  0.00    -0.429 A  
HETATM   29  C   UNL     1     -13.223  13.473  72.056  1.00  0.00    -0.529 A  
BRANCH  26  30
HETATM   30  O   UNL     1     -12.991   9.899  71.088  1.00  0.00    -0.351 OA 
HETATM   31  C   UNL     1     -13.560   9.256  72.223  1.00  0.00    -0.480 C  
ENDBRANCH  26  30
ENDBRANCH  23  24
ENDBRANCH  21  23
ENDBRANCH   3  21
ENDBRANCH   2   3
TORSDOF 14
ENDMDL
MODEL      166
REMARK 921   NORMALIZED FREE ENERGY PREDICTED BY IDOCK:   -4.22 KCAL/MOL
REMARK 922        TOTAL FREE ENERGY PREDICTED BY IDOCK:  -10.46 KCAL/MOL
REMARK 923 INTER-LIGAND FREE ENERGY PREDICTED BY IDOCK:   -8.74 KCAL/MOL
REMARK 924 INTRA-LIGAND FREE ENERGY PREDICTED BY IDOCK:   -1.72 KCAL/MOL
REMARK 927      BINDING AFFINITY PREDICTED BY RF-SCORE:    0.00 PKD
ROOT
HETATM    1  C   UNL     1     -10.468  16.945  66.725  1.00  0.00    -0.260 C  
HETATM    2  C   UNL     1      -9.679  15.922  67.534  1.00  0.00    -0.223 C  
ENDROOT
BRANCH   2   3
HETATM    3  N   UNL     1     -10.036  14.509  67.365  1.00  0.00    -0.227 NA 
BRANCH   3   4
HETATM    4  C   UNL     1      -9.106  13.549  67.989  1.00  0.00    -0.201 C  
BRANCH   4   5
HETATM    5  C   UNL     1      -8.774  12.333  67.109  1.00  0.00    -0.193 C  
BRANCH   5   6
HETATM    6  C   UNL     1      -8.122  11.212  67.919  1.00  0.00    -0.119 C  
BRANCH   6   7
HETATM    7  C   UNL     1      -8.013   9.947  67.074  1.00  0.00    -0.109 C  
BRANCH   7   8
HETATM    8  O   UNL     1      -8.311   8.799  67.879  1.00  0.00    -0.117 OA 
BRANCH   8   9
HETATM    9  C   UNL     1      -9.630   8.500  67.989  1.00  0.00    -0.149 C  
HETATM   10  O   UNL     1     -10.499   8.728  67.164  1.00  0.00    -0.282 OA 
BRANCH   9  11
HETATM   11  C   UNL     1      -9.896   7.878  69.306  1.00  0.00    -0.177 A  
HETATM   12  C   UNL     1     -10.980   8.268  70.102  1.00  0.00    -0.222 A  
HETATM   13  C   UNL     1     -11.183   7.675  71.352  1.00  0.00    -0.246 A  
HETATM   14  C   UNL     1      -9.222   6.285  70.996  1.00  0.00    -0.160 A  
HETATM   15  C   UNL     1     -10.296   6.672  71.802  1.00  0.00    -0.196 A  
HETATM   16  C   UNL     1      -9.014   6.892  69.756  1.00  0.00    -0.141 A  
BRANCH  13  17
HETATM   17  O   UNL     1     -12.206   8.008  72.207  1.00  0.00    -0.327 OA 
HETATM   18  C   UNL     1     -12.579   9.376  72.292  1.00  0.00    -0.306 C  
ENDBRANCH  13  17
BRANCH  15  19
HETATM   19  O   UNL     1     -10.561   6.142  73.039  1.00  0.00    -0.216 OA 
HETATM   20  C   UNL     1      -9.633   5.201  73.562  1.00  0.00    -0.137 C  
ENDBRANCH  15  19
ENDBRANCH   9  11
ENDBRANCH   8   9
ENDBRANCH   7   8
ENDBRANCH   6   7
ENDBRANCH   5   6
ENDBRANCH   4   5
ENDBRANCH   3   4
BRANCH   3  21
HETATM   21  C   UNL     1     -11.459  14.142  67.573  1.00  0.00    -0.340 C  
HETATM   22  C   UNL     1     -12.209  13.694  66.306  1.00  0.00    -0.484 C  
BRANCH  21  23
HETATM   23  C   UNL     1     -11.703  13.086  68.693  1.00  0.00    -0.359 C  
BRANCH  23  24
HETATM   24  C   UNL     1     -12.143  13.637  70.033  1.00  0.00    -0.417 A  
HETATM   25  C   UNL     1     -13.171  13.307  72.218  1.00  0.00    -0.567 A  
HETATM   26  C   UNL     1     -13.022  14.661  72.510  1.00  0.00    -0.404 A  
HETATM   27  C   UNL     1     -12.009  14.999  70.330  1.00  0.00    -0.362 A  
HETATM   28  C   UNL     1     -12.434  15.501  71.563  1.00  0.00    -0.474 A  
HETATM   29  C   UNL     1     -12.736  12.800  70.987  1.00  0.00    -0.331 A  
BRANCH  26  30
HETATM   30  O   UNL     1     -13.355  15.262  73.693  1.00  0.00    -0.416 OA 
HETATM   31  C   UNL     1     -12.313  15.974  74.351  1.00  0.00    -0.577 C  
ENDBRANCH  26  30
ENDBRANCH  23  24
ENDBRANCH  21  23
ENDBRANCH   3  21
ENDBRANCH   2   3
TORSDOF 14
ENDMDL
MODEL      167
REMARK 921   NORMALIZED FREE ENERGY PREDICTED BY IDOCK:   -4.21 KCAL/MOL
REMARK 922        TOTAL FREE ENERGY PREDICTED BY IDOCK:  -10.45 KCAL/MOL
REMARK 923 INTER-LIGAND FREE ENERGY PREDICTED BY IDOCK:   -8.53 KCAL/MOL
REMARK 924 INTRA-LIGAND FREE ENERGY PREDICTED BY IDOCK:   -1.92 KCAL/MOL
REMARK 927      BINDING AFFINITY PREDICTED BY RF-SCORE:    0.00 PKD
ROOT
HETATM    1  C   UNL     1      -8.942   9.507  69.974  1.00  0.00    -0.249 C  
HETATM    2  C   UNL     1      -8.876   9.089  68.510  1.00  0.00    -0.134 C  
ENDROOT
BRANCH   2   3
HETATM    3  N   UNL     1     -10.120   8.629  67.883  1.00  0.00    -0.193 NA 
BRANCH   3   4
HETATM    4  C   UNL     1     -10.353   9.126  66.515  1.00  0.00    -0.199 C  
BRANCH   4   5
HETATM    5  C   UNL     1      -9.484  10.332  66.127  1.00  0.00    -0.229 C  
BRANCH   5   6
HETATM    6  C   UNL     1      -9.973  10.989  64.836  1.00  0.00    -0.343 C  
BRANCH   6   7
HETATM    7  C   UNL     1     -10.401  12.427  65.106  1.00  0.00    -0.287 C  
BRANCH   7   8
HETATM    8  O   UNL     1     -10.196  12.743  66.489  1.00  0.00    -0.244 OA 
BRANCH   8   9
HETATM    9  C   UNL     1     -11.047  13.667  67.001  1.00  0.00    -0.301 C  
HETATM   10  O   UNL     1     -11.319  14.753  66.517  1.00  0.00    -0.347 OA 
BRANCH   9  11
HETATM   11  C   UNL     1     -11.591  13.187  68.292  1.00  0.00    -0.370 A  
HETATM   12  C   UNL     1     -11.919  14.069  69.329  1.00  0.00    -0.396 A  
HETATM   13  C   UNL     1     -12.406  13.577  70.543  1.00  0.00    -0.342 A  
HETATM   14  C   UNL     1     -12.252  11.314  69.671  1.00  0.00    -0.340 A  
HETATM   15  C   UNL     1     -12.576  12.185  70.715  1.00  0.00    -0.216 A  
HETATM   16  C   UNL     1     -11.751  11.810  68.466  1.00  0.00    -0.390 A  
BRANCH  13  17
HETATM   17  O   UNL     1     -12.735  14.364  71.619  1.00  0.00    -0.313 OA 
HETATM   18  C   UNL     1     -12.659  15.773  71.457  1.00  0.00    -0.455 C  
ENDBRANCH  13  17
BRANCH  15  19
HETATM   19  O   UNL     1     -13.055  11.780  71.935  1.00  0.00    -0.468 OA 
HETATM   20  C   UNL     1     -13.353  10.400  72.097  1.00  0.00    -0.269 C  
ENDBRANCH  15  19
ENDBRANCH   9  11
ENDBRANCH   8   9
ENDBRANCH   7   8
ENDBRANCH   6   7
ENDBRANCH   5   6
ENDBRANCH   4   5
ENDBRANCH   3   4
BRANCH   3  21
HETATM   21  C   UNL     1     -10.460   7.192  68.034  1.00  0.00    -0.201 C  
HETATM   22  C   UNL     1     -10.876   6.481  66.735  1.00  0.00    -0.345 C  
BRANCH  21  23
HETATM   23  C   UNL     1      -9.367   6.334  68.740  1.00  0.00    -0.124 C  
BRANCH  23  24
HETATM   24  C   UNL     1      -9.790   5.661  70.029  1.00  0.00    -0.247 A  
HETATM   25  C   UNL     1      -9.677   3.766  71.557  1.00  0.00    -0.241 A  
HETATM   26  C   UNL     1     -10.612   4.369  72.397  1.00  0.00    -0.102 A  
HETATM   27  C   UNL     1     -10.739   6.252  70.872  1.00  0.00    -0.314 A  
HETATM   28  C   UNL     1     -11.135   5.615  72.051  1.00  0.00    -0.291 A  
HETATM   29  C   UNL     1      -9.271   4.408  70.381  1.00  0.00    -0.184 A  
BRANCH  26  30
HETATM   30  O   UNL     1     -11.045   3.869  73.595  1.00  0.00    -0.243 OA 
HETATM   31  C   UNL     1     -11.535   2.534  73.579  1.00  0.00    -0.155 C  
ENDBRANCH  26  30
ENDBRANCH  23  24
ENDBRANCH  21  23
ENDBRANCH   3  21
ENDBRANCH   2   3
TORSDOF 14
ENDMDL
MODEL      168
REMARK 921   NORMALIZED FREE ENERGY PREDICTED BY IDOCK:   -4.21 KCAL/MOL
REMARK 922        TOTAL FREE ENERGY PREDICTED BY IDOCK:  -10.44 KCAL/MOL
REMARK 923 INTER-LIGAND FREE ENERGY PREDICTED BY IDOCK:   -9.08 KCAL/MOL
REMARK 924 INTRA-LIGAND FREE ENERGY PREDICTED BY IDOCK:   -1.36 KCAL/MOL
REMARK 927      BINDING AFFINITY PREDICTED BY RF-SCORE:    0.00 PKD
ROOT
HETATM    1  C   UNL     1      -9.425  11.313  62.879  1.00  0.00    -0.385 C  
HETATM    2  C   UNL     1     -10.770  11.237  63.590  1.00  0.00    -0.367 C  
ENDROOT
BRANCH   2   3
HETATM    3  N   UNL     1     -10.801  11.590  65.014  1.00  0.00    -0.292 NA 
BRANCH   3   4
HETATM    4  C   UNL     1      -9.768  10.941  65.843  1.00  0.00    -0.224 C  
BRANCH   4   5
HETATM    5  C   UNL     1     -10.037   9.457  66.136  1.00  0.00    -0.324 C  
BRANCH   5   6
HETATM    6  C   UNL     1      -8.948   8.559  65.549  1.00  0.00    -0.182 C  
BRANCH   6   7
HETATM    7  C   UNL     1      -8.889   7.237  66.308  1.00  0.00    -0.159 C  
BRANCH   7   8
HETATM    8  O   UNL     1     -10.194   6.900  66.797  1.00  0.00    -0.219 OA 
BRANCH   8   9
HETATM    9  C   UNL     1     -10.316   5.642  67.290  1.00  0.00    -0.241 C  
HETATM   10  O   UNL     1     -10.332   4.607  66.646  1.00  0.00    -0.237 OA 
BRANCH   9  11
HETATM   11  C   UNL     1     -10.478   5.693  68.761  1.00  0.00    -0.289 A  
HETATM   12  C   UNL     1      -9.872   4.753  69.604  1.00  0.00    -0.292 A  
HETATM   13  C   UNL     1     -10.069   4.818  70.986  1.00  0.00    -0.199 A  
HETATM   14  C   UNL     1     -11.470   6.780  70.680  1.00  0.00    -0.403 A  
HETATM   15  C   UNL     1     -10.875   5.843  71.530  1.00  0.00    -0.266 A  
HETATM   16  C   UNL     1     -11.283   6.701  69.298  1.00  0.00    -0.326 A  
BRANCH  13  17
HETATM   17  O   UNL     1      -9.530   3.931  71.886  1.00  0.00    -0.123 OA 
HETATM   18  C   UNL     1      -8.480   3.086  71.435  1.00  0.00    -0.064 C  
ENDBRANCH  13  17
BRANCH  15  19
HETATM   19  O   UNL     1     -11.022   5.838  72.894  1.00  0.00    -0.241 OA 
HETATM   20  C   UNL     1     -10.457   6.922  73.618  1.00  0.00    -0.369 C  
ENDBRANCH  15  19
ENDBRANCH   9  11
ENDBRANCH   8   9
ENDBRANCH   7   8
ENDBRANCH   6   7
ENDBRANCH   5   6
ENDBRANCH   4   5
ENDBRANCH   3   4
BRANCH   3  21
HETATM   21  C   UNL     1     -10.985  13.024  65.351  1.00  0.00    -0.275 C  
HETATM   22  C   UNL     1     -12.444  13.512  65.347  1.00  0.00    -0.540 C  
BRANCH  21  23
HETATM   23  C   UNL     1     -10.316  13.472  66.685  1.00  0.00    -0.271 C  
BRANCH  23  24
HETATM   24  C   UNL     1     -10.323  14.961  66.957  1.00  0.00    -0.264 A  
HETATM   25  C   UNL     1     -10.968  16.850  68.355  1.00  0.00    -0.296 A  
HETATM   26  C   UNL     1     -10.395  17.738  67.447  1.00  0.00    -0.369 A  
HETATM   27  C   UNL     1      -9.761  15.862  66.044  1.00  0.00    -0.375 A  
HETATM   28  C   UNL     1      -9.787  17.236  66.296  1.00  0.00    -0.299 A  
HETATM   29  C   UNL     1     -10.933  15.471  68.110  1.00  0.00    -0.312 A  
BRANCH  26  30
HETATM   30  O   UNL     1     -10.316  19.095  67.602  1.00  0.00    -0.377 OA 
HETATM   31  C   UNL     1     -10.214  19.859  66.406  1.00  0.00    -0.500 C  
ENDBRANCH  26  30
ENDBRANCH  23  24
ENDBRANCH  21  23
ENDBRANCH   3  21
ENDBRANCH   2   3
TORSDOF 14
ENDMDL
MODEL      169
REMARK 921   NORMALIZED FREE ENERGY PREDICTED BY IDOCK:   -4.20 KCAL/MOL
REMARK 922        TOTAL FREE ENERGY PREDICTED BY IDOCK:  -10.43 KCAL/MOL
REMARK 923 INTER-LIGAND FREE ENERGY PREDICTED BY IDOCK:   -8.69 KCAL/MOL
REMARK 924 INTRA-LIGAND FREE ENERGY PREDICTED BY IDOCK:   -1.74 KCAL/MOL
REMARK 927      BINDING AFFINITY PREDICTED BY RF-SCORE:    0.00 PKD
ROOT
HETATM    1  C   UNL     1      -7.903  12.350  67.673  1.00  0.00    -0.163 C  
HETATM    2  C   UNL     1      -9.358  12.266  68.118  1.00  0.00    -0.205 C  
ENDROOT
BRANCH   2   3
HETATM    3  N   UNL     1     -10.280  13.286  67.607  1.00  0.00    -0.225 NA 
BRANCH   3   4
HETATM    4  C   UNL     1     -10.621  13.164  66.177  1.00  0.00    -0.279 C  
BRANCH   4   5
HETATM    5  C   UNL     1     -11.251  11.815  65.795  1.00  0.00    -0.337 C  
BRANCH   5   6
HETATM    6  C   UNL     1     -10.465  11.120  64.683  1.00  0.00    -0.400 C  
BRANCH   6   7
HETATM    7  C   UNL     1      -9.611   9.998  65.263  1.00  0.00    -0.291 C  
BRANCH   7   8
HETATM    8  O   UNL     1     -10.248   9.456  66.428  1.00  0.00    -0.268 OA 
BRANCH   8   9
HETATM    9  C   UNL     1      -9.895   8.183  66.737  1.00  0.00    -0.259 C  
HETATM   10  O   UNL     1      -9.278   7.406  66.028  1.00  0.00    -0.140 OA 
BRANCH   9  11
HETATM   11  C   UNL     1     -10.414   7.830  68.078  1.00  0.00    -0.244 A  
HETATM   12  C   UNL     1     -10.625   8.799  69.067  1.00  0.00    -0.191 A  
HETATM   13  C   UNL     1     -11.092   8.423  70.330  1.00  0.00    -0.231 A  
HETATM   14  C   UNL     1     -11.151   6.105  69.604  1.00  0.00    -0.489 A  
HETATM   15  C   UNL     1     -11.359   7.063  70.601  1.00  0.00    -0.307 A  
HETATM   16  C   UNL     1     -10.669   6.483  68.349  1.00  0.00    -0.339 A  
BRANCH  13  17
HETATM   17  O   UNL     1     -11.310   9.301  71.364  1.00  0.00    -0.307 OA 
HETATM   18  C   UNL     1     -12.633   9.783  71.556  1.00  0.00    -0.398 C  
ENDBRANCH  13  17
BRANCH  15  19
HETATM   19  O   UNL     1     -11.811   6.775  71.864  1.00  0.00    -0.296 OA 
HETATM   20  C   UNL     1     -11.214   5.676  72.539  1.00  0.00    -0.293 C  
ENDBRANCH  15  19
ENDBRANCH   9  11
ENDBRANCH   8   9
ENDBRANCH   7   8
ENDBRANCH   6   7
ENDBRANCH   5   6
ENDBRANCH   4   5
ENDBRANCH   3   4
BRANCH   3  21
HETATM   21  C   UNL     1     -11.459  13.612  68.448  1.00  0.00    -0.311 C  
HETATM   22  C   UNL     1     -12.000  12.445  69.292  1.00  0.00    -0.308 C  
BRANCH  21  23
HETATM   23  C   UNL     1     -11.275  14.851  69.376  1.00  0.00    -0.302 C  
BRANCH  23  24
HETATM   24  C   UNL     1     -10.485  16.001  68.788  1.00  0.00    -0.248 A  
HETATM   25  C   UNL     1     -10.334  17.904  67.273  1.00  0.00    -0.374 A  
HETATM   26  C   UNL     1      -9.007  18.112  67.642  1.00  0.00    -0.259 A  
HETATM   27  C   UNL     1      -9.147  16.210  69.143  1.00  0.00    -0.243 A  
HETATM   28  C   UNL     1      -8.421  17.265  68.583  1.00  0.00    -0.260 A  
HETATM   29  C   UNL     1     -11.067  16.855  67.842  1.00  0.00    -0.153 A  
BRANCH  26  30
HETATM   30  O   UNL     1      -8.208  19.132  67.202  1.00  0.00    -0.263 OA 
HETATM   31  C   UNL     1      -7.421  19.786  68.190  1.00  0.00    -0.308 C  
ENDBRANCH  26  30
ENDBRANCH  23  24
ENDBRANCH  21  23
ENDBRANCH   3  21
ENDBRANCH   2   3
TORSDOF 14
ENDMDL
MODEL      170
REMARK 921   NORMALIZED FREE ENERGY PREDICTED BY IDOCK:   -4.20 KCAL/MOL
REMARK 922        TOTAL FREE ENERGY PREDICTED BY IDOCK:  -10.43 KCAL/MOL
REMARK 923 INTER-LIGAND FREE ENERGY PREDICTED BY IDOCK:   -8.05 KCAL/MOL
REMARK 924 INTRA-LIGAND FREE ENERGY PREDICTED BY IDOCK:   -2.38 KCAL/MOL
REMARK 927      BINDING AFFINITY PREDICTED BY RF-SCORE:    0.00 PKD
ROOT
HETATM    1  C   UNL     1      -8.390   8.417  72.280  1.00  0.00    -0.218 C  
HETATM    2  C   UNL     1      -9.726   8.120  72.951  1.00  0.00    -0.270 C  
ENDROOT
BRANCH   2   3
HETATM    3  N   UNL     1     -10.129   6.714  73.059  1.00  0.00    -0.176 NA 
BRANCH   3   4
HETATM    4  C   UNL     1     -11.415   6.379  72.421  1.00  0.00    -0.282 C  
BRANCH   4   5
HETATM    5  C   UNL     1     -11.916   7.437  71.425  1.00  0.00    -0.340 C  
BRANCH   5   6
HETATM    6  C   UNL     1     -11.541   7.081  69.986  1.00  0.00    -0.226 C  
BRANCH   6   7
HETATM    7  C   UNL     1     -10.777   8.231  69.340  1.00  0.00    -0.151 C  
BRANCH   7   8
HETATM    8  O   UNL     1     -11.155   9.471  69.954  1.00  0.00    -0.236 OA 
BRANCH   8   9
HETATM    9  C   UNL     1     -11.384  10.493  69.092  1.00  0.00    -0.257 C  
HETATM   10  O   UNL     1     -11.168  10.496  67.892  1.00  0.00    -0.296 OA 
BRANCH   9  11
HETATM   11  C   UNL     1     -11.911  11.663  69.831  1.00  0.00    -0.414 A  
HETATM   12  C   UNL     1     -11.734  12.972  69.366  1.00  0.00    -0.386 A  
HETATM   13  C   UNL     1     -12.223  14.053  70.104  1.00  0.00    -0.359 A  
HETATM   14  C   UNL     1     -13.086  12.507  71.770  1.00  0.00    -0.450 A  
HETATM   15  C   UNL     1     -12.908  13.818  71.318  1.00  0.00    -0.357 A  
HETATM   16  C   UNL     1     -12.580  11.432  71.036  1.00  0.00    -0.487 A  
BRANCH  13  17
HETATM   17  O   UNL     1     -12.080  15.369  69.735  1.00  0.00    -0.337 OA 
HETATM   18  C   UNL     1     -11.432  15.643  68.501  1.00  0.00    -0.375 C  
ENDBRANCH  13  17
BRANCH  15  19
HETATM   19  O   UNL     1     -13.355  14.930  71.985  1.00  0.00    -0.319 OA 
HETATM   20  C   UNL     1     -12.883  15.133  73.310  1.00  0.00    -0.523 C  
ENDBRANCH  15  19
ENDBRANCH   9  11
ENDBRANCH   8   9
ENDBRANCH   7   8
ENDBRANCH   6   7
ENDBRANCH   5   6
ENDBRANCH   4   5
ENDBRANCH   3   4
BRANCH   3  21
HETATM   21  C   UNL     1      -9.083   5.691  72.806  1.00  0.00    -0.130 C  
HETATM   22  C   UNL     1      -8.443   5.087  74.068  1.00  0.00    -0.106 C  
BRANCH  21  23
HETATM   23  C   UNL     1      -9.524   4.527  71.868  1.00  0.00    -0.201 C  
BRANCH  23  24
HETATM   24  C   UNL     1      -9.091   4.647  70.422  1.00  0.00    -0.167 A  
HETATM   25  C   UNL     1      -7.772   5.755  68.698  1.00  0.00    -0.090 A  
HETATM   26  C   UNL     1      -8.318   4.921  67.723  1.00  0.00    -0.104 A  
HETATM   27  C   UNL     1      -9.644   3.823  69.434  1.00  0.00    -0.219 A  
HETATM   28  C   UNL     1      -9.250   3.953  68.100  1.00  0.00    -0.207 A  
HETATM   29  C   UNL     1      -8.157   5.619  70.037  1.00  0.00    -0.106 A  
BRANCH  26  30
HETATM   30  O   UNL     1      -7.982   4.920  66.397  1.00  0.00    -0.105 OA 
HETATM   31  C   UNL     1      -8.612   5.906  65.588  1.00  0.00    -0.155 C  
ENDBRANCH  26  30
ENDBRANCH  23  24
ENDBRANCH  21  23
ENDBRANCH   3  21
ENDBRANCH   2   3
TORSDOF 14
ENDMDL
MODEL      171
REMARK 921   NORMALIZED FREE ENERGY PREDICTED BY IDOCK:   -4.19 KCAL/MOL
REMARK 922        TOTAL FREE ENERGY PREDICTED BY IDOCK:  -10.40 KCAL/MOL
REMARK 923 INTER-LIGAND FREE ENERGY PREDICTED BY IDOCK:   -7.38 KCAL/MOL
REMARK 924 INTRA-LIGAND FREE ENERGY PREDICTED BY IDOCK:   -3.02 KCAL/MOL
REMARK 927      BINDING AFFINITY PREDICTED BY RF-SCORE:    0.00 PKD
ROOT
HETATM    1  C   UNL     1      -9.221   4.017  73.563  1.00  0.00    -0.108 C  
HETATM    2  C   UNL     1     -10.420   4.177  72.636  1.00  0.00    -0.155 C  
ENDROOT
BRANCH   2   3
HETATM    3  N   UNL     1     -10.452   5.364  71.773  1.00  0.00    -0.222 NA 
BRANCH   3   4
HETATM    4  C   UNL     1      -9.998   6.614  72.410  1.00  0.00    -0.166 C  
BRANCH   4   5
HETATM    5  C   UNL     1     -11.124   7.435  73.057  1.00  0.00    -0.390 C  
BRANCH   5   6
HETATM    6  C   UNL     1     -12.185   7.843  72.034  1.00  0.00    -0.357 C  
BRANCH   6   7
HETATM    7  C   UNL     1     -12.034   9.318  71.678  1.00  0.00    -0.378 C  
BRANCH   7   8
HETATM    8  O   UNL     1     -11.679   9.449  70.296  1.00  0.00    -0.206 OA 
BRANCH   8   9
HETATM    9  C   UNL     1     -10.416   9.890  70.065  1.00  0.00    -0.284 C  
HETATM   10  O   UNL     1      -9.400   9.514  70.625  1.00  0.00    -0.254 OA 
BRANCH   9  11
HETATM   11  C   UNL     1     -10.437  10.958  69.039  1.00  0.00    -0.244 A  
HETATM   12  C   UNL     1      -9.258  11.481  68.494  1.00  0.00    -0.167 A  
HETATM   13  C   UNL     1      -9.317  12.506  67.546  1.00  0.00    -0.187 A  
HETATM   14  C   UNL     1     -11.743  12.470  67.678  1.00  0.00    -0.423 A  
HETATM   15  C   UNL     1     -10.573  13.005  67.132  1.00  0.00    -0.246 A  
HETATM   16  C   UNL     1     -11.678  11.457  68.637  1.00  0.00    -0.394 A  
BRANCH  13  17
HETATM   17  O   UNL     1      -8.214  13.092  66.972  1.00  0.00    -0.154 OA 
HETATM   18  C   UNL     1      -7.095  13.355  67.806  1.00  0.00    -0.156 C  
ENDBRANCH  13  17
BRANCH  15  19
HETATM   19  O   UNL     1     -10.546  14.012  66.201  1.00  0.00    -0.283 OA 
HETATM   20  C   UNL     1     -11.326  13.838  65.025  1.00  0.00    -0.328 C  
ENDBRANCH  15  19
ENDBRANCH   9  11
ENDBRANCH   8   9
ENDBRANCH   7   8
ENDBRANCH   6   7
ENDBRANCH   5   6
ENDBRANCH   4   5
ENDBRANCH   3   4
BRANCH   3  21
HETATM   21  C   UNL     1      -9.935   5.207  70.391  1.00  0.00    -0.246 C  
HETATM   22  C   UNL     1      -9.625   3.759  69.972  1.00  0.00    -0.259 C  
BRANCH  21  23
HETATM   23  C   UNL     1     -10.816   5.864  69.286  1.00  0.00    -0.414 C  
BRANCH  23  24
HETATM   24  C   UNL     1     -10.089   6.778  68.322  1.00  0.00    -0.173 A  
HETATM   25  C   UNL     1      -8.043   7.887  67.600  1.00  0.00    -0.124 A  
HETATM   26  C   UNL     1      -8.733   8.522  66.569  1.00  0.00    -0.132 A  
HETATM   27  C   UNL     1     -10.776   7.430  67.291  1.00  0.00    -0.379 A  
HETATM   28  C   UNL     1     -10.099   8.284  66.416  1.00  0.00    -0.222 A  
HETATM   29  C   UNL     1      -8.717   7.022  68.471  1.00  0.00    -0.122 A  
BRANCH  26  30
HETATM   30  O   UNL     1      -8.177   9.341  65.624  1.00  0.00    -0.112 OA 
HETATM   31  C   UNL     1      -6.851   9.789  65.883  1.00  0.00    -0.096 C  
ENDBRANCH  26  30
ENDBRANCH  23  24
ENDBRANCH  21  23
ENDBRANCH   3  21
ENDBRANCH   2   3
TORSDOF 14
ENDMDL
MODEL      172
REMARK 921   NORMALIZED FREE ENERGY PREDICTED BY IDOCK:   -4.18 KCAL/MOL
REMARK 922        TOTAL FREE ENERGY PREDICTED BY IDOCK:  -10.40 KCAL/MOL
REMARK 923 INTER-LIGAND FREE ENERGY PREDICTED BY IDOCK:   -8.90 KCAL/MOL
REMARK 924 INTRA-LIGAND FREE ENERGY PREDICTED BY IDOCK:   -1.50 KCAL/MOL
REMARK 927      BINDING AFFINITY PREDICTED BY RF-SCORE:    0.00 PKD
ROOT
HETATM    1  C   UNL     1      -8.703   8.820  71.491  1.00  0.00    -0.274 C  
HETATM    2  C   UNL     1      -8.506   9.240  70.039  1.00  0.00    -0.176 C  
ENDROOT
BRANCH   2   3
HETATM    3  N   UNL     1      -9.363  10.315  69.526  1.00  0.00    -0.206 NA 
BRANCH   3   4
HETATM    4  C   UNL     1      -8.721  11.220  68.555  1.00  0.00    -0.156 C  
BRANCH   4   5
HETATM    5  C   UNL     1      -9.558  11.487  67.295  1.00  0.00    -0.183 C  
BRANCH   5   6
HETATM    6  C   UNL     1      -9.187  12.819  66.642  1.00  0.00    -0.212 C  
BRANCH   6   7
HETATM    7  C   UNL     1      -9.535  13.976  67.572  1.00  0.00    -0.221 C  
BRANCH   7   8
HETATM    8  O   UNL     1     -10.614  14.739  67.015  1.00  0.00    -0.280 OA 
BRANCH   8   9
HETATM    9  C   UNL     1     -10.290  15.489  65.932  1.00  0.00    -0.347 C  
HETATM   10  O   UNL     1     -10.463  15.190  64.762  1.00  0.00    -0.368 OA 
BRANCH   9  11
HETATM   11  C   UNL     1      -9.634  16.743  66.367  1.00  0.00    -0.303 A  
HETATM   12  C   UNL     1      -8.308  17.040  66.028  1.00  0.00    -0.180 A  
HETATM   13  C   UNL     1      -7.715  18.222  66.479  1.00  0.00    -0.251 A  
HETATM   14  C   UNL     1      -9.789  18.819  67.597  1.00  0.00    -0.365 A  
HETATM   15  C   UNL     1      -8.464  19.122  67.271  1.00  0.00    -0.278 A  
HETATM   16  C   UNL     1     -10.371  17.629  67.157  1.00  0.00    -0.343 A  
BRANCH  13  17
HETATM   17  O   UNL     1      -6.417  18.586  66.212  1.00  0.00    -0.179 OA 
HETATM   18  C   UNL     1      -6.043  18.753  64.852  1.00  0.00    -0.233 C  
ENDBRANCH  13  17
BRANCH  15  19
HETATM   19  O   UNL     1      -7.810  20.258  67.676  1.00  0.00    -0.299 OA 
HETATM   20  C   UNL     1      -7.208  20.244  68.964  1.00  0.00     0.019 C  
ENDBRANCH  15  19
ENDBRANCH   9  11
ENDBRANCH   8   9
ENDBRANCH   7   8
ENDBRANCH   6   7
ENDBRANCH   5   6
ENDBRANCH   4   5
ENDBRANCH   3   4
BRANCH   3  21
HETATM   21  C   UNL     1     -10.746   9.944  69.131  1.00  0.00    -0.224 C  
HETATM   22  C   UNL     1     -10.884   8.565  68.462  1.00  0.00     0.020 C  
BRANCH  21  23
HETATM   23  C   UNL     1     -11.800  10.049  70.273  1.00  0.00    -0.291 C  
BRANCH  23  24
HETATM   24  C   UNL     1     -12.233  11.452  70.642  1.00  0.00    -0.484 A  
HETATM   25  C   UNL     1     -13.407  12.975  72.140  1.00  0.00    -0.622 A  
HETATM   26  C   UNL     1     -13.097  14.052  71.312  1.00  0.00    -0.329 A  
HETATM   27  C   UNL     1     -11.938  12.539  69.810  1.00  0.00    -0.359 A  
HETATM   28  C   UNL     1     -12.357  13.828  70.151  1.00  0.00    -0.390 A  
HETATM   29  C   UNL     1     -12.979  11.684  71.806  1.00  0.00    -0.483 A  
BRANCH  26  30
HETATM   30  O   UNL     1     -13.409  15.361  71.558  1.00  0.00    -0.435 OA 
HETATM   31  C   UNL     1     -12.519  16.070  72.413  1.00  0.00    -0.469 C  
ENDBRANCH  26  30
ENDBRANCH  23  24
ENDBRANCH  21  23
ENDBRANCH   3  21
ENDBRANCH   2   3
TORSDOF 14
ENDMDL
MODEL      173
REMARK 921   NORMALIZED FREE ENERGY PREDICTED BY IDOCK:   -4.17 KCAL/MOL
REMARK 922        TOTAL FREE ENERGY PREDICTED BY IDOCK:  -10.38 KCAL/MOL
REMARK 923 INTER-LIGAND FREE ENERGY PREDICTED BY IDOCK:   -8.31 KCAL/MOL
REMARK 924 INTRA-LIGAND FREE ENERGY PREDICTED BY IDOCK:   -2.07 KCAL/MOL
REMARK 927      BINDING AFFINITY PREDICTED BY RF-SCORE:    0.00 PKD
ROOT
HETATM    1  C   UNL     1     -11.828  15.680  68.890  1.00  0.00    -0.368 C  
HETATM    2  C   UNL     1     -10.608  16.246  69.608  1.00  0.00    -0.320 C  
ENDROOT
BRANCH   2   3
HETATM    3  N   UNL     1      -9.703  17.098  68.829  1.00  0.00    -0.273 NA 
BRANCH   3   4
HETATM    4  C   UNL     1      -8.335  16.572  68.663  1.00  0.00    -0.235 C  
BRANCH   4   5
HETATM    5  C   UNL     1      -8.148  15.135  69.174  1.00  0.00    -0.214 C  
BRANCH   5   6
HETATM    6  C   UNL     1      -7.725  14.187  68.051  1.00  0.00    -0.147 C  
BRANCH   6   7
HETATM    7  C   UNL     1      -7.819  12.739  68.521  1.00  0.00    -0.099 C  
BRANCH   7   8
HETATM    8  O   UNL     1      -8.875  12.069  67.821  1.00  0.00    -0.152 OA 
BRANCH   8   9
HETATM    9  C   UNL     1     -10.002  11.856  68.546  1.00  0.00    -0.192 C  
HETATM   10  O   UNL     1     -10.738  12.708  69.015  1.00  0.00    -0.195 OA 
BRANCH   9  11
HETATM   11  C   UNL     1     -10.206  10.402  68.740  1.00  0.00    -0.201 A  
HETATM   12  C   UNL     1     -10.976   9.898  69.795  1.00  0.00    -0.304 A  
HETATM   13  C   UNL     1     -11.125   8.518  69.961  1.00  0.00    -0.151 A  
HETATM   14  C   UNL     1      -9.743   8.148  67.997  1.00  0.00    -0.186 A  
HETATM   15  C   UNL     1     -10.503   7.634  69.051  1.00  0.00    -0.205 A  
HETATM   16  C   UNL     1      -9.584   9.527  67.846  1.00  0.00    -0.154 A  
BRANCH  13  17
HETATM   17  O   UNL     1     -11.845   7.935  70.975  1.00  0.00    -0.291 OA 
HETATM   18  C   UNL     1     -11.767   8.524  72.266  1.00  0.00    -0.373 C  
ENDBRANCH  13  17
BRANCH  15  19
HETATM   19  O   UNL     1     -10.694   6.295  69.283  1.00  0.00    -0.237 OA 
HETATM   20  C   UNL     1      -9.616   5.569  69.857  1.00  0.00    -0.164 C  
ENDBRANCH  15  19
ENDBRANCH   9  11
ENDBRANCH   8   9
ENDBRANCH   7   8
ENDBRANCH   6   7
ENDBRANCH   5   6
ENDBRANCH   4   5
ENDBRANCH   3   4
BRANCH   3  21
HETATM   21  C   UNL     1     -10.242  17.689  67.578  1.00  0.00    -0.348 C  
HETATM   22  C   UNL     1     -10.218  19.226  67.521  1.00  0.00    -0.514 C  
BRANCH  21  23
HETATM   23  C   UNL     1      -9.605  17.135  66.268  1.00  0.00    -0.273 C  
BRANCH  23  24
HETATM   24  C   UNL     1     -10.353  15.998  65.603  1.00  0.00    -0.414 A  
HETATM   25  C   UNL     1     -10.533  13.635  65.036  1.00  0.00    -0.406 A  
HETATM   26  C   UNL     1     -11.703  13.880  64.320  1.00  0.00    -0.380 A  
HETATM   27  C   UNL     1     -11.521  16.236  64.870  1.00  0.00    -0.033 A  
HETATM   28  C   UNL     1     -12.195  15.183  64.246  1.00  0.00    -0.257 A  
HETATM   29  C   UNL     1      -9.862  14.687  65.672  1.00  0.00    -0.354 A  
BRANCH  26  30
HETATM   30  O   UNL     1     -12.474  12.931  63.706  1.00  0.00    -0.627 OA 
HETATM   31  C   UNL     1     -11.804  11.743  63.300  1.00  0.00    -0.240 C  
ENDBRANCH  26  30
ENDBRANCH  23  24
ENDBRANCH  21  23
ENDBRANCH   3  21
ENDBRANCH   2   3
TORSDOF 14
ENDMDL
MODEL      174
REMARK 921   NORMALIZED FREE ENERGY PREDICTED BY IDOCK:   -4.17 KCAL/MOL
REMARK 922        TOTAL FREE ENERGY PREDICTED BY IDOCK:  -10.37 KCAL/MOL
REMARK 923 INTER-LIGAND FREE ENERGY PREDICTED BY IDOCK:   -8.23 KCAL/MOL
REMARK 924 INTRA-LIGAND FREE ENERGY PREDICTED BY IDOCK:   -2.14 KCAL/MOL
REMARK 927      BINDING AFFINITY PREDICTED BY RF-SCORE:    0.00 PKD
ROOT
HETATM    1  C   UNL     1      -6.171  10.265  63.179  1.00  0.00    -0.140 C  
HETATM    2  C   UNL     1      -6.790   9.966  64.539  1.00  0.00    -0.124 C  
ENDROOT
BRANCH   2   3
HETATM    3  N   UNL     1      -8.210   9.601  64.569  1.00  0.00    -0.140 NA 
BRANCH   3   4
HETATM    4  C   UNL     1      -8.551   8.481  65.466  1.00  0.00    -0.180 C  
BRANCH   4   5
HETATM    5  C   UNL     1      -7.831   7.165  65.130  1.00  0.00    -0.124 C  
BRANCH   5   6
HETATM    6  C   UNL     1      -7.438   6.398  66.392  1.00  0.00    -0.086 C  
BRANCH   6   7
HETATM    7  C   UNL     1      -8.234   5.101  66.490  1.00  0.00    -0.108 C  
BRANCH   7   8
HETATM    8  O   UNL     1      -9.061   5.126  67.661  1.00  0.00    -0.109 OA 
BRANCH   8   9
HETATM    9  C   UNL     1     -10.265   5.731  67.503  1.00  0.00    -0.196 C  
HETATM   10  O   UNL     1     -11.002   5.644  66.535  1.00  0.00    -0.252 OA 
BRANCH   9  11
HETATM   11  C   UNL     1     -10.560   6.577  68.683  1.00  0.00    -0.289 A  
HETATM   12  C   UNL     1     -11.140   6.049  69.843  1.00  0.00    -0.469 A  
HETATM   13  C   UNL     1     -11.428   6.884  70.926  1.00  0.00    -0.323 A  
HETATM   14  C   UNL     1     -10.534   8.775  69.689  1.00  0.00    -0.220 A  
HETATM   15  C   UNL     1     -11.120   8.261  70.849  1.00  0.00    -0.261 A  
HETATM   16  C   UNL     1     -10.264   7.940  68.603  1.00  0.00    -0.223 A  
BRANCH  13  17
HETATM   17  O   UNL     1     -12.012   6.459  72.095  1.00  0.00    -0.325 OA 
HETATM   18  C   UNL     1     -11.272   5.572  72.921  1.00  0.00    -0.305 C  
ENDBRANCH  13  17
BRANCH  15  19
HETATM   19  O   UNL     1     -11.436   9.014  71.952  1.00  0.00    -0.348 OA 
HETATM   20  C   UNL     1     -12.439  10.009  71.801  1.00  0.00    -0.383 C  
ENDBRANCH  15  19
ENDBRANCH   9  11
ENDBRANCH   8   9
ENDBRANCH   7   8
ENDBRANCH   6   7
ENDBRANCH   5   6
ENDBRANCH   4   5
ENDBRANCH   3   4
BRANCH   3  21
HETATM   21  C   UNL     1      -9.191  10.713  64.647  1.00  0.00    -0.227 C  
HETATM   22  C   UNL     1      -9.935  11.019  63.335  1.00  0.00    -0.428 C  
BRANCH  21  23
HETATM   23  C   UNL     1     -10.240  10.577  65.792  1.00  0.00    -0.310 C  
BRANCH  23  24
HETATM   24  C   UNL     1     -10.673  11.874  66.444  1.00  0.00    -0.303 A  
HETATM   25  C   UNL     1     -12.215  13.756  66.580  1.00  0.00    -0.454 A  
HETATM   26  C   UNL     1     -11.461  14.318  67.609  1.00  0.00    -0.346 A  
HETATM   27  C   UNL     1      -9.915  12.452  67.468  1.00  0.00    -0.196 A  
HETATM   28  C   UNL     1     -10.315  13.657  68.052  1.00  0.00    -0.250 A  
HETATM   29  C   UNL     1     -11.822  12.543  66.001  1.00  0.00    -0.478 A  
BRANCH  26  30
HETATM   30  O   UNL     1     -11.770  15.465  68.288  1.00  0.00    -0.360 OA 
HETATM   31  C   UNL     1     -10.860  15.855  69.310  1.00  0.00    -0.276 C  
ENDBRANCH  26  30
ENDBRANCH  23  24
ENDBRANCH  21  23
ENDBRANCH   3  21
ENDBRANCH   2   3
TORSDOF 14
ENDMDL
MODEL      175
REMARK 921   NORMALIZED FREE ENERGY PREDICTED BY IDOCK:   -4.15 KCAL/MOL
REMARK 922        TOTAL FREE ENERGY PREDICTED BY IDOCK:  -10.34 KCAL/MOL
REMARK 923 INTER-LIGAND FREE ENERGY PREDICTED BY IDOCK:   -8.76 KCAL/MOL
REMARK 924 INTRA-LIGAND FREE ENERGY PREDICTED BY IDOCK:   -1.58 KCAL/MOL
REMARK 927      BINDING AFFINITY PREDICTED BY RF-SCORE:    0.00 PKD
ROOT
HETATM    1  C   UNL     1      -8.626  17.383  67.453  1.00  0.00    -0.221 C  
HETATM    2  C   UNL     1      -9.105  16.635  66.214  1.00  0.00    -0.298 C  
ENDROOT
BRANCH   2   3
HETATM    3  N   UNL     1      -9.008  15.171  66.231  1.00  0.00    -0.279 NA 
BRANCH   3   4
HETATM    4  C   UNL     1      -8.474  14.592  67.478  1.00  0.00    -0.190 C  
BRANCH   4   5
HETATM    5  C   UNL     1      -6.951  14.384  67.472  1.00  0.00    -0.182 C  
BRANCH   5   6
HETATM    6  C   UNL     1      -6.542  13.185  68.327  1.00  0.00    -0.097 C  
BRANCH   6   7
HETATM    7  C   UNL     1      -7.282  11.933  67.869  1.00  0.00    -0.095 C  
BRANCH   7   8
HETATM    8  O   UNL     1      -8.077  11.418  68.945  1.00  0.00    -0.137 OA 
BRANCH   8   9
HETATM    9  C   UNL     1      -8.949  10.438  68.599  1.00  0.00    -0.146 C  
HETATM   10  O   UNL     1      -9.283  10.127  67.468  1.00  0.00    -0.137 OA 
BRANCH   9  11
HETATM   11  C   UNL     1      -9.496   9.799  69.818  1.00  0.00    -0.253 A  
HETATM   12  C   UNL     1     -10.872   9.751  70.073  1.00  0.00    -0.319 A  
HETATM   13  C   UNL     1     -11.349   9.162  71.248  1.00  0.00    -0.336 A  
HETATM   14  C   UNL     1      -9.064   8.653  71.903  1.00  0.00    -0.326 A  
HETATM   15  C   UNL     1     -10.436   8.606  72.172  1.00  0.00    -0.340 A  
HETATM   16  C   UNL     1      -8.593   9.257  70.736  1.00  0.00    -0.254 A  
BRANCH  13  17
HETATM   17  O   UNL     1     -12.677   9.086  71.589  1.00  0.00    -0.324 OA 
HETATM   18  C   UNL     1     -13.358  10.300  71.872  1.00  0.00    -0.383 C  
ENDBRANCH  13  17
BRANCH  15  19
HETATM   19  O   UNL     1     -10.981   8.049  73.300  1.00  0.00    -0.257 OA 
HETATM   20  C   UNL     1     -10.568   6.735  73.649  1.00  0.00    -0.320 C  
ENDBRANCH  15  19
ENDBRANCH   9  11
ENDBRANCH   8   9
ENDBRANCH   7   8
ENDBRANCH   6   7
ENDBRANCH   5   6
ENDBRANCH   4   5
ENDBRANCH   3   4
BRANCH   3  21
HETATM   21  C   UNL     1     -10.169  14.412  65.702  1.00  0.00    -0.350 C  
HETATM   22  C   UNL     1     -10.041  12.881  65.787  1.00  0.00    -0.294 C  
BRANCH  21  23
HETATM   23  C   UNL     1     -11.547  14.827  66.300  1.00  0.00    -0.298 C  
BRANCH  23  24
HETATM   24  C   UNL     1     -11.694  14.650  67.797  1.00  0.00    -0.386 A  
HETATM   25  C   UNL     1     -12.016  13.203  69.731  1.00  0.00    -0.382 A  
HETATM   26  C   UNL     1     -12.027  14.310  70.577  1.00  0.00    -0.331 A  
HETATM   27  C   UNL     1     -11.720  15.758  68.653  1.00  0.00    -0.353 A  
HETATM   28  C   UNL     1     -11.872  15.585  70.032  1.00  0.00    -0.379 A  
HETATM   29  C   UNL     1     -11.852  13.373  68.350  1.00  0.00    -0.401 A  
BRANCH  26  30
HETATM   30  O   UNL     1     -12.124  14.269  71.941  1.00  0.00    -0.253 OA 
HETATM   31  C   UNL     1     -12.066  15.522  72.613  1.00  0.00    -0.437 C  
ENDBRANCH  26  30
ENDBRANCH  23  24
ENDBRANCH  21  23
ENDBRANCH   3  21
ENDBRANCH   2   3
TORSDOF 14
ENDMDL
MODEL      176
REMARK 921   NORMALIZED FREE ENERGY PREDICTED BY IDOCK:   -4.15 KCAL/MOL
REMARK 922        TOTAL FREE ENERGY PREDICTED BY IDOCK:  -10.34 KCAL/MOL
REMARK 923 INTER-LIGAND FREE ENERGY PREDICTED BY IDOCK:   -8.15 KCAL/MOL
REMARK 924 INTRA-LIGAND FREE ENERGY PREDICTED BY IDOCK:   -2.19 KCAL/MOL
REMARK 927      BINDING AFFINITY PREDICTED BY RF-SCORE:    0.00 PKD
ROOT
HETATM    1  C   UNL     1     -13.868   9.152  72.315  1.00  0.00    -0.527 C  
HETATM    2  C   UNL     1     -12.506   8.600  71.910  1.00  0.00    -0.357 C  
ENDROOT
BRANCH   2   3
HETATM    3  N   UNL     1     -11.867   9.184  70.725  1.00  0.00    -0.263 NA 
BRANCH   3   4
HETATM    4  C   UNL     1     -12.389  10.502  70.316  1.00  0.00    -0.298 C  
BRANCH   4   5
HETATM    5  C   UNL     1     -11.300  11.551  70.041  1.00  0.00    -0.222 C  
BRANCH   5   6
HETATM    6  C   UNL     1     -11.346  12.047  68.595  1.00  0.00    -0.329 C  
BRANCH   6   7
HETATM    7  C   UNL     1     -10.235  13.062  68.351  1.00  0.00    -0.245 C  
BRANCH   7   8
HETATM    8  O   UNL     1      -9.598  12.791  67.095  1.00  0.00    -0.208 OA 
BRANCH   8   9
HETATM    9  C   UNL     1     -10.224  13.307  66.008  1.00  0.00    -0.291 C  
HETATM   10  O   UNL     1     -10.838  12.685  65.159  1.00  0.00    -0.278 OA 
BRANCH   9  11
HETATM   11  C   UNL     1     -10.020  14.773  65.961  1.00  0.00    -0.336 A  
HETATM   12  C   UNL     1      -8.842  15.371  66.425  1.00  0.00    -0.340 A  
HETATM   13  C   UNL     1      -8.697  16.761  66.388  1.00  0.00    -0.302 A  
HETATM   14  C   UNL     1     -10.911  16.951  65.403  1.00  0.00    -0.113 A  
HETATM   15  C   UNL     1      -9.741  17.559  65.870  1.00  0.00    -0.044 A  
HETATM   16  C   UNL     1     -11.057  15.563  65.458  1.00  0.00    -0.265 A  
BRANCH  13  17
HETATM   17  O   UNL     1      -7.586  17.434  66.836  1.00  0.00    -0.190 OA 
HETATM   18  C   UNL     1      -6.437  16.667  67.167  1.00  0.00    -0.188 C  
ENDBRANCH  13  17
BRANCH  15  19
HETATM   19  O   UNL     1      -9.524  18.913  65.870  1.00  0.00    -0.458 OA 
HETATM   20  C   UNL     1     -10.358  19.711  66.700  1.00  0.00    -0.486 C  
ENDBRANCH  15  19
ENDBRANCH   9  11
ENDBRANCH   8   9
ENDBRANCH   7   8
ENDBRANCH   6   7
ENDBRANCH   5   6
ENDBRANCH   4   5
ENDBRANCH   3   4
BRANCH   3  21
HETATM   21  C   UNL     1     -10.386   9.109  70.651  1.00  0.00    -0.246 C  
HETATM   22  C   UNL     1      -9.681   8.834  71.991  1.00  0.00    -0.370 C  
BRANCH  21  23
HETATM   23  C   UNL     1      -9.836   8.112  69.588  1.00  0.00    -0.184 C  
BRANCH  23  24
HETATM   24  C   UNL     1      -9.411   8.725  68.269  1.00  0.00    -0.150 A  
HETATM   25  C   UNL     1      -7.722   9.822  66.898  1.00  0.00    -0.098 A  
HETATM   26  C   UNL     1      -8.624   9.921  65.840  1.00  0.00    -0.137 A  
HETATM   27  C   UNL     1     -10.314   8.841  67.206  1.00  0.00    -0.360 A  
HETATM   28  C   UNL     1      -9.917   9.422  65.998  1.00  0.00    -0.352 A  
HETATM   29  C   UNL     1      -8.115   9.229  68.104  1.00  0.00    -0.107 A  
BRANCH  26  30
HETATM   30  O   UNL     1      -8.344  10.426  64.599  1.00  0.00    -0.169 OA 
HETATM   31  C   UNL     1      -8.880   9.709  63.493  1.00  0.00    -0.234 C  
ENDBRANCH  26  30
ENDBRANCH  23  24
ENDBRANCH  21  23
ENDBRANCH   3  21
ENDBRANCH   2   3
TORSDOF 14
ENDMDL
MODEL      177
REMARK 921   NORMALIZED FREE ENERGY PREDICTED BY IDOCK:   -4.14 KCAL/MOL
REMARK 922        TOTAL FREE ENERGY PREDICTED BY IDOCK:  -10.31 KCAL/MOL
REMARK 923 INTER-LIGAND FREE ENERGY PREDICTED BY IDOCK:   -8.65 KCAL/MOL
REMARK 924 INTRA-LIGAND FREE ENERGY PREDICTED BY IDOCK:   -1.66 KCAL/MOL
REMARK 927      BINDING AFFINITY PREDICTED BY RF-SCORE:    0.00 PKD
ROOT
HETATM    1  C   UNL     1      -8.264  15.127  69.240  1.00  0.00    -0.216 C  
HETATM    2  C   UNL     1      -9.322  14.750  68.210  1.00  0.00    -0.199 C  
ENDROOT
BRANCH   2   3
HETATM    3  N   UNL     1     -10.474  15.647  68.067  1.00  0.00    -0.257 NA 
BRANCH   3   4
HETATM    4  C   UNL     1     -10.542  16.380  66.789  1.00  0.00    -0.238 C  
BRANCH   4   5
HETATM    5  C   UNL     1      -9.915  15.633  65.601  1.00  0.00    -0.388 C  
BRANCH   5   6
HETATM    6  C   UNL     1     -10.972  14.907  64.769  1.00  0.00    -0.390 C  
BRANCH   6   7
HETATM    7  C   UNL     1     -10.472  13.522  64.374  1.00  0.00    -0.346 C  
BRANCH   7   8
HETATM    8  O   UNL     1     -10.349  12.699  65.541  1.00  0.00    -0.276 OA 
BRANCH   8   9
HETATM    9  C   UNL     1     -10.294  11.365  65.302  1.00  0.00    -0.282 C  
HETATM   10  O   UNL     1     -10.606  10.797  64.269  1.00  0.00    -0.350 OA 
BRANCH   9  11
HETATM   11  C   UNL     1      -9.828  10.656  66.516  1.00  0.00    -0.250 A  
HETATM   12  C   UNL     1      -8.874  11.213  67.376  1.00  0.00    -0.139 A  
HETATM   13  C   UNL     1      -8.440  10.502  68.499  1.00  0.00    -0.131 A  
HETATM   14  C   UNL     1      -9.937   8.681  67.906  1.00  0.00    -0.232 A  
HETATM   15  C   UNL     1      -8.979   9.224  68.768  1.00  0.00    -0.132 A  
HETATM   16  C   UNL     1     -10.354   9.388  66.777  1.00  0.00    -0.303 A  
BRANCH  13  17
HETATM   17  O   UNL     1      -7.496  10.960  69.386  1.00  0.00    -0.132 OA 
HETATM   18  C   UNL     1      -6.215  11.298  68.873  1.00  0.00    -0.052 C  
ENDBRANCH  13  17
BRANCH  15  19
HETATM   19  O   UNL     1      -8.500   8.589  69.886  1.00  0.00    -0.120 OA 
HETATM   20  C   UNL     1      -9.449   8.178  70.862  1.00  0.00    -0.162 C  
ENDBRANCH  15  19
ENDBRANCH   9  11
ENDBRANCH   8   9
ENDBRANCH   7   8
ENDBRANCH   6   7
ENDBRANCH   5   6
ENDBRANCH   4   5
ENDBRANCH   3   4
BRANCH   3  21
HETATM   21  C   UNL     1     -11.795  15.123  68.494  1.00  0.00    -0.281 C  
HETATM   22  C   UNL     1     -12.276  13.873  67.735  1.00  0.00    -0.217 C  
BRANCH  21  23
HETATM   23  C   UNL     1     -11.926  14.854  70.024  1.00  0.00    -0.377 C  
BRANCH  23  24
HETATM   24  C   UNL     1     -12.181  13.414  70.419  1.00  0.00    -0.415 A  
HETATM   25  C   UNL     1     -13.272  11.783  71.864  1.00  0.00    -0.468 A  
HETATM   26  C   UNL     1     -12.622  10.742  71.205  1.00  0.00    -0.426 A  
HETATM   27  C   UNL     1     -11.523  12.362  69.772  1.00  0.00    -0.220 A  
HETATM   28  C   UNL     1     -11.752  11.038  70.155  1.00  0.00    -0.442 A  
HETATM   29  C   UNL     1     -13.051  13.110  71.474  1.00  0.00    -0.404 A  
BRANCH  26  30
HETATM   30  O   UNL     1     -12.797   9.408  71.456  1.00  0.00    -0.324 OA 
HETATM   31  C   UNL     1     -13.881   9.067  72.312  1.00  0.00    -0.484 C  
ENDBRANCH  26  30
ENDBRANCH  23  24
ENDBRANCH  21  23
ENDBRANCH   3  21
ENDBRANCH   2   3
TORSDOF 14
ENDMDL
MODEL      178
REMARK 921   NORMALIZED FREE ENERGY PREDICTED BY IDOCK:   -4.13 KCAL/MOL
REMARK 922        TOTAL FREE ENERGY PREDICTED BY IDOCK:  -10.30 KCAL/MOL
REMARK 923 INTER-LIGAND FREE ENERGY PREDICTED BY IDOCK:   -8.23 KCAL/MOL
REMARK 924 INTRA-LIGAND FREE ENERGY PREDICTED BY IDOCK:   -2.07 KCAL/MOL
REMARK 927      BINDING AFFINITY PREDICTED BY RF-SCORE:    0.00 PKD
ROOT
HETATM    1  C   UNL     1     -13.124  11.177  71.549  1.00  0.00    -0.489 C  
HETATM    2  C   UNL     1     -12.806   9.713  71.833  1.00  0.00    -0.425 C  
ENDROOT
BRANCH   2   3
HETATM    3  N   UNL     1     -11.729   9.093  71.053  1.00  0.00    -0.289 NA 
BRANCH   3   4
HETATM    4  C   UNL     1     -10.664  10.014  70.613  1.00  0.00    -0.254 C  
BRANCH   4   5
HETATM    5  C   UNL     1      -9.902   9.543  69.364  1.00  0.00    -0.194 C  
BRANCH   5   6
HETATM    6  C   UNL     1      -8.523   8.985  69.720  1.00  0.00    -0.132 C  
BRANCH   6   7
HETATM    7  C   UNL     1      -7.432   9.809  69.046  1.00  0.00    -0.080 C  
BRANCH   7   8
HETATM    8  O   UNL     1      -7.918  11.129  68.773  1.00  0.00    -0.136 OA 
BRANCH   8   9
HETATM    9  C   UNL     1      -7.618  11.610  67.541  1.00  0.00    -0.128 C  
HETATM   10  O   UNL     1      -6.507  11.708  67.048  1.00  0.00    -0.124 OA 
BRANCH   9  11
HETATM   11  C   UNL     1      -8.856  12.058  66.862  1.00  0.00    -0.197 A  
HETATM   12  C   UNL     1      -9.288  11.485  65.660  1.00  0.00    -0.221 A  
HETATM   13  C   UNL     1     -10.449  11.953  65.036  1.00  0.00    -0.289 A  
HETATM   14  C   UNL     1     -10.752  13.559  66.834  1.00  0.00    -0.274 A  
HETATM   15  C   UNL     1     -11.189  12.999  65.630  1.00  0.00    -0.283 A  
HETATM   16  C   UNL     1      -9.583  13.099  67.445  1.00  0.00    -0.219 A  
BRANCH  13  17
HETATM   17  O   UNL     1     -10.937  11.464  63.848  1.00  0.00    -0.373 OA 
HETATM   18  C   UNL     1      -9.998  11.107  62.843  1.00  0.00    -0.245 C  
ENDBRANCH  13  17
BRANCH  15  19
HETATM   19  O   UNL     1     -12.313  13.403  64.955  1.00  0.00    -0.390 OA 
HETATM   20  C   UNL     1     -12.285  14.687  64.345  1.00  0.00    -0.452 C  
ENDBRANCH  15  19
ENDBRANCH   9  11
ENDBRANCH   8   9
ENDBRANCH   7   8
ENDBRANCH   6   7
ENDBRANCH   5   6
ENDBRANCH   4   5
ENDBRANCH   3   4
BRANCH   3  21
HETATM   21  C   UNL     1     -11.196   7.800  71.549  1.00  0.00    -0.244 C  
HETATM   22  C   UNL     1     -11.246   7.617  73.076  1.00  0.00    -0.388 C  
BRANCH  21  23
HETATM   23  C   UNL     1     -11.818   6.538  70.878  1.00  0.00    -0.391 C  
BRANCH  23  24
HETATM   24  C   UNL     1     -10.980   5.887  69.797  1.00  0.00    -0.452 A  
HETATM   25  C   UNL     1     -10.315   5.712  67.459  1.00  0.00    -0.277 A  
HETATM   26  C   UNL     1      -9.470   4.646  67.764  1.00  0.00    -0.152 A  
HETATM   27  C   UNL     1     -10.139   4.808  70.091  1.00  0.00    -0.310 A  
HETATM   28  C   UNL     1      -9.382   4.203  69.084  1.00  0.00    -0.235 A  
HETATM   29  C   UNL     1     -11.066   6.326  68.469  1.00  0.00    -0.397 A  
BRANCH  26  30
HETATM   30  O   UNL     1      -8.648   4.003  66.879  1.00  0.00    -0.103 OA 
HETATM   31  C   UNL     1      -7.550   4.757  66.380  1.00  0.00    -0.087 C  
ENDBRANCH  26  30
ENDBRANCH  23  24
ENDBRANCH  21  23
ENDBRANCH   3  21
ENDBRANCH   2   3
TORSDOF 14
ENDMDL
MODEL      179
REMARK 921   NORMALIZED FREE ENERGY PREDICTED BY IDOCK:   -4.13 KCAL/MOL
REMARK 922        TOTAL FREE ENERGY PREDICTED BY IDOCK:  -10.30 KCAL/MOL
REMARK 923 INTER-LIGAND FREE ENERGY PREDICTED BY IDOCK:   -8.44 KCAL/MOL
REMARK 924 INTRA-LIGAND FREE ENERGY PREDICTED BY IDOCK:   -1.86 KCAL/MOL
REMARK 927      BINDING AFFINITY PREDICTED BY RF-SCORE:    0.00 PKD
ROOT
HETATM    1  C   UNL     1      -8.898   8.810  70.840  1.00  0.00    -0.243 C  
HETATM    2  C   UNL     1      -9.745   8.980  69.584  1.00  0.00    -0.172 C  
ENDROOT
BRANCH   2   3
HETATM    3  N   UNL     1      -9.071   9.475  68.378  1.00  0.00    -0.127 NA 
BRANCH   3   4
HETATM    4  C   UNL     1      -7.718  10.018  68.595  1.00  0.00    -0.086 C  
BRANCH   4   5
HETATM    5  C   UNL     1      -7.657  11.553  68.643  1.00  0.00    -0.134 C  
BRANCH   5   6
HETATM    6  C   UNL     1      -7.044  12.134  67.367  1.00  0.00    -0.146 C  
BRANCH   6   7
HETATM    7  C   UNL     1      -5.644  12.668  67.651  1.00  0.00    -0.130 C  
BRANCH   7   8
HETATM    8  O   UNL     1      -5.617  14.087  67.454  1.00  0.00    -0.345 OA 
BRANCH   8   9
HETATM    9  C   UNL     1      -6.173  14.818  68.453  1.00  0.00    -0.105 C  
HETATM   10  O   UNL     1      -5.930  14.726  69.644  1.00  0.00    -0.101 OA 
BRANCH   9  11
HETATM   11  C   UNL     1      -7.182  15.746  67.894  1.00  0.00    -0.154 A  
HETATM   12  C   UNL     1      -6.847  16.713  66.938  1.00  0.00    -0.253 A  
HETATM   13  C   UNL     1      -7.823  17.589  66.453  1.00  0.00    -0.294 A  
HETATM   14  C   UNL     1      -9.476  16.513  67.872  1.00  0.00    -0.220 A  
HETATM   15  C   UNL     1      -9.151  17.487  66.924  1.00  0.00    -0.254 A  
HETATM   16  C   UNL     1      -8.494  15.651  68.366  1.00  0.00    -0.164 A  
BRANCH  13  17
HETATM   17  O   UNL     1      -7.582  18.579  65.530  1.00  0.00    -0.499 OA 
HETATM   18  C   UNL     1      -6.586  19.543  65.839  1.00  0.00    -0.230 C  
ENDBRANCH  13  17
BRANCH  15  19
HETATM   19  O   UNL     1     -10.048  18.384  66.401  1.00  0.00    -0.362 OA 
HETATM   20  C   UNL     1     -10.625  19.328  67.293  1.00  0.00    -0.484 C  
ENDBRANCH  15  19
ENDBRANCH   9  11
ENDBRANCH   8   9
ENDBRANCH   7   8
ENDBRANCH   6   7
ENDBRANCH   5   6
ENDBRANCH   4   5
ENDBRANCH   3   4
BRANCH   3  21
HETATM   21  C   UNL     1      -9.158   8.629  67.162  1.00  0.00    -0.133 C  
HETATM   22  C   UNL     1     -10.457   7.815  67.026  1.00  0.00    -0.419 C  
BRANCH  21  23
HETATM   23  C   UNL     1      -8.904   9.384  65.823  1.00  0.00    -0.204 C  
BRANCH  23  24
HETATM   24  C   UNL     1      -9.952  10.406  65.435  1.00  0.00    -0.362 A  
HETATM   25  C   UNL     1     -11.206  11.598  63.719  1.00  0.00    -0.498 A  
HETATM   26  C   UNL     1     -11.860  12.347  64.695  1.00  0.00    -0.380 A  
HETATM   27  C   UNL     1     -10.605  11.173  66.408  1.00  0.00    -0.315 A  
HETATM   28  C   UNL     1     -11.559  12.125  66.039  1.00  0.00    -0.420 A  
HETATM   29  C   UNL     1     -10.258  10.636  64.087  1.00  0.00    -0.365 A  
BRANCH  26  30
HETATM   30  O   UNL     1     -12.841  13.273  64.465  1.00  0.00    -0.665 OA 
HETATM   31  C   UNL     1     -12.690  14.525  65.123  1.00  0.00    -0.170 C  
ENDBRANCH  26  30
ENDBRANCH  23  24
ENDBRANCH  21  23
ENDBRANCH   3  21
ENDBRANCH   2   3
TORSDOF 14
ENDMDL
MODEL      180
REMARK 921   NORMALIZED FREE ENERGY PREDICTED BY IDOCK:   -4.12 KCAL/MOL
REMARK 922        TOTAL FREE ENERGY PREDICTED BY IDOCK:  -10.28 KCAL/MOL
REMARK 923 INTER-LIGAND FREE ENERGY PREDICTED BY IDOCK:   -7.14 KCAL/MOL
REMARK 924 INTRA-LIGAND FREE ENERGY PREDICTED BY IDOCK:   -3.14 KCAL/MOL
REMARK 927      BINDING AFFINITY PREDICTED BY RF-SCORE:    0.00 PKD
ROOT
HETATM    1  C   UNL     1     -12.556   7.822  72.120  1.00  0.00    -0.250 C  
HETATM    2  C   UNL     1     -11.983   6.979  70.987  1.00  0.00    -0.361 C  
ENDROOT
BRANCH   2   3
HETATM    3  N   UNL     1     -10.570   7.178  70.646  1.00  0.00    -0.222 NA 
BRANCH   3   4
HETATM    4  C   UNL     1      -9.788   7.944  71.635  1.00  0.00    -0.167 C  
BRANCH   4   5
HETATM    5  C   UNL     1      -8.966   9.093  71.031  1.00  0.00    -0.281 C  
BRANCH   5   6
HETATM    6  C   UNL     1      -7.494   8.711  70.871  1.00  0.00    -0.083 C  
BRANCH   6   7
HETATM    7  C   UNL     1      -6.714   9.867  70.255  1.00  0.00    -0.126 C  
BRANCH   7   8
HETATM    8  O   UNL     1      -7.242  10.174  68.958  1.00  0.00    -0.066 OA 
BRANCH   8   9
HETATM    9  C   UNL     1      -7.351  11.497  68.679  1.00  0.00    -0.106 C  
HETATM   10  O   UNL     1      -6.520  12.359  68.905  1.00  0.00    -0.077 OA 
BRANCH   9  11
HETATM   11  C   UNL     1      -8.677  11.776  68.082  1.00  0.00    -0.168 A  
HETATM   12  C   UNL     1      -9.865  11.335  68.679  1.00  0.00    -0.208 A  
HETATM   13  C   UNL     1     -11.096  11.596  68.071  1.00  0.00    -0.242 A  
HETATM   14  C   UNL     1      -9.947  12.759  66.273  1.00  0.00    -0.269 A  
HETATM   15  C   UNL     1     -11.138  12.316  66.857  1.00  0.00    -0.290 A  
HETATM   16  C   UNL     1      -8.718  12.481  66.876  1.00  0.00    -0.182 A  
BRANCH  13  17
HETATM   17  O   UNL     1     -12.307  11.187  68.574  1.00  0.00    -0.561 OA 
HETATM   18  C   UNL     1     -12.389  10.917  69.966  1.00  0.00    -0.313 C  
ENDBRANCH  13  17
BRANCH  15  19
HETATM   19  O   UNL     1     -12.383  12.529  66.322  1.00  0.00    -0.570 OA 
HETATM   20  C   UNL     1     -12.560  13.685  65.513  1.00  0.00    -0.496 C  
ENDBRANCH  15  19
ENDBRANCH   9  11
ENDBRANCH   8   9
ENDBRANCH   7   8
ENDBRANCH   6   7
ENDBRANCH   5   6
ENDBRANCH   4   5
ENDBRANCH   3   4
BRANCH   3  21
HETATM   21  C   UNL     1      -9.830   6.002  70.123  1.00  0.00    -0.173 C  
HETATM   22  C   UNL     1     -10.070   4.688  70.889  1.00  0.00    -0.257 C  
BRANCH  21  23
HETATM   23  C   UNL     1     -10.029   5.731  68.601  1.00  0.00    -0.201 C  
BRANCH  23  24
HETATM   24  C   UNL     1      -9.504   6.803  67.669  1.00  0.00    -0.126 A  
HETATM   25  C   UNL     1      -9.908   8.692  66.184  1.00  0.00    -0.269 A  
HETATM   26  C   UNL     1      -8.549   8.767  65.884  1.00  0.00    -0.154 A  
HETATM   27  C   UNL     1      -8.143   6.877  67.352  1.00  0.00    -0.115 A  
HETATM   28  C   UNL     1      -7.670   7.859  66.477  1.00  0.00    -0.097 A  
HETATM   29  C   UNL     1     -10.381   7.716  67.069  1.00  0.00    -0.400 A  
BRANCH  26  30
HETATM   30  O   UNL     1      -7.960   9.706  65.083  1.00  0.00    -0.111 OA 
HETATM   31  C   UNL     1      -8.574   9.927  63.818  1.00  0.00    -0.199 C  
ENDBRANCH  26  30
ENDBRANCH  23  24
ENDBRANCH  21  23
ENDBRANCH   3  21
ENDBRANCH   2   3
TORSDOF 14
ENDMDL
MODEL      181
REMARK 921   NORMALIZED FREE ENERGY PREDICTED BY IDOCK:   -4.11 KCAL/MOL
REMARK 922        TOTAL FREE ENERGY PREDICTED BY IDOCK:  -10.27 KCAL/MOL
REMARK 923 INTER-LIGAND FREE ENERGY PREDICTED BY IDOCK:   -6.94 KCAL/MOL
REMARK 924 INTRA-LIGAND FREE ENERGY PREDICTED BY IDOCK:   -3.34 KCAL/MOL
REMARK 927      BINDING AFFINITY PREDICTED BY RF-SCORE:    0.00 PKD
ROOT
HETATM    1  C   UNL     1     -12.221  14.284  69.617  1.00  0.00    -0.371 C  
HETATM    2  C   UNL     1     -11.271  14.409  68.431  1.00  0.00    -0.273 C  
ENDROOT
BRANCH   2   3
HETATM    3  N   UNL     1     -11.829  14.180  67.093  1.00  0.00    -0.405 NA 
BRANCH   3   4
HETATM    4  C   UNL     1     -11.367  15.117  66.053  1.00  0.00    -0.221 C  
BRANCH   4   5
HETATM    5  C   UNL     1      -9.860  15.041  65.762  1.00  0.00    -0.386 C  
BRANCH   5   6
HETATM    6  C   UNL     1      -9.104  16.214  66.387  1.00  0.00    -0.339 C  
BRANCH   6   7
HETATM    7  C   UNL     1      -7.809  15.726  67.027  1.00  0.00    -0.236 C  
BRANCH   7   8
HETATM    8  O   UNL     1      -7.817  14.295  67.108  1.00  0.00    -0.170 OA 
BRANCH   8   9
HETATM    9  C   UNL     1      -7.385  13.783  68.288  1.00  0.00    -0.118 C  
HETATM   10  O   UNL     1      -7.172  14.403  69.316  1.00  0.00    -0.128 OA 
BRANCH   9  11
HETATM   11  C   UNL     1      -7.157  12.326  68.150  1.00  0.00    -0.091 A  
HETATM   12  C   UNL     1      -6.975  11.723  66.899  1.00  0.00    -0.101 A  
HETATM   13  C   UNL     1      -6.787  10.340  66.807  1.00  0.00    -0.088 A  
HETATM   14  C   UNL     1      -6.946  10.171  69.226  1.00  0.00    -0.068 A  
HETATM   15  C   UNL     1      -6.771   9.557  67.982  1.00  0.00    -0.063 A  
HETATM   16  C   UNL     1      -7.150  11.550  69.311  1.00  0.00    -0.077 A  
BRANCH  13  17
HETATM   17  O   UNL     1      -6.620   9.661  65.624  1.00  0.00    -0.072 OA 
HETATM   18  C   UNL     1      -7.684   9.698  64.683  1.00  0.00    -0.130 C  
ENDBRANCH  13  17
BRANCH  15  19
HETATM   19  O   UNL     1      -6.585   8.209  67.808  1.00  0.00    -0.055 OA 
HETATM   20  C   UNL     1      -6.988   7.350  68.866  1.00  0.00    -0.078 C  
ENDBRANCH  15  19
ENDBRANCH   9  11
ENDBRANCH   8   9
ENDBRANCH   7   8
ENDBRANCH   6   7
ENDBRANCH   5   6
ENDBRANCH   4   5
ENDBRANCH   3   4
BRANCH   3  21
HETATM   21  C   UNL     1     -11.879  12.776  66.615  1.00  0.00    -0.393 C  
HETATM   22  C   UNL     1     -12.399  12.596  65.177  1.00  0.00    -0.547 C  
BRANCH  21  23
HETATM   23  C   UNL     1     -10.542  11.989  66.760  1.00  0.00    -0.260 C  
BRANCH  23  24
HETATM   24  C   UNL     1     -10.583  10.786  67.679  1.00  0.00    -0.271 A  
HETATM   25  C   UNL     1     -10.785   9.845  69.918  1.00  0.00    -0.318 A  
HETATM   26  C   UNL     1     -10.603   8.560  69.410  1.00  0.00    -0.195 A  
HETATM   27  C   UNL     1     -10.387   9.493  67.180  1.00  0.00    -0.320 A  
HETATM   28  C   UNL     1     -10.410   8.391  68.039  1.00  0.00    -0.270 A  
HETATM   29  C   UNL     1     -10.774  10.950  69.057  1.00  0.00    -0.262 A  
BRANCH  26  30
HETATM   30  O   UNL     1     -10.649   7.403  70.138  1.00  0.00    -0.219 OA 
HETATM   31  C   UNL     1     -11.112   6.246  69.451  1.00  0.00    -0.410 C  
ENDBRANCH  26  30
ENDBRANCH  23  24
ENDBRANCH  21  23
ENDBRANCH   3  21
ENDBRANCH   2   3
TORSDOF 14
ENDMDL
MODEL      182
REMARK 921   NORMALIZED FREE ENERGY PREDICTED BY IDOCK:   -4.10 KCAL/MOL
REMARK 922        TOTAL FREE ENERGY PREDICTED BY IDOCK:  -10.24 KCAL/MOL
REMARK 923 INTER-LIGAND FREE ENERGY PREDICTED BY IDOCK:   -8.83 KCAL/MOL
REMARK 924 INTRA-LIGAND FREE ENERGY PREDICTED BY IDOCK:   -1.42 KCAL/MOL
REMARK 927      BINDING AFFINITY PREDICTED BY RF-SCORE:    0.00 PKD
ROOT
HETATM    1  C   UNL     1     -13.305  11.200  71.954  1.00  0.00    -0.409 C  
HETATM    2  C   UNL     1     -13.340   9.747  71.495  1.00  0.00    -0.385 C  
ENDROOT
BRANCH   2   3
HETATM    3  N   UNL     1     -12.240   9.283  70.641  1.00  0.00    -0.127 NA 
BRANCH   3   4
HETATM    4  C   UNL     1     -11.280  10.325  70.234  1.00  0.00    -0.323 C  
BRANCH   4   5
HETATM    5  C   UNL     1     -11.691  11.100  68.972  1.00  0.00    -0.408 C  
BRANCH   5   6
HETATM    6  C   UNL     1     -11.247  12.562  69.037  1.00  0.00    -0.321 C  
BRANCH   6   7
HETATM    7  C   UNL     1     -11.804  13.335  67.847  1.00  0.00    -0.349 C  
BRANCH   7   8
HETATM    8  O   UNL     1     -12.259  12.418  66.843  1.00  0.00    -0.527 OA 
BRANCH   8   9
HETATM    9  C   UNL     1     -12.071  12.827  65.563  1.00  0.00    -0.465 C  
HETATM   10  O   UNL     1     -12.628  13.759  65.007  1.00  0.00    -0.557 OA 
BRANCH   9  11
HETATM   11  C   UNL     1     -11.099  11.936  64.889  1.00  0.00    -0.363 A  
HETATM   12  C   UNL     1     -10.476  10.878  65.562  1.00  0.00    -0.286 A  
HETATM   13  C   UNL     1      -9.544  10.074  64.899  1.00  0.00    -0.310 A  
HETATM   14  C   UNL     1      -9.873  11.384  62.879  1.00  0.00    -0.314 A  
HETATM   15  C   UNL     1      -9.241  10.329  63.543  1.00  0.00    -0.289 A  
HETATM   16  C   UNL     1     -10.792  12.193  63.550  1.00  0.00    -0.518 A  
BRANCH  13  17
HETATM   17  O   UNL     1      -8.872   9.028  65.484  1.00  0.00    -0.172 OA 
HETATM   18  C   UNL     1      -9.427   8.461  66.662  1.00  0.00    -0.205 C  
ENDBRANCH  13  17
BRANCH  15  19
HETATM   19  O   UNL     1      -8.315   9.499  62.965  1.00  0.00    -0.150 OA 
HETATM   20  C   UNL     1      -7.149  10.099  62.415  1.00  0.00    -0.130 C  
ENDBRANCH  15  19
ENDBRANCH   9  11
ENDBRANCH   8   9
ENDBRANCH   7   8
ENDBRANCH   6   7
ENDBRANCH   5   6
ENDBRANCH   4   5
ENDBRANCH   3   4
BRANCH   3  21
HETATM   21  C   UNL     1     -11.574   8.014  71.030  1.00  0.00    -0.283 C  
HETATM   22  C   UNL     1     -10.680   7.389  69.945  1.00  0.00    -0.254 C  
BRANCH  21  23
HETATM   23  C   UNL     1     -10.765   8.083  72.360  1.00  0.00    -0.386 C  
BRANCH  23  24
HETATM   24  C   UNL     1     -10.268   6.758  72.897  1.00  0.00    -0.223 A  
HETATM   25  C   UNL     1     -10.721   4.505  73.708  1.00  0.00    -0.348 A  
HETATM   26  C   UNL     1      -9.364   4.304  73.953  1.00  0.00    -0.101 A  
HETATM   27  C   UNL     1      -8.908   6.551  73.159  1.00  0.00    -0.135 A  
HETATM   28  C   UNL     1      -8.461   5.330  73.670  1.00  0.00    -0.112 A  
HETATM   29  C   UNL     1     -11.169   5.724  73.185  1.00  0.00    -0.250 A  
BRANCH  26  30
HETATM   30  O   UNL     1      -8.800   3.143  74.408  1.00  0.00    -0.079 OA 
HETATM   31  C   UNL     1      -7.410   2.978  74.153  1.00  0.00    -0.047 C  
ENDBRANCH  26  30
ENDBRANCH  23  24
ENDBRANCH  21  23
ENDBRANCH   3  21
ENDBRANCH   2   3
TORSDOF 14
ENDMDL
MODEL      183
REMARK 921   NORMALIZED FREE ENERGY PREDICTED BY IDOCK:   -4.10 KCAL/MOL
REMARK 922        TOTAL FREE ENERGY PREDICTED BY IDOCK:  -10.24 KCAL/MOL
REMARK 923 INTER-LIGAND FREE ENERGY PREDICTED BY IDOCK:   -8.42 KCAL/MOL
REMARK 924 INTRA-LIGAND FREE ENERGY PREDICTED BY IDOCK:   -1.82 KCAL/MOL
REMARK 927      BINDING AFFINITY PREDICTED BY RF-SCORE:    0.00 PKD
ROOT
HETATM    1  C   UNL     1     -12.363  15.600  74.316  1.00  0.00    -0.813 C  
HETATM    2  C   UNL     1     -13.075  15.946  73.014  1.00  0.00    -0.541 C  
ENDROOT
BRANCH   2   3
HETATM    3  N   UNL     1     -12.814  15.088  71.854  1.00  0.00    -0.318 NA 
BRANCH   3   4
HETATM    4  C   UNL     1     -13.930  14.207  71.461  1.00  0.00    -0.290 C  
BRANCH   4   5
HETATM    5  C   UNL     1     -13.983  12.879  72.232  1.00  0.00    -0.342 C  
BRANCH   5   6
HETATM    6  C   UNL     1     -12.770  12.000  71.926  1.00  0.00    -0.208 C  
BRANCH   6   7
HETATM    7  C   UNL     1     -13.213  10.568  71.648  1.00  0.00    -0.391 C  
BRANCH   7   8
HETATM    8  O   UNL     1     -12.120   9.820  71.098  1.00  0.00    -0.319 OA 
BRANCH   8   9
HETATM    9  C   UNL     1     -11.900   8.612  71.676  1.00  0.00    -0.323 C  
HETATM   10  O   UNL     1     -12.265   8.259  72.785  1.00  0.00    -0.327 OA 
BRANCH   9  11
HETATM   11  C   UNL     1     -11.093   7.762  70.771  1.00  0.00    -0.265 A  
HETATM   12  C   UNL     1     -10.650   8.222  69.526  1.00  0.00    -0.216 A  
HETATM   13  C   UNL     1      -9.912   7.381  68.688  1.00  0.00    -0.169 A  
HETATM   14  C   UNL     1     -10.049   5.621  70.358  1.00  0.00    -0.284 A  
HETATM   15  C   UNL     1      -9.607   6.067  69.109  1.00  0.00    -0.132 A  
HETATM   16  C   UNL     1     -10.799   6.460  71.184  1.00  0.00    -0.308 A  
BRANCH  13  17
HETATM   17  O   UNL     1      -9.452   7.740  67.444  1.00  0.00    -0.137 OA 
HETATM   18  C   UNL     1     -10.309   8.518  66.620  1.00  0.00    -0.233 C  
ENDBRANCH  13  17
BRANCH  15  19
HETATM   19  O   UNL     1      -8.882   5.303  68.230  1.00  0.00    -0.105 OA 
HETATM   20  C   UNL     1      -9.524   4.168  67.664  1.00  0.00    -0.180 C  
ENDBRANCH  15  19
ENDBRANCH   9  11
ENDBRANCH   8   9
ENDBRANCH   7   8
ENDBRANCH   6   7
ENDBRANCH   5   6
ENDBRANCH   4   5
ENDBRANCH   3   4
BRANCH   3  21
HETATM   21  C   UNL     1     -12.146  15.717  70.686  1.00  0.00    -0.405 C  
HETATM   22  C   UNL     1     -10.616  15.564  70.651  1.00  0.00    -0.170 C  
BRANCH  21  23
HETATM   23  C   UNL     1     -12.718  15.292  69.301  1.00  0.00     0.267 C  
BRANCH  23  24
HETATM   24  C   UNL     1     -11.829  14.389  68.471  1.00  0.00    -0.369 A  
HETATM   25  C   UNL     1     -10.271  14.080  66.623  1.00  0.00    -0.275 A  
HETATM   26  C   UNL     1     -10.215  12.711  66.880  1.00  0.00    -0.234 A  
HETATM   27  C   UNL     1     -11.776  13.011  68.713  1.00  0.00    -0.363 A  
HETATM   28  C   UNL     1     -10.965  12.184  67.931  1.00  0.00    -0.272 A  
HETATM   29  C   UNL     1     -11.075  14.912  67.413  1.00  0.00    -0.325 A  
BRANCH  26  30
HETATM   30  O   UNL     1      -9.428  11.809  66.218  1.00  0.00    -0.214 OA 
HETATM   31  C   UNL     1      -8.241  11.399  66.887  1.00  0.00    -0.157 C  
ENDBRANCH  26  30
ENDBRANCH  23  24
ENDBRANCH  21  23
ENDBRANCH   3  21
ENDBRANCH   2   3
TORSDOF 14
ENDMDL
MODEL      184
REMARK 921   NORMALIZED FREE ENERGY PREDICTED BY IDOCK:   -4.09 KCAL/MOL
REMARK 922        TOTAL FREE ENERGY PREDICTED BY IDOCK:  -10.24 KCAL/MOL
REMARK 923 INTER-LIGAND FREE ENERGY PREDICTED BY IDOCK:   -8.28 KCAL/MOL
REMARK 924 INTRA-LIGAND FREE ENERGY PREDICTED BY IDOCK:   -1.95 KCAL/MOL
REMARK 927      BINDING AFFINITY PREDICTED BY RF-SCORE:    0.00 PKD
ROOT
HETATM    1  C   UNL     1      -8.361   8.841  63.233  1.00  0.00    -0.161 C  
HETATM    2  C   UNL     1      -8.652  10.315  62.980  1.00  0.00    -0.190 C  
ENDROOT
BRANCH   2   3
HETATM    3  N   UNL     1      -9.496  11.013  63.956  1.00  0.00    -0.238 NA 
BRANCH   3   4
HETATM    4  C   UNL     1     -10.903  11.195  63.552  1.00  0.00    -0.194 C  
BRANCH   4   5
HETATM    5  C   UNL     1     -11.410  12.640  63.673  1.00  0.00    -0.544 C  
BRANCH   5   6
HETATM    6  C   UNL     1     -12.626  12.736  64.595  1.00  0.00    -0.491 C  
BRANCH   6   7
HETATM    7  C   UNL     1     -12.593  14.045  65.376  1.00  0.00    -0.505 C  
BRANCH   7   8
HETATM    8  O   UNL     1     -11.326  14.187  66.033  1.00  0.00    -0.318 OA 
BRANCH   8   9
HETATM    9  C   UNL     1     -11.393  14.470  67.358  1.00  0.00    -0.356 C  
HETATM   10  O   UNL     1     -12.214  14.043  68.153  1.00  0.00    -0.325 OA 
BRANCH   9  11
HETATM   11  C   UNL     1     -10.329  15.434  67.719  1.00  0.00    -0.253 A  
HETATM   12  C   UNL     1      -9.037  15.015  68.060  1.00  0.00    -0.178 A  
HETATM   13  C   UNL     1      -8.066  15.954  68.421  1.00  0.00    -0.149 A  
HETATM   14  C   UNL     1      -9.682  17.736  68.081  1.00  0.00    -0.313 A  
HETATM   15  C   UNL     1      -8.392  17.328  68.430  1.00  0.00    -0.261 A  
HETATM   16  C   UNL     1     -10.653  16.793  67.737  1.00  0.00    -0.341 A  
BRANCH  13  17
HETATM   17  O   UNL     1      -6.781  15.634  68.787  1.00  0.00    -0.109 OA 
HETATM   18  C   UNL     1      -6.606  14.665  69.811  1.00  0.00    -0.164 C  
ENDBRANCH  13  17
BRANCH  15  19
HETATM   19  O   UNL     1      -7.386  18.186  68.797  1.00  0.00    -0.274 OA 
HETATM   20  C   UNL     1      -7.730  19.548  69.008  1.00  0.00    -0.297 C  
ENDBRANCH  15  19
ENDBRANCH   9  11
ENDBRANCH   8   9
ENDBRANCH   7   8
ENDBRANCH   6   7
ENDBRANCH   5   6
ENDBRANCH   4   5
ENDBRANCH   3   4
BRANCH   3  21
HETATM   21  C   UNL     1      -9.359  10.609  65.378  1.00  0.00    -0.210 C  
HETATM   22  C   UNL     1      -8.712  11.661  66.295  1.00  0.00    -0.136 C  
BRANCH  21  23
HETATM   23  C   UNL     1     -10.678  10.114  66.045  1.00  0.00     0.033 C  
BRANCH  23  24
HETATM   24  C   UNL     1     -10.614   9.888  67.541  1.00  0.00    -0.333 A  
HETATM   25  C   UNL     1      -9.882   8.555  69.445  1.00  0.00    -0.185 A  
HETATM   26  C   UNL     1     -10.534   9.421  70.321  1.00  0.00    -0.251 A  
HETATM   27  C   UNL     1     -11.277  10.745  68.427  1.00  0.00    -0.345 A  
HETATM   28  C   UNL     1     -11.225  10.518  69.805  1.00  0.00    -0.361 A  
HETATM   29  C   UNL     1      -9.923   8.787  68.065  1.00  0.00    -0.220 A  
BRANCH  26  30
HETATM   30  O   UNL     1     -10.520   9.332  71.686  1.00  0.00    -0.344 OA 
HETATM   31  C   UNL     1     -10.346   8.029  72.229  1.00  0.00    -0.271 C  
ENDBRANCH  26  30
ENDBRANCH  23  24
ENDBRANCH  21  23
ENDBRANCH   3  21
ENDBRANCH   2   3
TORSDOF 14
ENDMDL
MODEL      185
REMARK 921   NORMALIZED FREE ENERGY PREDICTED BY IDOCK:   -4.09 KCAL/MOL
REMARK 922        TOTAL FREE ENERGY PREDICTED BY IDOCK:  -10.23 KCAL/MOL
REMARK 923 INTER-LIGAND FREE ENERGY PREDICTED BY IDOCK:   -7.63 KCAL/MOL
REMARK 924 INTRA-LIGAND FREE ENERGY PREDICTED BY IDOCK:   -2.60 KCAL/MOL
REMARK 927      BINDING AFFINITY PREDICTED BY RF-SCORE:    0.00 PKD
ROOT
HETATM    1  C   UNL     1      -8.247  13.049  67.591  1.00  0.00    -0.171 C  
HETATM    2  C   UNL     1      -8.076  11.792  68.437  1.00  0.00    -0.150 C  
ENDROOT
BRANCH   2   3
HETATM    3  N   UNL     1      -8.520  10.521  67.854  1.00  0.00    -0.118 NA 
BRANCH   3   4
HETATM    4  C   UNL     1      -7.454   9.703  67.247  1.00  0.00    -0.088 C  
BRANCH   4   5
HETATM    5  C   UNL     1      -7.610   9.489  65.733  1.00  0.00    -0.100 C  
BRANCH   5   6
HETATM    6  C   UNL     1      -8.645   8.408  65.420  1.00  0.00    -0.193 C  
BRANCH   6   7
HETATM    7  C   UNL     1      -7.960   7.057  65.245  1.00  0.00    -0.127 C  
BRANCH   7   8
HETATM    8  O   UNL     1      -8.046   6.309  66.465  1.00  0.00    -0.107 OA 
BRANCH   8   9
HETATM    9  C   UNL     1      -9.254   5.740  66.707  1.00  0.00    -0.131 C  
HETATM   10  O   UNL     1      -9.952   5.143  65.905  1.00  0.00    -0.164 OA 
BRANCH   9  11
HETATM   11  C   UNL     1      -9.650   5.983  68.114  1.00  0.00    -0.122 A  
HETATM   12  C   UNL     1      -8.729   5.903  69.165  1.00  0.00    -0.118 A  
HETATM   13  C   UNL     1      -9.146   6.114  70.483  1.00  0.00    -0.154 A  
HETATM   14  C   UNL     1     -11.410   6.505  69.688  1.00  0.00    -0.443 A  
HETATM   15  C   UNL     1     -10.500   6.420  70.746  1.00  0.00    -0.222 A  
HETATM   16  C   UNL     1     -10.991   6.277  68.376  1.00  0.00    -0.409 A  
BRANCH  13  17
HETATM   17  O   UNL     1      -8.319   6.038  71.576  1.00  0.00    -0.124 OA 
HETATM   18  C   UNL     1      -7.788   4.765  71.917  1.00  0.00    -0.100 C  
ENDBRANCH  13  17
BRANCH  15  19
HETATM   19  O   UNL     1     -10.831   6.610  72.064  1.00  0.00    -0.223 OA 
HETATM   20  C   UNL     1     -11.488   5.543  72.736  1.00  0.00    -0.280 C  
ENDBRANCH  15  19
ENDBRANCH   9  11
ENDBRANCH   8   9
ENDBRANCH   7   8
ENDBRANCH   6   7
ENDBRANCH   5   6
ENDBRANCH   4   5
ENDBRANCH   3   4
BRANCH   3  21
HETATM   21  C   UNL     1      -9.477   9.712  68.650  1.00  0.00    -0.146 C  
HETATM   22  C   UNL     1      -9.238   9.730  70.170  1.00  0.00    -0.253 C  
BRANCH  21  23
HETATM   23  C   UNL     1     -10.979  10.026  68.381  1.00  0.00    -0.266 C  
BRANCH  23  24
HETATM   24  C   UNL     1     -11.690  10.813  69.462  1.00  0.00    -0.384 A  
HETATM   25  C   UNL     1     -12.255  12.947  70.495  1.00  0.00    -0.395 A  
HETATM   26  C   UNL     1     -12.960  12.290  71.501  1.00  0.00    -0.289 A  
HETATM   27  C   UNL     1     -12.390  10.162  70.484  1.00  0.00    -0.330 A  
HETATM   28  C   UNL     1     -13.029  10.897  71.486  1.00  0.00    -0.556 A  
HETATM   29  C   UNL     1     -11.623  12.213  69.483  1.00  0.00    -0.382 A  
BRANCH  26  30
HETATM   30  O   UNL     1     -13.663  12.896  72.507  1.00  0.00    -0.557 OA 
HETATM   31  C   UNL     1     -14.020  14.257  72.293  1.00  0.00    -0.531 C  
ENDBRANCH  26  30
ENDBRANCH  23  24
ENDBRANCH  21  23
ENDBRANCH   3  21
ENDBRANCH   2   3
TORSDOF 14
ENDMDL
MODEL      186
REMARK 921   NORMALIZED FREE ENERGY PREDICTED BY IDOCK:   -4.08 KCAL/MOL
REMARK 922        TOTAL FREE ENERGY PREDICTED BY IDOCK:  -10.21 KCAL/MOL
REMARK 923 INTER-LIGAND FREE ENERGY PREDICTED BY IDOCK:   -8.28 KCAL/MOL
REMARK 924 INTRA-LIGAND FREE ENERGY PREDICTED BY IDOCK:   -1.93 KCAL/MOL
REMARK 927      BINDING AFFINITY PREDICTED BY RF-SCORE:    0.00 PKD
ROOT
HETATM    1  C   UNL     1     -12.867  14.398  65.261  1.00  0.00    -0.212 C  
HETATM    2  C   UNL     1     -11.467  13.805  65.358  1.00  0.00    -0.311 C  
ENDROOT
BRANCH   2   3
HETATM    3  N   UNL     1     -11.352  12.416  65.816  1.00  0.00    -0.336 NA 
BRANCH   3   4
HETATM    4  C   UNL     1     -10.910  11.452  64.792  1.00  0.00    -0.273 C  
BRANCH   4   5
HETATM    5  C   UNL     1     -10.453  12.099  63.475  1.00  0.00    -0.490 C  
BRANCH   5   6
HETATM    6  C   UNL     1      -9.252  11.369  62.874  1.00  0.00    -0.313 C  
BRANCH   6   7
HETATM    7  C   UNL     1      -9.325   9.880  63.196  1.00  0.00    -0.176 C  
BRANCH   7   8
HETATM    8  O   UNL     1      -8.070   9.437  63.730  1.00  0.00    -0.136 OA 
BRANCH   8   9
HETATM    9  C   UNL     1      -7.905   9.646  65.060  1.00  0.00    -0.118 C  
HETATM   10  O   UNL     1      -7.276  10.552  65.582  1.00  0.00    -0.146 OA 
BRANCH   9  11
HETATM   11  C   UNL     1      -8.575   8.569  65.825  1.00  0.00    -0.190 A  
HETATM   12  C   UNL     1      -7.956   7.336  66.061  1.00  0.00    -0.115 A  
HETATM   13  C   UNL     1      -8.631   6.334  66.765  1.00  0.00    -0.116 A  
HETATM   14  C   UNL     1     -10.542   7.815  67.012  1.00  0.00    -0.396 A  
HETATM   15  C   UNL     1      -9.937   6.577  67.246  1.00  0.00    -0.147 A  
HETATM   16  C   UNL     1      -9.870   8.806  66.293  1.00  0.00    -0.342 A  
BRANCH  13  17
HETATM   17  O   UNL     1      -8.110   5.090  67.027  1.00  0.00    -0.106 OA 
HETATM   18  C   UNL     1      -7.748   4.277  65.919  1.00  0.00    -0.090 C  
ENDBRANCH  13  17
BRANCH  15  19
HETATM   19  O   UNL     1     -10.532   5.544  67.925  1.00  0.00    -0.207 OA 
HETATM   20  C   UNL     1     -10.684   5.684  69.331  1.00  0.00    -0.295 C  
ENDBRANCH  15  19
ENDBRANCH   9  11
ENDBRANCH   8   9
ENDBRANCH   7   8
ENDBRANCH   6   7
ENDBRANCH   5   6
ENDBRANCH   4   5
ENDBRANCH   3   4
BRANCH   3  21
HETATM   21  C   UNL     1     -10.700  12.191  67.131  1.00  0.00    -0.232 C  
HETATM   22  C   UNL     1      -9.291  12.794  67.270  1.00  0.00    -0.200 C  
BRANCH  21  23
HETATM   23  C   UNL     1     -11.549  12.626  68.363  1.00  0.00    -0.370 C  
BRANCH  23  24
HETATM   24  C   UNL     1     -11.699  11.590  69.457  1.00  0.00    -0.413 A  
HETATM   25  C   UNL     1     -11.134   9.413  70.396  1.00  0.00    -0.311 A  
HETATM   26  C   UNL     1     -12.011   9.627  71.457  1.00  0.00    -0.406 A  
HETATM   27  C   UNL     1     -12.587  11.790  70.521  1.00  0.00    -0.234 A  
HETATM   28  C   UNL     1     -12.731  10.821  71.517  1.00  0.00    -0.536 A  
HETATM   29  C   UNL     1     -10.981  10.388  69.402  1.00  0.00    -0.296 A  
BRANCH  26  30
HETATM   30  O   UNL     1     -12.205   8.778  72.513  1.00  0.00    -0.364 OA 
HETATM   31  C   UNL     1     -11.184   7.814  72.740  1.00  0.00    -0.398 C  
ENDBRANCH  26  30
ENDBRANCH  23  24
ENDBRANCH  21  23
ENDBRANCH   3  21
ENDBRANCH   2   3
TORSDOF 14
ENDMDL
MODEL      187
REMARK 921   NORMALIZED FREE ENERGY PREDICTED BY IDOCK:   -4.07 KCAL/MOL
REMARK 922        TOTAL FREE ENERGY PREDICTED BY IDOCK:  -10.20 KCAL/MOL
REMARK 923 INTER-LIGAND FREE ENERGY PREDICTED BY IDOCK:   -7.61 KCAL/MOL
REMARK 924 INTRA-LIGAND FREE ENERGY PREDICTED BY IDOCK:   -2.59 KCAL/MOL
REMARK 927      BINDING AFFINITY PREDICTED BY RF-SCORE:    0.00 PKD
ROOT
HETATM    1  C   UNL     1     -11.345  16.429  68.652  1.00  0.00    -0.289 C  
HETATM    2  C   UNL     1     -10.476  15.196  68.435  1.00  0.00    -0.233 C  
ENDROOT
BRANCH   2   3
HETATM    3  N   UNL     1      -9.865  15.025  67.112  1.00  0.00    -0.231 NA 
BRANCH   3   4
HETATM    4  C   UNL     1     -10.552  15.722  66.009  1.00  0.00    -0.326 C  
BRANCH   4   5
HETATM    5  C   UNL     1     -10.976  14.803  64.853  1.00  0.00    -0.425 C  
BRANCH   5   6
HETATM    6  C   UNL     1     -12.222  13.990  65.206  1.00  0.00    -0.451 C  
BRANCH   6   7
HETATM    7  C   UNL     1     -11.907  12.498  65.164  1.00  0.00    -0.405 C  
BRANCH   7   8
HETATM    8  O   UNL     1     -10.918  12.184  66.154  1.00  0.00    -0.274 OA 
BRANCH   8   9
HETATM    9  C   UNL     1     -10.618  10.866  66.268  1.00  0.00    -0.214 C  
HETATM   10  O   UNL     1     -10.234  10.127  65.377  1.00  0.00    -0.298 OA 
BRANCH   9  11
HETATM   11  C   UNL     1     -10.867  10.413  67.656  1.00  0.00    -0.361 A  
HETATM   12  C   UNL     1     -11.523  11.223  68.591  1.00  0.00    -0.362 A  
HETATM   13  C   UNL     1     -11.716  10.770  69.899  1.00  0.00    -0.333 A  
HETATM   14  C   UNL     1     -10.609   8.684  69.327  1.00  0.00    -0.204 A  
HETATM   15  C   UNL     1     -11.256   9.487  70.271  1.00  0.00    -0.261 A  
HETATM   16  C   UNL     1     -10.404   9.148  68.026  1.00  0.00    -0.272 A  
BRANCH  13  17
HETATM   17  O   UNL     1     -12.331  11.502  70.886  1.00  0.00    -0.377 OA 
HETATM   18  C   UNL     1     -12.429  12.907  70.705  1.00  0.00    -0.286 C  
ENDBRANCH  13  17
BRANCH  15  19
HETATM   19  O   UNL     1     -11.481   9.117  71.572  1.00  0.00    -0.312 OA 
HETATM   20  C   UNL     1     -10.377   8.611  72.310  1.00  0.00    -0.306 C  
ENDBRANCH  15  19
ENDBRANCH   9  11
ENDBRANCH   8   9
ENDBRANCH   7   8
ENDBRANCH   6   7
ENDBRANCH   5   6
ENDBRANCH   4   5
ENDBRANCH   3   4
BRANCH   3  21
HETATM   21  C   UNL     1      -8.387  15.148  67.031  1.00  0.00    -0.231 C  
HETATM   22  C   UNL     1      -7.874  16.498  66.499  1.00  0.00    -0.338 C  
BRANCH  21  23
HETATM   23  C   UNL     1      -7.632  14.817  68.354  1.00  0.00    -0.116 C  
BRANCH  23  24
HETATM   24  C   UNL     1      -7.236  13.368  68.540  1.00  0.00    -0.110 A  
HETATM   25  C   UNL     1      -6.119  11.634  69.838  1.00  0.00    -0.147 A  
HETATM   26  C   UNL     1      -6.440  10.683  68.872  1.00  0.00    -0.049 A  
HETATM   27  C   UNL     1      -7.542  12.407  67.568  1.00  0.00    -0.155 A  
HETATM   28  C   UNL     1      -7.157  11.075  67.741  1.00  0.00    -0.086 A  
HETATM   29  C   UNL     1      -6.514  12.967  69.672  1.00  0.00    -0.044 A  
BRANCH  26  30
HETATM   30  O   UNL     1      -6.161   9.345  68.947  1.00  0.00    -0.043 OA 
HETATM   31  C   UNL     1      -6.833   8.509  68.013  1.00  0.00    -0.070 C  
ENDBRANCH  26  30
ENDBRANCH  23  24
ENDBRANCH  21  23
ENDBRANCH   3  21
ENDBRANCH   2   3
TORSDOF 14
ENDMDL
MODEL      188
REMARK 921   NORMALIZED FREE ENERGY PREDICTED BY IDOCK:   -4.07 KCAL/MOL
REMARK 922        TOTAL FREE ENERGY PREDICTED BY IDOCK:  -10.19 KCAL/MOL
REMARK 923 INTER-LIGAND FREE ENERGY PREDICTED BY IDOCK:   -8.38 KCAL/MOL
REMARK 924 INTRA-LIGAND FREE ENERGY PREDICTED BY IDOCK:   -1.82 KCAL/MOL
REMARK 927      BINDING AFFINITY PREDICTED BY RF-SCORE:    0.00 PKD
ROOT
HETATM    1  C   UNL     1      -9.228  10.234  63.567  1.00  0.00    -0.321 C  
HETATM    2  C   UNL     1     -10.409  10.723  64.396  1.00  0.00    -0.335 C  
ENDROOT
BRANCH   2   3
HETATM    3  N   UNL     1     -10.236  11.972  65.148  1.00  0.00    -0.269 NA 
BRANCH   3   4
HETATM    4  C   UNL     1      -8.850  12.274  65.550  1.00  0.00     0.548 C  
BRANCH   4   5
HETATM    5  C   UNL     1      -8.642  12.365  67.070  1.00  0.00    -0.191 C  
BRANCH   5   6
HETATM    6  C   UNL     1      -7.215  11.987  67.469  1.00  0.00    -0.127 C  
BRANCH   6   7
HETATM    7  C   UNL     1      -7.173  11.558  68.931  1.00  0.00    -0.117 C  
BRANCH   7   8
HETATM    8  O   UNL     1      -8.469  11.100  69.341  1.00  0.00     0.050 OA 
BRANCH   8   9
HETATM    9  C   UNL     1      -8.522   9.805  69.741  1.00  0.00    -0.193 C  
HETATM   10  O   UNL     1      -7.671   8.951  69.557  1.00  0.00    -0.083 OA 
BRANCH   9  11
HETATM   11  C   UNL     1      -9.813   9.541  70.417  1.00  0.00    -0.329 A  
HETATM   12  C   UNL     1     -10.872  10.455  70.369  1.00  0.00    -0.257 A  
HETATM   13  C   UNL     1     -12.067  10.182  71.041  1.00  0.00    -0.377 A  
HETATM   14  C   UNL     1     -11.143   8.065  71.795  1.00  0.00    -0.313 A  
HETATM   15  C   UNL     1     -12.204   8.974  71.760  1.00  0.00    -0.364 A  
HETATM   16  C   UNL     1      -9.945   8.350  71.136  1.00  0.00    -0.245 A  
BRANCH  13  17
HETATM   17  O   UNL     1     -13.150  11.027  71.065  1.00  0.00    -0.313 OA 
HETATM   18  C   UNL     1     -13.103  12.139  71.947  1.00  0.00    -0.369 C  
ENDBRANCH  13  17
BRANCH  15  19
HETATM   19  O   UNL     1     -13.405   8.781  72.395  1.00  0.00    -0.400 OA 
HETATM   20  C   UNL     1     -14.342   7.911  71.773  1.00  0.00    -0.475 C  
ENDBRANCH  15  19
ENDBRANCH   9  11
ENDBRANCH   8   9
ENDBRANCH   7   8
ENDBRANCH   6   7
ENDBRANCH   5   6
ENDBRANCH   4   5
ENDBRANCH   3   4
BRANCH   3  21
HETATM   21  C   UNL     1     -10.958  13.168  64.645  1.00  0.00    -0.356 C  
HETATM   22  C   UNL     1     -11.775  12.943  63.360  1.00  0.00    -0.526 C  
BRANCH  21  23
HETATM   23  C   UNL     1     -11.870  13.869  65.696  1.00  0.00    -0.383 C  
BRANCH  23  24
HETATM   24  C   UNL     1     -11.240  15.022  66.448  1.00  0.00    -0.310 A  
HETATM   25  C   UNL     1      -9.689  16.901  66.520  1.00  0.00    -0.295 A  
HETATM   26  C   UNL     1     -10.015  17.138  67.854  1.00  0.00    -0.292 A  
HETATM   27  C   UNL     1     -11.551  15.260  67.792  1.00  0.00    -0.277 A  
HETATM   28  C   UNL     1     -10.952  16.317  68.483  1.00  0.00    -0.345 A  
HETATM   29  C   UNL     1     -10.297  15.849  65.823  1.00  0.00    -0.396 A  
BRANCH  26  30
HETATM   30  O   UNL     1      -9.534  18.164  68.621  1.00  0.00    -0.315 OA 
HETATM   31  C   UNL     1     -10.210  19.409  68.501  1.00  0.00    -0.398 C  
ENDBRANCH  26  30
ENDBRANCH  23  24
ENDBRANCH  21  23
ENDBRANCH   3  21
ENDBRANCH   2   3
TORSDOF 14
ENDMDL
MODEL      189
REMARK 921   NORMALIZED FREE ENERGY PREDICTED BY IDOCK:   -4.07 KCAL/MOL
REMARK 922        TOTAL FREE ENERGY PREDICTED BY IDOCK:  -10.19 KCAL/MOL
REMARK 923 INTER-LIGAND FREE ENERGY PREDICTED BY IDOCK:   -7.99 KCAL/MOL
REMARK 924 INTRA-LIGAND FREE ENERGY PREDICTED BY IDOCK:   -2.20 KCAL/MOL
REMARK 927      BINDING AFFINITY PREDICTED BY RF-SCORE:    0.00 PKD
ROOT
HETATM    1  C   UNL     1      -7.725  10.707  69.055  1.00  0.00    -0.130 C  
HETATM    2  C   UNL     1      -8.537   9.602  68.390  1.00  0.00    -0.119 C  
ENDROOT
BRANCH   2   3
HETATM    3  N   UNL     1      -8.918   9.796  66.987  1.00  0.00    -0.137 NA 
BRANCH   3   4
HETATM    4  C   UNL     1      -9.167   8.556  66.228  1.00  0.00    -0.207 C  
BRANCH   4   5
HETATM    5  C   UNL     1      -7.918   7.684  66.023  1.00  0.00    -0.112 C  
BRANCH   5   6
HETATM    6  C   UNL     1      -8.056   6.328  66.718  1.00  0.00    -0.109 C  
BRANCH   6   7
HETATM    7  C   UNL     1      -9.145   5.500  66.045  1.00  0.00    -0.156 C  
BRANCH   7   8
HETATM    8  O   UNL     1     -10.218   5.268  66.967  1.00  0.00    -0.191 OA 
BRANCH   8   9
HETATM    9  C   UNL     1      -9.867   4.620  68.106  1.00  0.00    -0.107 C  
HETATM   10  O   UNL     1      -9.327   3.529  68.187  1.00  0.00    -0.164 OA 
BRANCH   9  11
HETATM   11  C   UNL     1     -10.280   5.417  69.285  1.00  0.00    -0.315 A  
HETATM   12  C   UNL     1      -9.763   5.168  70.562  1.00  0.00    -0.260 A  
HETATM   13  C   UNL     1     -10.196   5.925  71.655  1.00  0.00    -0.202 A  
HETATM   14  C   UNL     1     -11.652   7.195  70.181  1.00  0.00    -0.211 A  
HETATM   15  C   UNL     1     -11.149   6.950  71.462  1.00  0.00    -0.244 A  
HETATM   16  C   UNL     1     -11.229   6.424  69.096  1.00  0.00    -0.421 A  
BRANCH  13  17
HETATM   17  O   UNL     1      -9.759   5.740  72.944  1.00  0.00    -0.155 OA 
HETATM   18  C   UNL     1      -8.383   5.966  73.216  1.00  0.00    -0.116 C  
ENDBRANCH  13  17
BRANCH  15  19
HETATM   19  O   UNL     1     -11.525   7.645  72.583  1.00  0.00    -0.340 OA 
HETATM   20  C   UNL     1     -12.463   8.700  72.416  1.00  0.00    -0.362 C  
ENDBRANCH  15  19
ENDBRANCH   9  11
ENDBRANCH   8   9
ENDBRANCH   7   8
ENDBRANCH   6   7
ENDBRANCH   5   6
ENDBRANCH   4   5
ENDBRANCH   3   4
BRANCH   3  21
HETATM   21  C   UNL     1      -9.922  10.851  66.700  1.00  0.00    -0.208 C  
HETATM   22  C   UNL     1     -10.143  11.152  65.207  1.00  0.00    -0.329 C  
BRANCH  21  23
HETATM   23  C   UNL     1     -11.311  10.629  67.371  1.00  0.00    -0.185 C  
BRANCH  23  24
HETATM   24  C   UNL     1     -11.672  11.602  68.474  1.00  0.00    -0.378 A  
HETATM   25  C   UNL     1     -11.989  13.890  69.251  1.00  0.00    -0.402 A  
HETATM   26  C   UNL     1     -12.286  13.429  70.532  1.00  0.00    -0.352 A  
HETATM   27  C   UNL     1     -11.960  11.150  69.767  1.00  0.00    -0.428 A  
HETATM   28  C   UNL     1     -12.276  12.056  70.782  1.00  0.00    -0.382 A  
HETATM   29  C   UNL     1     -11.683  12.982  68.230  1.00  0.00    -0.390 A  
BRANCH  26  30
HETATM   30  O   UNL     1     -12.653  14.210  71.594  1.00  0.00    -0.330 OA 
HETATM   31  C   UNL     1     -13.920  13.925  72.176  1.00  0.00    -0.545 C  
ENDBRANCH  26  30
ENDBRANCH  23  24
ENDBRANCH  21  23
ENDBRANCH   3  21
ENDBRANCH   2   3
TORSDOF 14
ENDMDL
MODEL      190
REMARK 921   NORMALIZED FREE ENERGY PREDICTED BY IDOCK:   -4.06 KCAL/MOL
REMARK 922        TOTAL FREE ENERGY PREDICTED BY IDOCK:  -10.17 KCAL/MOL
REMARK 923 INTER-LIGAND FREE ENERGY PREDICTED BY IDOCK:   -8.32 KCAL/MOL
REMARK 924 INTRA-LIGAND FREE ENERGY PREDICTED BY IDOCK:   -1.85 KCAL/MOL
REMARK 927      BINDING AFFINITY PREDICTED BY RF-SCORE:    0.00 PKD
ROOT
HETATM    1  C   UNL     1     -12.920  11.241  71.391  1.00  0.00    -0.482 C  
HETATM    2  C   UNL     1     -12.752   9.729  71.478  1.00  0.00    -0.406 C  
ENDROOT
BRANCH   2   3
HETATM    3  N   UNL     1     -11.735   9.113  70.619  1.00  0.00    -0.249 NA 
BRANCH   3   4
HETATM    4  C   UNL     1     -10.779  10.053  70.005  1.00  0.00    -0.299 C  
BRANCH   4   5
HETATM    5  C   UNL     1     -10.358   9.678  68.575  1.00  0.00    -0.231 C  
BRANCH   5   6
HETATM    6  C   UNL     1      -8.881   9.290  68.504  1.00  0.00    -0.129 C  
BRANCH   6   7
HETATM    7  C   UNL     1      -8.107  10.312  67.678  1.00  0.00    -0.106 C  
BRANCH   7   8
HETATM    8  O   UNL     1      -7.933  11.517  68.435  1.00  0.00    -0.129 OA 
BRANCH   8   9
HETATM    9  C   UNL     1      -7.462  12.576  67.730  1.00  0.00    -0.130 C  
HETATM   10  O   UNL     1      -6.407  12.633  67.120  1.00  0.00    -0.195 OA 
BRANCH   9  11
HETATM   11  C   UNL     1      -8.407  13.711  67.837  1.00  0.00    -0.174 A  
HETATM   12  C   UNL     1      -9.754  13.587  67.472  1.00  0.00    -0.228 A  
HETATM   13  C   UNL     1     -10.610  14.688  67.562  1.00  0.00    -0.257 A  
HETATM   14  C   UNL     1      -8.769  16.033  68.403  1.00  0.00    -0.186 A  
HETATM   15  C   UNL     1     -10.113  15.923  68.034  1.00  0.00    -0.230 A  
HETATM   16  C   UNL     1      -7.914  14.935  68.295  1.00  0.00    -0.130 A  
BRANCH  13  17
HETATM   17  O   UNL     1     -11.937  14.665  67.209  1.00  0.00    -0.391 OA 
HETATM   18  C   UNL     1     -12.298  13.951  66.035  1.00  0.00    -0.475 C  
ENDBRANCH  13  17
BRANCH  15  19
HETATM   19  O   UNL     1     -11.015  16.956  68.091  1.00  0.00    -0.365 OA 
HETATM   20  C   UNL     1     -10.605  18.213  67.569  1.00  0.00    -0.401 C  
ENDBRANCH  15  19
ENDBRANCH   9  11
ENDBRANCH   8   9
ENDBRANCH   7   8
ENDBRANCH   6   7
ENDBRANCH   5   6
ENDBRANCH   4   5
ENDBRANCH   3   4
BRANCH   3  21
HETATM   21  C   UNL     1     -11.078   7.882  71.127  1.00  0.00    -0.255 C  
HETATM   22  C   UNL     1     -10.950   7.798  72.659  1.00  0.00    -0.422 C  
BRANCH  21  23
HETATM   23  C   UNL     1     -11.697   6.550  70.607  1.00  0.00    -0.436 C  
BRANCH  23  24
HETATM   24  C   UNL     1     -10.948   5.873  69.478  1.00  0.00    -0.438 A  
HETATM   25  C   UNL     1     -10.489   5.628  67.097  1.00  0.00    -0.334 A  
HETATM   26  C   UNL     1      -9.605   4.584  67.360  1.00  0.00    -0.176 A  
HETATM   27  C   UNL     1     -10.067   4.815  69.731  1.00  0.00    -0.289 A  
HETATM   28  C   UNL     1      -9.393   4.186  68.681  1.00  0.00    -0.219 A  
HETATM   29  C   UNL     1     -11.157   6.267  68.150  1.00  0.00    -0.364 A  
BRANCH  26  30
HETATM   30  O   UNL     1      -8.854   3.922  66.427  1.00  0.00    -0.115 OA 
HETATM   31  C   UNL     1      -7.690   3.262  66.910  1.00  0.00    -0.079 C  
ENDBRANCH  26  30
ENDBRANCH  23  24
ENDBRANCH  21  23
ENDBRANCH   3  21
ENDBRANCH   2   3
TORSDOF 14
ENDMDL
MODEL      191
REMARK 921   NORMALIZED FREE ENERGY PREDICTED BY IDOCK:   -4.06 KCAL/MOL
REMARK 922        TOTAL FREE ENERGY PREDICTED BY IDOCK:  -10.17 KCAL/MOL
REMARK 923 INTER-LIGAND FREE ENERGY PREDICTED BY IDOCK:   -7.75 KCAL/MOL
REMARK 924 INTRA-LIGAND FREE ENERGY PREDICTED BY IDOCK:   -2.42 KCAL/MOL
REMARK 927      BINDING AFFINITY PREDICTED BY RF-SCORE:    0.00 PKD
ROOT
HETATM    1  C   UNL     1     -10.358  19.544  67.976  1.00  0.00    -0.564 C  
HETATM    2  C   UNL     1      -9.152  18.642  68.210  1.00  0.00    -0.322 C  
ENDROOT
BRANCH   2   3
HETATM    3  N   UNL     1      -9.268  17.240  67.792  1.00  0.00    -0.236 NA 
BRANCH   3   4
HETATM    4  C   UNL     1      -8.842  16.249  68.797  1.00  0.00    -0.243 C  
BRANCH   4   5
HETATM    5  C   UNL     1      -7.541  15.512  68.442  1.00  0.00    -0.116 C  
BRANCH   5   6
HETATM    6  C   UNL     1      -6.733  15.158  69.691  1.00  0.00    -0.181 C  
BRANCH   6   7
HETATM    7  C   UNL     1      -5.660  14.130  69.350  1.00  0.00    -0.084 C  
BRANCH   7   8
HETATM    8  O   UNL     1      -6.251  12.828  69.247  1.00  0.00    -0.091 OA 
BRANCH   8   9
HETATM    9  C   UNL     1      -6.366  12.348  67.983  1.00  0.00    -0.082 C  
HETATM   10  O   UNL     1      -5.644  12.609  67.036  1.00  0.00    -0.338 OA 
BRANCH   9  11
HETATM   11  C   UNL     1      -7.552  11.466  67.888  1.00  0.00    -0.108 A  
HETATM   12  C   UNL     1      -8.597  11.529  68.819  1.00  0.00    -0.055 A  
HETATM   13  C   UNL     1      -9.688  10.663  68.710  1.00  0.00    -0.189 A  
HETATM   14  C   UNL     1      -8.692   9.679  66.723  1.00  0.00    -0.144 A  
HETATM   15  C   UNL     1      -9.737   9.729  67.651  1.00  0.00    -0.156 A  
HETATM   16  C   UNL     1      -7.597  10.536  66.846  1.00  0.00    -0.110 A  
BRANCH  13  17
HETATM   17  O   UNL     1     -10.747  10.641  69.586  1.00  0.00    -0.243 OA 
HETATM   18  C   UNL     1     -11.829  11.527  69.338  1.00  0.00    -0.350 C  
ENDBRANCH  13  17
BRANCH  15  19
HETATM   19  O   UNL     1     -10.839   8.912  67.615  1.00  0.00    -0.205 OA 
HETATM   20  C   UNL     1     -10.650   7.542  67.942  1.00  0.00    -0.185 C  
ENDBRANCH  15  19
ENDBRANCH   9  11
ENDBRANCH   8   9
ENDBRANCH   7   8
ENDBRANCH   6   7
ENDBRANCH   5   6
ENDBRANCH   4   5
ENDBRANCH   3   4
BRANCH   3  21
HETATM   21  C   UNL     1     -10.517  16.845  67.095  1.00  0.00    -0.296 C  
HETATM   22  C   UNL     1     -10.412  16.770  65.561  1.00  0.00    -0.254 C  
BRANCH  21  23
HETATM   23  C   UNL     1     -11.163  15.524  67.612  1.00  0.00    -0.291 C  
BRANCH  23  24
HETATM   24  C   UNL     1     -11.210  14.382  66.618  1.00  0.00    -0.340 A  
HETATM   25  C   UNL     1     -12.490  12.858  65.213  1.00  0.00    -0.552 A  
HETATM   26  C   UNL     1     -11.318  12.219  64.812  1.00  0.00    -0.323 A  
HETATM   27  C   UNL     1     -10.039  13.726  66.220  1.00  0.00    -0.304 A  
HETATM   28  C   UNL     1     -10.095  12.662  65.315  1.00  0.00    -0.271 A  
HETATM   29  C   UNL     1     -12.435  13.931  66.111  1.00  0.00    -0.478 A  
BRANCH  26  30
HETATM   30  O   UNL     1     -11.238  11.201  63.902  1.00  0.00    -0.279 OA 
HETATM   31  C   UNL     1      -9.937  10.896  63.413  1.00  0.00    -0.361 C  
ENDBRANCH  26  30
ENDBRANCH  23  24
ENDBRANCH  21  23
ENDBRANCH   3  21
ENDBRANCH   2   3
TORSDOF 14
ENDMDL
MODEL      192
REMARK 921   NORMALIZED FREE ENERGY PREDICTED BY IDOCK:   -4.05 KCAL/MOL
REMARK 922        TOTAL FREE ENERGY PREDICTED BY IDOCK:  -10.16 KCAL/MOL
REMARK 923 INTER-LIGAND FREE ENERGY PREDICTED BY IDOCK:   -8.47 KCAL/MOL
REMARK 924 INTRA-LIGAND FREE ENERGY PREDICTED BY IDOCK:   -1.69 KCAL/MOL
REMARK 927      BINDING AFFINITY PREDICTED BY RF-SCORE:    0.00 PKD
ROOT
HETATM    1  C   UNL     1      -6.249   9.622  70.941  1.00  0.00    -0.087 C  
HETATM    2  C   UNL     1      -7.518   9.322  70.154  1.00  0.00    -0.098 C  
ENDROOT
BRANCH   2   3
HETATM    3  N   UNL     1      -8.800   9.500  70.846  1.00  0.00    -0.233 NA 
BRANCH   3   4
HETATM    4  C   UNL     1      -9.919   9.937  69.991  1.00  0.00    -0.254 C  
BRANCH   4   5
HETATM    5  C   UNL     1      -9.593   9.955  68.489  1.00  0.00    -0.159 C  
BRANCH   5   6
HETATM    6  C   UNL     1     -10.855  10.098  67.639  1.00  0.00    -0.346 C  
BRANCH   6   7
HETATM    7  C   UNL     1     -10.728  11.296  66.705  1.00  0.00    -0.272 C  
BRANCH   7   8
HETATM    8  O   UNL     1     -10.430  12.475  67.465  1.00  0.00    -0.216 OA 
BRANCH   8   9
HETATM    9  C   UNL     1     -11.429  13.390  67.523  1.00  0.00    -0.323 C  
HETATM   10  O   UNL     1     -12.003  13.903  66.577  1.00  0.00    -0.392 OA 
BRANCH   9  11
HETATM   11  C   UNL     1     -11.714  13.733  68.936  1.00  0.00    -0.374 A  
HETATM   12  C   UNL     1     -12.369  12.842  69.794  1.00  0.00    -0.096 A  
HETATM   13  C   UNL     1     -12.644  13.211  71.114  1.00  0.00    -0.314 A  
HETATM   14  C   UNL     1     -11.587  15.363  70.717  1.00  0.00    -0.381 A  
HETATM   15  C   UNL     1     -12.247  14.484  71.580  1.00  0.00    -0.331 A  
HETATM   16  C   UNL     1     -11.330  14.995  69.395  1.00  0.00    -0.314 A  
BRANCH  13  17
HETATM   17  O   UNL     1     -13.297  12.411  72.020  1.00  0.00    -0.507 OA 
HETATM   18  C   UNL     1     -13.190  11.004  71.858  1.00  0.00    -0.398 C  
ENDBRANCH  13  17
BRANCH  15  19
HETATM   19  O   UNL     1     -12.555  14.773  72.886  1.00  0.00    -0.376 OA 
HETATM   20  C   UNL     1     -13.451  15.850  73.126  1.00  0.00    -0.563 C  
ENDBRANCH  15  19
ENDBRANCH   9  11
ENDBRANCH   8   9
ENDBRANCH   7   8
ENDBRANCH   6   7
ENDBRANCH   5   6
ENDBRANCH   4   5
ENDBRANCH   3   4
BRANCH   3  21
HETATM   21  C   UNL     1      -9.198   8.444  71.811  1.00  0.00    -0.220 C  
HETATM   22  C   UNL     1     -10.682   8.458  72.216  1.00  0.00    -0.417 C  
BRANCH  21  23
HETATM   23  C   UNL     1      -8.814   6.995  71.386  1.00  0.00    -0.129 C  
BRANCH  23  24
HETATM   24  C   UNL     1      -9.342   6.542  70.041  1.00  0.00    -0.160 A  
HETATM   25  C   UNL     1     -11.215   6.136  68.535  1.00  0.00    -0.241 A  
HETATM   26  C   UNL     1     -10.346   5.647  67.562  1.00  0.00    -0.222 A  
HETATM   27  C   UNL     1      -8.479   6.037  69.062  1.00  0.00    -0.117 A  
HETATM   28  C   UNL     1      -8.977   5.606  67.829  1.00  0.00    -0.107 A  
HETATM   29  C   UNL     1     -10.716   6.579  69.767  1.00  0.00    -0.322 A  
BRANCH  26  30
HETATM   30  O   UNL     1     -10.705   5.240  66.306  1.00  0.00    -0.294 OA 
HETATM   31  C   UNL     1      -9.758   4.438  65.611  1.00  0.00    -0.207 C  
ENDBRANCH  26  30
ENDBRANCH  23  24
ENDBRANCH  21  23
ENDBRANCH   3  21
ENDBRANCH   2   3
TORSDOF 14
ENDMDL
MODEL      193
REMARK 921   NORMALIZED FREE ENERGY PREDICTED BY IDOCK:   -4.05 KCAL/MOL
REMARK 922        TOTAL FREE ENERGY PREDICTED BY IDOCK:  -10.15 KCAL/MOL
REMARK 923 INTER-LIGAND FREE ENERGY PREDICTED BY IDOCK:   -8.06 KCAL/MOL
REMARK 924 INTRA-LIGAND FREE ENERGY PREDICTED BY IDOCK:   -2.09 KCAL/MOL
REMARK 927      BINDING AFFINITY PREDICTED BY RF-SCORE:    0.00 PKD
ROOT
HETATM    1  C   UNL     1      -9.905   8.093  70.653  1.00  0.00    -0.196 C  
HETATM    2  C   UNL     1     -10.204   9.124  69.572  1.00  0.00    -0.203 C  
ENDROOT
BRANCH   2   3
HETATM    3  N   UNL     1      -9.190   9.324  68.531  1.00  0.00    -0.135 NA 
BRANCH   3   4
HETATM    4  C   UNL     1      -7.808   9.474  69.023  1.00  0.00    -0.077 C  
BRANCH   4   5
HETATM    5  C   UNL     1      -7.232  10.889  68.858  1.00  0.00    -0.095 C  
BRANCH   5   6
HETATM    6  C   UNL     1      -6.320  10.988  67.634  1.00  0.00    -0.060 C  
BRANCH   6   7
HETATM    7  C   UNL     1      -5.923  12.440  67.389  1.00  0.00    -0.154 C  
BRANCH   7   8
HETATM    8  O   UNL     1      -6.632  13.296  68.293  1.00  0.00    -0.079 OA 
BRANCH   8   9
HETATM    9  C   UNL     1      -6.924  14.530  67.809  1.00  0.00    -0.179 C  
HETATM   10  O   UNL     1      -6.181  15.254  67.169  1.00  0.00    -0.293 OA 
BRANCH   9  11
HETATM   11  C   UNL     1      -8.296  14.915  68.211  1.00  0.00    -0.148 A  
HETATM   12  C   UNL     1      -8.642  16.247  68.472  1.00  0.00    -0.211 A  
HETATM   13  C   UNL     1      -9.942  16.569  68.875  1.00  0.00    -0.262 A  
HETATM   14  C   UNL     1     -10.552  14.221  68.735  1.00  0.00    -0.255 A  
HETATM   15  C   UNL     1     -10.907  15.545  69.006  1.00  0.00    -0.249 A  
HETATM   16  C   UNL     1      -9.248  13.902  68.350  1.00  0.00    -0.194 A  
BRANCH  13  17
HETATM   17  O   UNL     1     -10.365  17.842  69.169  1.00  0.00    -0.350 OA 
HETATM   18  C   UNL     1      -9.881  18.905  68.361  1.00  0.00    -0.381 C  
ENDBRANCH  13  17
BRANCH  15  19
HETATM   19  O   UNL     1     -12.157  15.941  69.407  1.00  0.00    -0.330 OA 
HETATM   20  C   UNL     1     -12.625  15.464  70.661  1.00  0.00    -0.439 C  
ENDBRANCH  15  19
ENDBRANCH   9  11
ENDBRANCH   8   9
ENDBRANCH   7   8
ENDBRANCH   6   7
ENDBRANCH   5   6
ENDBRANCH   4   5
ENDBRANCH   3   4
BRANCH   3  21
HETATM   21  C   UNL     1      -9.276   8.456  67.329  1.00  0.00    -0.138 C  
HETATM   22  C   UNL     1     -10.643   7.784  67.108  1.00  0.00    -0.401 C  
BRANCH  21  23
HETATM   23  C   UNL     1      -8.840   9.140  65.999  1.00  0.00    -0.200 C  
BRANCH  23  24
HETATM   24  C   UNL     1      -9.800  10.170  65.443  1.00  0.00    -0.375 A  
HETATM   25  C   UNL     1     -10.876  11.242  63.537  1.00  0.00    -0.373 A  
HETATM   26  C   UNL     1     -11.541  12.122  64.388  1.00  0.00    -0.350 A  
HETATM   27  C   UNL     1     -10.463  11.067  66.289  1.00  0.00    -0.310 A  
HETATM   28  C   UNL     1     -11.335  12.025  65.765  1.00  0.00    -0.384 A  
HETATM   29  C   UNL     1     -10.010  10.274  64.061  1.00  0.00    -0.195 A  
BRANCH  26  30
HETATM   30  O   UNL     1     -12.450  13.070  64.002  1.00  0.00    -0.582 OA 
HETATM   31  C   UNL     1     -12.255  14.378  64.526  1.00  0.00    -0.463 C  
ENDBRANCH  26  30
ENDBRANCH  23  24
ENDBRANCH  21  23
ENDBRANCH   3  21
ENDBRANCH   2   3
TORSDOF 14
ENDMDL
MODEL      194
REMARK 921   NORMALIZED FREE ENERGY PREDICTED BY IDOCK:   -4.05 KCAL/MOL
REMARK 922        TOTAL FREE ENERGY PREDICTED BY IDOCK:  -10.15 KCAL/MOL
REMARK 923 INTER-LIGAND FREE ENERGY PREDICTED BY IDOCK:   -7.59 KCAL/MOL
REMARK 924 INTRA-LIGAND FREE ENERGY PREDICTED BY IDOCK:   -2.57 KCAL/MOL
REMARK 927      BINDING AFFINITY PREDICTED BY RF-SCORE:    0.00 PKD
ROOT
HETATM    1  C   UNL     1     -10.681  17.265  67.903  1.00  0.00    -0.351 C  
HETATM    2  C   UNL     1     -10.773  15.746  67.994  1.00  0.00    -0.296 C  
ENDROOT
BRANCH   2   3
HETATM    3  N   UNL     1     -10.861  15.000  66.734  1.00  0.00    -0.314 NA 
BRANCH   3   4
HETATM    4  C   UNL     1      -9.571  14.541  66.185  1.00  0.00    -0.297 C  
BRANCH   4   5
HETATM    5  C   UNL     1      -8.459  14.390  67.236  1.00  0.00    -0.229 C  
BRANCH   5   6
HETATM    6  C   UNL     1      -7.780  13.023  67.147  1.00  0.00    -0.049 C  
BRANCH   6   7
HETATM    7  C   UNL     1      -8.013  12.234  68.431  1.00  0.00    -0.152 C  
BRANCH   7   8
HETATM    8  O   UNL     1      -7.005  11.225  68.570  1.00  0.00    -0.069 OA 
BRANCH   8   9
HETATM    9  C   UNL     1      -7.322  10.017  68.039  1.00  0.00    -0.087 C  
HETATM   10  O   UNL     1      -7.223   9.687  66.869  1.00  0.00    -0.089 OA 
BRANCH   9  11
HETATM   11  C   UNL     1      -7.866   9.132  69.095  1.00  0.00    -0.092 A  
HETATM   12  C   UNL     1      -8.438   7.890  68.795  1.00  0.00    -0.128 A  
HETATM   13  C   UNL     1      -8.964   7.094  69.816  1.00  0.00    -0.142 A  
HETATM   14  C   UNL     1      -8.327   8.783  71.443  1.00  0.00    -0.222 A  
HETATM   15  C   UNL     1      -8.906   7.544  71.154  1.00  0.00    -0.141 A  
HETATM   16  C   UNL     1      -7.817   9.582  70.417  1.00  0.00    -0.190 A  
BRANCH  13  17
HETATM   17  O   UNL     1      -9.559   5.872  69.614  1.00  0.00    -0.143 OA 
HETATM   18  C   UNL     1     -10.882   5.857  69.097  1.00  0.00    -0.336 C  
ENDBRANCH  13  17
BRANCH  15  19
HETATM   19  O   UNL     1      -9.446   6.707  72.098  1.00  0.00    -0.146 OA 
HETATM   20  C   UNL     1      -9.041   6.893  73.447  1.00  0.00    -0.136 C  
ENDBRANCH  15  19
ENDBRANCH   9  11
ENDBRANCH   8   9
ENDBRANCH   7   8
ENDBRANCH   6   7
ENDBRANCH   5   6
ENDBRANCH   4   5
ENDBRANCH   3   4
BRANCH   3  21
HETATM   21  C   UNL     1     -11.922  13.966  66.635  1.00  0.00    -0.442 C  
HETATM   22  C   UNL     1     -12.834  14.085  65.401  1.00  0.00    -0.442 C  
BRANCH  21  23
HETATM   23  C   UNL     1     -11.412  12.497  66.734  1.00  0.00    -0.422 C  
BRANCH  23  24
HETATM   24  C   UNL     1     -11.554  11.842  68.092  1.00  0.00    -0.391 A  
HETATM   25  C   UNL     1     -12.048  12.002  70.473  1.00  0.00    -0.402 A  
HETATM   26  C   UNL     1     -11.766  10.648  70.638  1.00  0.00    -0.356 A  
HETATM   27  C   UNL     1     -11.260  10.485  68.271  1.00  0.00    -0.354 A  
HETATM   28  C   UNL     1     -11.378   9.893  69.531  1.00  0.00    -0.172 A  
HETATM   29  C   UNL     1     -11.941  12.595  69.208  1.00  0.00    -0.301 A  
BRANCH  26  30
HETATM   30  O   UNL     1     -11.887   9.946  71.807  1.00  0.00    -0.362 OA 
HETATM   31  C   UNL     1     -12.437   8.638  71.700  1.00  0.00    -0.335 C  
ENDBRANCH  26  30
ENDBRANCH  23  24
ENDBRANCH  21  23
ENDBRANCH   3  21
ENDBRANCH   2   3
TORSDOF 14
ENDMDL
MODEL      195
REMARK 921   NORMALIZED FREE ENERGY PREDICTED BY IDOCK:   -4.04 KCAL/MOL
REMARK 922        TOTAL FREE ENERGY PREDICTED BY IDOCK:  -10.14 KCAL/MOL
REMARK 923 INTER-LIGAND FREE ENERGY PREDICTED BY IDOCK:   -7.98 KCAL/MOL
REMARK 924 INTRA-LIGAND FREE ENERGY PREDICTED BY IDOCK:   -2.16 KCAL/MOL
REMARK 927      BINDING AFFINITY PREDICTED BY RF-SCORE:    0.00 PKD
ROOT
HETATM    1  C   UNL     1     -13.563   7.179  71.515  1.00  0.00    -0.408 C  
HETATM    2  C   UNL     1     -12.221   6.526  71.823  1.00  0.00    -0.322 C  
ENDROOT
BRANCH   2   3
HETATM    3  N   UNL     1     -11.035   7.073  71.155  1.00  0.00    -0.242 NA 
BRANCH   3   4
HETATM    4  C   UNL     1     -10.870   6.674  69.745  1.00  0.00    -0.286 C  
BRANCH   4   5
HETATM    5  C   UNL     1      -9.761   5.635  69.512  1.00  0.00    -0.206 C  
BRANCH   5   6
HETATM    6  C   UNL     1      -8.374   6.217  69.788  1.00  0.00    -0.125 C  
BRANCH   6   7
HETATM    7  C   UNL     1      -7.437   5.921  68.622  1.00  0.00    -0.086 C  
BRANCH   7   8
HETATM    8  O   UNL     1      -7.462   7.011  67.691  1.00  0.00    -0.093 OA 
BRANCH   8   9
HETATM    9  C   UNL     1      -8.002   6.721  66.480  1.00  0.00    -0.105 C  
HETATM   10  O   UNL     1      -7.961   5.648  65.903  1.00  0.00    -0.102 OA 
BRANCH   9  11
HETATM   11  C   UNL     1      -8.633   7.933  65.909  1.00  0.00    -0.171 A  
HETATM   12  C   UNL     1      -8.152   8.535  64.740  1.00  0.00    -0.151 A  
HETATM   13  C   UNL     1      -8.759   9.694  64.245  1.00  0.00    -0.206 A  
HETATM   14  C   UNL     1     -10.341   9.635  66.089  1.00  0.00    -0.202 A  
HETATM   15  C   UNL     1      -9.865  10.248  64.926  1.00  0.00    -0.336 A  
HETATM   16  C   UNL     1      -9.721   8.487  66.587  1.00  0.00    -0.318 A  
BRANCH  13  17
HETATM   17  O   UNL     1      -8.345  10.361  63.118  1.00  0.00    -0.161 OA 
HETATM   18  C   UNL     1      -6.948  10.533  62.926  1.00  0.00    -0.045 C  
ENDBRANCH  13  17
BRANCH  15  19
HETATM   19  O   UNL     1     -10.403  11.386  64.380  1.00  0.00    -0.272 OA 
HETATM   20  C   UNL     1     -10.039  12.629  64.965  1.00  0.00    -0.231 C  
ENDBRANCH  15  19
ENDBRANCH   9  11
ENDBRANCH   8   9
ENDBRANCH   7   8
ENDBRANCH   6   7
ENDBRANCH   5   6
ENDBRANCH   4   5
ENDBRANCH   3   4
BRANCH   3  21
HETATM   21  C   UNL     1     -10.737   8.510  71.379  1.00  0.00    -0.250 C  
HETATM   22  C   UNL     1      -9.334   8.805  71.937  1.00  0.00    -0.343 C  
BRANCH  21  23
HETATM   23  C   UNL     1     -10.981   9.427  70.143  1.00  0.00    -0.282 C  
BRANCH  23  24
HETATM   24  C   UNL     1     -11.650  10.755  70.431  1.00  0.00    -0.431 A  
HETATM   25  C   UNL     1     -11.911  13.133  69.965  1.00  0.00    -0.360 A  
HETATM   26  C   UNL     1     -12.844  13.247  70.994  1.00  0.00    -0.232 A  
HETATM   27  C   UNL     1     -12.579  10.883  71.471  1.00  0.00    -0.480 A  
HETATM   28  C   UNL     1     -13.178  12.116  71.739  1.00  0.00    -0.423 A  
HETATM   29  C   UNL     1     -11.317  11.895  69.687  1.00  0.00    -0.266 A  
BRANCH  26  30
HETATM   30  O   UNL     1     -13.530  14.384  71.323  1.00  0.00    -0.354 OA 
HETATM   31  C   UNL     1     -12.793  15.600  71.273  1.00  0.00    -0.487 C  
ENDBRANCH  26  30
ENDBRANCH  23  24
ENDBRANCH  21  23
ENDBRANCH   3  21
ENDBRANCH   2   3
TORSDOF 14
ENDMDL
MODEL      196
REMARK 921   NORMALIZED FREE ENERGY PREDICTED BY IDOCK:   -4.03 KCAL/MOL
REMARK 922        TOTAL FREE ENERGY PREDICTED BY IDOCK:  -10.12 KCAL/MOL
REMARK 923 INTER-LIGAND FREE ENERGY PREDICTED BY IDOCK:   -6.48 KCAL/MOL
REMARK 924 INTRA-LIGAND FREE ENERGY PREDICTED BY IDOCK:   -3.65 KCAL/MOL
REMARK 927      BINDING AFFINITY PREDICTED BY RF-SCORE:    0.00 PKD
ROOT
HETATM    1  C   UNL     1     -10.819   5.783  69.609  1.00  0.00    -0.418 C  
HETATM    2  C   UNL     1     -10.981   6.654  70.850  1.00  0.00    -0.268 C  
ENDROOT
BRANCH   2   3
HETATM    3  N   UNL     1     -10.616   8.070  70.732  1.00  0.00    -0.211 NA 
BRANCH   3   4
HETATM    4  C   UNL     1     -11.696   9.024  71.047  1.00  0.00    -0.296 C  
BRANCH   4   5
HETATM    5  C   UNL     1     -11.316  10.497  70.830  1.00  0.00    -0.295 C  
BRANCH   5   6
HETATM    6  C   UNL     1     -12.465  11.290  70.206  1.00  0.00    -0.330 C  
BRANCH   6   7
HETATM    7  C   UNL     1     -12.010  11.944  68.906  1.00  0.00    -0.254 C  
BRANCH   7   8
HETATM    8  O   UNL     1     -12.012  10.975  67.849  1.00  0.00    -0.620 OA 
BRANCH   8   9
HETATM    9  C   UNL     1     -11.266  11.305  66.765  1.00  0.00    -0.195 C  
HETATM   10  O   UNL     1     -11.340  12.334  66.115  1.00  0.00    -0.318 OA 
BRANCH   9  11
HETATM   11  C   UNL     1     -10.344  10.194  66.434  1.00  0.00    -0.258 A  
HETATM   12  C   UNL     1      -9.378  10.311  65.427  1.00  0.00    -0.258 A  
HETATM   13  C   UNL     1      -8.542   9.231  65.126  1.00  0.00    -0.172 A  
HETATM   14  C   UNL     1      -9.633   7.922  66.859  1.00  0.00    -0.263 A  
HETATM   15  C   UNL     1      -8.670   8.025  65.850  1.00  0.00    -0.157 A  
HETATM   16  C   UNL     1     -10.476   8.998  67.144  1.00  0.00    -0.333 A  
BRANCH  13  17
HETATM   17  O   UNL     1      -7.581   9.248  64.144  1.00  0.00    -0.106 OA 
HETATM   18  C   UNL     1      -6.353   9.900  64.432  1.00  0.00    -0.124 C  
ENDBRANCH  13  17
BRANCH  15  19
HETATM   19  O   UNL     1      -7.817   7.012  65.494  1.00  0.00    -0.101 OA 
HETATM   20  C   UNL     1      -8.395   5.810  65.002  1.00  0.00    -0.138 C  
ENDBRANCH  15  19
ENDBRANCH   9  11
ENDBRANCH   8   9
ENDBRANCH   7   8
ENDBRANCH   6   7
ENDBRANCH   5   6
ENDBRANCH   4   5
ENDBRANCH   3   4
BRANCH   3  21
HETATM   21  C   UNL     1      -9.308   8.479  71.302  1.00  0.00    -0.203 C  
HETATM   22  C   UNL     1      -9.035   7.977  72.731  1.00  0.00    -0.291 C  
BRANCH  21  23
HETATM   23  C   UNL     1      -8.074   8.140  70.413  1.00  0.00    -0.108 C  
BRANCH  23  24
HETATM   24  C   UNL     1      -7.581   9.258  69.518  1.00  0.00    -0.081 A  
HETATM   25  C   UNL     1      -5.974  10.113  67.898  1.00  0.00    -0.041 A  
HETATM   26  C   UNL     1      -6.616  11.349  67.891  1.00  0.00    -0.059 A  
HETATM   27  C   UNL     1      -8.211  10.508  69.514  1.00  0.00    -0.092 A  
HETATM   28  C   UNL     1      -7.739  11.539  68.697  1.00  0.00    -0.139 A  
HETATM   29  C   UNL     1      -6.453   9.075  68.708  1.00  0.00    -0.053 A  
BRANCH  26  30
HETATM   30  O   UNL     1      -6.278  12.417  67.105  1.00  0.00    -0.154 OA 
HETATM   31  C   UNL     1      -6.857  13.667  67.461  1.00  0.00    -0.137 C  
ENDBRANCH  26  30
ENDBRANCH  23  24
ENDBRANCH  21  23
ENDBRANCH   3  21
ENDBRANCH   2   3
TORSDOF 14
ENDMDL
MODEL      197
REMARK 921   NORMALIZED FREE ENERGY PREDICTED BY IDOCK:   -4.02 KCAL/MOL
REMARK 922        TOTAL FREE ENERGY PREDICTED BY IDOCK:  -10.10 KCAL/MOL
REMARK 923 INTER-LIGAND FREE ENERGY PREDICTED BY IDOCK:   -8.32 KCAL/MOL
REMARK 924 INTRA-LIGAND FREE ENERGY PREDICTED BY IDOCK:   -1.78 KCAL/MOL
REMARK 927      BINDING AFFINITY PREDICTED BY RF-SCORE:    0.00 PKD
ROOT
HETATM    1  C   UNL     1      -7.766  10.431  69.447  1.00  0.00    -0.158 C  
HETATM    2  C   UNL     1      -9.289  10.405  69.475  1.00  0.00    -0.127 C  
ENDROOT
BRANCH   2   3
HETATM    3  N   UNL     1      -9.996  11.298  68.549  1.00  0.00    -0.197 NA 
BRANCH   3   4
HETATM    4  C   UNL     1      -9.641  11.134  67.127  1.00  0.00    -0.173 C  
BRANCH   4   5
HETATM    5  C   UNL     1     -10.242   9.882  66.469  1.00  0.00    -0.292 C  
BRANCH   5   6
HETATM    6  C   UNL     1      -9.173   9.046  65.765  1.00  0.00    -0.293 C  
BRANCH   6   7
HETATM    7  C   UNL     1      -9.188   7.616  66.295  1.00  0.00    -0.154 C  
BRANCH   7   8
HETATM    8  O   UNL     1     -10.425   7.364  66.975  1.00  0.00    -0.286 OA 
BRANCH   8   9
HETATM    9  C   UNL     1     -10.684   6.058  67.233  1.00  0.00    -0.318 C  
HETATM   10  O   UNL     1     -11.032   5.212  66.427  1.00  0.00    -0.212 OA 
BRANCH   9  11
HETATM   11  C   UNL     1     -10.527   5.792  68.682  1.00  0.00    -0.298 A  
HETATM   12  C   UNL     1     -10.974   6.697  69.652  1.00  0.00    -0.367 A  
HETATM   13  C   UNL     1     -10.784   6.422  71.010  1.00  0.00    -0.251 A  
HETATM   14  C   UNL     1      -9.713   4.321  70.421  1.00  0.00    -0.280 A  
HETATM   15  C   UNL     1     -10.148   5.221  71.398  1.00  0.00    -0.203 A  
HETATM   16  C   UNL     1      -9.890   4.609  69.066  1.00  0.00    -0.224 A  
BRANCH  13  17
HETATM   17  O   UNL     1     -11.172   7.258  72.028  1.00  0.00    -0.238 OA 
HETATM   18  C   UNL     1     -10.372   8.403  72.286  1.00  0.00    -0.333 C  
ENDBRANCH  13  17
BRANCH  15  19
HETATM   19  O   UNL     1      -9.997   5.026  72.747  1.00  0.00    -0.156 OA 
HETATM   20  C   UNL     1      -8.722   5.302  73.310  1.00  0.00    -0.115 C  
ENDBRANCH  15  19
ENDBRANCH   9  11
ENDBRANCH   8   9
ENDBRANCH   7   8
ENDBRANCH   6   7
ENDBRANCH   5   6
ENDBRANCH   4   5
ENDBRANCH   3   4
BRANCH   3  21
HETATM   21  C   UNL     1     -11.456  11.465  68.756  1.00  0.00    -0.290 C  
HETATM   22  C   UNL     1     -12.077  10.526  69.805  1.00  0.00    -0.285 C  
BRANCH  21  23
HETATM   23  C   UNL     1     -11.907  12.924  69.068  1.00  0.00    -0.352 C  
BRANCH  23  24
HETATM   24  C   UNL     1     -11.345  13.995  68.158  1.00  0.00    -0.320 A  
HETATM   25  C   UNL     1     -11.263  15.088  65.981  1.00  0.00    -0.310 A  
HETATM   26  C   UNL     1     -10.265  15.948  66.433  1.00  0.00    -0.301 A  
HETATM   27  C   UNL     1     -10.332  14.856  68.599  1.00  0.00    -0.237 A  
HETATM   28  C   UNL     1      -9.808  15.831  67.747  1.00  0.00    -0.224 A  
HETATM   29  C   UNL     1     -11.798  14.117  66.838  1.00  0.00    -0.458 A  
BRANCH  26  30
HETATM   30  O   UNL     1      -9.706  16.968  65.713  1.00  0.00    -0.522 OA 
HETATM   31  C   UNL     1     -10.044  18.288  66.124  1.00  0.00    -0.346 C  
ENDBRANCH  26  30
ENDBRANCH  23  24
ENDBRANCH  21  23
ENDBRANCH   3  21
ENDBRANCH   2   3
TORSDOF 14
ENDMDL
MODEL      198
REMARK 921   NORMALIZED FREE ENERGY PREDICTED BY IDOCK:   -4.00 KCAL/MOL
REMARK 922        TOTAL FREE ENERGY PREDICTED BY IDOCK:  -10.06 KCAL/MOL
REMARK 923 INTER-LIGAND FREE ENERGY PREDICTED BY IDOCK:   -8.53 KCAL/MOL
REMARK 924 INTRA-LIGAND FREE ENERGY PREDICTED BY IDOCK:   -1.53 KCAL/MOL
REMARK 927      BINDING AFFINITY PREDICTED BY RF-SCORE:    0.00 PKD
ROOT
HETATM    1  C   UNL     1     -10.654   9.928  67.360  1.00  0.00    -0.338 C  
HETATM    2  C   UNL     1      -9.870  11.170  66.952  1.00  0.00    -0.194 C  
ENDROOT
BRANCH   2   3
HETATM    3  N   UNL     1      -9.812  11.491  65.521  1.00  0.00    -0.227 NA 
BRANCH   3   4
HETATM    4  C   UNL     1      -9.811  10.326  64.617  1.00  0.00    -0.327 C  
BRANCH   4   5
HETATM    5  C   UNL     1      -8.443   9.638  64.481  1.00  0.00    -0.186 C  
BRANCH   5   6
HETATM    6  C   UNL     1      -8.545   8.129  64.708  1.00  0.00    -0.000 C  
BRANCH   6   7
HETATM    7  C   UNL     1      -7.643   7.707  65.862  1.00  0.00    -0.091 C  
BRANCH   7   8
HETATM    8  O   UNL     1      -8.432   7.118  66.904  1.00  0.00    -0.118 OA 
BRANCH   8   9
HETATM    9  C   UNL     1      -8.048   7.436  68.166  1.00  0.00    -0.124 C  
HETATM   10  O   UNL     1      -6.943   7.815  68.517  1.00  0.00    -0.067 OA 
BRANCH   9  11
HETATM   11  C   UNL     1      -9.172   7.215  69.104  1.00  0.00    -0.139 A  
HETATM   12  C   UNL     1      -9.169   7.746  70.399  1.00  0.00    -0.156 A  
HETATM   13  C   UNL     1     -10.238   7.494  71.265  1.00  0.00    -0.188 A  
HETATM   14  C   UNL     1     -11.321   6.189  69.524  1.00  0.00    -0.426 A  
HETATM   15  C   UNL     1     -11.325   6.708  70.822  1.00  0.00    -0.336 A  
HETATM   16  C   UNL     1     -10.244   6.431  68.670  1.00  0.00    -0.201 A  
BRANCH  13  17
HETATM   17  O   UNL     1     -10.312   7.958  72.556  1.00  0.00    -0.237 OA 
HETATM   18  C   UNL     1      -9.410   7.412  73.508  1.00  0.00    -0.238 C  
ENDBRANCH  13  17
BRANCH  15  19
HETATM   19  O   UNL     1     -12.333   6.504  71.731  1.00  0.00    -0.347 OA 
HETATM   20  C   UNL     1     -13.532   7.246  71.557  1.00  0.00    -0.363 C  
ENDBRANCH  15  19
ENDBRANCH   9  11
ENDBRANCH   8   9
ENDBRANCH   7   8
ENDBRANCH   6   7
ENDBRANCH   5   6
ENDBRANCH   4   5
ENDBRANCH   3   4
BRANCH   3  21
HETATM   21  C   UNL     1     -10.692  12.585  65.040  1.00  0.00    -0.294 C  
HETATM   22  C   UNL     1     -11.146  12.459  63.575  1.00  0.00    -0.521 C  
BRANCH  21  23
HETATM   23  C   UNL     1     -11.946  12.852  65.926  1.00  0.00    -0.504 C  
BRANCH  23  24
HETATM   24  C   UNL     1     -11.749  13.826  67.069  1.00  0.00    -0.420 A  
HETATM   25  C   UNL     1     -10.929  15.964  67.903  1.00  0.00    -0.327 A  
HETATM   26  C   UNL     1     -11.322  15.627  69.197  1.00  0.00    -0.338 A  
HETATM   27  C   UNL     1     -12.129  13.491  68.374  1.00  0.00    -0.293 A  
HETATM   28  C   UNL     1     -11.927  14.390  69.424  1.00  0.00    -0.370 A  
HETATM   29  C   UNL     1     -11.140  15.068  66.847  1.00  0.00    -0.331 A  
BRANCH  26  30
HETATM   30  O   UNL     1     -11.221  16.435  70.296  1.00  0.00    -0.367 OA 
HETATM   31  C   UNL     1     -11.555  15.842  71.545  1.00  0.00    -0.459 C  
ENDBRANCH  26  30
ENDBRANCH  23  24
ENDBRANCH  21  23
ENDBRANCH   3  21
ENDBRANCH   2   3
TORSDOF 14
ENDMDL
MODEL      199
REMARK 921   NORMALIZED FREE ENERGY PREDICTED BY IDOCK:   -3.99 KCAL/MOL
REMARK 922        TOTAL FREE ENERGY PREDICTED BY IDOCK:  -10.05 KCAL/MOL
REMARK 923 INTER-LIGAND FREE ENERGY PREDICTED BY IDOCK:   -8.31 KCAL/MOL
REMARK 924 INTRA-LIGAND FREE ENERGY PREDICTED BY IDOCK:   -1.74 KCAL/MOL
REMARK 927      BINDING AFFINITY PREDICTED BY RF-SCORE:    0.00 PKD
ROOT
HETATM    1  C   UNL     1      -9.994  15.811  65.686  1.00  0.00    -0.378 C  
HETATM    2  C   UNL     1      -9.367  14.575  66.321  1.00  0.00    -0.247 C  
ENDROOT
BRANCH   2   3
HETATM    3  N   UNL     1     -10.167  13.346  66.340  1.00  0.00    -0.287 NA 
BRANCH   3   4
HETATM    4  C   UNL     1      -9.480  12.158  66.879  1.00  0.00    -0.210 C  
BRANCH   4   5
HETATM    5  C   UNL     1      -9.746  10.866  66.091  1.00  0.00    -0.252 C  
BRANCH   5   6
HETATM    6  C   UNL     1      -8.604   9.862  66.250  1.00  0.00    -0.137 C  
BRANCH   6   7
HETATM    7  C   UNL     1      -9.004   8.512  65.665  1.00  0.00    -0.160 C  
BRANCH   7   8
HETATM    8  O   UNL     1      -8.982   7.513  66.693  1.00  0.00    -0.139 OA 
BRANCH   8   9
HETATM    9  C   UNL     1     -10.201   7.132  67.151  1.00  0.00    -0.257 C  
HETATM   10  O   UNL     1     -11.171   6.830  66.476  1.00  0.00    -0.023 OA 
BRANCH   9  11
HETATM   11  C   UNL     1     -10.216   7.172  68.632  1.00  0.00    -0.186 A  
HETATM   12  C   UNL     1      -9.165   7.735  69.366  1.00  0.00    -0.149 A  
HETATM   13  C   UNL     1      -9.203   7.731  70.763  1.00  0.00    -0.157 A  
HETATM   14  C   UNL     1     -11.361   6.616  70.688  1.00  0.00    -0.401 A  
HETATM   15  C   UNL     1     -10.313   7.168  71.431  1.00  0.00    -0.196 A  
HETATM   16  C   UNL     1     -11.310   6.607  69.292  1.00  0.00    -0.301 A  
BRANCH  13  17
HETATM   17  O   UNL     1      -8.211   8.242  71.564  1.00  0.00    -0.109 OA 
HETATM   18  C   UNL     1      -6.863   7.980  71.198  1.00  0.00    -0.046 C  
ENDBRANCH  13  17
BRANCH  15  19
HETATM   19  O   UNL     1     -10.275   7.201  72.802  1.00  0.00    -0.183 OA 
HETATM   20  C   UNL     1      -9.977   5.987  73.478  1.00  0.00    -0.186 C  
ENDBRANCH  15  19
ENDBRANCH   9  11
ENDBRANCH   8   9
ENDBRANCH   7   8
ENDBRANCH   6   7
ENDBRANCH   5   6
ENDBRANCH   4   5
ENDBRANCH   3   4
BRANCH   3  21
HETATM   21  C   UNL     1     -11.568  13.461  66.820  1.00  0.00    -0.365 C  
HETATM   22  C   UNL     1     -12.642  13.054  65.796  1.00  0.00    -0.269 C  
BRANCH  21  23
HETATM   23  C   UNL     1     -11.860  12.725  68.162  1.00  0.00    -0.372 C  
BRANCH  23  24
HETATM   24  C   UNL     1     -11.899  13.601  69.397  1.00  0.00    -0.392 A  
HETATM   25  C   UNL     1     -12.419  13.898  71.759  1.00  0.00    -0.291 A  
HETATM   26  C   UNL     1     -12.033  15.235  71.692  1.00  0.00    -0.372 A  
HETATM   27  C   UNL     1     -11.526  14.949  69.336  1.00  0.00    -0.324 A  
HETATM   28  C   UNL     1     -11.581  15.753  70.477  1.00  0.00    -0.396 A  
HETATM   29  C   UNL     1     -12.353  13.088  70.619  1.00  0.00    -0.391 A  
BRANCH  26  30
HETATM   30  O   UNL     1     -11.999  16.109  72.744  1.00  0.00    -0.486 OA 
HETATM   31  C   UNL     1     -12.478  15.612  73.988  1.00  0.00    -0.651 C  
ENDBRANCH  26  30
ENDBRANCH  23  24
ENDBRANCH  21  23
ENDBRANCH   3  21
ENDBRANCH   2   3
TORSDOF 14
ENDMDL
MODEL      200
REMARK 921   NORMALIZED FREE ENERGY PREDICTED BY IDOCK:   -3.99 KCAL/MOL
REMARK 922        TOTAL FREE ENERGY PREDICTED BY IDOCK:  -10.05 KCAL/MOL
REMARK 923 INTER-LIGAND FREE ENERGY PREDICTED BY IDOCK:   -7.99 KCAL/MOL
REMARK 924 INTRA-LIGAND FREE ENERGY PREDICTED BY IDOCK:   -2.06 KCAL/MOL
REMARK 927      BINDING AFFINITY PREDICTED BY RF-SCORE:    0.00 PKD
ROOT
HETATM    1  C   UNL     1     -14.358   7.448  71.704  1.00  0.00    -0.614 C  
HETATM    2  C   UNL     1     -13.755   8.742  72.235  1.00  0.00    -0.440 C  
ENDROOT
BRANCH   2   3
HETATM    3  N   UNL     1     -12.293   8.858  72.229  1.00  0.00    -0.374 NA 
BRANCH   3   4
HETATM    4  C   UNL     1     -11.564   7.583  72.092  1.00  0.00    -0.298 C  
BRANCH   4   5
HETATM    5  C   UNL     1     -10.666   7.240  73.291  1.00  0.00    -0.428 C  
BRANCH   5   6
HETATM    6  C   UNL     1      -9.475   6.375  72.876  1.00  0.00    -0.150 C  
BRANCH   6   7
HETATM    7  C   UNL     1      -9.836   5.530  71.660  1.00  0.00    -0.173 C  
BRANCH   7   8
HETATM    8  O   UNL     1      -8.838   5.691  70.643  1.00  0.00    -0.135 OA 
BRANCH   8   9
HETATM    9  C   UNL     1      -9.278   5.518  69.372  1.00  0.00    -0.117 C  
HETATM   10  O   UNL     1      -9.811   4.521  68.915  1.00  0.00    -0.168 OA 
BRANCH   9  11
HETATM   11  C   UNL     1      -8.978   6.726  68.568  1.00  0.00    -0.121 A  
HETATM   12  C   UNL     1      -7.997   7.646  68.956  1.00  0.00    -0.121 A  
HETATM   13  C   UNL     1      -7.760   8.788  68.185  1.00  0.00    -0.101 A  
HETATM   14  C   UNL     1      -9.479   8.072  66.623  1.00  0.00    -0.273 A  
HETATM   15  C   UNL     1      -8.508   9.002  67.005  1.00  0.00    -0.120 A  
HETATM   16  C   UNL     1      -9.723   6.942  67.406  1.00  0.00    -0.172 A  
BRANCH  13  17
HETATM   17  O   UNL     1      -6.833   9.752  68.497  1.00  0.00    -0.056 OA 
HETATM   18  C   UNL     1      -6.903  10.345  69.786  1.00  0.00    -0.130 C  
ENDBRANCH  13  17
BRANCH  15  19
HETATM   19  O   UNL     1      -8.218  10.145  66.305  1.00  0.00    -0.121 OA 
HETATM   20  C   UNL     1      -9.262  10.723  65.532  1.00  0.00    -0.202 C  
ENDBRANCH  15  19
ENDBRANCH   9  11
ENDBRANCH   8   9
ENDBRANCH   7   8
ENDBRANCH   6   7
ENDBRANCH   5   6
ENDBRANCH   4   5
ENDBRANCH   3   4
BRANCH   3  21
HETATM   21  C   UNL     1     -11.705   9.942  71.403  1.00  0.00    -0.371 C  
HETATM   22  C   UNL     1     -10.499   9.526  70.544  1.00  0.00    -0.358 C  
BRANCH  21  23
HETATM   23  C   UNL     1     -12.724  10.695  70.495  1.00  0.00    -0.395 C  
BRANCH  23  24
HETATM   24  C   UNL     1     -12.160  11.846  69.688  1.00  0.00    -0.304 A  
HETATM   25  C   UNL     1     -11.481  14.181  69.530  1.00  0.00    -0.334 A  
HETATM   26  C   UNL     1     -11.167  14.014  68.183  1.00  0.00    -0.275 A  
HETATM   27  C   UNL     1     -11.854  11.691  68.331  1.00  0.00    -0.346 A  
HETATM   28  C   UNL     1     -11.349  12.764  67.591  1.00  0.00    -0.359 A  
HETATM   29  C   UNL     1     -11.976  13.104  70.276  1.00  0.00    -0.366 A  
BRANCH  26  30
HETATM   30  O   UNL     1     -10.626  14.970  67.367  1.00  0.00    -0.262 OA 
HETATM   31  C   UNL     1     -11.205  15.091  66.072  1.00  0.00    -0.310 C  
ENDBRANCH  26  30
ENDBRANCH  23  24
ENDBRANCH  21  23
ENDBRANCH   3  21
ENDBRANCH   2   3
TORSDOF 14
ENDMDL
MODEL      201
REMARK 921   NORMALIZED FREE ENERGY PREDICTED BY IDOCK:   -3.99 KCAL/MOL
REMARK 922        TOTAL FREE ENERGY PREDICTED BY IDOCK:  -10.04 KCAL/MOL
REMARK 923 INTER-LIGAND FREE ENERGY PREDICTED BY IDOCK:   -8.45 KCAL/MOL
REMARK 924 INTRA-LIGAND FREE ENERGY PREDICTED BY IDOCK:   -1.59 KCAL/MOL
REMARK 927      BINDING AFFINITY PREDICTED BY RF-SCORE:    0.00 PKD
ROOT
HETATM    1  C   UNL     1     -10.069  10.918  65.817  1.00  0.00    -0.308 C  
HETATM    2  C   UNL     1     -10.502   9.605  66.458  1.00  0.00    -0.143 C  
ENDROOT
BRANCH   2   3
HETATM    3  N   UNL     1      -9.977   9.301  67.794  1.00  0.00    -0.179 NA 
BRANCH   3   4
HETATM    4  C   UNL     1     -10.036  10.414  68.759  1.00  0.00    -0.188 C  
BRANCH   4   5
HETATM    5  C   UNL     1     -11.307  10.431  69.622  1.00  0.00    -0.333 C  
BRANCH   5   6
HETATM    6  C   UNL     1     -12.076  11.744  69.469  1.00  0.00    -0.314 C  
BRANCH   6   7
HETATM    7  C   UNL     1     -11.261  12.739  68.650  1.00  0.00    -0.282 C  
BRANCH   7   8
HETATM    8  O   UNL     1     -12.061  13.891  68.351  1.00  0.00    -0.365 OA 
BRANCH   8   9
HETATM    9  C   UNL     1     -11.876  14.415  67.113  1.00  0.00    -0.410 C  
HETATM   10  O   UNL     1     -12.511  14.147  66.107  1.00  0.00    -0.466 OA 
BRANCH   9  11
HETATM   11  C   UNL     1     -10.733  15.357  67.132  1.00  0.00    -0.314 A  
HETATM   12  C   UNL     1     -10.774  16.553  67.860  1.00  0.00    -0.337 A  
HETATM   13  C   UNL     1      -9.684  17.429  67.832  1.00  0.00    -0.272 A  
HETATM   14  C   UNL     1      -8.506  15.896  66.359  1.00  0.00    -0.348 A  
HETATM   15  C   UNL     1      -8.539  17.096  67.075  1.00  0.00    -0.218 A  
HETATM   16  C   UNL     1      -9.604  15.032  66.377  1.00  0.00    -0.314 A  
BRANCH  13  17
HETATM   17  O   UNL     1      -9.643  18.630  68.498  1.00  0.00    -0.328 OA 
HETATM   18  C   UNL     1     -10.395  19.710  67.963  1.00  0.00    -0.453 C  
ENDBRANCH  13  17
BRANCH  15  19
HETATM   19  O   UNL     1      -7.514  18.008  67.097  1.00  0.00    -0.198 OA 
HETATM   20  C   UNL     1      -6.865  18.294  65.866  1.00  0.00    -0.290 C  
ENDBRANCH  15  19
ENDBRANCH   9  11
ENDBRANCH   8   9
ENDBRANCH   7   8
ENDBRANCH   6   7
ENDBRANCH   5   6
ENDBRANCH   4   5
ENDBRANCH   3   4
BRANCH   3  21
HETATM   21  C   UNL     1     -10.374   8.003  68.395  1.00  0.00    -0.199 C  
HETATM   22  C   UNL     1     -11.015   7.001  67.418  1.00  0.00    -0.336 C  
BRANCH  21  23
HETATM   23  C   UNL     1      -9.242   7.274  69.179  1.00  0.00    -0.139 C  
BRANCH  23  24
HETATM   24  C   UNL     1      -9.695   6.411  70.338  1.00  0.00    -0.183 A  
HETATM   25  C   UNL     1      -9.574   4.323  71.590  1.00  0.00    -0.228 A  
HETATM   26  C   UNL     1     -10.570   4.768  72.457  1.00  0.00    -0.200 A  
HETATM   27  C   UNL     1     -10.705   6.843  71.206  1.00  0.00    -0.249 A  
HETATM   28  C   UNL     1     -11.128   6.032  72.263  1.00  0.00    -0.324 A  
HETATM   29  C   UNL     1      -9.141   5.139  70.538  1.00  0.00    -0.177 A  
BRANCH  26  30
HETATM   30  O   UNL     1     -11.036   4.090  73.550  1.00  0.00    -0.240 OA 
HETATM   31  C   UNL     1     -11.399   2.730  73.338  1.00  0.00    -0.123 C  
ENDBRANCH  26  30
ENDBRANCH  23  24
ENDBRANCH  21  23
ENDBRANCH   3  21
ENDBRANCH   2   3
TORSDOF 14
ENDMDL
MODEL      202
REMARK 921   NORMALIZED FREE ENERGY PREDICTED BY IDOCK:   -3.99 KCAL/MOL
REMARK 922        TOTAL FREE ENERGY PREDICTED BY IDOCK:  -10.04 KCAL/MOL
REMARK 923 INTER-LIGAND FREE ENERGY PREDICTED BY IDOCK:   -7.69 KCAL/MOL
REMARK 924 INTRA-LIGAND FREE ENERGY PREDICTED BY IDOCK:   -2.35 KCAL/MOL
REMARK 927      BINDING AFFINITY PREDICTED BY RF-SCORE:    0.00 PKD
ROOT
HETATM    1  C   UNL     1      -6.505   6.469  64.865  1.00  0.00    -0.041 C  
HETATM    2  C   UNL     1      -6.048   7.852  65.313  1.00  0.00    -0.038 C  
ENDROOT
BRANCH   2   3
HETATM    3  N   UNL     1      -7.089   8.834  65.636  1.00  0.00    -0.082 NA 
BRANCH   3   4
HETATM    4  C   UNL     1      -8.142   8.991  64.616  1.00  0.00    -0.144 C  
BRANCH   4   5
HETATM    5  C   UNL     1      -8.286  10.423  64.077  1.00  0.00    -0.139 C  
BRANCH   5   6
HETATM    6  C   UNL     1      -9.018  10.450  62.735  1.00  0.00    -0.267 C  
BRANCH   6   7
HETATM    7  C   UNL     1     -10.363  11.153  62.882  1.00  0.00    -0.035 C  
BRANCH   7   8
HETATM    8  O   UNL     1     -10.240  12.251  63.795  1.00  0.00    -0.387 OA 
BRANCH   8   9
HETATM    9  C   UNL     1     -11.413  12.749  64.258  1.00  0.00    -0.373 C  
HETATM   10  O   UNL     1     -12.512  12.621  63.744  1.00  0.00    -0.600 OA 
BRANCH   9  11
HETATM   11  C   UNL     1     -11.174  13.534  65.491  1.00  0.00    -0.304 A  
HETATM   12  C   UNL     1      -9.880  13.819  65.946  1.00  0.00    -0.279 A  
HETATM   13  C   UNL     1      -9.694  14.541  67.129  1.00  0.00    -0.240 A  
HETATM   14  C   UNL     1     -12.105  14.708  67.389  1.00  0.00    -0.216 A  
HETATM   15  C   UNL     1     -10.818  14.991  67.857  1.00  0.00    -0.280 A  
HETATM   16  C   UNL     1     -12.285  13.972  66.216  1.00  0.00    -0.493 A  
BRANCH  13  17
HETATM   17  O   UNL     1      -8.465  14.850  67.659  1.00  0.00    -0.150 OA 
HETATM   18  C   UNL     1      -7.571  13.779  67.926  1.00  0.00    -0.156 C  
ENDBRANCH  13  17
BRANCH  15  19
HETATM   19  O   UNL     1     -10.552  15.690  69.007  1.00  0.00    -0.214 OA 
HETATM   20  C   UNL     1     -11.169  15.239  70.205  1.00  0.00    -0.297 C  
ENDBRANCH  15  19
ENDBRANCH   9  11
ENDBRANCH   8   9
ENDBRANCH   7   8
ENDBRANCH   6   7
ENDBRANCH   5   6
ENDBRANCH   4   5
ENDBRANCH   3   4
BRANCH   3  21
HETATM   21  C   UNL     1      -7.632   8.811  67.017  1.00  0.00    -0.088 C  
HETATM   22  C   UNL     1      -7.359  10.078  67.846  1.00  0.00    -0.088 C  
BRANCH  21  23
HETATM   23  C   UNL     1      -9.150   8.473  67.115  1.00  0.00    -0.164 C  
BRANCH  23  24
HETATM   24  C   UNL     1      -9.953   9.323  68.078  1.00  0.00    -0.216 A  
HETATM   25  C   UNL     1     -10.747   9.776  70.337  1.00  0.00    -0.368 A  
HETATM   26  C   UNL     1     -11.489  10.861  69.874  1.00  0.00    -0.323 A  
HETATM   27  C   UNL     1     -10.713  10.406  67.621  1.00  0.00    -0.335 A  
HETATM   28  C   UNL     1     -11.463  11.174  68.515  1.00  0.00    -0.371 A  
HETATM   29  C   UNL     1      -9.985   9.012  69.444  1.00  0.00    -0.191 A  
BRANCH  26  30
HETATM   30  O   UNL     1     -12.225  11.713  70.653  1.00  0.00    -0.369 OA 
HETATM   31  C   UNL     1     -12.984  11.113  71.696  1.00  0.00    -0.443 C  
ENDBRANCH  26  30
ENDBRANCH  23  24
ENDBRANCH  21  23
ENDBRANCH   3  21
ENDBRANCH   2   3
TORSDOF 14
ENDMDL
MODEL      203
REMARK 921   NORMALIZED FREE ENERGY PREDICTED BY IDOCK:   -3.99 KCAL/MOL
REMARK 922        TOTAL FREE ENERGY PREDICTED BY IDOCK:  -10.04 KCAL/MOL
REMARK 923 INTER-LIGAND FREE ENERGY PREDICTED BY IDOCK:   -7.95 KCAL/MOL
REMARK 924 INTRA-LIGAND FREE ENERGY PREDICTED BY IDOCK:   -2.09 KCAL/MOL
REMARK 927      BINDING AFFINITY PREDICTED BY RF-SCORE:    0.00 PKD
ROOT
HETATM    1  C   UNL     1      -7.004   8.969  71.274  1.00  0.00    -0.089 C  
HETATM    2  C   UNL     1      -6.839   9.365  69.812  1.00  0.00    -0.055 C  
ENDROOT
BRANCH   2   3
HETATM    3  N   UNL     1      -7.875  10.221  69.224  1.00  0.00    -0.128 NA 
BRANCH   3   4
HETATM    4  C   UNL     1      -7.479  11.625  69.006  1.00  0.00    -0.051 C  
BRANCH   4   5
HETATM    5  C   UNL     1      -7.464  12.051  67.529  1.00  0.00    -0.140 C  
BRANCH   5   6
HETATM    6  C   UNL     1      -8.005  13.470  67.346  1.00  0.00    -0.165 C  
BRANCH   6   7
HETATM    7  C   UNL     1      -6.971  14.492  67.806  1.00  0.00    -0.179 C  
BRANCH   7   8
HETATM    8  O   UNL     1      -7.343  15.014  69.089  1.00  0.00    -0.138 OA 
BRANCH   8   9
HETATM    9  C   UNL     1      -8.444  15.806  69.090  1.00  0.00    -0.251 C  
HETATM   10  O   UNL     1      -9.578  15.476  69.394  1.00  0.00    -0.248 OA 
BRANCH   9  11
HETATM   11  C   UNL     1      -8.087  17.163  68.615  1.00  0.00    -0.264 A  
HETATM   12  C   UNL     1      -8.802  17.800  67.593  1.00  0.00    -0.248 A  
HETATM   13  C   UNL     1      -8.419  19.070  67.154  1.00  0.00    -0.280 A  
HETATM   14  C   UNL     1      -6.611  19.071  68.779  1.00  0.00    -0.301 A  
HETATM   15  C   UNL     1      -7.313  19.713  67.754  1.00  0.00    -0.271 A  
HETATM   16  C   UNL     1      -6.988  17.795  69.202  1.00  0.00    -0.209 A  
BRANCH  13  17
HETATM   17  O   UNL     1      -9.048  19.762  66.148  1.00  0.00    -0.373 OA 
HETATM   18  C   UNL     1     -10.419  19.478  65.907  1.00  0.00    -0.491 C  
ENDBRANCH  13  17
BRANCH  15  19
HETATM   19  O   UNL     1      -6.999  20.956  67.267  1.00  0.00    -0.330 OA 
HETATM   20  C   UNL     1      -5.646  21.379  67.371  1.00  0.00    -0.349 C  
ENDBRANCH  15  19
ENDBRANCH   9  11
ENDBRANCH   8   9
ENDBRANCH   7   8
ENDBRANCH   6   7
ENDBRANCH   5   6
ENDBRANCH   4   5
ENDBRANCH   3   4
BRANCH   3  21
HETATM   21  C   UNL     1      -8.645   9.662  68.084  1.00  0.00    -0.119 C  
HETATM   22  C   UNL     1      -8.313   8.203  67.727  1.00  0.00    -0.128 C  
BRANCH  21  23
HETATM   23  C   UNL     1     -10.192   9.801  68.212  1.00  0.00    -0.212 C  
BRANCH  23  24
HETATM   24  C   UNL     1     -10.794  11.046  67.596  1.00  0.00    -0.306 A  
HETATM   25  C   UNL     1     -11.921  13.193  67.846  1.00  0.00    -0.347 A  
HETATM   26  C   UNL     1     -11.971  13.344  66.461  1.00  0.00    -0.400 A  
HETATM   27  C   UNL     1     -10.861  11.201  66.206  1.00  0.00    -0.266 A  
HETATM   28  C   UNL     1     -11.434  12.347  65.647  1.00  0.00    -0.412 A  
HETATM   29  C   UNL     1     -11.337  12.050  68.408  1.00  0.00    -0.332 A  
BRANCH  26  30
HETATM   30  O   UNL     1     -12.463  14.435  65.797  1.00  0.00    -0.396 OA 
HETATM   31  C   UNL     1     -12.088  14.559  64.430  1.00  0.00    -0.472 C  
ENDBRANCH  26  30
ENDBRANCH  23  24
ENDBRANCH  21  23
ENDBRANCH   3  21
ENDBRANCH   2   3
TORSDOF 14
ENDMDL
MODEL      204
REMARK 921   NORMALIZED FREE ENERGY PREDICTED BY IDOCK:   -3.98 KCAL/MOL
REMARK 922        TOTAL FREE ENERGY PREDICTED BY IDOCK:  -10.02 KCAL/MOL
REMARK 923 INTER-LIGAND FREE ENERGY PREDICTED BY IDOCK:   -8.81 KCAL/MOL
REMARK 924 INTRA-LIGAND FREE ENERGY PREDICTED BY IDOCK:   -1.21 KCAL/MOL
REMARK 927      BINDING AFFINITY PREDICTED BY RF-SCORE:    0.00 PKD
ROOT
HETATM    1  C   UNL     1     -12.257  11.177  70.369  1.00  0.00    -0.457 C  
HETATM    2  C   UNL     1     -10.950  10.928  69.627  1.00  0.00    -0.252 C  
ENDROOT
BRANCH   2   3
HETATM    3  N   UNL     1     -11.015  10.140  68.391  1.00  0.00    -0.251 NA 
BRANCH   3   4
HETATM    4  C   UNL     1     -10.433  10.789  67.202  1.00  0.00    -0.237 C  
BRANCH   4   5
HETATM    5  C   UNL     1     -11.338  11.853  66.561  1.00  0.00    -0.403 C  
BRANCH   5   6
HETATM    6  C   UNL     1     -10.617  13.193  66.414  1.00  0.00    -0.293 C  
BRANCH   6   7
HETATM    7  C   UNL     1     -10.670  13.967  67.727  1.00  0.00    -0.246 C  
BRANCH   7   8
HETATM    8  O   UNL     1     -11.433  15.168  67.552  1.00  0.00    -0.337 OA 
BRANCH   8   9
HETATM    9  C   UNL     1     -11.224  16.124  68.491  1.00  0.00    -0.365 C  
HETATM   10  O   UNL     1     -11.752  16.195  69.589  1.00  0.00    -0.294 OA 
BRANCH   9  11
HETATM   11  C   UNL     1     -10.271  17.134  67.976  1.00  0.00    -0.332 A  
HETATM   12  C   UNL     1      -9.025  17.347  68.577  1.00  0.00    -0.276 A  
HETATM   13  C   UNL     1      -8.162  18.327  68.078  1.00  0.00    -0.264 A  
HETATM   14  C   UNL     1      -9.793  18.867  66.359  1.00  0.00    -0.412 A  
HETATM   15  C   UNL     1      -8.550  19.094  66.956  1.00  0.00    -0.290 A  
HETATM   16  C   UNL     1     -10.658  17.898  66.872  1.00  0.00    -0.271 A  
BRANCH  13  17
HETATM   17  O   UNL     1      -6.931  18.618  68.614  1.00  0.00    -0.257 OA 
HETATM   18  C   UNL     1      -6.860  19.653  69.585  1.00  0.00    -0.273 C  
ENDBRANCH  13  17
BRANCH  15  19
HETATM   19  O   UNL     1      -7.650  20.037  66.528  1.00  0.00    -0.267 OA 
HETATM   20  C   UNL     1      -6.857  19.718  65.392  1.00  0.00    -0.291 C  
ENDBRANCH  15  19
ENDBRANCH   9  11
ENDBRANCH   8   9
ENDBRANCH   7   8
ENDBRANCH   6   7
ENDBRANCH   5   6
ENDBRANCH   4   5
ENDBRANCH   3   4
BRANCH   3  21
HETATM   21  C   UNL     1     -10.657   8.702  68.489  1.00  0.00    -0.119 C  
HETATM   22  C   UNL     1     -10.315   8.024  67.151  1.00  0.00    -0.395 C  
BRANCH  21  23
HETATM   23  C   UNL     1      -9.526   8.380  69.511  1.00  0.00    -0.166 C  
BRANCH  23  24
HETATM   24  C   UNL     1      -9.915   7.472  70.659  1.00  0.00    -0.183 A  
HETATM   25  C   UNL     1     -10.125   5.236  71.605  1.00  0.00    -0.259 A  
HETATM   26  C   UNL     1     -10.690   5.763  72.765  1.00  0.00    -0.241 A  
HETATM   27  C   UNL     1     -10.496   7.991  71.822  1.00  0.00    -0.287 A  
HETATM   28  C   UNL     1     -10.867   7.143  72.869  1.00  0.00    -0.362 A  
HETATM   29  C   UNL     1      -9.742   6.085  70.559  1.00  0.00    -0.210 A  
BRANCH  26  30
HETATM   30  O   UNL     1     -11.052   5.045  73.872  1.00  0.00    -0.285 OA 
HETATM   31  C   UNL     1     -10.810   3.644  73.819  1.00  0.00    -0.234 C  
ENDBRANCH  26  30
ENDBRANCH  23  24
ENDBRANCH  21  23
ENDBRANCH   3  21
ENDBRANCH   2   3
TORSDOF 14
ENDMDL
MODEL      205
REMARK 921   NORMALIZED FREE ENERGY PREDICTED BY IDOCK:   -3.97 KCAL/MOL
REMARK 922        TOTAL FREE ENERGY PREDICTED BY IDOCK:  -10.01 KCAL/MOL
REMARK 923 INTER-LIGAND FREE ENERGY PREDICTED BY IDOCK:   -8.28 KCAL/MOL
REMARK 924 INTRA-LIGAND FREE ENERGY PREDICTED BY IDOCK:   -1.73 KCAL/MOL
REMARK 927      BINDING AFFINITY PREDICTED BY RF-SCORE:    0.00 PKD
ROOT
HETATM    1  C   UNL     1     -10.587   8.108  66.976  1.00  0.00    -0.346 C  
HETATM    2  C   UNL     1      -9.862   7.748  68.268  1.00  0.00    -0.167 C  
ENDROOT
BRANCH   2   3
HETATM    3  N   UNL     1      -9.674   8.816  69.256  1.00  0.00    -0.169 NA 
BRANCH   3   4
HETATM    4  C   UNL     1      -9.436  10.157  68.692  1.00  0.00    -0.164 C  
BRANCH   4   5
HETATM    5  C   UNL     1      -8.088  10.777  69.092  1.00  0.00    -0.133 C  
BRANCH   5   6
HETATM    6  C   UNL     1      -7.901  12.167  68.482  1.00  0.00    -0.122 C  
BRANCH   6   7
HETATM    7  C   UNL     1      -8.706  12.288  67.193  1.00  0.00    -0.193 C  
BRANCH   7   8
HETATM    8  O   UNL     1      -9.504  13.479  67.229  1.00  0.00    -0.215 OA 
BRANCH   8   9
HETATM    9  C   UNL     1     -10.829  13.277  67.438  1.00  0.00    -0.267 C  
HETATM   10  O   UNL     1     -11.583  12.613  66.747  1.00  0.00    -0.333 OA 
BRANCH   9  11
HETATM   11  C   UNL     1     -11.269  14.032  68.635  1.00  0.00    -0.294 A  
HETATM   12  C   UNL     1     -12.258  13.540  69.496  1.00  0.00    -0.289 A  
HETATM   13  C   UNL     1     -12.665  14.294  70.601  1.00  0.00    -0.343 A  
HETATM   14  C   UNL     1     -11.074  16.026  69.989  1.00  0.00    -0.362 A  
HETATM   15  C   UNL     1     -12.065  15.548  70.850  1.00  0.00    -0.385 A  
HETATM   16  C   UNL     1     -10.683  15.277  68.877  1.00  0.00    -0.245 A  
BRANCH  13  17
HETATM   17  O   UNL     1     -13.638  13.900  71.487  1.00  0.00    -0.334 OA 
HETATM   18  C   UNL     1     -13.431  12.693  72.206  1.00  0.00    -0.438 C  
ENDBRANCH  13  17
BRANCH  15  19
HETATM   19  O   UNL     1     -12.521  16.227  71.952  1.00  0.00    -0.398 OA 
HETATM   20  C   UNL     1     -11.912  15.932  73.202  1.00  0.00    -0.467 C  
ENDBRANCH  15  19
ENDBRANCH   9  11
ENDBRANCH   8   9
ENDBRANCH   7   8
ENDBRANCH   6   7
ENDBRANCH   5   6
ENDBRANCH   4   5
ENDBRANCH   3   4
BRANCH   3  21
HETATM   21  C   UNL     1     -10.609   8.840  70.409  1.00  0.00    -0.221 C  
HETATM   22  C   UNL     1     -11.555  10.053  70.455  1.00  0.00    -0.379 C  
BRANCH  21  23
HETATM   23  C   UNL     1     -11.455   7.544  70.590  1.00  0.00    -0.291 C  
BRANCH  23  24
HETATM   24  C   UNL     1     -10.936   6.557  71.614  1.00  0.00    -0.291 A  
HETATM   25  C   UNL     1     -10.524   5.944  73.937  1.00  0.00    -0.288 A  
HETATM   26  C   UNL     1      -9.920   4.755  73.531  1.00  0.00    -0.153 A  
HETATM   27  C   UNL     1     -10.316   5.366  71.216  1.00  0.00    -0.296 A  
HETATM   28  C   UNL     1      -9.825   4.469  72.169  1.00  0.00    -0.237 A  
HETATM   29  C   UNL     1     -11.026   6.839  72.984  1.00  0.00    -0.293 A  
BRANCH  26  30
HETATM   30  O   UNL     1      -9.444   3.780  74.364  1.00  0.00    -0.101 OA 
HETATM   31  C   UNL     1      -8.133   3.300  74.085  1.00  0.00    -0.070 C  
ENDBRANCH  26  30
ENDBRANCH  23  24
ENDBRANCH  21  23
ENDBRANCH   3  21
ENDBRANCH   2   3
TORSDOF 14
ENDMDL
MODEL      206
REMARK 921   NORMALIZED FREE ENERGY PREDICTED BY IDOCK:   -3.95 KCAL/MOL
REMARK 922        TOTAL FREE ENERGY PREDICTED BY IDOCK:   -9.98 KCAL/MOL
REMARK 923 INTER-LIGAND FREE ENERGY PREDICTED BY IDOCK:   -8.19 KCAL/MOL
REMARK 924 INTRA-LIGAND FREE ENERGY PREDICTED BY IDOCK:   -1.79 KCAL/MOL
REMARK 927      BINDING AFFINITY PREDICTED BY RF-SCORE:    0.00 PKD
ROOT
HETATM    1  C   UNL     1      -5.506  10.163  63.434  1.00  0.00    -0.121 C  
HETATM    2  C   UNL     1      -6.445   9.848  64.592  1.00  0.00    -0.119 C  
ENDROOT
BRANCH   2   3
HETATM    3  N   UNL     1      -7.798   9.391  64.258  1.00  0.00    -0.117 NA 
BRANCH   3   4
HETATM    4  C   UNL     1      -8.354   8.364  65.159  1.00  0.00    -0.167 C  
BRANCH   4   5
HETATM    5  C   UNL     1      -8.036   6.921  64.739  1.00  0.00    -0.119 C  
BRANCH   5   6
HETATM    6  C   UNL     1      -7.847   6.008  65.951  1.00  0.00    -0.106 C  
BRANCH   6   7
HETATM    7  C   UNL     1      -9.097   5.163  66.174  1.00  0.00    -0.144 C  
BRANCH   7   8
HETATM    8  O   UNL     1      -9.545   5.308  67.528  1.00  0.00    -0.124 OA 
BRANCH   8   9
HETATM    9  C   UNL     1     -10.554   6.197  67.708  1.00  0.00    -0.269 C  
HETATM   10  O   UNL     1     -11.248   6.697  66.839  1.00  0.00    -0.391 OA 
BRANCH   9  11
HETATM   11  C   UNL     1     -10.682   6.526  69.146  1.00  0.00    -0.323 A  
HETATM   12  C   UNL     1     -10.767   7.850  69.596  1.00  0.00    -0.218 A  
HETATM   13  C   UNL     1     -10.861   8.122  70.964  1.00  0.00    -0.235 A  
HETATM   14  C   UNL     1     -10.800   5.738  71.429  1.00  0.00    -0.316 A  
HETATM   15  C   UNL     1     -10.879   7.055  71.890  1.00  0.00    -0.224 A  
HETATM   16  C   UNL     1     -10.691   5.472  70.063  1.00  0.00    -0.356 A  
BRANCH  13  17
HETATM   17  O   UNL     1     -10.930   9.387  71.496  1.00  0.00    -0.355 OA 
HETATM   18  C   UNL     1     -11.853  10.299  70.918  1.00  0.00    -0.377 C  
ENDBRANCH  13  17
BRANCH  15  19
HETATM   19  O   UNL     1     -10.970   7.405  73.213  1.00  0.00    -0.376 OA 
HETATM   20  C   UNL     1     -10.094   6.754  74.125  1.00  0.00    -0.350 C  
ENDBRANCH  15  19
ENDBRANCH   9  11
ENDBRANCH   8   9
ENDBRANCH   7   8
ENDBRANCH   6   7
ENDBRANCH   5   6
ENDBRANCH   4   5
ENDBRANCH   3   4
BRANCH   3  21
HETATM   21  C   UNL     1      -8.793  10.433  63.899  1.00  0.00    -0.210 C  
HETATM   22  C   UNL     1      -9.077  10.570  62.393  1.00  0.00    -0.313 C  
BRANCH  21  23
HETATM   23  C   UNL     1     -10.153  10.322  64.651  1.00  0.00    -0.317 C  
BRANCH  23  24
HETATM   24  C   UNL     1     -10.506  11.491  65.548  1.00  0.00    -0.327 A  
HETATM   25  C   UNL     1     -11.176  12.355  67.725  1.00  0.00    -0.327 A  
HETATM   26  C   UNL     1     -11.220  13.651  67.215  1.00  0.00    -0.309 A  
HETATM   27  C   UNL     1     -10.565  12.795  65.041  1.00  0.00    -0.330 A  
HETATM   28  C   UNL     1     -10.907  13.865  65.872  1.00  0.00    -0.287 A  
HETATM   29  C   UNL     1     -10.823  11.283  66.896  1.00  0.00    -0.333 A  
BRANCH  26  30
HETATM   30  O   UNL     1     -11.496  14.781  67.934  1.00  0.00    -0.315 OA 
HETATM   31  C   UNL     1     -11.957  14.582  69.266  1.00  0.00    -0.319 C  
ENDBRANCH  26  30
ENDBRANCH  23  24
ENDBRANCH  21  23
ENDBRANCH   3  21
ENDBRANCH   2   3
TORSDOF 14
ENDMDL
MODEL      207
REMARK 921   NORMALIZED FREE ENERGY PREDICTED BY IDOCK:   -3.94 KCAL/MOL
REMARK 922        TOTAL FREE ENERGY PREDICTED BY IDOCK:   -9.96 KCAL/MOL
REMARK 923 INTER-LIGAND FREE ENERGY PREDICTED BY IDOCK:   -8.60 KCAL/MOL
REMARK 924 INTRA-LIGAND FREE ENERGY PREDICTED BY IDOCK:   -1.36 KCAL/MOL
REMARK 927      BINDING AFFINITY PREDICTED BY RF-SCORE:    0.00 PKD
ROOT
HETATM    1  C   UNL     1      -9.327   3.315  73.344  1.00  0.00    -0.113 C  
HETATM    2  C   UNL     1     -10.374   3.925  72.419  1.00  0.00    -0.124 C  
ENDROOT
BRANCH   2   3
HETATM    3  N   UNL     1     -10.068   5.231  71.824  1.00  0.00    -0.193 NA 
BRANCH   3   4
HETATM    4  C   UNL     1      -9.328   6.161  72.698  1.00  0.00    -0.146 C  
BRANCH   4   5
HETATM    5  C   UNL     1     -10.178   7.317  73.248  1.00  0.00    -0.365 C  
BRANCH   5   6
HETATM    6  C   UNL     1     -10.295   8.461  72.241  1.00  0.00    -0.403 C  
BRANCH   6   7
HETATM    7  C   UNL     1     -11.665   8.437  71.572  1.00  0.00    -0.290 C  
BRANCH   7   8
HETATM    8  O   UNL     1     -11.929   9.705  70.958  1.00  0.00    -0.302 OA 
BRANCH   8   9
HETATM    9  C   UNL     1     -12.775  10.512  71.646  1.00  0.00    -0.445 C  
HETATM   10  O   UNL     1     -13.581  10.168  72.495  1.00  0.00    -0.220 OA 
BRANCH   9  11
HETATM   11  C   UNL     1     -12.618  11.912  71.187  1.00  0.00    -0.390 A  
HETATM   12  C   UNL     1     -13.165  12.988  71.897  1.00  0.00    -0.527 A  
HETATM   13  C   UNL     1     -13.018  14.293  71.418  1.00  0.00    -0.341 A  
HETATM   14  C   UNL     1     -11.759  13.440  69.522  1.00  0.00    -0.385 A  
HETATM   15  C   UNL     1     -12.307  14.521  70.219  1.00  0.00    -0.349 A  
HETATM   16  C   UNL     1     -11.923  12.137  69.996  1.00  0.00    -0.391 A  
BRANCH  13  17
HETATM   17  O   UNL     1     -13.535  15.405  72.037  1.00  0.00    -0.394 OA 
HETATM   18  C   UNL     1     -13.020  15.751  73.314  1.00  0.00    -0.565 C  
ENDBRANCH  13  17
BRANCH  15  19
HETATM   19  O   UNL     1     -12.209  15.828  69.814  1.00  0.00    -0.344 OA 
HETATM   20  C   UNL     1     -11.198  16.147  68.867  1.00  0.00    -0.351 C  
ENDBRANCH  15  19
ENDBRANCH   9  11
ENDBRANCH   8   9
ENDBRANCH   7   8
ENDBRANCH   6   7
ENDBRANCH   5   6
ENDBRANCH   4   5
ENDBRANCH   3   4
BRANCH   3  21
HETATM   21  C   UNL     1      -9.561   5.234  70.429  1.00  0.00    -0.179 C  
HETATM   22  C   UNL     1      -8.169   5.864  70.243  1.00  0.00    -0.114 C  
BRANCH  21  23
HETATM   23  C   UNL     1      -9.573   3.842  69.728  1.00  0.00    -0.271 C  
BRANCH  23  24
HETATM   24  C   UNL     1      -9.568   3.869  68.214  1.00  0.00    -0.178 A  
HETATM   25  C   UNL     1     -10.308   4.865  66.117  1.00  0.00    -0.329 A  
HETATM   26  C   UNL     1      -9.616   3.896  65.394  1.00  0.00    -0.185 A  
HETATM   27  C   UNL     1      -8.886   2.891  67.479  1.00  0.00    -0.162 A  
HETATM   28  C   UNL     1      -8.901   2.914  66.082  1.00  0.00    -0.143 A  
HETATM   29  C   UNL     1     -10.285   4.850  67.517  1.00  0.00    -0.152 A  
BRANCH  26  30
HETATM   30  O   UNL     1      -9.517   3.838  64.031  1.00  0.00    -0.136 OA 
HETATM   31  C   UNL     1      -8.763   4.873  63.411  1.00  0.00    -0.111 C  
ENDBRANCH  26  30
ENDBRANCH  23  24
ENDBRANCH  21  23
ENDBRANCH   3  21
ENDBRANCH   2   3
TORSDOF 14
ENDMDL
MODEL      208
REMARK 921   NORMALIZED FREE ENERGY PREDICTED BY IDOCK:   -3.94 KCAL/MOL
REMARK 922        TOTAL FREE ENERGY PREDICTED BY IDOCK:   -9.95 KCAL/MOL
REMARK 923 INTER-LIGAND FREE ENERGY PREDICTED BY IDOCK:   -7.50 KCAL/MOL
REMARK 924 INTRA-LIGAND FREE ENERGY PREDICTED BY IDOCK:   -2.45 KCAL/MOL
REMARK 927      BINDING AFFINITY PREDICTED BY RF-SCORE:    0.00 PKD
ROOT
HETATM    1  C   UNL     1      -6.057   9.370  66.237  1.00  0.00    -0.060 C  
HETATM    2  C   UNL     1      -6.567   7.941  66.096  1.00  0.00    -0.050 C  
ENDROOT
BRANCH   2   3
HETATM    3  N   UNL     1      -7.513   7.459  67.109  1.00  0.00    -0.103 NA 
BRANCH   3   4
HETATM    4  C   UNL     1      -8.826   8.129  67.109  1.00  0.00    -0.131 C  
BRANCH   4   5
HETATM    5  C   UNL     1      -9.186   8.804  68.442  1.00  0.00    -0.137 C  
BRANCH   5   6
HETATM    6  C   UNL     1     -10.513   8.286  68.997  1.00  0.00    -0.212 C  
BRANCH   6   7
HETATM    7  C   UNL     1     -10.777   8.882  70.375  1.00  0.00    -0.227 C  
BRANCH   7   8
HETATM    8  O   UNL     1     -10.650  10.309  70.319  1.00  0.00    -0.282 OA 
BRANCH   8   9
HETATM    9  C   UNL     1     -11.823  10.989  70.261  1.00  0.00    -0.367 C  
HETATM   10  O   UNL     1     -12.808  10.803  70.956  1.00  0.00    -0.359 OA 
BRANCH   9  11
HETATM   11  C   UNL     1     -11.766  11.996  69.177  1.00  0.00    -0.389 A  
HETATM   12  C   UNL     1     -11.808  13.370  69.441  1.00  0.00    -0.390 A  
HETATM   13  C   UNL     1     -11.778  14.290  68.389  1.00  0.00    -0.338 A  
HETATM   14  C   UNL     1     -11.645  12.452  66.805  1.00  0.00    -0.444 A  
HETATM   15  C   UNL     1     -11.694  13.826  67.057  1.00  0.00    -0.390 A  
HETATM   16  C   UNL     1     -11.692  11.537  67.859  1.00  0.00    -0.317 A  
BRANCH  13  17
HETATM   17  O   UNL     1     -11.834  15.653  68.553  1.00  0.00    -0.355 OA 
HETATM   18  C   UNL     1     -11.136  16.216  69.654  1.00  0.00    -0.344 C  
ENDBRANCH  13  17
BRANCH  15  19
HETATM   19  O   UNL     1     -11.672  14.790  66.081  1.00  0.00    -0.342 OA 
HETATM   20  C   UNL     1     -12.179  14.438  64.801  1.00  0.00    -0.446 C  
ENDBRANCH  15  19
ENDBRANCH   9  11
ENDBRANCH   8   9
ENDBRANCH   7   8
ENDBRANCH   6   7
ENDBRANCH   5   6
ENDBRANCH   4   5
ENDBRANCH   3   4
BRANCH   3  21
HETATM   21  C   UNL     1      -7.623   5.989  67.283  1.00  0.00    -0.093 C  
HETATM   22  C   UNL     1      -6.976   5.150  66.167  1.00  0.00    -0.067 C  
BRANCH  21  23
HETATM   23  C   UNL     1      -7.119   5.456  68.658  1.00  0.00    -0.065 C  
BRANCH  23  24
HETATM   24  C   UNL     1      -8.115   5.526  69.796  1.00  0.00    -0.101 A  
HETATM   25  C   UNL     1     -10.283   4.941  70.744  1.00  0.00    -0.276 A  
HETATM   26  C   UNL     1     -10.005   5.694  71.883  1.00  0.00    -0.180 A  
HETATM   27  C   UNL     1      -7.850   6.291  70.938  1.00  0.00    -0.107 A  
HETATM   28  C   UNL     1      -8.783   6.362  71.976  1.00  0.00    -0.133 A  
HETATM   29  C   UNL     1      -9.344   4.859  69.708  1.00  0.00    -0.200 A  
BRANCH  26  30
HETATM   30  O   UNL     1     -10.814   5.806  72.981  1.00  0.00    -0.238 OA 
HETATM   31  C   UNL     1     -10.273   6.514  74.090  1.00  0.00    -0.358 C  
ENDBRANCH  26  30
ENDBRANCH  23  24
ENDBRANCH  21  23
ENDBRANCH   3  21
ENDBRANCH   2   3
TORSDOF 14
ENDMDL
MODEL      209
REMARK 921   NORMALIZED FREE ENERGY PREDICTED BY IDOCK:   -3.93 KCAL/MOL
REMARK 922        TOTAL FREE ENERGY PREDICTED BY IDOCK:   -9.94 KCAL/MOL
REMARK 923 INTER-LIGAND FREE ENERGY PREDICTED BY IDOCK:   -8.06 KCAL/MOL
REMARK 924 INTRA-LIGAND FREE ENERGY PREDICTED BY IDOCK:   -1.88 KCAL/MOL
REMARK 927      BINDING AFFINITY PREDICTED BY RF-SCORE:    0.00 PKD
ROOT
HETATM    1  C   UNL     1      -5.737   4.634  67.371  1.00  0.00    -0.022 C  
HETATM    2  C   UNL     1      -6.642   5.734  67.915  1.00  0.00    -0.053 C  
ENDROOT
BRANCH   2   3
HETATM    3  N   UNL     1      -7.847   6.059  67.144  1.00  0.00    -0.101 NA 
BRANCH   3   4
HETATM    4  C   UNL     1      -7.851   5.573  65.751  1.00  0.00    -0.104 C  
BRANCH   4   5
HETATM    5  C   UNL     1      -8.182   6.653  64.709  1.00  0.00    -0.064 C  
BRANCH   5   6
HETATM    6  C   UNL     1      -6.979   7.553  64.427  1.00  0.00    -0.056 C  
BRANCH   6   7
HETATM    7  C   UNL     1      -7.440   8.874  63.820  1.00  0.00    -0.112 C  
BRANCH   7   8
HETATM    8  O   UNL     1      -8.867   8.977  63.909  1.00  0.00    -0.145 OA 
BRANCH   8   9
HETATM    9  C   UNL     1      -9.390  10.138  63.442  1.00  0.00    -0.294 C  
HETATM   10  O   UNL     1      -9.231  10.614  62.331  1.00  0.00    -0.259 OA 
BRANCH   9  11
HETATM   11  C   UNL     1     -10.174  10.800  64.511  1.00  0.00    -0.428 A  
HETATM   12  C   UNL     1     -11.080  11.831  64.231  1.00  0.00    -0.420 A  
HETATM   13  C   UNL     1     -11.782  12.450  65.269  1.00  0.00    -0.390 A  
HETATM   14  C   UNL     1     -10.681  10.987  66.868  1.00  0.00    -0.325 A  
HETATM   15  C   UNL     1     -11.582  12.022  66.601  1.00  0.00    -0.319 A  
HETATM   16  C   UNL     1      -9.969  10.384  65.828  1.00  0.00    -0.334 A  
BRANCH  13  17
HETATM   17  O   UNL     1     -12.675  13.479  65.092  1.00  0.00    -0.611 OA 
HETATM   18  C   UNL     1     -12.249  14.601  64.331  1.00  0.00    -0.452 C  
ENDBRANCH  13  17
BRANCH  15  19
HETATM   19  O   UNL     1     -12.306  12.680  67.563  1.00  0.00    -0.304 OA 
HETATM   20  C   UNL     1     -11.788  12.682  68.886  1.00  0.00    -0.302 C  
ENDBRANCH  15  19
ENDBRANCH   9  11
ENDBRANCH   8   9
ENDBRANCH   7   8
ENDBRANCH   6   7
ENDBRANCH   5   6
ENDBRANCH   4   5
ENDBRANCH   3   4
BRANCH   3  21
HETATM   21  C   UNL     1      -9.154   5.862  67.820  1.00  0.00    -0.109 C  
HETATM   22  C   UNL     1      -9.912   4.586  67.413  1.00  0.00    -0.171 C  
BRANCH  21  23
HETATM   23  C   UNL     1      -9.100   5.933  69.375  1.00  0.00    -0.134 C  
BRANCH  23  24
HETATM   24  C   UNL     1     -10.071   6.897  70.024  1.00  0.00    -0.195 A  
HETATM   25  C   UNL     1     -12.217   7.333  71.094  1.00  0.00    -0.376 A  
HETATM   26  C   UNL     1     -11.914   8.690  71.183  1.00  0.00    -0.279 A  
HETATM   27  C   UNL     1      -9.781   8.264  70.106  1.00  0.00    -0.176 A  
HETATM   28  C   UNL     1     -10.690   9.149  70.692  1.00  0.00    -0.313 A  
HETATM   29  C   UNL     1     -11.302   6.444  70.517  1.00  0.00    -0.438 A  
BRANCH  26  30
HETATM   30  O   UNL     1     -12.697   9.645  71.772  1.00  0.00    -0.361 OA 
HETATM   31  C   UNL     1     -13.936   9.196  72.310  1.00  0.00    -0.420 C  
ENDBRANCH  26  30
ENDBRANCH  23  24
ENDBRANCH  21  23
ENDBRANCH   3  21
ENDBRANCH   2   3
TORSDOF 14
ENDMDL
MODEL      210
REMARK 921   NORMALIZED FREE ENERGY PREDICTED BY IDOCK:   -3.93 KCAL/MOL
REMARK 922        TOTAL FREE ENERGY PREDICTED BY IDOCK:   -9.94 KCAL/MOL
REMARK 923 INTER-LIGAND FREE ENERGY PREDICTED BY IDOCK:   -7.46 KCAL/MOL
REMARK 924 INTRA-LIGAND FREE ENERGY PREDICTED BY IDOCK:   -2.48 KCAL/MOL
REMARK 927      BINDING AFFINITY PREDICTED BY RF-SCORE:    0.00 PKD
ROOT
HETATM    1  C   UNL     1      -8.367   8.202  70.806  1.00  0.00    -0.120 C  
HETATM    2  C   UNL     1      -8.932   9.526  70.306  1.00  0.00    -0.248 C  
ENDROOT
BRANCH   2   3
HETATM    3  N   UNL     1      -8.555   9.953  68.954  1.00  0.00    -0.128 NA 
BRANCH   3   4
HETATM    4  C   UNL     1      -7.171  10.443  68.814  1.00  0.00    -0.085 C  
BRANCH   4   5
HETATM    5  C   UNL     1      -7.013  11.955  69.043  1.00  0.00    -0.098 C  
BRANCH   5   6
HETATM    6  C   UNL     1      -6.103  12.593  67.993  1.00  0.00    -0.091 C  
BRANCH   6   7
HETATM    7  C   UNL     1      -6.537  14.029  67.722  1.00  0.00    -0.176 C  
BRANCH   7   8
HETATM    8  O   UNL     1      -7.679  14.351  68.527  1.00  0.00    -0.121 OA 
BRANCH   8   9
HETATM    9  C   UNL     1      -8.625  15.102  67.910  1.00  0.00    -0.153 C  
HETATM   10  O   UNL     1      -8.487  15.750  66.886  1.00  0.00    -0.200 OA 
BRANCH   9  11
HETATM   11  C   UNL     1      -9.883  15.068  68.692  1.00  0.00    -0.222 A  
HETATM   12  C   UNL     1     -10.415  13.869  69.183  1.00  0.00    -0.074 A  
HETATM   13  C   UNL     1     -11.618  13.874  69.895  1.00  0.00    -0.241 A  
HETATM   14  C   UNL     1     -11.744  16.288  69.639  1.00  0.00    -0.081 A  
HETATM   15  C   UNL     1     -12.288  15.096  70.127  1.00  0.00    -0.341 A  
HETATM   16  C   UNL     1     -10.550  16.275  68.914  1.00  0.00    -0.284 A  
BRANCH  13  17
HETATM   17  O   UNL     1     -12.223  12.747  70.396  1.00  0.00    -0.350 OA 
HETATM   18  C   UNL     1     -11.857  11.494  69.836  1.00  0.00    -0.355 C  
ENDBRANCH  13  17
BRANCH  15  19
HETATM   19  O   UNL     1     -13.463  15.017  70.831  1.00  0.00    -0.394 OA 
HETATM   20  C   UNL     1     -13.521  15.683  72.085  1.00  0.00    -0.469 C  
ENDBRANCH  15  19
ENDBRANCH   9  11
ENDBRANCH   8   9
ENDBRANCH   7   8
ENDBRANCH   6   7
ENDBRANCH   5   6
ENDBRANCH   4   5
ENDBRANCH   3   4
BRANCH   3  21
HETATM   21  C   UNL     1      -8.965   9.074  67.830  1.00  0.00    -0.132 C  
HETATM   22  C   UNL     1     -10.474   8.783  67.748  1.00  0.00    -0.292 C  
BRANCH  21  23
HETATM   23  C   UNL     1      -8.473   9.539  66.426  1.00  0.00    -0.131 C  
BRANCH  23  24
HETATM   24  C   UNL     1      -9.312  10.606  65.755  1.00  0.00    -0.223 A  
HETATM   25  C   UNL     1     -10.272  12.846  65.752  1.00  0.00    -0.298 A  
HETATM   26  C   UNL     1     -10.919  12.583  64.546  1.00  0.00    -0.323 A  
HETATM   27  C   UNL     1      -9.976  10.347  64.550  1.00  0.00    -0.401 A  
HETATM   28  C   UNL     1     -10.762  11.333  63.947  1.00  0.00    -0.451 A  
HETATM   29  C   UNL     1      -9.476  11.863  66.352  1.00  0.00    -0.238 A  
BRANCH  26  30
HETATM   30  O   UNL     1     -11.675  13.476  63.837  1.00  0.00    -0.408 OA 
HETATM   31  C   UNL     1     -11.699  14.810  64.331  1.00  0.00    -0.336 C  
ENDBRANCH  26  30
ENDBRANCH  23  24
ENDBRANCH  21  23
ENDBRANCH   3  21
ENDBRANCH   2   3
TORSDOF 14
ENDMDL
MODEL      211
REMARK 921   NORMALIZED FREE ENERGY PREDICTED BY IDOCK:   -3.92 KCAL/MOL
REMARK 922        TOTAL FREE ENERGY PREDICTED BY IDOCK:   -9.92 KCAL/MOL
REMARK 923 INTER-LIGAND FREE ENERGY PREDICTED BY IDOCK:   -7.41 KCAL/MOL
REMARK 924 INTRA-LIGAND FREE ENERGY PREDICTED BY IDOCK:   -2.51 KCAL/MOL
REMARK 927      BINDING AFFINITY PREDICTED BY RF-SCORE:    0.00 PKD
ROOT
HETATM    1  C   UNL     1     -12.595  12.844  64.617  1.00  0.00    -0.459 C  
HETATM    2  C   UNL     1     -12.505  13.730  65.853  1.00  0.00    -0.468 C  
ENDROOT
BRANCH   2   3
HETATM    3  N   UNL     1     -11.484  13.393  66.852  1.00  0.00    -0.327 NA 
BRANCH   3   4
HETATM    4  C   UNL     1     -10.958  14.536  67.621  1.00  0.00    -0.288 C  
BRANCH   4   5
HETATM    5  C   UNL     1      -9.593  15.047  67.134  1.00  0.00    -0.222 C  
BRANCH   5   6
HETATM    6  C   UNL     1      -8.467  14.648  68.089  1.00  0.00    -0.156 C  
BRANCH   6   7
HETATM    7  C   UNL     1      -7.676  13.479  67.513  1.00  0.00    -0.175 C  
BRANCH   7   8
HETATM    8  O   UNL     1      -8.037  12.268  68.189  1.00  0.00    -0.142 OA 
BRANCH   8   9
HETATM    9  C   UNL     1      -7.067  11.736  68.974  1.00  0.00    -0.100 C  
HETATM   10  O   UNL     1      -6.086  12.314  69.412  1.00  0.00    -0.089 OA 
BRANCH   9  11
HETATM   11  C   UNL     1      -7.340  10.299  69.206  1.00  0.00    -0.099 A  
HETATM   12  C   UNL     1      -7.080   9.686  70.438  1.00  0.00    -0.138 A  
HETATM   13  C   UNL     1      -7.327   8.321  70.610  1.00  0.00    -0.057 A  
HETATM   14  C   UNL     1      -8.114   8.189  68.314  1.00  0.00    -0.128 A  
HETATM   15  C   UNL     1      -7.851   7.565  69.538  1.00  0.00    -0.120 A  
HETATM   16  C   UNL     1      -7.850   9.549  68.143  1.00  0.00    -0.083 A  
BRANCH  13  17
HETATM   17  O   UNL     1      -7.085   7.634  71.774  1.00  0.00    -0.060 OA 
HETATM   18  C   UNL     1      -7.845   7.986  72.921  1.00  0.00    -0.142 C  
ENDBRANCH  13  17
BRANCH  15  19
HETATM   19  O   UNL     1      -8.063   6.232  69.784  1.00  0.00    -0.115 OA 
HETATM   20  C   UNL     1      -9.407   5.770  69.776  1.00  0.00    -0.147 C  
ENDBRANCH  15  19
ENDBRANCH   9  11
ENDBRANCH   8   9
ENDBRANCH   7   8
ENDBRANCH   6   7
ENDBRANCH   5   6
ENDBRANCH   4   5
ENDBRANCH   3   4
BRANCH   3  21
HETATM   21  C   UNL     1     -11.738  12.202  67.701  1.00  0.00    -0.316 C  
HETATM   22  C   UNL     1     -11.116  10.892  67.189  1.00  0.00    -0.308 C  
BRANCH  21  23
HETATM   23  C   UNL     1     -11.357  12.379  69.202  1.00  0.00    -0.327 C  
BRANCH  23  24
HETATM   24  C   UNL     1     -11.696  11.214  70.108  1.00  0.00    -0.439 A  
HETATM   25  C   UNL     1     -13.141  10.194  71.785  1.00  0.00    -0.568 A  
HETATM   26  C   UNL     1     -12.310   9.077  71.844  1.00  0.00    -0.384 A  
HETATM   27  C   UNL     1     -10.860  10.093  70.184  1.00  0.00    -0.368 A  
HETATM   28  C   UNL     1     -11.173   9.031  71.036  1.00  0.00    -0.361 A  
HETATM   29  C   UNL     1     -12.835  11.255  70.923  1.00  0.00    -0.343 A  
BRANCH  26  30
HETATM   30  O   UNL     1     -12.531   7.958  72.600  1.00  0.00    -0.163 OA 
HETATM   31  C   UNL     1     -12.025   6.736  72.076  1.00  0.00    -0.317 C  
ENDBRANCH  26  30
ENDBRANCH  23  24
ENDBRANCH  21  23
ENDBRANCH   3  21
ENDBRANCH   2   3
TORSDOF 14
ENDMDL
MODEL      212
REMARK 921   NORMALIZED FREE ENERGY PREDICTED BY IDOCK:   -3.92 KCAL/MOL
REMARK 922        TOTAL FREE ENERGY PREDICTED BY IDOCK:   -9.91 KCAL/MOL
REMARK 923 INTER-LIGAND FREE ENERGY PREDICTED BY IDOCK:   -7.57 KCAL/MOL
REMARK 924 INTRA-LIGAND FREE ENERGY PREDICTED BY IDOCK:   -2.34 KCAL/MOL
REMARK 927      BINDING AFFINITY PREDICTED BY RF-SCORE:    0.00 PKD
ROOT
HETATM    1  C   UNL     1     -11.355  15.572  70.251  1.00  0.00    -0.348 C  
HETATM    2  C   UNL     1     -10.717  14.777  69.118  1.00  0.00    -0.254 C  
ENDROOT
BRANCH   2   3
HETATM    3  N   UNL     1     -10.259  15.527  67.943  1.00  0.00    -0.235 NA 
BRANCH   3   4
HETATM    4  C   UNL     1      -8.820  15.408  67.644  1.00  0.00    -0.174 C  
BRANCH   4   5
HETATM    5  C   UNL     1      -8.085  14.366  68.501  1.00  0.00    -0.146 C  
BRANCH   5   6
HETATM    6  C   UNL     1      -7.017  13.624  67.695  1.00  0.00    -0.183 C  
BRANCH   6   7
HETATM    7  C   UNL     1      -6.616  12.338  68.409  1.00  0.00    -0.060 C  
BRANCH   7   8
HETATM    8  O   UNL     1      -7.790  11.639  68.844  1.00  0.00    -0.118 OA 
BRANCH   8   9
HETATM    9  C   UNL     1      -7.557  10.551  69.621  1.00  0.00    -0.127 C  
HETATM   10  O   UNL     1      -6.700  10.442  70.482  1.00  0.00    -0.265 OA 
BRANCH   9  11
HETATM   11  C   UNL     1      -8.483   9.458  69.245  1.00  0.00    -0.141 A  
HETATM   12  C   UNL     1      -9.486   9.008  70.112  1.00  0.00    -0.217 A  
HETATM   13  C   UNL     1     -10.324   7.956  69.731  1.00  0.00    -0.219 A  
HETATM   14  C   UNL     1      -9.161   7.818  67.602  1.00  0.00    -0.138 A  
HETATM   15  C   UNL     1     -10.161   7.356  68.463  1.00  0.00    -0.175 A  
HETATM   16  C   UNL     1      -8.316   8.858  67.994  1.00  0.00    -0.121 A  
BRANCH  13  17
HETATM   17  O   UNL     1     -11.321   7.438  70.522  1.00  0.00    -0.275 OA 
HETATM   18  C   UNL     1     -10.938   6.752  71.705  1.00  0.00    -0.235 C  
ENDBRANCH  13  17
BRANCH  15  19
HETATM   19  O   UNL     1     -11.020   6.329  68.164  1.00  0.00    -0.302 OA 
HETATM   20  C   UNL     1     -10.527   5.280  67.343  1.00  0.00    -0.148 C  
ENDBRANCH  15  19
ENDBRANCH   9  11
ENDBRANCH   8   9
ENDBRANCH   7   8
ENDBRANCH   6   7
ENDBRANCH   5   6
ENDBRANCH   4   5
ENDBRANCH   3   4
BRANCH   3  21
HETATM   21  C   UNL     1     -11.103  15.451  66.724  1.00  0.00    -0.244 C  
HETATM   22  C   UNL     1     -10.354  15.675  65.398  1.00  0.00    -0.421 C  
BRANCH  21  23
HETATM   23  C   UNL     1     -11.952  14.150  66.599  1.00  0.00    -0.470 C  
BRANCH  23  24
HETATM   24  C   UNL     1     -11.346  13.046  65.758  1.00  0.00    -0.331 A  
HETATM   25  C   UNL     1      -9.788  11.188  65.517  1.00  0.00    -0.281 A  
HETATM   26  C   UNL     1     -10.166  11.024  64.186  1.00  0.00    -0.357 A  
HETATM   27  C   UNL     1     -11.709  12.883  64.416  1.00  0.00    -0.427 A  
HETATM   28  C   UNL     1     -11.132  11.872  63.643  1.00  0.00    -0.517 A  
HETATM   29  C   UNL     1     -10.374  12.193  66.297  1.00  0.00    -0.250 A  
BRANCH  26  30
HETATM   30  O   UNL     1      -9.709  10.048  63.343  1.00  0.00    -0.200 OA 
HETATM   31  C   UNL     1      -8.437   9.492  63.656  1.00  0.00    -0.196 C  
ENDBRANCH  26  30
ENDBRANCH  23  24
ENDBRANCH  21  23
ENDBRANCH   3  21
ENDBRANCH   2   3
TORSDOF 14
ENDMDL
MODEL      213
REMARK 921   NORMALIZED FREE ENERGY PREDICTED BY IDOCK:   -3.91 KCAL/MOL
REMARK 922        TOTAL FREE ENERGY PREDICTED BY IDOCK:   -9.91 KCAL/MOL
REMARK 923 INTER-LIGAND FREE ENERGY PREDICTED BY IDOCK:   -8.20 KCAL/MOL
REMARK 924 INTRA-LIGAND FREE ENERGY PREDICTED BY IDOCK:   -1.71 KCAL/MOL
REMARK 927      BINDING AFFINITY PREDICTED BY RF-SCORE:    0.00 PKD
ROOT
HETATM    1  C   UNL     1     -10.854  20.126  65.903  1.00  0.00    -0.154 C  
HETATM    2  C   UNL     1      -9.855  20.200  67.052  1.00  0.00    -0.455 C  
ENDROOT
BRANCH   2   3
HETATM    3  N   UNL     1      -9.218  18.947  67.473  1.00  0.00    -0.288 NA 
BRANCH   3   4
HETATM    4  C   UNL     1      -9.880  17.717  66.999  1.00  0.00    -0.307 C  
BRANCH   4   5
HETATM    5  C   UNL     1     -10.354  16.785  68.125  1.00  0.00    -0.318 C  
BRANCH   5   6
HETATM    6  C   UNL     1     -10.243  15.313  67.725  1.00  0.00    -0.237 C  
BRANCH   6   7
HETATM    7  C   UNL     1     -11.595  14.794  67.247  1.00  0.00    -0.369 C  
BRANCH   7   8
HETATM    8  O   UNL     1     -11.468  14.256  65.924  1.00  0.00    -0.323 OA 
BRANCH   8   9
HETATM    9  C   UNL     1     -12.116  13.083  65.715  1.00  0.00    -0.454 C  
HETATM   10  O   UNL     1     -13.097  12.909  65.012  1.00  0.00    -0.794 OA 
BRANCH   9  11
HETATM   11  C   UNL     1     -11.482  12.010  66.513  1.00  0.00    -0.413 A  
HETATM   12  C   UNL     1     -11.846  11.765  67.843  1.00  0.00    -0.289 A  
HETATM   13  C   UNL     1     -11.206  10.759  68.573  1.00  0.00    -0.279 A  
HETATM   14  C   UNL     1      -9.847  10.231  66.629  1.00  0.00    -0.256 A  
HETATM   15  C   UNL     1     -10.197   9.983  67.959  1.00  0.00    -0.181 A  
HETATM   16  C   UNL     1     -10.478  11.248  65.909  1.00  0.00    -0.314 A  
BRANCH  13  17
HETATM   17  O   UNL     1     -11.484  10.461  69.885  1.00  0.00    -0.258 OA 
HETATM   18  C   UNL     1     -12.494  11.218  70.536  1.00  0.00    -0.310 C  
ENDBRANCH  13  17
BRANCH  15  19
HETATM   19  O   UNL     1      -9.616   9.018  68.742  1.00  0.00    -0.150 OA 
HETATM   20  C   UNL     1     -10.030   7.674  68.541  1.00  0.00    -0.180 C  
ENDBRANCH  15  19
ENDBRANCH   9  11
ENDBRANCH   8   9
ENDBRANCH   7   8
ENDBRANCH   6   7
ENDBRANCH   5   6
ENDBRANCH   4   5
ENDBRANCH   3   4
BRANCH   3  21
HETATM   21  C   UNL     1      -7.739  18.874  67.370  1.00  0.00    -0.231 C  
HETATM   22  C   UNL     1      -7.056  20.166  66.888  1.00  0.00    -0.275 C  
BRANCH  21  23
HETATM   23  C   UNL     1      -7.019  18.386  68.663  1.00  0.00    -0.281 C  
BRANCH  23  24
HETATM   24  C   UNL     1      -6.676  16.911  68.708  1.00  0.00    -0.190 A  
HETATM   25  C   UNL     1      -5.987  14.941  69.965  1.00  0.00    -0.143 A  
HETATM   26  C   UNL     1      -5.980  14.180  68.798  1.00  0.00    -0.085 A  
HETATM   27  C   UNL     1      -6.654  16.142  67.538  1.00  0.00    -0.200 A  
HETATM   28  C   UNL     1      -6.321  14.785  67.588  1.00  0.00    -0.139 A  
HETATM   29  C   UNL     1      -6.331  16.298  69.919  1.00  0.00    -0.131 A  
BRANCH  26  30
HETATM   30  O   UNL     1      -5.717  12.839  68.723  1.00  0.00    -0.064 OA 
HETATM   31  C   UNL     1      -6.187  12.045  69.805  1.00  0.00    -0.136 C  
ENDBRANCH  26  30
ENDBRANCH  23  24
ENDBRANCH  21  23
ENDBRANCH   3  21
ENDBRANCH   2   3
TORSDOF 14
ENDMDL
MODEL      214
REMARK 921   NORMALIZED FREE ENERGY PREDICTED BY IDOCK:   -3.91 KCAL/MOL
REMARK 922        TOTAL FREE ENERGY PREDICTED BY IDOCK:   -9.90 KCAL/MOL
REMARK 923 INTER-LIGAND FREE ENERGY PREDICTED BY IDOCK:   -7.38 KCAL/MOL
REMARK 924 INTRA-LIGAND FREE ENERGY PREDICTED BY IDOCK:   -2.52 KCAL/MOL
REMARK 927      BINDING AFFINITY PREDICTED BY RF-SCORE:    0.00 PKD
ROOT
HETATM    1  C   UNL     1     -13.665   7.306  71.593  1.00  0.00    -0.446 C  
HETATM    2  C   UNL     1     -12.340   6.571  71.754  1.00  0.00    -0.287 C  
ENDROOT
BRANCH   2   3
HETATM    3  N   UNL     1     -11.176   7.116  71.046  1.00  0.00    -0.260 NA 
BRANCH   3   4
HETATM    4  C   UNL     1     -11.086   6.757  69.619  1.00  0.00    -0.292 C  
BRANCH   4   5
HETATM    5  C   UNL     1     -10.228   5.514  69.336  1.00  0.00    -0.329 C  
BRANCH   5   6
HETATM    6  C   UNL     1      -8.920   5.539  70.128  1.00  0.00    -0.154 C  
BRANCH   6   7
HETATM    7  C   UNL     1      -7.729   5.581  69.176  1.00  0.00    -0.087 C  
BRANCH   7   8
HETATM    8  O   UNL     1      -7.211   6.916  69.107  1.00  0.00    -0.085 OA 
BRANCH   8   9
HETATM    9  C   UNL     1      -7.495   7.586  67.962  1.00  0.00    -0.105 C  
HETATM   10  O   UNL     1      -7.802   7.095  66.889  1.00  0.00    -0.103 OA 
BRANCH   9  11
HETATM   11  C   UNL     1      -7.338   9.042  68.180  1.00  0.00    -0.083 A  
HETATM   12  C   UNL     1      -8.312   9.960  67.770  1.00  0.00    -0.114 A  
HETATM   13  C   UNL     1      -8.116  11.330  67.969  1.00  0.00    -0.128 A  
HETATM   14  C   UNL     1      -5.971  10.857  69.009  1.00  0.00    -0.041 A  
HETATM   15  C   UNL     1      -6.934  11.782  68.597  1.00  0.00    -0.093 A  
HETATM   16  C   UNL     1      -6.165   9.491  68.792  1.00  0.00    -0.043 A  
BRANCH  13  17
HETATM   17  O   UNL     1      -9.007  12.302  67.584  1.00  0.00    -0.166 OA 
HETATM   18  C   UNL     1      -9.552  12.218  66.275  1.00  0.00    -0.242 C  
ENDBRANCH  13  17
BRANCH  15  19
HETATM   19  O   UNL     1      -6.814  13.140  68.754  1.00  0.00    -0.093 OA 
HETATM   20  C   UNL     1      -5.976  13.834  67.840  1.00  0.00    -0.142 C  
ENDBRANCH  15  19
ENDBRANCH   9  11
ENDBRANCH   8   9
ENDBRANCH   7   8
ENDBRANCH   6   7
ENDBRANCH   5   6
ENDBRANCH   4   5
ENDBRANCH   3   4
BRANCH   3  21
HETATM   21  C   UNL     1     -10.839   8.540  71.299  1.00  0.00    -0.251 C  
HETATM   22  C   UNL     1      -9.401   8.792  71.786  1.00  0.00    -0.350 C  
BRANCH  21  23
HETATM   23  C   UNL     1     -11.134   9.501  70.108  1.00  0.00    -0.294 C  
BRANCH  23  24
HETATM   24  C   UNL     1     -11.802  10.811  70.470  1.00  0.00    -0.453 A  
HETATM   25  C   UNL     1     -12.133  13.192  70.074  1.00  0.00    -0.375 A  
HETATM   26  C   UNL     1     -12.993  13.270  71.168  1.00  0.00    -0.216 A  
HETATM   27  C   UNL     1     -12.657  10.901  71.575  1.00  0.00    -0.480 A  
HETATM   28  C   UNL     1     -13.256  12.119  71.911  1.00  0.00    -0.474 A  
HETATM   29  C   UNL     1     -11.541  11.971  69.729  1.00  0.00    -0.348 A  
BRANCH  26  30
HETATM   30  O   UNL     1     -13.673  14.388  71.569  1.00  0.00    -0.371 OA 
HETATM   31  C   UNL     1     -12.965  15.619  71.480  1.00  0.00    -0.478 C  
ENDBRANCH  26  30
ENDBRANCH  23  24
ENDBRANCH  21  23
ENDBRANCH   3  21
ENDBRANCH   2   3
TORSDOF 14
ENDMDL
MODEL      215
REMARK 921   NORMALIZED FREE ENERGY PREDICTED BY IDOCK:   -3.91 KCAL/MOL
REMARK 922        TOTAL FREE ENERGY PREDICTED BY IDOCK:   -9.90 KCAL/MOL
REMARK 923 INTER-LIGAND FREE ENERGY PREDICTED BY IDOCK:   -8.14 KCAL/MOL
REMARK 924 INTRA-LIGAND FREE ENERGY PREDICTED BY IDOCK:   -1.75 KCAL/MOL
REMARK 927      BINDING AFFINITY PREDICTED BY RF-SCORE:    0.00 PKD
ROOT
HETATM    1  C   UNL     1      -6.464  19.001  65.178  1.00  0.00    -0.276 C  
HETATM    2  C   UNL     1      -6.910  20.408  65.558  1.00  0.00    -0.250 C  
ENDROOT
BRANCH   2   3
HETATM    3  N   UNL     1      -7.165  20.674  66.978  1.00  0.00    -0.312 NA 
BRANCH   3   4
HETATM    4  C   UNL     1      -8.582  20.874  67.334  1.00  0.00    -0.012 C  
BRANCH   4   5
HETATM    5  C   UNL     1      -9.571  20.448  66.238  1.00  0.00    -0.337 C  
BRANCH   5   6
HETATM    6  C   UNL     1     -10.676  19.548  66.793  1.00  0.00    -0.569 C  
BRANCH   6   7
HETATM    7  C   UNL     1     -10.584  18.157  66.173  1.00  0.00    -0.274 C  
BRANCH   7   8
HETATM    8  O   UNL     1      -9.997  17.246  67.111  1.00  0.00    -0.265 OA 
BRANCH   8   9
HETATM    9  C   UNL     1     -10.862  16.368  67.679  1.00  0.00    -0.280 C  
HETATM   10  O   UNL     1     -11.608  16.586  68.619  1.00  0.00    -0.261 OA 
BRANCH   9  11
HETATM   11  C   UNL     1     -10.748  15.050  67.014  1.00  0.00    -0.304 A  
HETATM   12  C   UNL     1     -11.447  13.927  67.474  1.00  0.00    -0.368 A  
HETATM   13  C   UNL     1     -11.293  12.693  66.836  1.00  0.00    -0.320 A  
HETATM   14  C   UNL     1      -9.750  13.716  65.261  1.00  0.00    -0.025 A  
HETATM   15  C   UNL     1     -10.437  12.587  65.717  1.00  0.00    -0.271 A  
HETATM   16  C   UNL     1      -9.894  14.942  65.913  1.00  0.00    -0.362 A  
BRANCH  13  17
HETATM   17  O   UNL     1     -11.923  11.537  67.228  1.00  0.00    -0.605 OA 
HETATM   18  C   UNL     1     -11.333  10.785  68.279  1.00  0.00    -0.309 C  
ENDBRANCH  13  17
BRANCH  15  19
HETATM   19  O   UNL     1     -10.338  11.342  65.148  1.00  0.00    -0.264 OA 
HETATM   20  C   UNL     1     -10.641  11.229  63.764  1.00  0.00    -0.392 C  
ENDBRANCH  15  19
ENDBRANCH   9  11
ENDBRANCH   8   9
ENDBRANCH   7   8
ENDBRANCH   6   7
ENDBRANCH   5   6
ENDBRANCH   4   5
ENDBRANCH   3   4
BRANCH   3  21
HETATM   21  C   UNL     1      -6.443  19.830  67.963  1.00  0.00    -0.241 C  
HETATM   22  C   UNL     1      -5.508  20.595  68.915  1.00  0.00    -0.365 C  
BRANCH  21  23
HETATM   23  C   UNL     1      -7.355  18.893  68.811  1.00  0.00    -0.356 C  
BRANCH  23  24
HETATM   24  C   UNL     1      -6.981  17.426  68.802  1.00  0.00    -0.236 A  
HETATM   25  C   UNL     1      -7.586  15.090  69.144  1.00  0.00    -0.176 A  
HETATM   26  C   UNL     1      -6.284  14.694  68.847  1.00  0.00    -0.087 A  
HETATM   27  C   UNL     1      -5.672  17.019  68.518  1.00  0.00    -0.139 A  
HETATM   28  C   UNL     1      -5.333  15.663  68.529  1.00  0.00    -0.101 A  
HETATM   29  C   UNL     1      -7.931  16.448  69.123  1.00  0.00    -0.204 A  
BRANCH  26  30
HETATM   30  O   UNL     1      -5.841  13.401  68.780  1.00  0.00    -0.073 OA 
HETATM   31  C   UNL     1      -5.434  12.812  70.010  1.00  0.00    -0.113 C  
ENDBRANCH  26  30
ENDBRANCH  23  24
ENDBRANCH  21  23
ENDBRANCH   3  21
ENDBRANCH   2   3
TORSDOF 14
ENDMDL
MODEL      216
REMARK 921   NORMALIZED FREE ENERGY PREDICTED BY IDOCK:   -3.89 KCAL/MOL
REMARK 922        TOTAL FREE ENERGY PREDICTED BY IDOCK:   -9.87 KCAL/MOL
REMARK 923 INTER-LIGAND FREE ENERGY PREDICTED BY IDOCK:   -6.60 KCAL/MOL
REMARK 924 INTRA-LIGAND FREE ENERGY PREDICTED BY IDOCK:   -3.27 KCAL/MOL
REMARK 927      BINDING AFFINITY PREDICTED BY RF-SCORE:    0.00 PKD
ROOT
HETATM    1  C   UNL     1     -13.319   7.277  71.332  1.00  0.00    -0.399 C  
HETATM    2  C   UNL     1     -12.222   6.486  72.034  1.00  0.00    -0.295 C  
ENDROOT
BRANCH   2   3
HETATM    3  N   UNL     1     -10.846   6.676  71.562  1.00  0.00    -0.234 NA 
BRANCH   3   4
HETATM    4  C   UNL     1     -10.572   6.166  70.206  1.00  0.00    -0.258 C  
BRANCH   4   5
HETATM    5  C   UNL     1      -9.996   4.741  70.176  1.00  0.00    -0.321 C  
BRANCH   5   6
HETATM    6  C   UNL     1      -8.477   4.742  70.356  1.00  0.00    -0.102 C  
BRANCH   6   7
HETATM    7  C   UNL     1      -7.787   4.528  69.014  1.00  0.00    -0.070 C  
BRANCH   7   8
HETATM    8  O   UNL     1      -7.806   5.747  68.259  1.00  0.00    -0.098 OA 
BRANCH   8   9
HETATM    9  C   UNL     1      -8.501   5.692  67.095  1.00  0.00    -0.110 C  
HETATM   10  O   UNL     1      -8.854   4.685  66.505  1.00  0.00    -0.112 OA 
BRANCH   9  11
HETATM   11  C   UNL     1      -8.749   7.063  66.593  1.00  0.00    -0.131 A  
HETATM   12  C   UNL     1      -7.762   7.792  65.919  1.00  0.00    -0.094 A  
HETATM   13  C   UNL     1      -8.024   9.094  65.483  1.00  0.00    -0.104 A  
HETATM   14  C   UNL     1     -10.276   8.926  66.383  1.00  0.00    -0.273 A  
HETATM   15  C   UNL     1      -9.295   9.666  65.715  1.00  0.00    -0.228 A  
HETATM   16  C   UNL     1     -10.002   7.633  66.831  1.00  0.00    -0.325 A  
BRANCH  13  17
HETATM   17  O   UNL     1      -7.113   9.889  64.831  1.00  0.00    -0.119 OA 
HETATM   18  C   UNL     1      -6.712   9.503  63.524  1.00  0.00    -0.103 C  
ENDBRANCH  13  17
BRANCH  15  19
HETATM   19  O   UNL     1      -9.474  10.948  65.259  1.00  0.00    -0.196 OA 
HETATM   20  C   UNL     1     -10.751  11.284  64.733  1.00  0.00    -0.285 C  
ENDBRANCH  15  19
ENDBRANCH   9  11
ENDBRANCH   8   9
ENDBRANCH   7   8
ENDBRANCH   6   7
ENDBRANCH   5   6
ENDBRANCH   4   5
ENDBRANCH   3   4
BRANCH   3  21
HETATM   21  C   UNL     1     -10.226   8.002  71.809  1.00  0.00    -0.202 C  
HETATM   22  C   UNL     1      -9.564   8.166  73.188  1.00  0.00    -0.307 C  
BRANCH  21  23
HETATM   23  C   UNL     1      -9.214   8.462  70.716  1.00  0.00    -0.186 C  
BRANCH  23  24
HETATM   24  C   UNL     1      -9.594   9.713  69.952  1.00  0.00    -0.260 A  
HETATM   25  C   UNL     1      -8.960  11.621  68.575  1.00  0.00    -0.138 A  
HETATM   26  C   UNL     1     -10.277  12.076  68.573  1.00  0.00    -0.212 A  
HETATM   27  C   UNL     1     -10.912  10.186  69.955  1.00  0.00    -0.364 A  
HETATM   28  C   UNL     1     -11.250  11.350  69.261  1.00  0.00    -0.342 A  
HETATM   29  C   UNL     1      -8.622  10.447  69.261  1.00  0.00    -0.159 A  
BRANCH  26  30
HETATM   30  O   UNL     1     -10.739  13.172  67.897  1.00  0.00    -0.227 OA 
HETATM   31  C   UNL     1     -12.003  13.679  68.311  1.00  0.00    -0.350 C  
ENDBRANCH  26  30
ENDBRANCH  23  24
ENDBRANCH  21  23
ENDBRANCH   3  21
ENDBRANCH   2   3
TORSDOF 14
ENDMDL
MODEL      217
REMARK 921   NORMALIZED FREE ENERGY PREDICTED BY IDOCK:   -3.88 KCAL/MOL
REMARK 922        TOTAL FREE ENERGY PREDICTED BY IDOCK:   -9.85 KCAL/MOL
REMARK 923 INTER-LIGAND FREE ENERGY PREDICTED BY IDOCK:   -7.26 KCAL/MOL
REMARK 924 INTRA-LIGAND FREE ENERGY PREDICTED BY IDOCK:   -2.60 KCAL/MOL
REMARK 927      BINDING AFFINITY PREDICTED BY RF-SCORE:    0.00 PKD
ROOT
HETATM    1  C   UNL     1      -6.748   9.917  67.574  1.00  0.00    -0.073 C  
HETATM    2  C   UNL     1      -8.067   9.174  67.740  1.00  0.00    -0.105 C  
ENDROOT
BRANCH   2   3
HETATM    3  N   UNL     1      -9.258   9.766  67.120  1.00  0.00    -0.137 NA 
BRANCH   3   4
HETATM    4  C   UNL     1     -10.320   8.808  66.761  1.00  0.00    -0.258 C  
BRANCH   4   5
HETATM    5  C   UNL     1     -10.231   7.464  67.501  1.00  0.00    -0.289 C  
BRANCH   5   6
HETATM    6  C   UNL     1     -10.930   6.346  66.727  1.00  0.00    -0.321 C  
BRANCH   6   7
HETATM    7  C   UNL     1     -10.030   5.118  66.646  1.00  0.00    -0.210 C  
BRANCH   7   8
HETATM    8  O   UNL     1      -8.915   5.274  67.534  1.00  0.00    -0.110 OA 
BRANCH   8   9
HETATM    9  C   UNL     1      -8.879   4.402  68.572  1.00  0.00    -0.104 C  
HETATM   10  O   UNL     1      -8.805   3.187  68.500  1.00  0.00    -0.095 OA 
BRANCH   9  11
HETATM   11  C   UNL     1      -8.990   5.139  69.852  1.00  0.00    -0.139 A  
HETATM   12  C   UNL     1     -10.039   4.907  70.750  1.00  0.00    -0.303 A  
HETATM   13  C   UNL     1     -10.124   5.642  71.936  1.00  0.00    -0.189 A  
HETATM   14  C   UNL     1      -8.092   6.830  71.330  1.00  0.00    -0.111 A  
HETATM   15  C   UNL     1      -9.140   6.612  72.230  1.00  0.00    -0.137 A  
HETATM   16  C   UNL     1      -8.022   6.105  70.138  1.00  0.00    -0.107 A  
BRANCH  13  17
HETATM   17  O   UNL     1     -11.125   5.495  72.865  1.00  0.00    -0.261 OA 
HETATM   18  C   UNL     1     -11.124   4.318  73.660  1.00  0.00    -0.267 C  
ENDBRANCH  13  17
BRANCH  15  19
HETATM   19  O   UNL     1      -9.294   7.292  73.411  1.00  0.00    -0.159 OA 
HETATM   20  C   UNL     1      -8.214   8.109  73.844  1.00  0.00    -0.250 C  
ENDBRANCH  15  19
ENDBRANCH   9  11
ENDBRANCH   8   9
ENDBRANCH   7   8
ENDBRANCH   6   7
ENDBRANCH   5   6
ENDBRANCH   4   5
ENDBRANCH   3   4
BRANCH   3  21
HETATM   21  C   UNL     1      -9.793  11.006  67.735  1.00  0.00    -0.173 C  
HETATM   22  C   UNL     1     -11.227  11.375  67.317  1.00  0.00    -0.370 C  
BRANCH  21  23
HETATM   23  C   UNL     1      -9.703  11.054  69.290  1.00  0.00    -0.033 C  
BRANCH  23  24
HETATM   24  C   UNL     1     -10.878  10.456  70.036  1.00  0.00    -0.348 A  
HETATM   25  C   UNL     1     -12.980  10.735  71.236  1.00  0.00    -0.502 A  
HETATM   26  C   UNL     1     -13.043   9.364  71.476  1.00  0.00    -0.377 A  
HETATM   27  C   UNL     1     -10.943   9.081  70.293  1.00  0.00    -0.274 A  
HETATM   28  C   UNL     1     -12.023   8.541  70.997  1.00  0.00    -0.260 A  
HETATM   29  C   UNL     1     -11.904  11.277  70.522  1.00  0.00    -0.421 A  
BRANCH  26  30
HETATM   30  O   UNL     1     -14.065   8.712  72.110  1.00  0.00    -0.417 OA 
HETATM   31  C   UNL     1     -14.408   7.431  71.595  1.00  0.00    -0.461 C  
ENDBRANCH  26  30
ENDBRANCH  23  24
ENDBRANCH  21  23
ENDBRANCH   3  21
ENDBRANCH   2   3
TORSDOF 14
ENDMDL
MODEL      218
REMARK 921   NORMALIZED FREE ENERGY PREDICTED BY IDOCK:   -3.88 KCAL/MOL
REMARK 922        TOTAL FREE ENERGY PREDICTED BY IDOCK:   -9.85 KCAL/MOL
REMARK 923 INTER-LIGAND FREE ENERGY PREDICTED BY IDOCK:   -8.38 KCAL/MOL
REMARK 924 INTRA-LIGAND FREE ENERGY PREDICTED BY IDOCK:   -1.47 KCAL/MOL
REMARK 927      BINDING AFFINITY PREDICTED BY RF-SCORE:    0.00 PKD
ROOT
HETATM    1  C   UNL     1     -10.182  10.108  66.503  1.00  0.00    -0.288 C  
HETATM    2  C   UNL     1      -9.618  11.436  66.013  1.00  0.00    -0.221 C  
ENDROOT
BRANCH   2   3
HETATM    3  N   UNL     1      -9.935  11.838  64.638  1.00  0.00    -0.252 NA 
BRANCH   3   4
HETATM    4  C   UNL     1      -9.829  10.766  63.631  1.00  0.00    -0.350 C  
BRANCH   4   5
HETATM    5  C   UNL     1      -8.385  10.387  63.267  1.00  0.00    -0.163 C  
BRANCH   5   6
HETATM    6  C   UNL     1      -8.234   8.881  63.048  1.00  0.00    -0.187 C  
BRANCH   6   7
HETATM    7  C   UNL     1      -7.557   8.238  64.254  1.00  0.00    -0.122 C  
BRANCH   7   8
HETATM    8  O   UNL     1      -8.545   7.639  65.103  1.00  0.00    -0.095 OA 
BRANCH   8   9
HETATM    9  C   UNL     1      -8.137   6.528  65.766  1.00  0.00    -0.128 C  
HETATM   10  O   UNL     1      -7.283   5.737  65.403  1.00  0.00    -0.067 OA 
BRANCH   9  11
HETATM   11  C   UNL     1      -8.922   6.371  67.012  1.00  0.00    -0.119 A  
HETATM   12  C   UNL     1      -8.304   6.168  68.253  1.00  0.00    -0.114 A  
HETATM   13  C   UNL     1      -9.079   5.998  69.404  1.00  0.00    -0.133 A  
HETATM   14  C   UNL     1     -11.094   6.254  68.068  1.00  0.00    -0.365 A  
HETATM   15  C   UNL     1     -10.488   6.043  69.311  1.00  0.00    -0.264 A  
HETATM   16  C   UNL     1     -10.315   6.407  66.919  1.00  0.00    -0.306 A  
BRANCH  13  17
HETATM   17  O   UNL     1      -8.562   5.775  70.657  1.00  0.00    -0.128 OA 
HETATM   18  C   UNL     1      -7.924   4.529  70.898  1.00  0.00    -0.072 C  
ENDBRANCH  13  17
BRANCH  15  19
HETATM   19  O   UNL     1     -11.178   5.865  70.483  1.00  0.00    -0.305 OA 
HETATM   20  C   UNL     1     -12.138   6.852  70.836  1.00  0.00    -0.373 C  
ENDBRANCH  15  19
ENDBRANCH   9  11
ENDBRANCH   8   9
ENDBRANCH   7   8
ENDBRANCH   6   7
ENDBRANCH   5   6
ENDBRANCH   4   5
ENDBRANCH   3   4
BRANCH   3  21
HETATM   21  C   UNL     1     -11.139  12.685  64.444  1.00  0.00    -0.345 C  
HETATM   22  C   UNL     1     -12.217  12.084  63.525  1.00  0.00    -0.653 C  
BRANCH  21  23
HETATM   23  C   UNL     1     -11.820  13.162  65.762  1.00  0.00    -0.442 C  
BRANCH  23  24
HETATM   24  C   UNL     1     -11.321  14.477  66.322  1.00  0.00    -0.352 A  
HETATM   25  C   UNL     1     -11.066  16.013  68.197  1.00  0.00    -0.344 A  
HETATM   26  C   UNL     1     -10.448  16.946  67.368  1.00  0.00    -0.310 A  
HETATM   27  C   UNL     1     -10.710  15.427  65.494  1.00  0.00    -0.397 A  
HETATM   28  C   UNL     1     -10.267  16.644  66.018  1.00  0.00    -0.366 A  
HETATM   29  C   UNL     1     -11.501  14.787  67.677  1.00  0.00    -0.363 A  
BRANCH  26  30
HETATM   30  O   UNL     1      -9.933  18.149  67.768  1.00  0.00    -0.300 OA 
HETATM   31  C   UNL     1     -10.504  19.307  67.171  1.00  0.00    -0.457 C  
ENDBRANCH  26  30
ENDBRANCH  23  24
ENDBRANCH  21  23
ENDBRANCH   3  21
ENDBRANCH   2   3
TORSDOF 14
ENDMDL
MODEL      219
REMARK 921   NORMALIZED FREE ENERGY PREDICTED BY IDOCK:   -3.88 KCAL/MOL
REMARK 922        TOTAL FREE ENERGY PREDICTED BY IDOCK:   -9.85 KCAL/MOL
REMARK 923 INTER-LIGAND FREE ENERGY PREDICTED BY IDOCK:   -8.14 KCAL/MOL
REMARK 924 INTRA-LIGAND FREE ENERGY PREDICTED BY IDOCK:   -1.71 KCAL/MOL
REMARK 927      BINDING AFFINITY PREDICTED BY RF-SCORE:    0.00 PKD
ROOT
HETATM    1  C   UNL     1     -12.692  13.850  65.527  1.00  0.00    -0.536 C  
HETATM    2  C   UNL     1     -11.870  14.216  66.757  1.00  0.00    -0.425 C  
ENDROOT
BRANCH   2   3
HETATM    3  N   UNL     1     -11.109  13.141  67.404  1.00  0.00    -0.267 NA 
BRANCH   3   4
HETATM    4  C   UNL     1      -9.905  13.578  68.135  1.00  0.00    -0.237 C  
BRANCH   4   5
HETATM    5  C   UNL     1      -8.657  13.739  67.252  1.00  0.00    -0.221 C  
BRANCH   5   6
HETATM    6  C   UNL     1      -7.568  12.733  67.624  1.00  0.00    -0.152 C  
BRANCH   6   7
HETATM    7  C   UNL     1      -7.979  11.329  67.193  1.00  0.00    -0.151 C  
BRANCH   7   8
HETATM    8  O   UNL     1      -8.027  10.465  68.337  1.00  0.00    -0.103 OA 
BRANCH   8   9
HETATM    9  C   UNL     1      -7.236   9.366  68.262  1.00  0.00    -0.077 C  
HETATM   10  O   UNL     1      -6.066   9.286  68.596  1.00  0.00    -0.044 OA 
BRANCH   9  11
HETATM   11  C   UNL     1      -7.992   8.244  67.659  1.00  0.00    -0.118 A  
HETATM   12  C   UNL     1      -9.219   7.815  68.180  1.00  0.00    -0.138 A  
HETATM   13  C   UNL     1      -9.890   6.735  67.599  1.00  0.00    -0.128 A  
HETATM   14  C   UNL     1      -8.109   6.527  65.959  1.00  0.00    -0.121 A  
HETATM   15  C   UNL     1      -9.330   6.086  66.476  1.00  0.00    -0.152 A  
HETATM   16  C   UNL     1      -7.434   7.596  66.554  1.00  0.00    -0.092 A  
BRANCH  13  17
HETATM   17  O   UNL     1     -11.087   6.235  68.053  1.00  0.00    -0.333 OA 
HETATM   18  C   UNL     1     -11.307   6.219  69.456  1.00  0.00    -0.404 C  
ENDBRANCH  13  17
BRANCH  15  19
HETATM   19  O   UNL     1     -10.048   5.034  65.965  1.00  0.00    -0.195 OA 
HETATM   20  C   UNL     1      -9.556   3.724  66.212  1.00  0.00    -0.162 C  
ENDBRANCH  15  19
ENDBRANCH   9  11
ENDBRANCH   8   9
ENDBRANCH   7   8
ENDBRANCH   6   7
ENDBRANCH   5   6
ENDBRANCH   4   5
ENDBRANCH   3   4
BRANCH   3  21
HETATM   21  C   UNL     1     -11.886  12.116  68.145  1.00  0.00    -0.299 C  
HETATM   22  C   UNL     1     -11.518  10.658  67.818  1.00  0.00    -0.219 C  
BRANCH  21  23
HETATM   23  C   UNL     1     -11.886  12.292  69.693  1.00  0.00    -0.393 C  
BRANCH  23  24
HETATM   24  C   UNL     1     -11.887  11.011  70.501  1.00  0.00    -0.464 A  
HETATM   25  C   UNL     1     -13.029   9.451  71.985  1.00  0.00    -0.508 A  
HETATM   26  C   UNL     1     -11.885   8.658  72.056  1.00  0.00    -0.372 A  
HETATM   27  C   UNL     1     -10.739  10.215  70.589  1.00  0.00    -0.243 A  
HETATM   28  C   UNL     1     -10.744   9.043  71.350  1.00  0.00    -0.401 A  
HETATM   29  C   UNL     1     -13.028  10.620  71.213  1.00  0.00    -0.513 A  
BRANCH  26  30
HETATM   30  O   UNL     1     -11.779   7.471  72.727  1.00  0.00    -0.279 OA 
HETATM   31  C   UNL     1     -10.544   7.232  73.391  1.00  0.00    -0.389 C  
ENDBRANCH  26  30
ENDBRANCH  23  24
ENDBRANCH  21  23
ENDBRANCH   3  21
ENDBRANCH   2   3
TORSDOF 14
ENDMDL
MODEL      220
REMARK 921   NORMALIZED FREE ENERGY PREDICTED BY IDOCK:   -3.87 KCAL/MOL
REMARK 922        TOTAL FREE ENERGY PREDICTED BY IDOCK:   -9.84 KCAL/MOL
REMARK 923 INTER-LIGAND FREE ENERGY PREDICTED BY IDOCK:   -7.03 KCAL/MOL
REMARK 924 INTRA-LIGAND FREE ENERGY PREDICTED BY IDOCK:   -2.81 KCAL/MOL
REMARK 927      BINDING AFFINITY PREDICTED BY RF-SCORE:    0.00 PKD
ROOT
HETATM    1  C   UNL     1      -6.501  10.816  66.219  1.00  0.00    -0.134 C  
HETATM    2  C   UNL     1      -7.841  10.388  66.805  1.00  0.00    -0.117 C  
ENDROOT
BRANCH   2   3
HETATM    3  N   UNL     1      -9.050  10.746  66.054  1.00  0.00    -0.178 NA 
BRANCH   3   4
HETATM    4  C   UNL     1      -9.886   9.606  65.632  1.00  0.00    -0.299 C  
BRANCH   4   5
HETATM    5  C   UNL     1      -9.588   8.298  66.380  1.00  0.00    -0.300 C  
BRANCH   5   6
HETATM    6  C   UNL     1     -10.851   7.706  67.007  1.00  0.00    -0.219 C  
BRANCH   6   7
HETATM    7  C   UNL     1     -10.941   6.214  66.705  1.00  0.00    -0.245 C  
BRANCH   7   8
HETATM    8  O   UNL     1      -9.654   5.606  66.877  1.00  0.00    -0.128 OA 
BRANCH   8   9
HETATM    9  C   UNL     1      -9.587   4.668  67.855  1.00  0.00    -0.157 C  
HETATM   10  O   UNL     1      -9.669   3.460  67.712  1.00  0.00    -0.162 OA 
BRANCH   9  11
HETATM   11  C   UNL     1      -9.437   5.327  69.173  1.00  0.00    -0.184 A  
HETATM   12  C   UNL     1      -8.482   6.327  69.395  1.00  0.00    -0.125 A  
HETATM   13  C   UNL     1      -8.354   6.908  70.660  1.00  0.00    -0.128 A  
HETATM   14  C   UNL     1     -10.154   5.494  71.476  1.00  0.00    -0.260 A  
HETATM   15  C   UNL     1      -9.199   6.488  71.711  1.00  0.00    -0.149 A  
HETATM   16  C   UNL     1     -10.267   4.906  70.215  1.00  0.00    -0.299 A  
BRANCH  13  17
HETATM   17  O   UNL     1      -7.435   7.880  70.973  1.00  0.00    -0.070 OA 
HETATM   18  C   UNL     1      -6.312   8.031  70.117  1.00  0.00    -0.033 C  
ENDBRANCH  13  17
BRANCH  15  19
HETATM   19  O   UNL     1      -9.010   7.103  72.922  1.00  0.00    -0.127 OA 
HETATM   20  C   UNL     1     -10.090   7.080  73.846  1.00  0.00    -0.348 C  
ENDBRANCH  15  19
ENDBRANCH   9  11
ENDBRANCH   8   9
ENDBRANCH   7   8
ENDBRANCH   6   7
ENDBRANCH   5   6
ENDBRANCH   4   5
ENDBRANCH   3   4
BRANCH   3  21
HETATM   21  C   UNL     1      -9.854  11.882  66.571  1.00  0.00    -0.206 C  
HETATM   22  C   UNL     1     -11.374  11.750  66.367  1.00  0.00    -0.361 C  
BRANCH  21  23
HETATM   23  C   UNL     1      -9.584  12.246  68.061  1.00  0.00    -0.206 C  
BRANCH  23  24
HETATM   24  C   UNL     1     -10.422  11.505  69.082  1.00  0.00    -0.135 A  
HETATM   25  C   UNL     1     -12.362  11.411  70.554  1.00  0.00    -0.439 A  
HETATM   26  C   UNL     1     -11.962  10.163  71.026  1.00  0.00    -0.378 A  
HETATM   27  C   UNL     1     -10.021  10.257  69.573  1.00  0.00    -0.252 A  
HETATM   28  C   UNL     1     -10.793   9.588  70.527  1.00  0.00    -0.352 A  
HETATM   29  C   UNL     1     -11.596  12.077  69.589  1.00  0.00    -0.371 A  
BRANCH  26  30
HETATM   30  O   UNL     1     -12.652   9.392  71.922  1.00  0.00    -0.358 OA 
HETATM   31  C   UNL     1     -12.863   8.034  71.551  1.00  0.00    -0.311 C  
ENDBRANCH  26  30
ENDBRANCH  23  24
ENDBRANCH  21  23
ENDBRANCH   3  21
ENDBRANCH   2   3
TORSDOF 14
ENDMDL
MODEL      221
REMARK 921   NORMALIZED FREE ENERGY PREDICTED BY IDOCK:   -3.87 KCAL/MOL
REMARK 922        TOTAL FREE ENERGY PREDICTED BY IDOCK:   -9.82 KCAL/MOL
REMARK 923 INTER-LIGAND FREE ENERGY PREDICTED BY IDOCK:   -7.98 KCAL/MOL
REMARK 924 INTRA-LIGAND FREE ENERGY PREDICTED BY IDOCK:   -1.84 KCAL/MOL
REMARK 927      BINDING AFFINITY PREDICTED BY RF-SCORE:    0.00 PKD
ROOT
HETATM    1  C   UNL     1      -9.885  16.901  67.607  1.00  0.00    -0.259 C  
HETATM    2  C   UNL     1      -9.713  16.207  66.261  1.00  0.00    -0.307 C  
ENDROOT
BRANCH   2   3
HETATM    3  N   UNL     1      -9.358  14.783  66.277  1.00  0.00    -0.292 NA 
BRANCH   3   4
HETATM    4  C   UNL     1      -8.734  14.306  67.525  1.00  0.00    -0.199 C  
BRANCH   4   5
HETATM    5  C   UNL     1      -7.236  13.986  67.396  1.00  0.00    -0.117 C  
BRANCH   5   6
HETATM    6  C   UNL     1      -6.758  13.060  68.515  1.00  0.00    -0.092 C  
BRANCH   6   7
HETATM    7  C   UNL     1      -6.930  11.602  68.102  1.00  0.00    -0.071 C  
BRANCH   7   8
HETATM    8  O   UNL     1      -8.081  11.046  68.752  1.00  0.00    -0.134 OA 
BRANCH   8   9
HETATM    9  C   UNL     1      -7.820  10.338  69.879  1.00  0.00    -0.104 C  
HETATM   10  O   UNL     1      -6.840  10.447  70.596  1.00  0.00    -0.328 OA 
BRANCH   9  11
HETATM   11  C   UNL     1      -8.897   9.349  70.111  1.00  0.00    -0.249 A  
HETATM   12  C   UNL     1      -9.453   8.602  69.065  1.00  0.00    -0.153 A  
HETATM   13  C   UNL     1     -10.487   7.696  69.320  1.00  0.00    -0.218 A  
HETATM   14  C   UNL     1     -10.394   8.276  71.679  1.00  0.00    -0.289 A  
HETATM   15  C   UNL     1     -10.961   7.530  70.641  1.00  0.00    -0.249 A  
HETATM   16  C   UNL     1      -9.373   9.191  71.416  1.00  0.00    -0.246 A  
BRANCH  13  17
HETATM   17  O   UNL     1     -11.103   6.937  68.356  1.00  0.00    -0.164 OA 
HETATM   18  C   UNL     1     -10.367   5.862  67.789  1.00  0.00    -0.210 C  
ENDBRANCH  13  17
BRANCH  15  19
HETATM   19  O   UNL     1     -11.978   6.625  70.809  1.00  0.00    -0.382 OA 
HETATM   20  C   UNL     1     -13.155   7.077  71.465  1.00  0.00    -0.339 C  
ENDBRANCH  15  19
ENDBRANCH   9  11
ENDBRANCH   8   9
ENDBRANCH   7   8
ENDBRANCH   6   7
ENDBRANCH   5   6
ENDBRANCH   4   5
ENDBRANCH   3   4
BRANCH   3  21
HETATM   21  C   UNL     1     -10.365  13.831  65.743  1.00  0.00    -0.307 C  
HETATM   22  C   UNL     1      -9.907  12.363  65.687  1.00  0.00    -0.235 C  
BRANCH  21  23
HETATM   23  C   UNL     1     -11.755  13.890  66.445  1.00  0.00    -0.403 C  
BRANCH  23  24
HETATM   24  C   UNL     1     -11.847  13.185  67.782  1.00  0.00    -0.392 A  
HETATM   25  C   UNL     1     -11.986  11.126  69.078  1.00  0.00    -0.389 A  
HETATM   26  C   UNL     1     -12.077  11.858  70.260  1.00  0.00    -0.325 A  
HETATM   27  C   UNL     1     -11.952  13.912  68.974  1.00  0.00    -0.402 A  
HETATM   28  C   UNL     1     -12.053  13.252  70.201  1.00  0.00    -0.403 A  
HETATM   29  C   UNL     1     -11.873  11.786  67.848  1.00  0.00    -0.289 A  
BRANCH  26  30
HETATM   30  O   UNL     1     -12.135  11.331  71.521  1.00  0.00    -0.086 OA 
HETATM   31  C   UNL     1     -13.330  10.636  71.858  1.00  0.00    -0.349 C  
ENDBRANCH  26  30
ENDBRANCH  23  24
ENDBRANCH  21  23
ENDBRANCH   3  21
ENDBRANCH   2   3
TORSDOF 14
ENDMDL
MODEL      222
REMARK 921   NORMALIZED FREE ENERGY PREDICTED BY IDOCK:   -3.85 KCAL/MOL
REMARK 922        TOTAL FREE ENERGY PREDICTED BY IDOCK:   -9.79 KCAL/MOL
REMARK 923 INTER-LIGAND FREE ENERGY PREDICTED BY IDOCK:   -8.04 KCAL/MOL
REMARK 924 INTRA-LIGAND FREE ENERGY PREDICTED BY IDOCK:   -1.75 KCAL/MOL
REMARK 927      BINDING AFFINITY PREDICTED BY RF-SCORE:    0.00 PKD
ROOT
HETATM    1  C   UNL     1     -10.328  16.045  68.445  1.00  0.00    -0.251 C  
HETATM    2  C   UNL     1     -10.985  15.202  67.359  1.00  0.00    -0.314 C  
ENDROOT
BRANCH   2   3
HETATM    3  N   UNL     1     -11.321  13.813  67.692  1.00  0.00    -0.290 NA 
BRANCH   3   4
HETATM    4  C   UNL     1     -12.111  13.638  68.925  1.00  0.00    -0.300 C  
BRANCH   4   5
HETATM    5  C   UNL     1     -11.547  12.581  69.888  1.00  0.00    -0.242 C  
BRANCH   5   6
HETATM    6  C   UNL     1     -12.575  11.491  70.194  1.00  0.00    -0.145 C  
BRANCH   6   7
HETATM    7  C   UNL     1     -12.040  10.549  71.267  1.00  0.00    -0.332 C  
BRANCH   7   8
HETATM    8  O   UNL     1     -11.883   9.232  70.722  1.00  0.00    -0.281 OA 
BRANCH   8   9
HETATM    9  C   UNL     1     -12.520   8.247  71.404  1.00  0.00    -0.292 C  
HETATM   10  O   UNL     1     -13.726   8.113  71.532  1.00  0.00    -0.344 OA 
BRANCH   9  11
HETATM   11  C   UNL     1     -11.526   7.348  72.033  1.00  0.00    -0.310 A  
HETATM   12  C   UNL     1     -11.324   6.038  71.581  1.00  0.00    -0.313 A  
HETATM   13  C   UNL     1     -10.395   5.210  72.217  1.00  0.00    -0.211 A  
HETATM   14  C   UNL     1      -9.855   7.018  73.750  1.00  0.00    -0.341 A  
HETATM   15  C   UNL     1      -9.651   5.706  73.312  1.00  0.00    -0.146 A  
HETATM   16  C   UNL     1     -10.797   7.835  73.121  1.00  0.00    -0.401 A  
BRANCH  13  17
HETATM   17  O   UNL     1     -10.144   3.909  71.855  1.00  0.00    -0.180 OA 
HETATM   18  C   UNL     1      -9.456   3.682  70.633  1.00  0.00    -0.172 C  
ENDBRANCH  13  17
BRANCH  15  19
HETATM   19  O   UNL     1      -8.762   4.832  73.883  1.00  0.00    -0.106 OA 
HETATM   20  C   UNL     1      -7.377   5.124  73.748  1.00  0.00    -0.083 C  
ENDBRANCH  15  19
ENDBRANCH   9  11
ENDBRANCH   8   9
ENDBRANCH   7   8
ENDBRANCH   6   7
ENDBRANCH   5   6
ENDBRANCH   4   5
ENDBRANCH   3   4
BRANCH   3  21
HETATM   21  C   UNL     1     -11.797  12.949  66.583  1.00  0.00    -0.395 C  
HETATM   22  C   UNL     1     -12.759  13.631  65.594  1.00  0.00    -0.505 C  
BRANCH  21  23
HETATM   23  C   UNL     1     -10.667  12.249  65.771  1.00  0.00    -0.298 C  
BRANCH  23  24
HETATM   24  C   UNL     1     -10.382  10.809  66.147  1.00  0.00    -0.300 A  
HETATM   25  C   UNL     1      -9.239   8.701  65.716  1.00  0.00    -0.245 A  
HETATM   26  C   UNL     1      -9.886   8.111  66.801  1.00  0.00    -0.259 A  
HETATM   27  C   UNL     1     -11.037  10.205  67.227  1.00  0.00    -0.166 A  
HETATM   28  C   UNL     1     -10.780   8.871  67.556  1.00  0.00    -0.223 A  
HETATM   29  C   UNL     1      -9.487  10.040  65.392  1.00  0.00    -0.310 A  
BRANCH  26  30
HETATM   30  O   UNL     1      -9.687   6.834  67.249  1.00  0.00    -0.129 OA 
HETATM   31  C   UNL     1      -9.285   5.881  66.272  1.00  0.00    -0.158 C  
ENDBRANCH  26  30
ENDBRANCH  23  24
ENDBRANCH  21  23
ENDBRANCH   3  21
ENDBRANCH   2   3
TORSDOF 14
ENDMDL
MODEL      223
REMARK 921   NORMALIZED FREE ENERGY PREDICTED BY IDOCK:   -3.84 KCAL/MOL
REMARK 922        TOTAL FREE ENERGY PREDICTED BY IDOCK:   -9.78 KCAL/MOL
REMARK 923 INTER-LIGAND FREE ENERGY PREDICTED BY IDOCK:   -6.47 KCAL/MOL
REMARK 924 INTRA-LIGAND FREE ENERGY PREDICTED BY IDOCK:   -3.30 KCAL/MOL
REMARK 927      BINDING AFFINITY PREDICTED BY RF-SCORE:    0.00 PKD
ROOT
HETATM    1  C   UNL     1     -12.119  13.897  69.602  1.00  0.00    -0.404 C  
HETATM    2  C   UNL     1     -11.126  13.866  68.447  1.00  0.00    -0.255 C  
ENDROOT
BRANCH   2   3
HETATM    3  N   UNL     1     -11.671  13.941  67.086  1.00  0.00    -0.366 NA 
BRANCH   3   4
HETATM    4  C   UNL     1     -11.074  14.981  66.228  1.00  0.00    -0.334 C  
BRANCH   4   5
HETATM    5  C   UNL     1      -9.588  14.753  65.906  1.00  0.00    -0.320 C  
BRANCH   5   6
HETATM    6  C   UNL     1      -8.688  15.719  66.678  1.00  0.00    -0.323 C  
BRANCH   6   7
HETATM    7  C   UNL     1      -7.614  14.947  67.435  1.00  0.00    -0.204 C  
BRANCH   7   8
HETATM    8  O   UNL     1      -7.791  13.539  67.229  1.00  0.00    -0.156 OA 
BRANCH   8   9
HETATM    9  C   UNL     1      -7.267  12.745  68.196  1.00  0.00    -0.115 C  
HETATM   10  O   UNL     1      -6.915  13.092  69.311  1.00  0.00    -0.074 OA 
BRANCH   9  11
HETATM   11  C   UNL     1      -7.132  11.360  67.690  1.00  0.00    -0.092 A  
HETATM   12  C   UNL     1      -7.178  10.253  68.546  1.00  0.00    -0.080 A  
HETATM   13  C   UNL     1      -7.021   8.962  68.035  1.00  0.00    -0.078 A  
HETATM   14  C   UNL     1      -6.789   9.890  65.801  1.00  0.00    -0.104 A  
HETATM   15  C   UNL     1      -6.826   8.779  66.647  1.00  0.00    -0.072 A  
HETATM   16  C   UNL     1      -6.930  11.179  66.320  1.00  0.00    -0.052 A  
BRANCH  13  17
HETATM   17  O   UNL     1      -7.034   7.821  68.800  1.00  0.00    -0.063 OA 
HETATM   18  C   UNL     1      -7.311   7.957  70.187  1.00  0.00    -0.070 C  
ENDBRANCH  13  17
BRANCH  15  19
HETATM   19  O   UNL     1      -6.678   7.482  66.224  1.00  0.00    -0.054 OA 
HETATM   20  C   UNL     1      -7.472   7.057  65.124  1.00  0.00    -0.094 C  
ENDBRANCH  15  19
ENDBRANCH   9  11
ENDBRANCH   8   9
ENDBRANCH   7   8
ENDBRANCH   6   7
ENDBRANCH   5   6
ENDBRANCH   4   5
ENDBRANCH   3   4
BRANCH   3  21
HETATM   21  C   UNL     1     -11.873  12.657  66.370  1.00  0.00    -0.402 C  
HETATM   22  C   UNL     1     -12.537  12.780  64.987  1.00  0.00    -0.538 C  
BRANCH  21  23
HETATM   23  C   UNL     1     -10.592  11.780  66.227  1.00  0.00    -0.292 C  
BRANCH  23  24
HETATM   24  C   UNL     1     -10.588  10.489  67.018  1.00  0.00    -0.310 A  
HETATM   25  C   UNL     1     -10.433   8.058  67.091  1.00  0.00    -0.408 A  
HETATM   26  C   UNL     1     -10.635   8.072  68.470  1.00  0.00    -0.103 A  
HETATM   27  C   UNL     1     -10.803  10.491  68.401  1.00  0.00    -0.284 A  
HETATM   28  C   UNL     1     -10.814   9.293  69.120  1.00  0.00    -0.154 A  
HETATM   29  C   UNL     1     -10.411   9.259  66.371  1.00  0.00    -0.238 A  
BRANCH  26  30
HETATM   30  O   UNL     1     -10.621   6.975  69.288  1.00  0.00    -0.210 OA 
HETATM   31  C   UNL     1     -10.355   5.726  68.660  1.00  0.00    -0.221 C  
ENDBRANCH  26  30
ENDBRANCH  23  24
ENDBRANCH  21  23
ENDBRANCH   3  21
ENDBRANCH   2   3
TORSDOF 14
ENDMDL
MODEL      224
REMARK 921   NORMALIZED FREE ENERGY PREDICTED BY IDOCK:   -3.84 KCAL/MOL
REMARK 922        TOTAL FREE ENERGY PREDICTED BY IDOCK:   -9.77 KCAL/MOL
REMARK 923 INTER-LIGAND FREE ENERGY PREDICTED BY IDOCK:   -7.78 KCAL/MOL
REMARK 924 INTRA-LIGAND FREE ENERGY PREDICTED BY IDOCK:   -1.99 KCAL/MOL
REMARK 927      BINDING AFFINITY PREDICTED BY RF-SCORE:    0.00 PKD
ROOT
HETATM    1  C   UNL     1      -6.002   9.471  66.986  1.00  0.00    -0.056 C  
HETATM    2  C   UNL     1      -6.950   8.474  66.329  1.00  0.00    -0.077 C  
ENDROOT
BRANCH   2   3
HETATM    3  N   UNL     1      -8.257   8.267  66.963  1.00  0.00    -0.103 NA 
BRANCH   3   4
HETATM    4  C   UNL     1      -9.167   9.427  66.918  1.00  0.00    -0.140 C  
BRANCH   4   5
HETATM    5  C   UNL     1      -9.582   9.954  68.300  1.00  0.00    -0.151 C  
BRANCH   5   6
HETATM    6  C   UNL     1     -11.102  10.064  68.429  1.00  0.00    -0.236 C  
BRANCH   6   7
HETATM    7  C   UNL     1     -11.467  10.991  69.584  1.00  0.00    -0.303 C  
BRANCH   7   8
HETATM    8  O   UNL     1     -10.841  12.268  69.397  1.00  0.00    -0.109 OA 
BRANCH   8   9
HETATM    9  C   UNL     1     -11.656  13.339  69.568  1.00  0.00    -0.286 C  
HETATM   10  O   UNL     1     -12.561  13.443  70.379  1.00  0.00    -0.259 OA 
BRANCH   9  11
HETATM   11  C   UNL     1     -11.322  14.387  68.577  1.00  0.00    -0.307 A  
HETATM   12  C   UNL     1     -11.380  14.146  67.198  1.00  0.00    -0.348 A  
HETATM   13  C   UNL     1     -11.032  15.153  66.294  1.00  0.00    -0.335 A  
HETATM   14  C   UNL     1     -10.587  16.652  68.155  1.00  0.00    -0.336 A  
HETATM   15  C   UNL     1     -10.633  16.419  66.777  1.00  0.00    -0.238 A  
HETATM   16  C   UNL     1     -10.919  15.637  69.054  1.00  0.00    -0.263 A  
BRANCH  13  17
HETATM   17  O   UNL     1     -11.041  15.001  64.928  1.00  0.00    -0.387 OA 
HETATM   18  C   UNL     1     -12.155  14.343  64.342  1.00  0.00    -0.470 C  
ENDBRANCH  13  17
BRANCH  15  19
HETATM   19  O   UNL     1     -10.305  17.353  65.827  1.00  0.00    -0.543 OA 
HETATM   20  C   UNL     1     -10.257  18.714  66.235  1.00  0.00    -0.427 C  
ENDBRANCH  15  19
ENDBRANCH   9  11
ENDBRANCH   8   9
ENDBRANCH   7   8
ENDBRANCH   6   7
ENDBRANCH   5   6
ENDBRANCH   4   5
ENDBRANCH   3   4
BRANCH   3  21
HETATM   21  C   UNL     1      -8.950   6.986  66.675  1.00  0.00    -0.142 C  
HETATM   22  C   UNL     1      -8.439   6.233  65.435  1.00  0.00    -0.131 C  
BRANCH  21  23
HETATM   23  C   UNL     1      -9.004   5.991  67.873  1.00  0.00    -0.118 C  
BRANCH  23  24
HETATM   24  C   UNL     1      -9.870   6.413  69.042  1.00  0.00    -0.155 A  
HETATM   25  C   UNL     1     -10.095   7.445  71.238  1.00  0.00    -0.195 A  
HETATM   26  C   UNL     1     -11.458   7.155  71.251  1.00  0.00    -0.282 A  
HETATM   27  C   UNL     1     -11.237   6.114  69.069  1.00  0.00    -0.375 A  
HETATM   28  C   UNL     1     -12.024   6.494  70.160  1.00  0.00    -0.200 A  
HETATM   29  C   UNL     1      -9.307   7.075  70.141  1.00  0.00    -0.162 A  
BRANCH  26  30
HETATM   30  O   UNL     1     -12.339   7.512  72.234  1.00  0.00    -0.253 OA 
HETATM   31  C   UNL     1     -12.697   8.888  72.288  1.00  0.00    -0.397 C  
ENDBRANCH  26  30
ENDBRANCH  23  24
ENDBRANCH  21  23
ENDBRANCH   3  21
ENDBRANCH   2   3
TORSDOF 14
ENDMDL
MODEL      225
REMARK 921   NORMALIZED FREE ENERGY PREDICTED BY IDOCK:   -3.83 KCAL/MOL
REMARK 922        TOTAL FREE ENERGY PREDICTED BY IDOCK:   -9.75 KCAL/MOL
REMARK 923 INTER-LIGAND FREE ENERGY PREDICTED BY IDOCK:   -8.18 KCAL/MOL
REMARK 924 INTRA-LIGAND FREE ENERGY PREDICTED BY IDOCK:   -1.56 KCAL/MOL
REMARK 927      BINDING AFFINITY PREDICTED BY RF-SCORE:    0.00 PKD
ROOT
HETATM    1  C   UNL     1     -10.432   7.671  67.539  1.00  0.00    -0.336 C  
HETATM    2  C   UNL     1     -10.349   7.857  69.050  1.00  0.00    -0.214 C  
ENDROOT
BRANCH   2   3
HETATM    3  N   UNL     1     -10.147   9.220  69.552  1.00  0.00    -0.190 NA 
BRANCH   3   4
HETATM    4  C   UNL     1     -10.011  10.257  68.513  1.00  0.00    -0.164 C  
BRANCH   4   5
HETATM    5  C   UNL     1      -8.557  10.618  68.171  1.00  0.00    -0.123 C  
BRANCH   5   6
HETATM    6  C   UNL     1      -8.460  11.386  66.852  1.00  0.00    -0.157 C  
BRANCH   6   7
HETATM    7  C   UNL     1      -9.692  11.117  65.994  1.00  0.00    -0.226 C  
BRANCH   7   8
HETATM    8  O   UNL     1     -10.220  12.356  65.503  1.00  0.00    -0.265 OA 
BRANCH   8   9
HETATM    9  C   UNL     1     -11.482  12.645  65.909  1.00  0.00    -0.363 C  
HETATM   10  O   UNL     1     -12.518  12.221  65.424  1.00  0.00    -0.596 OA 
BRANCH   9  11
HETATM   11  C   UNL     1     -11.440  13.610  67.032  1.00  0.00    -0.368 A  
HETATM   12  C   UNL     1     -10.482  14.629  67.094  1.00  0.00    -0.268 A  
HETATM   13  C   UNL     1     -10.457  15.505  68.183  1.00  0.00    -0.259 A  
HETATM   14  C   UNL     1     -12.369  14.348  69.139  1.00  0.00    -0.156 A  
HETATM   15  C   UNL     1     -11.412  15.364  69.215  1.00  0.00    -0.333 A  
HETATM   16  C   UNL     1     -12.378  13.465  68.057  1.00  0.00     0.061 A  
BRANCH  13  17
HETATM   17  O   UNL     1      -9.545  16.520  68.337  1.00  0.00    -0.220 OA 
HETATM   18  C   UNL     1      -8.363  16.242  69.075  1.00  0.00    -0.239 C  
ENDBRANCH  13  17
BRANCH  15  19
HETATM   19  O   UNL     1     -11.321  16.260  70.250  1.00  0.00    -0.355 OA 
HETATM   20  C   UNL     1     -11.097  15.737  71.552  1.00  0.00    -0.108 C  
ENDBRANCH  15  19
ENDBRANCH   9  11
ENDBRANCH   8   9
ENDBRANCH   7   8
ENDBRANCH   6   7
ENDBRANCH   5   6
ENDBRANCH   4   5
ENDBRANCH   3   4
BRANCH   3  21
HETATM   21  C   UNL     1     -11.003   9.656  70.684  1.00  0.00    -0.320 C  
HETATM   22  C   UNL     1     -11.773  10.968  70.450  1.00  0.00    -0.437 C  
BRANCH  21  23
HETATM   23  C   UNL     1     -12.005   8.578  71.196  1.00  0.00    -0.306 C  
BRANCH  23  24
HETATM   24  C   UNL     1     -11.421   7.519  72.109  1.00  0.00    -0.334 A  
HETATM   25  C   UNL     1      -9.847   6.868  73.851  1.00  0.00    -0.340 A  
HETATM   26  C   UNL     1     -10.285   5.547  73.774  1.00  0.00    -0.227 A  
HETATM   27  C   UNL     1     -11.845   6.187  72.029  1.00  0.00    -0.336 A  
HETATM   28  C   UNL     1     -11.289   5.215  72.864  1.00  0.00    -0.354 A  
HETATM   29  C   UNL     1     -10.411   7.846  73.023  1.00  0.00    -0.410 A  
BRANCH  26  30
HETATM   30  O   UNL     1      -9.853   4.517  74.565  1.00  0.00    -0.145 OA 
HETATM   31  C   UNL     1      -9.493   3.316  73.892  1.00  0.00    -0.095 C  
ENDBRANCH  26  30
ENDBRANCH  23  24
ENDBRANCH  21  23
ENDBRANCH   3  21
ENDBRANCH   2   3
TORSDOF 14
ENDMDL
MODEL      226
REMARK 921   NORMALIZED FREE ENERGY PREDICTED BY IDOCK:   -3.82 KCAL/MOL
REMARK 922        TOTAL FREE ENERGY PREDICTED BY IDOCK:   -9.74 KCAL/MOL
REMARK 923 INTER-LIGAND FREE ENERGY PREDICTED BY IDOCK:   -8.05 KCAL/MOL
REMARK 924 INTRA-LIGAND FREE ENERGY PREDICTED BY IDOCK:   -1.68 KCAL/MOL
REMARK 927      BINDING AFFINITY PREDICTED BY RF-SCORE:    0.00 PKD
ROOT
HETATM    1  C   UNL     1      -5.178  13.265  70.847  1.00  0.00    -0.148 C  
HETATM    2  C   UNL     1      -6.135  12.543  69.907  1.00  0.00    -0.130 C  
ENDROOT
BRANCH   2   3
HETATM    3  N   UNL     1      -5.816  12.562  68.475  1.00  0.00    -0.054 NA 
BRANCH   3   4
HETATM    4  C   UNL     1      -5.579  11.239  67.868  1.00  0.00    -0.043 C  
BRANCH   4   5
HETATM    5  C   UNL     1      -5.189  11.290  66.382  1.00  0.00    -0.131 C  
BRANCH   5   6
HETATM    6  C   UNL     1      -5.795  10.126  65.598  1.00  0.00    -0.079 C  
BRANCH   6   7
HETATM    7  C   UNL     1      -7.165   9.767  66.163  1.00  0.00    -0.100 C  
BRANCH   7   8
HETATM    8  O   UNL     1      -8.179  10.035  65.186  1.00  0.00    -0.133 OA 
BRANCH   8   9
HETATM    9  C   UNL     1      -9.449   9.782  65.590  1.00  0.00    -0.246 C  
HETATM   10  O   UNL     1      -9.868   8.740  66.065  1.00  0.00    -0.258 OA 
BRANCH   9  11
HETATM   11  C   UNL     1     -10.303  10.964  65.329  1.00  0.00    -0.334 A  
HETATM   12  C   UNL     1     -10.912  11.678  66.369  1.00  0.00    -0.345 A  
HETATM   13  C   UNL     1     -11.733  12.773  66.082  1.00  0.00    -0.403 A  
HETATM   14  C   UNL     1     -11.317  12.446  63.710  1.00  0.00    -0.536 A  
HETATM   15  C   UNL     1     -11.936  13.162  64.739  1.00  0.00    -0.388 A  
HETATM   16  C   UNL     1     -10.511  11.343  64.001  1.00  0.00    -0.435 A  
BRANCH  13  17
HETATM   17  O   UNL     1     -12.384  13.520  67.033  1.00  0.00    -0.335 OA 
HETATM   18  C   UNL     1     -11.737  13.711  68.283  1.00  0.00    -0.363 C  
ENDBRANCH  13  17
BRANCH  15  19
HETATM   19  O   UNL     1     -12.756  14.243  64.540  1.00  0.00    -0.662 OA 
HETATM   20  C   UNL     1     -12.137  15.494  64.271  1.00  0.00    -0.116 C  
ENDBRANCH  15  19
ENDBRANCH   9  11
ENDBRANCH   8   9
ENDBRANCH   7   8
ENDBRANCH   6   7
ENDBRANCH   5   6
ENDBRANCH   4   5
ENDBRANCH   3   4
BRANCH   3  21
HETATM   21  C   UNL     1      -6.639  13.446  67.612  1.00  0.00    -0.167 C  
HETATM   22  C   UNL     1      -8.155  13.187  67.672  1.00  0.00    -0.176 C  
BRANCH  21  23
HETATM   23  C   UNL     1      -6.389  14.971  67.814  1.00  0.00    -0.176 C  
BRANCH  23  24
HETATM   24  C   UNL     1      -7.596  15.866  67.627  1.00  0.00    -0.171 A  
HETATM   25  C   UNL     1      -9.201  16.967  66.161  1.00  0.00    -0.244 A  
HETATM   26  C   UNL     1      -9.807  17.578  67.257  1.00  0.00    -0.294 A  
HETATM   27  C   UNL     1      -8.203  16.494  68.721  1.00  0.00    -0.248 A  
HETATM   28  C   UNL     1      -9.306  17.332  68.536  1.00  0.00    -0.276 A  
HETATM   29  C   UNL     1      -8.102  16.119  66.345  1.00  0.00    -0.305 A  
BRANCH  26  30
HETATM   30  O   UNL     1     -10.915  18.378  67.212  1.00  0.00    -0.337 OA 
HETATM   31  C   UNL     1     -10.677  19.773  67.057  1.00  0.00    -0.418 C  
ENDBRANCH  26  30
ENDBRANCH  23  24
ENDBRANCH  21  23
ENDBRANCH   3  21
ENDBRANCH   2   3
TORSDOF 14
ENDMDL
MODEL      227
REMARK 921   NORMALIZED FREE ENERGY PREDICTED BY IDOCK:   -3.79 KCAL/MOL
REMARK 922        TOTAL FREE ENERGY PREDICTED BY IDOCK:   -9.69 KCAL/MOL
REMARK 923 INTER-LIGAND FREE ENERGY PREDICTED BY IDOCK:   -7.73 KCAL/MOL
REMARK 924 INTRA-LIGAND FREE ENERGY PREDICTED BY IDOCK:   -1.96 KCAL/MOL
REMARK 927      BINDING AFFINITY PREDICTED BY RF-SCORE:    0.00 PKD
ROOT
HETATM    1  C   UNL     1     -11.734  15.744  69.169  1.00  0.00    -0.398 C  
HETATM    2  C   UNL     1     -10.705  14.643  68.940  1.00  0.00    -0.248 C  
ENDROOT
BRANCH   2   3
HETATM    3  N   UNL     1      -9.894  14.721  67.720  1.00  0.00    -0.214 NA 
BRANCH   3   4
HETATM    4  C   UNL     1     -10.392  15.656  66.695  1.00  0.00    -0.289 C  
BRANCH   4   5
HETATM    5  C   UNL     1     -10.759  14.988  65.360  1.00  0.00    -0.389 C  
BRANCH   5   6
HETATM    6  C   UNL     1     -12.082  14.227  65.455  1.00  0.00    -0.397 C  
BRANCH   6   7
HETATM    7  C   UNL     1     -11.821  12.731  65.592  1.00  0.00    -0.425 C  
BRANCH   7   8
HETATM    8  O   UNL     1     -10.449  12.448  65.287  1.00  0.00    -0.272 OA 
BRANCH   8   9
HETATM    9  C   UNL     1     -10.201  11.178  64.879  1.00  0.00    -0.303 C  
HETATM   10  O   UNL     1     -10.534  10.675  63.819  1.00  0.00    -0.246 OA 
BRANCH   9  11
HETATM   11  C   UNL     1      -9.483  10.440  65.944  1.00  0.00    -0.237 A  
HETATM   12  C   UNL     1     -10.140   9.973  67.090  1.00  0.00    -0.265 A  
HETATM   13  C   UNL     1      -9.424   9.303  68.086  1.00  0.00    -0.138 A  
HETATM   14  C   UNL     1      -7.393   9.554  66.775  1.00  0.00    -0.090 A  
HETATM   15  C   UNL     1      -8.036   9.090  67.926  1.00  0.00    -0.106 A  
HETATM   16  C   UNL     1      -8.110  10.237  65.791  1.00  0.00    -0.149 A  
BRANCH  13  17
HETATM   17  O   UNL     1      -9.979   8.827  69.249  1.00  0.00    -0.183 OA 
HETATM   18  C   UNL     1     -10.352   9.773  70.240  1.00  0.00    -0.291 C  
ENDBRANCH  13  17
BRANCH  15  19
HETATM   19  O   UNL     1      -7.405   8.428  68.948  1.00  0.00    -0.085 OA 
HETATM   20  C   UNL     1      -6.524   9.180  69.771  1.00  0.00    -0.039 C  
ENDBRANCH  15  19
ENDBRANCH   9  11
ENDBRANCH   8   9
ENDBRANCH   7   8
ENDBRANCH   6   7
ENDBRANCH   5   6
ENDBRANCH   4   5
ENDBRANCH   3   4
BRANCH   3  21
HETATM   21  C   UNL     1      -8.422  14.796  67.894  1.00  0.00    -0.155 C  
HETATM   22  C   UNL     1      -7.660  13.500  67.566  1.00  0.00    -0.176 C  
BRANCH  21  23
HETATM   23  C   UNL     1      -7.736  15.977  67.142  1.00  0.00    -0.242 C  
BRANCH  23  24
HETATM   24  C   UNL     1      -7.384  17.181  67.991  1.00  0.00    -0.191 A  
HETATM   25  C   UNL     1      -7.895  19.428  68.784  1.00  0.00    -0.392 A  
HETATM   26  C   UNL     1      -6.712  19.453  69.520  1.00  0.00    -0.292 A  
HETATM   27  C   UNL     1      -6.191  17.221  68.723  1.00  0.00    -0.176 A  
HETATM   28  C   UNL     1      -5.867  18.343  69.490  1.00  0.00    -0.249 A  
HETATM   29  C   UNL     1      -8.227  18.299  68.024  1.00  0.00    -0.274 A  
BRANCH  26  30
HETATM   30  O   UNL     1      -6.307  20.470  70.341  1.00  0.00    -0.455 OA 
HETATM   31  C   UNL     1      -5.690  20.083  71.563  1.00  0.00    -0.368 C  
ENDBRANCH  26  30
ENDBRANCH  23  24
ENDBRANCH  21  23
ENDBRANCH   3  21
ENDBRANCH   2   3
TORSDOF 14
ENDMDL
MODEL      228
REMARK 921   NORMALIZED FREE ENERGY PREDICTED BY IDOCK:   -3.79 KCAL/MOL
REMARK 922        TOTAL FREE ENERGY PREDICTED BY IDOCK:   -9.69 KCAL/MOL
REMARK 923 INTER-LIGAND FREE ENERGY PREDICTED BY IDOCK:   -7.87 KCAL/MOL
REMARK 924 INTRA-LIGAND FREE ENERGY PREDICTED BY IDOCK:   -1.82 KCAL/MOL
REMARK 927      BINDING AFFINITY PREDICTED BY RF-SCORE:    0.00 PKD
ROOT
HETATM    1  C   UNL     1     -12.098  11.908  70.377  1.00  0.00    -0.421 C  
HETATM    2  C   UNL     1     -12.242  10.406  70.159  1.00  0.00    -0.229 C  
ENDROOT
BRANCH   2   3
HETATM    3  N   UNL     1     -11.094   9.695  69.585  1.00  0.00    -0.223 NA 
BRANCH   3   4
HETATM    4  C   UNL     1     -10.014  10.558  69.074  1.00  0.00    -0.211 C  
BRANCH   4   5
HETATM    5  C   UNL     1      -9.573  10.230  67.639  1.00  0.00    -0.173 C  
BRANCH   5   6
HETATM    6  C   UNL     1      -8.052  10.124  67.525  1.00  0.00    -0.113 C  
BRANCH   6   7
HETATM    7  C   UNL     1      -7.473  11.422  66.972  1.00  0.00    -0.147 C  
BRANCH   7   8
HETATM    8  O   UNL     1      -7.179  12.321  68.050  1.00  0.00    -0.085 OA 
BRANCH   8   9
HETATM    9  C   UNL     1      -7.251  13.639  67.736  1.00  0.00    -0.164 C  
HETATM   10  O   UNL     1      -6.372  14.315  67.231  1.00  0.00    -0.296 OA 
BRANCH   9  11
HETATM   11  C   UNL     1      -8.568  14.180  68.142  1.00  0.00    -0.175 A  
HETATM   12  C   UNL     1      -9.733  13.916  67.411  1.00  0.00    -0.234 A  
HETATM   13  C   UNL     1     -10.954  14.466  67.811  1.00  0.00    -0.274 A  
HETATM   14  C   UNL     1      -9.842  15.533  69.690  1.00  0.00    -0.281 A  
HETATM   15  C   UNL     1     -11.009  15.282  68.963  1.00  0.00    -0.254 A  
HETATM   16  C   UNL     1      -8.622  14.994  69.276  1.00  0.00    -0.167 A  
BRANCH  13  17
HETATM   17  O   UNL     1     -12.141  14.277  67.145  1.00  0.00    -0.423 OA 
HETATM   18  C   UNL     1     -12.145  13.386  66.039  1.00  0.00    -0.438 C  
ENDBRANCH  13  17
BRANCH  15  19
HETATM   19  O   UNL     1     -12.243  15.786  69.288  1.00  0.00    -0.298 OA 
HETATM   20  C   UNL     1     -12.710  15.573  70.613  1.00  0.00    -0.436 C  
ENDBRANCH  15  19
ENDBRANCH   9  11
ENDBRANCH   8   9
ENDBRANCH   7   8
ENDBRANCH   6   7
ENDBRANCH   5   6
ENDBRANCH   4   5
ENDBRANCH   3   4
BRANCH   3  21
HETATM   21  C   UNL     1     -10.580   8.524  70.340  1.00  0.00    -0.223 C  
HETATM   22  C   UNL     1      -9.758   8.868  71.594  1.00  0.00    -0.379 C  
BRANCH  21  23
HETATM   23  C   UNL     1     -11.663   7.473  70.730  1.00  0.00    -0.281 C  
BRANCH  23  24
HETATM   24  C   UNL     1     -11.141   6.180  71.320  1.00  0.00    -0.351 A  
HETATM   25  C   UNL     1     -10.975   4.629  73.192  1.00  0.00    -0.364 A  
HETATM   26  C   UNL     1     -10.131   3.803  72.453  1.00  0.00    -0.167 A  
HETATM   27  C   UNL     1     -10.283   5.350  70.589  1.00  0.00    -0.323 A  
HETATM   28  C   UNL     1      -9.794   4.166  71.149  1.00  0.00    -0.244 A  
HETATM   29  C   UNL     1     -11.475   5.810  72.629  1.00  0.00    -0.337 A  
BRANCH  26  30
HETATM   30  O   UNL     1      -9.626   2.602  72.871  1.00  0.00    -0.092 OA 
HETATM   31  C   UNL     1      -8.695   1.974  71.996  1.00  0.00    -0.068 C  
ENDBRANCH  26  30
ENDBRANCH  23  24
ENDBRANCH  21  23
ENDBRANCH   3  21
ENDBRANCH   2   3
TORSDOF 14
ENDMDL
MODEL      229
REMARK 921   NORMALIZED FREE ENERGY PREDICTED BY IDOCK:   -3.79 KCAL/MOL
REMARK 922        TOTAL FREE ENERGY PREDICTED BY IDOCK:   -9.68 KCAL/MOL
REMARK 923 INTER-LIGAND FREE ENERGY PREDICTED BY IDOCK:   -7.64 KCAL/MOL
REMARK 924 INTRA-LIGAND FREE ENERGY PREDICTED BY IDOCK:   -2.03 KCAL/MOL
REMARK 927      BINDING AFFINITY PREDICTED BY RF-SCORE:    0.00 PKD
ROOT
HETATM    1  C   UNL     1      -6.494   5.871  72.269  1.00  0.00    -0.058 C  
HETATM    2  C   UNL     1      -8.001   5.977  72.075  1.00  0.00    -0.107 C  
ENDROOT
BRANCH   2   3
HETATM    3  N   UNL     1      -8.494   6.161  70.706  1.00  0.00    -0.129 NA 
BRANCH   3   4
HETATM    4  C   UNL     1      -7.454   6.437  69.697  1.00  0.00    -0.085 C  
BRANCH   4   5
HETATM    5  C   UNL     1      -7.723   7.686  68.843  1.00  0.00    -0.117 C  
BRANCH   5   6
HETATM    6  C   UNL     1      -6.453   8.180  68.149  1.00  0.00    -0.056 C  
BRANCH   6   7
HETATM    7  C   UNL     1      -6.800   8.821  66.809  1.00  0.00    -0.069 C  
BRANCH   7   8
HETATM    8  O   UNL     1      -7.749   9.877  67.007  1.00  0.00    -0.095 OA 
BRANCH   8   9
HETATM    9  C   UNL     1      -8.771   9.906  66.116  1.00  0.00    -0.136 C  
HETATM   10  O   UNL     1      -8.930   9.159  65.166  1.00  0.00    -0.198 OA 
BRANCH   9  11
HETATM   11  C   UNL     1      -9.681  11.031  66.433  1.00  0.00    -0.235 A  
HETATM   12  C   UNL     1     -10.178  11.882  65.438  1.00  0.00    -0.300 A  
HETATM   13  C   UNL     1     -11.014  12.949  65.779  1.00  0.00    -0.278 A  
HETATM   14  C   UNL     1     -10.867  12.299  68.116  1.00  0.00    -0.258 A  
HETATM   15  C   UNL     1     -11.363  13.159  67.132  1.00  0.00    -0.316 A  
HETATM   16  C   UNL     1     -10.019  11.244  67.772  1.00  0.00    -0.193 A  
BRANCH  13  17
HETATM   17  O   UNL     1     -11.532  13.844  64.874  1.00  0.00    -0.326 OA 
HETATM   18  C   UNL     1     -12.145  13.321  63.704  1.00  0.00    -0.485 C  
ENDBRANCH  13  17
BRANCH  15  19
HETATM   19  O   UNL     1     -12.184  14.228  67.385  1.00  0.00    -0.378 OA 
HETATM   20  C   UNL     1     -11.719  15.209  68.303  1.00  0.00    -0.314 C  
ENDBRANCH  15  19
ENDBRANCH   9  11
ENDBRANCH   8   9
ENDBRANCH   7   8
ENDBRANCH   6   7
ENDBRANCH   5   6
ENDBRANCH   4   5
ENDBRANCH   3   4
BRANCH   3  21
HETATM   21  C   UNL     1      -9.517   5.201  70.222  1.00  0.00    -0.172 C  
HETATM   22  C   UNL     1     -10.001   4.182  71.268  1.00  0.00    -0.216 C  
BRANCH  21  23
HETATM   23  C   UNL     1     -10.765   5.857  69.557  1.00  0.00    -0.414 C  
BRANCH  23  24
HETATM   24  C   UNL     1     -11.330   7.068  70.270  1.00  0.00    -0.339 A  
HETATM   25  C   UNL     1     -12.810   8.028  71.952  1.00  0.00    -0.343 A  
HETATM   26  C   UNL     1     -12.435   9.314  71.569  1.00  0.00    -0.355 A  
HETATM   27  C   UNL     1     -10.970   8.364  69.883  1.00  0.00    -0.166 A  
HETATM   28  C   UNL     1     -11.510   9.475  70.537  1.00  0.00    -0.337 A  
HETATM   29  C   UNL     1     -12.261   6.913  71.305  1.00  0.00    -0.427 A  
BRANCH  26  30
HETATM   30  O   UNL     1     -12.857  10.475  72.158  1.00  0.00    -0.386 OA 
HETATM   31  C   UNL     1     -12.838  11.638  71.338  1.00  0.00    -0.356 C  
ENDBRANCH  26  30
ENDBRANCH  23  24
ENDBRANCH  21  23
ENDBRANCH   3  21
ENDBRANCH   2   3
TORSDOF 14
ENDMDL
MODEL      230
REMARK 921   NORMALIZED FREE ENERGY PREDICTED BY IDOCK:   -3.78 KCAL/MOL
REMARK 922        TOTAL FREE ENERGY PREDICTED BY IDOCK:   -9.67 KCAL/MOL
REMARK 923 INTER-LIGAND FREE ENERGY PREDICTED BY IDOCK:   -8.06 KCAL/MOL
REMARK 924 INTRA-LIGAND FREE ENERGY PREDICTED BY IDOCK:   -1.61 KCAL/MOL
REMARK 927      BINDING AFFINITY PREDICTED BY RF-SCORE:    0.00 PKD
ROOT
HETATM    1  C   UNL     1     -12.926  10.360  71.791  1.00  0.00    -0.580 C  
HETATM    2  C   UNL     1     -13.236  10.488  70.304  1.00  0.00     0.158 C  
ENDROOT
BRANCH   2   3
HETATM    3  N   UNL     1     -12.173  11.005  69.435  1.00  0.00    -0.360 NA 
BRANCH   3   4
HETATM    4  C   UNL     1     -11.580  12.285  69.863  1.00  0.00    -0.203 C  
BRANCH   4   5
HETATM    5  C   UNL     1     -12.153  13.515  69.142  1.00  0.00    -0.331 C  
BRANCH   5   6
HETATM    6  C   UNL     1     -11.050  14.479  68.705  1.00  0.00    -0.272 C  
BRANCH   6   7
HETATM    7  C   UNL     1      -9.755  13.716  68.446  1.00  0.00    -0.217 C  
BRANCH   7   8
HETATM    8  O   UNL     1      -8.711  14.636  68.103  1.00  0.00    -0.156 OA 
BRANCH   8   9
HETATM    9  C   UNL     1      -8.907  15.327  66.952  1.00  0.00    -0.254 C  
HETATM   10  O   UNL     1      -9.372  14.891  65.912  1.00  0.00    -0.286 OA 
BRANCH   9  11
HETATM   11  C   UNL     1      -8.426  16.718  67.113  1.00  0.00    -0.208 A  
HETATM   12  C   UNL     1      -8.034  17.496  66.017  1.00  0.00    -0.192 A  
HETATM   13  C   UNL     1      -7.561  18.797  66.212  1.00  0.00    -0.262 A  
HETATM   14  C   UNL     1      -7.892  18.544  68.606  1.00  0.00    -0.338 A  
HETATM   15  C   UNL     1      -7.491  19.327  67.519  1.00  0.00    -0.235 A  
HETATM   16  C   UNL     1      -8.348  17.239  68.407  1.00  0.00    -0.261 A  
BRANCH  13  17
HETATM   17  O   UNL     1      -7.138  19.624  65.200  1.00  0.00    -0.394 OA 
HETATM   18  C   UNL     1      -5.908  19.313  64.560  1.00  0.00    -0.283 C  
ENDBRANCH  13  17
BRANCH  15  19
HETATM   19  O   UNL     1      -7.013  20.608  67.628  1.00  0.00    -0.302 OA 
HETATM   20  C   UNL     1      -5.990  20.848  68.584  1.00  0.00    -0.310 C  
ENDBRANCH  15  19
ENDBRANCH   9  11
ENDBRANCH   8   9
ENDBRANCH   7   8
ENDBRANCH   6   7
ENDBRANCH   5   6
ENDBRANCH   4   5
ENDBRANCH   3   4
BRANCH   3  21
HETATM   21  C   UNL     1     -11.153  10.033  68.966  1.00  0.00    -0.180 C  
HETATM   22  C   UNL     1     -10.644  10.264  67.532  1.00  0.00    -0.320 C  
BRANCH  21  23
HETATM   23  C   UNL     1      -9.923   9.872  69.909  1.00  0.00    -0.292 C  
BRANCH  23  24
HETATM   24  C   UNL     1      -9.955   8.673  70.834  1.00  0.00    -0.257 A  
HETATM   25  C   UNL     1      -9.166   7.528  72.835  1.00  0.00    -0.218 A  
HETATM   26  C   UNL     1      -9.960   6.423  72.534  1.00  0.00    -0.171 A  
HETATM   27  C   UNL     1     -10.740   7.553  70.533  1.00  0.00    -0.244 A  
HETATM   28  C   UNL     1     -10.750   6.445  71.384  1.00  0.00    -0.290 A  
HETATM   29  C   UNL     1      -9.164   8.644  71.989  1.00  0.00    -0.338 A  
BRANCH  26  30
HETATM   30  O   UNL     1     -10.091   5.302  73.308  1.00  0.00    -0.164 OA 
HETATM   31  C   UNL     1     -11.376   4.692  73.318  1.00  0.00    -0.304 C  
ENDBRANCH  26  30
ENDBRANCH  23  24
ENDBRANCH  21  23
ENDBRANCH   3  21
ENDBRANCH   2   3
TORSDOF 14
ENDMDL
MODEL      231
REMARK 921   NORMALIZED FREE ENERGY PREDICTED BY IDOCK:   -3.78 KCAL/MOL
REMARK 922        TOTAL FREE ENERGY PREDICTED BY IDOCK:   -9.67 KCAL/MOL
REMARK 923 INTER-LIGAND FREE ENERGY PREDICTED BY IDOCK:   -8.54 KCAL/MOL
REMARK 924 INTRA-LIGAND FREE ENERGY PREDICTED BY IDOCK:   -1.13 KCAL/MOL
REMARK 927      BINDING AFFINITY PREDICTED BY RF-SCORE:    0.00 PKD
ROOT
HETATM    1  C   UNL     1      -7.985   9.140  65.806  1.00  0.00    -0.103 C  
HETATM    2  C   UNL     1      -7.569  10.459  66.446  1.00  0.00    -0.123 C  
ENDROOT
BRANCH   2   3
HETATM    3  N   UNL     1      -8.439  11.004  67.494  1.00  0.00    -0.126 NA 
BRANCH   3   4
HETATM    4  C   UNL     1      -9.651  11.689  67.008  1.00  0.00    -0.184 C  
BRANCH   4   5
HETATM    5  C   UNL     1      -9.426  12.553  65.757  1.00  0.00    -0.066 C  
BRANCH   5   6
HETATM    6  C   UNL     1     -10.745  12.900  65.066  1.00  0.00    -0.326 C  
BRANCH   6   7
HETATM    7  C   UNL     1     -11.915  12.666  66.015  1.00  0.00    -0.417 C  
BRANCH   7   8
HETATM    8  O   UNL     1     -12.586  13.906  66.273  1.00  0.00    -0.435 OA 
BRANCH   8   9
HETATM    9  C   UNL     1     -11.777  14.935  66.631  1.00  0.00    -0.217 C  
HETATM   10  O   UNL     1     -11.185  15.691  65.880  1.00  0.00    -0.214 OA 
BRANCH   9  11
HETATM   11  C   UNL     1     -11.668  14.996  68.107  1.00  0.00    -0.335 A  
HETATM   12  C   UNL     1     -12.047  13.922  68.921  1.00  0.00    -0.355 A  
HETATM   13  C   UNL     1     -11.954  14.028  70.312  1.00  0.00    -0.339 A  
HETATM   14  C   UNL     1     -11.082  16.283  70.069  1.00  0.00    -0.351 A  
HETATM   15  C   UNL     1     -11.465  15.220  70.891  1.00  0.00    -0.339 A  
HETATM   16  C   UNL     1     -11.193  16.179  68.681  1.00  0.00    -0.369 A  
BRANCH  13  17
HETATM   17  O   UNL     1     -12.319  13.034  71.188  1.00  0.00    -0.322 OA 
HETATM   18  C   UNL     1     -13.595  13.131  71.804  1.00  0.00    -0.251 C  
ENDBRANCH  13  17
BRANCH  15  19
HETATM   19  O   UNL     1     -11.406  15.246  72.262  1.00  0.00    -0.449 OA 
HETATM   20  C   UNL     1     -12.018  16.345  72.923  1.00  0.00    -0.474 C  
ENDBRANCH  15  19
ENDBRANCH   9  11
ENDBRANCH   8   9
ENDBRANCH   7   8
ENDBRANCH   6   7
ENDBRANCH   5   6
ENDBRANCH   4   5
ENDBRANCH   3   4
BRANCH   3  21
HETATM   21  C   UNL     1      -8.707  10.135  68.668  1.00  0.00    -0.128 C  
HETATM   22  C   UNL     1      -7.760  10.345  69.863  1.00  0.00    -0.083 C  
BRANCH  21  23
HETATM   23  C   UNL     1     -10.176  10.175  69.187  1.00  0.00    -0.229 C  
BRANCH  23  24
HETATM   24  C   UNL     1     -10.564   9.071  70.148  1.00  0.00    -0.250 A  
HETATM   25  C   UNL     1     -11.198   8.346  72.387  1.00  0.00    -0.438 A  
HETATM   26  C   UNL     1     -11.232   7.019  71.963  1.00  0.00    -0.253 A  
HETATM   27  C   UNL     1     -10.589   7.733  69.735  1.00  0.00    -0.241 A  
HETATM   28  C   UNL     1     -10.932   6.720  70.634  1.00  0.00    -0.313 A  
HETATM   29  C   UNL     1     -10.865   9.364  71.484  1.00  0.00    -0.398 A  
BRANCH  26  30
HETATM   30  O   UNL     1     -11.596   5.947  72.732  1.00  0.00    -0.266 OA 
HETATM   31  C   UNL     1     -10.892   4.734  72.492  1.00  0.00    -0.140 C  
ENDBRANCH  26  30
ENDBRANCH  23  24
ENDBRANCH  21  23
ENDBRANCH   3  21
ENDBRANCH   2   3
TORSDOF 14
ENDMDL
MODEL      232
REMARK 921   NORMALIZED FREE ENERGY PREDICTED BY IDOCK:   -3.78 KCAL/MOL
REMARK 922        TOTAL FREE ENERGY PREDICTED BY IDOCK:   -9.66 KCAL/MOL
REMARK 923 INTER-LIGAND FREE ENERGY PREDICTED BY IDOCK:   -7.41 KCAL/MOL
REMARK 924 INTRA-LIGAND FREE ENERGY PREDICTED BY IDOCK:   -2.25 KCAL/MOL
REMARK 927      BINDING AFFINITY PREDICTED BY RF-SCORE:    0.00 PKD
ROOT
HETATM    1  C   UNL     1     -10.655   4.596  73.910  1.00  0.00    -0.337 C  
HETATM    2  C   UNL     1     -10.026   4.509  72.524  1.00  0.00    -0.170 C  
ENDROOT
BRANCH   2   3
HETATM    3  N   UNL     1      -9.709   5.771  71.847  1.00  0.00    -0.158 NA 
BRANCH   3   4
HETATM    4  C   UNL     1      -8.404   6.361  72.199  1.00  0.00    -0.108 C  
BRANCH   4   5
HETATM    5  C   UNL     1      -7.914   7.435  71.215  1.00  0.00    -0.096 C  
BRANCH   5   6
HETATM    6  C   UNL     1      -7.236   8.598  71.940  1.00  0.00    -0.092 C  
BRANCH   6   7
HETATM    7  C   UNL     1      -6.593   9.544  70.932  1.00  0.00    -0.090 C  
BRANCH   7   8
HETATM    8  O   UNL     1      -7.609  10.177  70.143  1.00  0.00    -0.167 OA 
BRANCH   8   9
HETATM    9  C   UNL     1      -7.151  11.016  69.181  1.00  0.00    -0.116 C  
HETATM   10  O   UNL     1      -6.214  11.790  69.275  1.00  0.00    -0.074 OA 
BRANCH   9  11
HETATM   11  C   UNL     1      -7.995  10.898  67.969  1.00  0.00    -0.109 A  
HETATM   12  C   UNL     1      -9.216  11.572  67.851  1.00  0.00    -0.168 A  
HETATM   13  C   UNL     1      -9.997  11.415  66.702  1.00  0.00    -0.208 A  
HETATM   14  C   UNL     1      -8.319   9.918  65.782  1.00  0.00    -0.131 A  
HETATM   15  C   UNL     1      -9.543  10.581  65.657  1.00  0.00    -0.226 A  
HETATM   16  C   UNL     1      -7.550  10.066  66.939  1.00  0.00    -0.096 A  
BRANCH  13  17
HETATM   17  O   UNL     1     -11.215  12.022  66.507  1.00  0.00    -0.301 OA 
HETATM   18  C   UNL     1     -11.871  12.569  67.642  1.00  0.00    -0.317 C  
ENDBRANCH  13  17
BRANCH  15  19
HETATM   19  O   UNL     1     -10.367  10.477  64.565  1.00  0.00    -0.348 OA 
HETATM   20  C   UNL     1      -9.963  11.138  63.373  1.00  0.00    -0.387 C  
ENDBRANCH  15  19
ENDBRANCH   9  11
ENDBRANCH   8   9
ENDBRANCH   7   8
ENDBRANCH   6   7
ENDBRANCH   5   6
ENDBRANCH   4   5
ENDBRANCH   3   4
BRANCH   3  21
HETATM   21  C   UNL     1      -9.995   5.846  70.392  1.00  0.00    -0.192 C  
HETATM   22  C   UNL     1      -9.631   4.584  69.591  1.00  0.00    -0.270 C  
BRANCH  21  23
HETATM   23  C   UNL     1     -11.456   6.255  70.035  1.00  0.00    -0.460 C  
BRANCH  23  24
HETATM   24  C   UNL     1     -11.919   7.588  70.585  1.00  0.00    -0.161 A  
HETATM   25  C   UNL     1     -11.578   9.983  70.884  1.00  0.00    -0.463 A  
HETATM   26  C   UNL     1     -12.737  10.067  71.652  1.00  0.00    -0.435 A  
HETATM   27  C   UNL     1     -13.074   7.681  71.370  1.00  0.00    -0.339 A  
HETATM   28  C   UNL     1     -13.485   8.913  71.887  1.00  0.00    -0.464 A  
HETATM   29  C   UNL     1     -11.172   8.751  70.355  1.00  0.00    -0.247 A  
BRANCH  26  30
HETATM   30  O   UNL     1     -13.265  11.217  72.174  1.00  0.00    -0.481 OA 
HETATM   31  C   UNL     1     -13.062  12.403  71.414  1.00  0.00    -0.204 C  
ENDBRANCH  26  30
ENDBRANCH  23  24
ENDBRANCH  21  23
ENDBRANCH   3  21
ENDBRANCH   2   3
TORSDOF 14
ENDMDL
MODEL      233
REMARK 921   NORMALIZED FREE ENERGY PREDICTED BY IDOCK:   -3.78 KCAL/MOL
REMARK 922        TOTAL FREE ENERGY PREDICTED BY IDOCK:   -9.66 KCAL/MOL
REMARK 923 INTER-LIGAND FREE ENERGY PREDICTED BY IDOCK:   -7.57 KCAL/MOL
REMARK 924 INTRA-LIGAND FREE ENERGY PREDICTED BY IDOCK:   -2.09 KCAL/MOL
REMARK 927      BINDING AFFINITY PREDICTED BY RF-SCORE:    0.00 PKD
ROOT
HETATM    1  C   UNL     1      -9.127   3.534  72.701  1.00  0.00    -0.128 C  
HETATM    2  C   UNL     1     -10.389   4.302  72.322  1.00  0.00    -0.143 C  
ENDROOT
BRANCH   2   3
HETATM    3  N   UNL     1     -10.216   5.626  71.715  1.00  0.00    -0.195 NA 
BRANCH   3   4
HETATM    4  C   UNL     1      -9.235   6.500  72.385  1.00  0.00    -0.136 C  
BRANCH   4   5
HETATM    5  C   UNL     1      -9.862   7.665  73.167  1.00  0.00    -0.337 C  
BRANCH   5   6
HETATM    6  C   UNL     1     -10.389   8.754  72.232  1.00  0.00    -0.320 C  
BRANCH   6   7
HETATM    7  C   UNL     1     -11.914   8.770  72.248  1.00  0.00    -0.345 C  
BRANCH   7   8
HETATM    8  O   UNL     1     -12.407   9.321  71.020  1.00  0.00    -0.291 OA 
BRANCH   8   9
HETATM    9  C   UNL     1     -12.670  10.652  71.051  1.00  0.00    -0.415 C  
HETATM   10  O   UNL     1     -13.297  11.250  71.909  1.00  0.00    -0.429 OA 
BRANCH   9  11
HETATM   11  C   UNL     1     -12.113  11.302  69.842  1.00  0.00    -0.414 A  
HETATM   12  C   UNL     1     -12.064  12.695  69.709  1.00  0.00    -0.301 A  
HETATM   13  C   UNL     1     -11.554  13.272  68.542  1.00  0.00    -0.333 A  
HETATM   14  C   UNL     1     -11.126  11.052  67.649  1.00  0.00    -0.363 A  
HETATM   15  C   UNL     1     -11.079  12.442  67.502  1.00  0.00    -0.266 A  
HETATM   16  C   UNL     1     -11.651  10.481  68.810  1.00  0.00    -0.252 A  
BRANCH  13  17
HETATM   17  O   UNL     1     -11.485  14.625  68.316  1.00  0.00    -0.284 OA 
HETATM   18  C   UNL     1     -11.694  15.492  69.422  1.00  0.00    -0.367 C  
ENDBRANCH  13  17
BRANCH  15  19
HETATM   19  O   UNL     1     -10.598  13.083  66.389  1.00  0.00    -0.278 OA 
HETATM   20  C   UNL     1      -9.942  12.290  65.408  1.00  0.00    -0.244 C  
ENDBRANCH  15  19
ENDBRANCH   9  11
ENDBRANCH   8   9
ENDBRANCH   7   8
ENDBRANCH   6   7
ENDBRANCH   5   6
ENDBRANCH   4   5
ENDBRANCH   3   4
BRANCH   3  21
HETATM   21  C   UNL     1     -10.111   5.681  70.235  1.00  0.00    -0.222 C  
HETATM   22  C   UNL     1     -11.311   6.326  69.521  1.00  0.00    -0.475 C  
BRANCH  21  23
HETATM   23  C   UNL     1      -8.803   6.337  69.698  1.00  0.00    -0.136 C  
BRANCH  23  24
HETATM   24  C   UNL     1      -8.653   6.367  68.191  1.00  0.00    -0.117 A  
HETATM   25  C   UNL     1      -8.648   7.607  66.094  1.00  0.00    -0.160 A  
HETATM   26  C   UNL     1      -8.434   6.429  65.380  1.00  0.00    -0.123 A  
HETATM   27  C   UNL     1      -8.451   5.187  67.465  1.00  0.00    -0.105 A  
HETATM   28  C   UNL     1      -8.330   5.222  66.073  1.00  0.00    -0.118 A  
HETATM   29  C   UNL     1      -8.758   7.575  67.490  1.00  0.00    -0.125 A  
BRANCH  26  30
HETATM   30  O   UNL     1      -8.254   6.339  64.027  1.00  0.00    -0.096 OA 
HETATM   31  C   UNL     1      -7.314   5.369  63.581  1.00  0.00    -0.053 C  
ENDBRANCH  26  30
ENDBRANCH  23  24
ENDBRANCH  21  23
ENDBRANCH   3  21
ENDBRANCH   2   3
TORSDOF 14
ENDMDL
MODEL      234
REMARK 921   NORMALIZED FREE ENERGY PREDICTED BY IDOCK:   -3.78 KCAL/MOL
REMARK 922        TOTAL FREE ENERGY PREDICTED BY IDOCK:   -9.66 KCAL/MOL
REMARK 923 INTER-LIGAND FREE ENERGY PREDICTED BY IDOCK:   -7.37 KCAL/MOL
REMARK 924 INTRA-LIGAND FREE ENERGY PREDICTED BY IDOCK:   -2.28 KCAL/MOL
REMARK 927      BINDING AFFINITY PREDICTED BY RF-SCORE:    0.00 PKD
ROOT
HETATM    1  C   UNL     1      -8.448   5.698  64.883  1.00  0.00    -0.122 C  
HETATM    2  C   UNL     1      -8.554   7.105  65.460  1.00  0.00    -0.080 C  
ENDROOT
BRANCH   2   3
HETATM    3  N   UNL     1      -8.344   7.259  66.904  1.00  0.00    -0.116 NA 
BRANCH   3   4
HETATM    4  C   UNL     1      -7.024   7.788  67.293  1.00  0.00    -0.078 C  
BRANCH   4   5
HETATM    5  C   UNL     1      -6.186   8.314  66.117  1.00  0.00    -0.049 C  
BRANCH   5   6
HETATM    6  C   UNL     1      -6.285   9.834  65.988  1.00  0.00    -0.071 C  
BRANCH   6   7
HETATM    7  C   UNL     1      -6.216  10.485  67.365  1.00  0.00    -0.057 C  
BRANCH   7   8
HETATM    8  O   UNL     1      -7.397  11.264  67.594  1.00  0.00    -0.092 OA 
BRANCH   8   9
HETATM    9  C   UNL     1      -7.221  12.608  67.534  1.00  0.00    -0.155 C  
HETATM   10  O   UNL     1      -6.181  13.196  67.288  1.00  0.00    -0.298 OA 
BRANCH   9  11
HETATM   11  C   UNL     1      -8.492  13.296  67.860  1.00  0.00    -0.177 A  
HETATM   12  C   UNL     1      -9.715  12.887  67.314  1.00  0.00    -0.220 A  
HETATM   13  C   UNL     1     -10.889  13.577  67.626  1.00  0.00    -0.260 A  
HETATM   14  C   UNL     1      -9.613  15.079  69.049  1.00  0.00    -0.225 A  
HETATM   15  C   UNL     1     -10.838  14.683  68.503  1.00  0.00    -0.250 A  
HETATM   16  C   UNL     1      -8.440  14.395  68.721  1.00  0.00    -0.120 A  
BRANCH  13  17
HETATM   17  O   UNL     1     -12.128  13.260  67.124  1.00  0.00    -0.361 OA 
HETATM   18  C   UNL     1     -12.359  13.484  65.741  1.00  0.00    -0.468 C  
ENDBRANCH  13  17
BRANCH  15  19
HETATM   19  O   UNL     1     -12.032  15.310  68.758  1.00  0.00    -0.321 OA 
HETATM   20  C   UNL     1     -12.384  15.523  70.118  1.00  0.00    -0.353 C  
ENDBRANCH  15  19
ENDBRANCH   9  11
ENDBRANCH   8   9
ENDBRANCH   7   8
ENDBRANCH   6   7
ENDBRANCH   5   6
ENDBRANCH   4   5
ENDBRANCH   3   4
BRANCH   3  21
HETATM   21  C   UNL     1      -9.453   7.863  67.685  1.00  0.00    -0.144 C  
HETATM   22  C   UNL     1     -10.675   6.951  67.893  1.00  0.00    -0.294 C  
BRANCH  21  23
HETATM   23  C   UNL     1      -9.033   8.451  69.066  1.00  0.00    -0.147 C  
BRANCH  23  24
HETATM   24  C   UNL     1     -10.148   9.069  69.884  1.00  0.00    -0.213 A  
HETATM   25  C   UNL     1     -11.596   9.036  71.844  1.00  0.00    -0.441 A  
HETATM   26  C   UNL     1     -12.260  10.174  71.391  1.00  0.00    -0.397 A  
HETATM   27  C   UNL     1     -10.830  10.203  69.430  1.00  0.00    -0.274 A  
HETATM   28  C   UNL     1     -11.869  10.756  70.185  1.00  0.00    -0.427 A  
HETATM   29  C   UNL     1     -10.547   8.487  71.095  1.00  0.00    -0.277 A  
BRANCH  26  30
HETATM   30  O   UNL     1     -13.258  10.832  72.057  1.00  0.00    -0.484 OA 
HETATM   31  C   UNL     1     -13.239  12.252  71.972  1.00  0.00    -0.403 C  
ENDBRANCH  26  30
ENDBRANCH  23  24
ENDBRANCH  21  23
ENDBRANCH   3  21
ENDBRANCH   2   3
TORSDOF 14
ENDMDL
MODEL      235
REMARK 921   NORMALIZED FREE ENERGY PREDICTED BY IDOCK:   -3.77 KCAL/MOL
REMARK 922        TOTAL FREE ENERGY PREDICTED BY IDOCK:   -9.65 KCAL/MOL
REMARK 923 INTER-LIGAND FREE ENERGY PREDICTED BY IDOCK:   -7.57 KCAL/MOL
REMARK 924 INTRA-LIGAND FREE ENERGY PREDICTED BY IDOCK:   -2.08 KCAL/MOL
REMARK 927      BINDING AFFINITY PREDICTED BY RF-SCORE:    0.00 PKD
ROOT
HETATM    1  C   UNL     1     -10.928   9.487  69.369  1.00  0.00    -0.192 C  
HETATM    2  C   UNL     1      -9.674  10.311  69.102  1.00  0.00    -0.217 C  
ENDROOT
BRANCH   2   3
HETATM    3  N   UNL     1      -8.583   9.661  68.366  1.00  0.00    -0.119 NA 
BRANCH   3   4
HETATM    4  C   UNL     1      -8.836   9.447  66.930  1.00  0.00    -0.127 C  
BRANCH   4   5
HETATM    5  C   UNL     1      -9.823  10.448  66.309  1.00  0.00    -0.272 C  
BRANCH   5   6
HETATM    6  C   UNL     1      -9.329  10.964  64.957  1.00  0.00    -0.260 C  
BRANCH   6   7
HETATM    7  C   UNL     1     -10.513  11.280  64.050  1.00  0.00    -0.378 C  
BRANCH   7   8
HETATM    8  O   UNL     1     -10.529  12.680  63.742  1.00  0.00    -0.421 OA 
BRANCH   8   9
HETATM    9  C   UNL     1     -11.694  13.317  64.022  1.00  0.00    -0.430 C  
HETATM   10  O   UNL     1     -12.763  13.163  63.455  1.00  0.00    -0.697 OA 
BRANCH   9  11
HETATM   11  C   UNL     1     -11.483  14.292  65.116  1.00  0.00    -0.351 A  
HETATM   12  C   UNL     1     -11.792  13.987  66.447  1.00  0.00    -0.437 A  
HETATM   13  C   UNL     1     -11.603  14.943  67.450  1.00  0.00    -0.332 A  
HETATM   14  C   UNL     1     -10.775  16.506  65.783  1.00  0.00    -0.232 A  
HETATM   15  C   UNL     1     -11.087  16.215  67.114  1.00  0.00    -0.053 A  
HETATM   16  C   UNL     1     -10.981  15.553  64.784  1.00  0.00    -0.416 A  
BRANCH  13  17
HETATM   17  O   UNL     1     -11.896  14.739  68.776  1.00  0.00    -0.308 OA 
HETATM   18  C   UNL     1     -10.816  14.472  69.660  1.00  0.00    -0.151 C  
ENDBRANCH  13  17
BRANCH  15  19
HETATM   19  O   UNL     1     -10.933  17.097  68.153  1.00  0.00    -0.361 OA 
HETATM   20  C   UNL     1     -10.342  18.357  67.861  1.00  0.00    -0.401 C  
ENDBRANCH  15  19
ENDBRANCH   9  11
ENDBRANCH   8   9
ENDBRANCH   7   8
ENDBRANCH   6   7
ENDBRANCH   5   6
ENDBRANCH   4   5
ENDBRANCH   3   4
BRANCH   3  21
HETATM   21  C   UNL     1      -7.205  10.143  68.638  1.00  0.00    -0.080 C  
HETATM   22  C   UNL     1      -6.340  10.379  67.387  1.00  0.00    -0.058 C  
BRANCH  21  23
HETATM   23  C   UNL     1      -7.124  11.408  69.543  1.00  0.00    -0.020 C  
BRANCH  23  24
HETATM   24  C   UNL     1      -6.798  12.706  68.832  1.00  0.00    -0.097 A  
HETATM   25  C   UNL     1      -5.185  14.417  68.195  1.00  0.00    -0.118 A  
HETATM   26  C   UNL     1      -6.188  15.149  67.563  1.00  0.00    -0.050 A  
HETATM   27  C   UNL     1      -7.802  13.455  68.207  1.00  0.00    -0.143 A  
HETATM   28  C   UNL     1      -7.494  14.659  67.568  1.00  0.00    -0.217 A  
HETATM   29  C   UNL     1      -5.489  13.204  68.826  1.00  0.00    -0.073 A  
BRANCH  26  30
HETATM   30  O   UNL     1      -6.007  16.313  66.868  1.00  0.00    -0.326 OA 
HETATM   31  C   UNL     1      -7.187  16.964  66.413  1.00  0.00    -0.234 C  
ENDBRANCH  26  30
ENDBRANCH  23  24
ENDBRANCH  21  23
ENDBRANCH   3  21
ENDBRANCH   2   3
TORSDOF 14
ENDMDL
MODEL      236
REMARK 921   NORMALIZED FREE ENERGY PREDICTED BY IDOCK:   -3.77 KCAL/MOL
REMARK 922        TOTAL FREE ENERGY PREDICTED BY IDOCK:   -9.65 KCAL/MOL
REMARK 923 INTER-LIGAND FREE ENERGY PREDICTED BY IDOCK:   -8.29 KCAL/MOL
REMARK 924 INTRA-LIGAND FREE ENERGY PREDICTED BY IDOCK:   -1.36 KCAL/MOL
REMARK 927      BINDING AFFINITY PREDICTED BY RF-SCORE:    0.00 PKD
ROOT
HETATM    1  C   UNL     1     -11.154   9.650  70.977  1.00  0.00    -0.438 C  
HETATM    2  C   UNL     1     -10.806  10.300  69.643  1.00  0.00    -0.271 C  
ENDROOT
BRANCH   2   3
HETATM    3  N   UNL     1     -10.351   9.419  68.561  1.00  0.00    -0.203 NA 
BRANCH   3   4
HETATM    4  C   UNL     1      -9.107   9.841  67.890  1.00  0.00    -0.121 C  
BRANCH   4   5
HETATM    5  C   UNL     1      -9.256  10.071  66.378  1.00  0.00    -0.191 C  
BRANCH   5   6
HETATM    6  C   UNL     1     -10.494  10.909  66.053  1.00  0.00    -0.287 C  
BRANCH   6   7
HETATM    7  C   UNL     1     -10.260  11.726  64.788  1.00  0.00    -0.282 C  
BRANCH   7   8
HETATM    8  O   UNL     1     -10.491  13.115  65.057  1.00  0.00    -0.313 OA 
BRANCH   8   9
HETATM    9  C   UNL     1     -11.711  13.406  65.574  1.00  0.00    -0.340 C  
HETATM   10  O   UNL     1     -12.790  13.241  65.030  1.00  0.00    -0.686 OA 
BRANCH   9  11
HETATM   11  C   UNL     1     -11.557  14.011  66.917  1.00  0.00    -0.407 A  
HETATM   12  C   UNL     1     -11.157  15.343  67.085  1.00  0.00    -0.291 A  
HETATM   13  C   UNL     1     -10.997  15.871  68.369  1.00  0.00    -0.331 A  
HETATM   14  C   UNL     1     -11.656  13.733  69.317  1.00  0.00    -0.362 A  
HETATM   15  C   UNL     1     -11.251  15.059  69.497  1.00  0.00    -0.276 A  
HETATM   16  C   UNL     1     -11.799  13.205  68.032  1.00  0.00    -0.398 A  
BRANCH  13  17
HETATM   17  O   UNL     1     -10.592  17.158  68.629  1.00  0.00    -0.346 OA 
HETATM   18  C   UNL     1     -10.657  18.100  67.568  1.00  0.00    -0.401 C  
ENDBRANCH  13  17
BRANCH  15  19
HETATM   19  O   UNL     1     -11.069  15.649  70.721  1.00  0.00    -0.320 OA 
HETATM   20  C   UNL     1     -12.033  15.379  71.729  1.00  0.00    -0.403 C  
ENDBRANCH  15  19
ENDBRANCH   9  11
ENDBRANCH   8   9
ENDBRANCH   7   8
ENDBRANCH   6   7
ENDBRANCH   5   6
ENDBRANCH   4   5
ENDBRANCH   3   4
BRANCH   3  21
HETATM   21  C   UNL     1     -10.391   7.958  68.820  1.00  0.00    -0.203 C  
HETATM   22  C   UNL     1     -11.029   7.116  67.701  1.00  0.00    -0.226 C  
BRANCH  21  23
HETATM   23  C   UNL     1      -9.018   7.324  69.195  1.00  0.00    -0.135 C  
BRANCH  23  24
HETATM   24  C   UNL     1      -9.070   6.187  70.195  1.00  0.00    -0.156 A  
HETATM   25  C   UNL     1      -9.915   5.241  72.275  1.00  0.00    -0.222 A  
HETATM   26  C   UNL     1      -9.133   4.103  72.094  1.00  0.00    -0.120 A  
HETATM   27  C   UNL     1      -8.277   5.045  70.027  1.00  0.00    -0.081 A  
HETATM   28  C   UNL     1      -8.320   4.009  70.964  1.00  0.00    -0.090 A  
HETATM   29  C   UNL     1      -9.883   6.276  71.332  1.00  0.00    -0.195 A  
BRANCH  26  30
HETATM   30  O   UNL     1      -9.120   3.006  72.912  1.00  0.00    -0.086 OA 
HETATM   31  C   UNL     1     -10.022   3.033  74.012  1.00  0.00    -0.110 C  
ENDBRANCH  26  30
ENDBRANCH  23  24
ENDBRANCH  21  23
ENDBRANCH   3  21
ENDBRANCH   2   3
TORSDOF 14
ENDMDL
MODEL      237
REMARK 921   NORMALIZED FREE ENERGY PREDICTED BY IDOCK:   -3.77 KCAL/MOL
REMARK 922        TOTAL FREE ENERGY PREDICTED BY IDOCK:   -9.65 KCAL/MOL
REMARK 923 INTER-LIGAND FREE ENERGY PREDICTED BY IDOCK:   -7.78 KCAL/MOL
REMARK 924 INTRA-LIGAND FREE ENERGY PREDICTED BY IDOCK:   -1.87 KCAL/MOL
REMARK 927      BINDING AFFINITY PREDICTED BY RF-SCORE:    0.00 PKD
ROOT
HETATM    1  C   UNL     1     -10.670   9.951  67.145  1.00  0.00    -0.276 C  
HETATM    2  C   UNL     1     -10.088  11.316  66.801  1.00  0.00    -0.219 C  
ENDROOT
BRANCH   2   3
HETATM    3  N   UNL     1     -10.116  11.726  65.392  1.00  0.00    -0.246 NA 
BRANCH   3   4
HETATM    4  C   UNL     1      -9.941  10.633  64.418  1.00  0.00    -0.350 C  
BRANCH   4   5
HETATM    5  C   UNL     1      -8.476  10.241  64.170  1.00  0.00    -0.180 C  
BRANCH   5   6
HETATM    6  C   UNL     1      -8.323   8.735  63.951  1.00  0.00    -0.145 C  
BRANCH   6   7
HETATM    7  C   UNL     1      -7.182   8.191  64.803  1.00  0.00    -0.082 C  
BRANCH   7   8
HETATM    8  O   UNL     1      -7.641   7.965  66.142  1.00  0.00    -0.080 OA 
BRANCH   8   9
HETATM    9  C   UNL     1      -6.967   8.643  67.104  1.00  0.00    -0.074 C  
HETATM   10  O   UNL     1      -5.918   9.249  66.968  1.00  0.00    -0.054 OA 
BRANCH   9  11
HETATM   11  C   UNL     1      -7.673   8.511  68.400  1.00  0.00    -0.101 A  
HETATM   12  C   UNL     1      -8.501   7.417  68.682  1.00  0.00    -0.129 A  
HETATM   13  C   UNL     1      -9.171   7.340  69.906  1.00  0.00    -0.141 A  
HETATM   14  C   UNL     1      -8.165   9.450  70.573  1.00  0.00    -0.221 A  
HETATM   15  C   UNL     1      -9.000   8.366  70.862  1.00  0.00    -0.160 A  
HETATM   16  C   UNL     1      -7.511   9.530  69.342  1.00  0.00    -0.088 A  
BRANCH  13  17
HETATM   17  O   UNL     1     -10.015   6.317  70.261  1.00  0.00    -0.169 OA 
HETATM   18  C   UNL     1     -11.302   6.281  69.660  1.00  0.00    -0.422 C  
ENDBRANCH  13  17
BRANCH  15  19
HETATM   19  O   UNL     1      -9.693   8.220  72.037  1.00  0.00    -0.202 OA 
HETATM   20  C   UNL     1      -8.935   8.084  73.232  1.00  0.00    -0.272 C  
ENDBRANCH  15  19
ENDBRANCH   9  11
ENDBRANCH   8   9
ENDBRANCH   7   8
ENDBRANCH   6   7
ENDBRANCH   5   6
ENDBRANCH   4   5
ENDBRANCH   3   4
BRANCH   3  21
HETATM   21  C   UNL     1     -11.177  12.684  64.989  1.00  0.00    -0.296 C  
HETATM   22  C   UNL     1     -12.025  12.247  63.782  1.00  0.00    -0.609 C  
BRANCH  21  23
HETATM   23  C   UNL     1     -12.136  13.115  66.139  1.00  0.00    -0.479 C  
BRANCH  23  24
HETATM   24  C   UNL     1     -11.672  14.289  66.977  1.00  0.00    -0.427 A  
HETATM   25  C   UNL     1     -11.605  15.464  69.110  1.00  0.00    -0.354 A  
HETATM   26  C   UNL     1     -10.866  16.496  68.536  1.00  0.00    -0.349 A  
HETATM   27  C   UNL     1     -10.941  15.337  66.405  1.00  0.00    -0.299 A  
HETATM   28  C   UNL     1     -10.532  16.423  67.183  1.00  0.00    -0.297 A  
HETATM   29  C   UNL     1     -12.006  14.369  68.335  1.00  0.00    -0.328 A  
BRANCH  26  30
HETATM   30  O   UNL     1     -10.371  17.586  69.199  1.00  0.00    -0.349 OA 
HETATM   31  C   UNL     1      -9.798  18.607  68.390  1.00  0.00    -0.384 C  
ENDBRANCH  26  30
ENDBRANCH  23  24
ENDBRANCH  21  23
ENDBRANCH   3  21
ENDBRANCH   2   3
TORSDOF 14
ENDMDL
MODEL      238
REMARK 921   NORMALIZED FREE ENERGY PREDICTED BY IDOCK:   -3.77 KCAL/MOL
REMARK 922        TOTAL FREE ENERGY PREDICTED BY IDOCK:   -9.64 KCAL/MOL
REMARK 923 INTER-LIGAND FREE ENERGY PREDICTED BY IDOCK:   -8.10 KCAL/MOL
REMARK 924 INTRA-LIGAND FREE ENERGY PREDICTED BY IDOCK:   -1.54 KCAL/MOL
REMARK 927      BINDING AFFINITY PREDICTED BY RF-SCORE:    0.00 PKD
ROOT
HETATM    1  C   UNL     1      -8.105   5.606  66.717  1.00  0.00    -0.102 C  
HETATM    2  C   UNL     1      -9.074   6.741  66.406  1.00  0.00    -0.152 C  
ENDROOT
BRANCH   2   3
HETATM    3  N   UNL     1      -8.950   7.969  67.199  1.00  0.00    -0.133 NA 
BRANCH   3   4
HETATM    4  C   UNL     1      -8.632   9.184  66.427  1.00  0.00    -0.125 C  
BRANCH   4   5
HETATM    5  C   UNL     1      -9.260   9.221  65.025  1.00  0.00    -0.242 C  
BRANCH   5   6
HETATM    6  C   UNL     1     -10.118  10.470  64.822  1.00  0.00    -0.406 C  
BRANCH   6   7
HETATM    7  C   UNL     1      -9.560  11.630  65.640  1.00  0.00    -0.229 C  
BRANCH   7   8
HETATM    8  O   UNL     1     -10.037  12.873  65.106  1.00  0.00    -0.278 OA 
BRANCH   8   9
HETATM    9  C   UNL     1     -11.241  13.279  65.580  1.00  0.00    -0.287 C  
HETATM   10  O   UNL     1     -12.325  13.123  65.042  1.00  0.00    -0.411 OA 
BRANCH   9  11
HETATM   11  C   UNL     1     -11.060  14.000  66.861  1.00  0.00    -0.310 A  
HETATM   12  C   UNL     1      -9.790  14.258  67.390  1.00  0.00    -0.235 A  
HETATM   13  C   UNL     1      -9.660  14.919  68.615  1.00  0.00    -0.222 A  
HETATM   14  C   UNL     1     -12.080  15.078  68.770  1.00  0.00    -0.215 A  
HETATM   15  C   UNL     1     -10.817  15.334  69.311  1.00  0.00    -0.257 A  
HETATM   16  C   UNL     1     -12.204  14.402  67.554  1.00  0.00    -0.210 A  
BRANCH  13  17
HETATM   17  O   UNL     1      -8.458  15.198  69.218  1.00  0.00    -0.211 OA 
HETATM   18  C   UNL     1      -7.274  14.739  68.580  1.00  0.00    -0.115 C  
ENDBRANCH  13  17
BRANCH  15  19
HETATM   19  O   UNL     1     -10.606  15.974  70.506  1.00  0.00    -0.213 OA 
HETATM   20  C   UNL     1     -11.129  15.361  71.678  1.00  0.00    -0.202 C  
ENDBRANCH  15  19
ENDBRANCH   9  11
ENDBRANCH   8   9
ENDBRANCH   7   8
ENDBRANCH   6   7
ENDBRANCH   5   6
ENDBRANCH   4   5
ENDBRANCH   3   4
BRANCH   3  21
HETATM   21  C   UNL     1      -9.983   8.207  68.238  1.00  0.00    -0.186 C  
HETATM   22  C   UNL     1     -10.600   6.936  68.847  1.00  0.00    -0.244 C  
BRANCH  21  23
HETATM   23  C   UNL     1      -9.536   9.145  69.399  1.00  0.00    -0.161 C  
BRANCH  23  24
HETATM   24  C   UNL     1     -10.652   9.845  70.147  1.00  0.00    -0.350 A  
HETATM   25  C   UNL     1     -12.365   9.831  71.880  1.00  0.00    -0.417 A  
HETATM   26  C   UNL     1     -12.770  11.112  71.511  1.00  0.00    -0.394 A  
HETATM   27  C   UNL     1     -11.075  11.126  69.775  1.00  0.00    -0.271 A  
HETATM   28  C   UNL     1     -12.116  11.757  70.461  1.00  0.00    -0.439 A  
HETATM   29  C   UNL     1     -11.314   9.202  71.201  1.00  0.00    -0.392 A  
BRANCH  26  30
HETATM   30  O   UNL     1     -13.742  11.849  72.130  1.00  0.00    -0.273 OA 
HETATM   31  C   UNL     1     -13.361  13.147  72.572  1.00  0.00    -0.421 C  
ENDBRANCH  26  30
ENDBRANCH  23  24
ENDBRANCH  21  23
ENDBRANCH   3  21
ENDBRANCH   2   3
TORSDOF 14
ENDMDL
MODEL      239
REMARK 921   NORMALIZED FREE ENERGY PREDICTED BY IDOCK:   -3.77 KCAL/MOL
REMARK 922        TOTAL FREE ENERGY PREDICTED BY IDOCK:   -9.64 KCAL/MOL
REMARK 923 INTER-LIGAND FREE ENERGY PREDICTED BY IDOCK:   -8.38 KCAL/MOL
REMARK 924 INTRA-LIGAND FREE ENERGY PREDICTED BY IDOCK:   -1.26 KCAL/MOL
REMARK 927      BINDING AFFINITY PREDICTED BY RF-SCORE:    0.00 PKD
ROOT
HETATM    1  C   UNL     1      -8.899   9.606  68.477  1.00  0.00    -0.124 C  
HETATM    2  C   UNL     1      -9.437   8.219  68.809  1.00  0.00    -0.148 C  
ENDROOT
BRANCH   2   3
HETATM    3  N   UNL     1      -9.349   7.778  70.206  1.00  0.00    -0.157 NA 
BRANCH   3   4
HETATM    4  C   UNL     1      -9.645   8.816  71.211  1.00  0.00    -0.253 C  
BRANCH   4   5
HETATM    5  C   UNL     1     -10.718   8.412  72.234  1.00  0.00    -0.417 C  
BRANCH   5   6
HETATM    6  C   UNL     1     -12.006   9.216  72.048  1.00  0.00    -0.421 C  
BRANCH   6   7
HETATM    7  C   UNL     1     -12.125   9.694  70.605  1.00  0.00    -0.194 C  
BRANCH   7   8
HETATM    8  O   UNL     1     -11.996  11.121  70.555  1.00  0.00    -0.336 OA 
BRANCH   8   9
HETATM    9  C   UNL     1     -11.977  11.654  69.307  1.00  0.00    -0.317 C  
HETATM   10  O   UNL     1     -12.159  11.059  68.259  1.00  0.00    -0.604 OA 
BRANCH   9  11
HETATM   11  C   UNL     1     -11.649  13.096  69.383  1.00  0.00    -0.360 A  
HETATM   12  C   UNL     1     -12.177  13.922  70.383  1.00  0.00    -0.438 A  
HETATM   13  C   UNL     1     -11.865  15.285  70.406  1.00  0.00    -0.324 A  
HETATM   14  C   UNL     1     -10.480  14.987  68.431  1.00  0.00    -0.238 A  
HETATM   15  C   UNL     1     -11.007  15.822  69.421  1.00  0.00    -0.296 A  
HETATM   16  C   UNL     1     -10.808  13.630  68.403  1.00  0.00    -0.274 A  
BRANCH  13  17
HETATM   17  O   UNL     1     -12.350  16.172  71.335  1.00  0.00    -0.413 OA 
HETATM   18  C   UNL     1     -12.043  15.934  72.702  1.00  0.00    -0.511 C  
ENDBRANCH  13  17
BRANCH  15  19
HETATM   19  O   UNL     1     -10.752  17.167  69.510  1.00  0.00    -0.269 OA 
HETATM   20  C   UNL     1     -10.486  17.865  68.300  1.00  0.00    -0.354 C  
ENDBRANCH  15  19
ENDBRANCH   9  11
ENDBRANCH   8   9
ENDBRANCH   7   8
ENDBRANCH   6   7
ENDBRANCH   5   6
ENDBRANCH   4   5
ENDBRANCH   3   4
BRANCH   3  21
HETATM   21  C   UNL     1      -9.964   6.469  70.540  1.00  0.00    -0.184 C  
HETATM   22  C   UNL     1     -11.148   6.059  69.646  1.00  0.00    -0.474 C  
BRANCH  21  23
HETATM   23  C   UNL     1      -8.963   5.277  70.612  1.00  0.00    -0.159 C  
BRANCH  23  24
HETATM   24  C   UNL     1      -8.971   4.338  69.424  1.00  0.00    -0.155 A  
HETATM   25  C   UNL     1      -8.583   3.929  67.053  1.00  0.00    -0.108 A  
HETATM   26  C   UNL     1      -9.035   2.618  67.190  1.00  0.00    -0.154 A  
HETATM   27  C   UNL     1      -9.435   3.023  69.549  1.00  0.00    -0.173 A  
HETATM   28  C   UNL     1      -9.454   2.169  68.443  1.00  0.00    -0.226 A  
HETATM   29  C   UNL     1      -8.553   4.783  68.163  1.00  0.00    -0.106 A  
BRANCH  26  30
HETATM   30  O   UNL     1      -9.059   1.677  66.198  1.00  0.00    -0.115 OA 
HETATM   31  C   UNL     1      -8.027   1.766  65.222  1.00  0.00    -0.074 C  
ENDBRANCH  26  30
ENDBRANCH  23  24
ENDBRANCH  21  23
ENDBRANCH   3  21
ENDBRANCH   2   3
TORSDOF 14
ENDMDL
MODEL      240
REMARK 921   NORMALIZED FREE ENERGY PREDICTED BY IDOCK:   -3.76 KCAL/MOL
REMARK 922        TOTAL FREE ENERGY PREDICTED BY IDOCK:   -9.62 KCAL/MOL
REMARK 923 INTER-LIGAND FREE ENERGY PREDICTED BY IDOCK:   -8.07 KCAL/MOL
REMARK 924 INTRA-LIGAND FREE ENERGY PREDICTED BY IDOCK:   -1.55 KCAL/MOL
REMARK 927      BINDING AFFINITY PREDICTED BY RF-SCORE:    0.00 PKD
ROOT
HETATM    1  C   UNL     1      -8.825   8.260  70.247  1.00  0.00    -0.141 C  
HETATM    2  C   UNL     1      -8.725   8.954  68.893  1.00  0.00    -0.136 C  
ENDROOT
BRANCH   2   3
HETATM    3  N   UNL     1      -9.168  10.350  68.816  1.00  0.00    -0.163 NA 
BRANCH   3   4
HETATM    4  C   UNL     1      -8.089  11.343  68.662  1.00  0.00    -0.141 C  
BRANCH   4   5
HETATM    5  C   UNL     1      -8.258  12.272  67.449  1.00  0.00    -0.178 C  
BRANCH   5   6
HETATM    6  C   UNL     1      -8.329  13.741  67.869  1.00  0.00    -0.172 C  
BRANCH   6   7
HETATM    7  C   UNL     1      -7.116  14.499  67.341  1.00  0.00    -0.110 C  
BRANCH   7   8
HETATM    8  O   UNL     1      -6.102  14.557  68.353  1.00  0.00    -0.086 OA 
BRANCH   8   9
HETATM    9  C   UNL     1      -6.430  15.275  69.456  1.00  0.00    -0.152 C  
HETATM   10  O   UNL     1      -6.649  14.836  70.572  1.00  0.00    -0.132 OA 
BRANCH   9  11
HETATM   11  C   UNL     1      -6.534  16.711  69.107  1.00  0.00    -0.200 A  
HETATM   12  C   UNL     1      -7.738  17.282  68.677  1.00  0.00    -0.265 A  
HETATM   13  C   UNL     1      -7.790  18.636  68.332  1.00  0.00    -0.319 A  
HETATM   14  C   UNL     1      -5.429  18.849  68.868  1.00  0.00    -0.202 A  
HETATM   15  C   UNL     1      -6.624  19.427  68.430  1.00  0.00    -0.257 A  
HETATM   16  C   UNL     1      -5.379  17.493  69.196  1.00  0.00    -0.173 A  
BRANCH  13  17
HETATM   17  O   UNL     1      -8.920  19.275  67.884  1.00  0.00    -0.296 OA 
HETATM   18  C   UNL     1      -9.922  19.596  68.838  1.00  0.00    -0.438 C  
ENDBRANCH  13  17
BRANCH  15  19
HETATM   19  O   UNL     1      -6.757  20.745  68.072  1.00  0.00    -0.303 OA 
HETATM   20  C   UNL     1      -5.866  21.248  67.085  1.00  0.00    -0.334 C  
ENDBRANCH  15  19
ENDBRANCH   9  11
ENDBRANCH   8   9
ENDBRANCH   7   8
ENDBRANCH   6   7
ENDBRANCH   5   6
ENDBRANCH   4   5
ENDBRANCH   3   4
BRANCH   3  21
HETATM   21  C   UNL     1     -10.338  10.640  67.948  1.00  0.00    -0.199 C  
HETATM   22  C   UNL     1     -10.498   9.704  66.737  1.00  0.00    -0.257 C  
BRANCH  21  23
HETATM   23  C   UNL     1     -11.702  10.718  68.698  1.00  0.00    -0.289 C  
BRANCH  23  24
HETATM   24  C   UNL     1     -11.981  12.019  69.421  1.00  0.00    -0.334 A  
HETATM   25  C   UNL     1     -12.765  13.210  71.397  1.00  0.00    -0.390 A  
HETATM   26  C   UNL     1     -12.562  14.432  70.760  1.00  0.00    -0.357 A  
HETATM   27  C   UNL     1     -11.793  13.251  68.784  1.00  0.00    -0.371 A  
HETATM   28  C   UNL     1     -12.070  14.446  69.454  1.00  0.00    -0.338 A  
HETATM   29  C   UNL     1     -12.478  12.012  70.731  1.00  0.00    -0.372 A  
BRANCH  26  30
HETATM   30  O   UNL     1     -12.751  15.665  71.322  1.00  0.00    -0.430 OA 
HETATM   31  C   UNL     1     -13.435  15.688  72.570  1.00  0.00    -0.538 C  
ENDBRANCH  26  30
ENDBRANCH  23  24
ENDBRANCH  21  23
ENDBRANCH   3  21
ENDBRANCH   2   3
TORSDOF 14
ENDMDL
MODEL      241
REMARK 921   NORMALIZED FREE ENERGY PREDICTED BY IDOCK:   -3.76 KCAL/MOL
REMARK 922        TOTAL FREE ENERGY PREDICTED BY IDOCK:   -9.62 KCAL/MOL
REMARK 923 INTER-LIGAND FREE ENERGY PREDICTED BY IDOCK:   -8.07 KCAL/MOL
REMARK 924 INTRA-LIGAND FREE ENERGY PREDICTED BY IDOCK:   -1.55 KCAL/MOL
REMARK 927      BINDING AFFINITY PREDICTED BY RF-SCORE:    0.00 PKD
ROOT
HETATM    1  C   UNL     1     -14.377   7.876  71.561  1.00  0.00    -0.563 C  
HETATM    2  C   UNL     1     -12.942   8.012  72.058  1.00  0.00    -0.279 C  
ENDROOT
BRANCH   2   3
HETATM    3  N   UNL     1     -11.894   8.203  71.049  1.00  0.00    -0.284 NA 
BRANCH   3   4
HETATM    4  C   UNL     1     -11.099   9.435  71.197  1.00  0.00    -0.362 C  
BRANCH   4   5
HETATM    5  C   UNL     1     -11.779  10.694  70.635  1.00  0.00    -0.454 C  
BRANCH   5   6
HETATM    6  C   UNL     1     -11.718  10.735  69.108  1.00  0.00    -0.368 C  
BRANCH   6   7
HETATM    7  C   UNL     1     -11.985  12.151  68.608  1.00  0.00    -0.237 C  
BRANCH   7   8
HETATM    8  O   UNL     1     -11.915  12.181  67.176  1.00  0.00    -0.580 OA 
BRANCH   8   9
HETATM    9  C   UNL     1     -11.659  13.399  66.638  1.00  0.00    -0.362 C  
HETATM   10  O   UNL     1     -12.316  13.971  65.784  1.00  0.00    -0.430 OA 
BRANCH   9  11
HETATM   11  C   UNL     1     -10.408  13.947  67.210  1.00  0.00    -0.257 A  
HETATM   12  C   UNL     1      -9.152  13.418  66.885  1.00  0.00    -0.237 A  
HETATM   13  C   UNL     1      -7.996  13.946  67.466  1.00  0.00    -0.179 A  
HETATM   14  C   UNL     1      -9.356  15.548  68.686  1.00  0.00    -0.201 A  
HETATM   15  C   UNL     1      -8.098  15.023  68.375  1.00  0.00    -0.141 A  
HETATM   16  C   UNL     1     -10.509  15.006  68.116  1.00  0.00    -0.245 A  
BRANCH  13  17
HETATM   17  O   UNL     1      -6.727  13.480  67.221  1.00  0.00    -0.211 OA 
HETATM   18  C   UNL     1      -6.360  12.229  67.786  1.00  0.00    -0.101 C  
ENDBRANCH  13  17
BRANCH  15  19
HETATM   19  O   UNL     1      -6.919  15.483  68.903  1.00  0.00    -0.117 OA 
HETATM   20  C   UNL     1      -6.806  16.880  69.137  1.00  0.00    -0.238 C  
ENDBRANCH  15  19
ENDBRANCH   9  11
ENDBRANCH   8   9
ENDBRANCH   7   8
ENDBRANCH   6   7
ENDBRANCH   5   6
ENDBRANCH   4   5
ENDBRANCH   3   4
BRANCH   3  21
HETATM   21  C   UNL     1     -11.060   7.022  70.712  1.00  0.00    -0.273 C  
HETATM   22  C   UNL     1     -10.927   5.977  71.833  1.00  0.00    -0.316 C  
BRANCH  21  23
HETATM   23  C   UNL     1     -11.466   6.290  69.398  1.00  0.00    -0.348 C  
BRANCH  23  24
HETATM   24  C   UNL     1     -10.572   6.540  68.201  1.00  0.00    -0.307 A  
HETATM   25  C   UNL     1      -8.932   7.921  67.043  1.00  0.00    -0.145 A  
HETATM   26  C   UNL     1      -8.944   7.049  65.956  1.00  0.00    -0.107 A  
HETATM   27  C   UNL     1     -10.586   5.677  67.099  1.00  0.00    -0.344 A  
HETATM   28  C   UNL     1      -9.769   5.925  65.993  1.00  0.00    -0.019 A  
HETATM   29  C   UNL     1      -9.742   7.668  68.157  1.00  0.00    -0.168 A  
BRANCH  26  30
HETATM   30  O   UNL     1      -8.160   7.158  64.839  1.00  0.00    -0.125 OA 
HETATM   31  C   UNL     1      -7.501   5.971  64.416  1.00  0.00    -0.078 C  
ENDBRANCH  26  30
ENDBRANCH  23  24
ENDBRANCH  21  23
ENDBRANCH   3  21
ENDBRANCH   2   3
TORSDOF 14
ENDMDL
MODEL      242
REMARK 921   NORMALIZED FREE ENERGY PREDICTED BY IDOCK:   -3.75 KCAL/MOL
REMARK 922        TOTAL FREE ENERGY PREDICTED BY IDOCK:   -9.61 KCAL/MOL
REMARK 923 INTER-LIGAND FREE ENERGY PREDICTED BY IDOCK:   -8.12 KCAL/MOL
REMARK 924 INTRA-LIGAND FREE ENERGY PREDICTED BY IDOCK:   -1.49 KCAL/MOL
REMARK 927      BINDING AFFINITY PREDICTED BY RF-SCORE:    0.00 PKD
ROOT
HETATM    1  C   UNL     1     -11.521  11.641  63.182  1.00  0.00    -0.125 C  
HETATM    2  C   UNL     1     -10.258  12.176  63.848  1.00  0.00    -0.400 C  
ENDROOT
BRANCH   2   3
HETATM    3  N   UNL     1     -10.423  12.943  65.088  1.00  0.00    -0.301 NA 
BRANCH   3   4
HETATM    4  C   UNL     1     -11.254  14.155  64.970  1.00  0.00    -0.356 C  
BRANCH   4   5
HETATM    5  C   UNL     1     -10.455  15.467  64.954  1.00  0.00    -0.300 C  
BRANCH   5   6
HETATM    6  C   UNL     1     -10.515  16.182  66.305  1.00  0.00    -0.321 C  
BRANCH   6   7
HETATM    7  C   UNL     1      -9.187  16.035  67.039  1.00  0.00    -0.212 C  
BRANCH   7   8
HETATM    8  O   UNL     1      -9.425  15.668  68.404  1.00  0.00    -0.191 OA 
BRANCH   8   9
HETATM    9  C   UNL     1     -10.340  16.430  69.054  1.00  0.00    -0.278 C  
HETATM   10  O   UNL     1     -10.467  17.640  68.977  1.00  0.00    -0.342 OA 
BRANCH   9  11
HETATM   11  C   UNL     1     -11.170  15.575  69.934  1.00  0.00    -0.322 A  
HETATM   12  C   UNL     1     -11.779  16.078  71.091  1.00  0.00    -0.487 A  
HETATM   13  C   UNL     1     -12.533  15.234  71.911  1.00  0.00    -0.353 A  
HETATM   14  C   UNL     1     -12.082  13.385  70.400  1.00  0.00    -0.405 A  
HETATM   15  C   UNL     1     -12.688  13.874  71.561  1.00  0.00    -0.357 A  
HETATM   16  C   UNL     1     -11.316  14.228  69.593  1.00  0.00    -0.292 A  
BRANCH  13  17
HETATM   17  O   UNL     1     -13.149  15.634  73.072  1.00  0.00    -0.440 OA 
HETATM   18  C   UNL     1     -12.379  15.632  74.265  1.00  0.00    -0.669 C  
ENDBRANCH  13  17
BRANCH  15  19
HETATM   19  O   UNL     1     -13.440  13.111  72.417  1.00  0.00    -0.558 OA 
HETATM   20  C   UNL     1     -13.621  11.740  72.088  1.00  0.00    -0.053 C  
ENDBRANCH  15  19
ENDBRANCH   9  11
ENDBRANCH   8   9
ENDBRANCH   7   8
ENDBRANCH   6   7
ENDBRANCH   5   6
ENDBRANCH   4   5
ENDBRANCH   3   4
BRANCH   3  21
HETATM   21  C   UNL     1     -10.709  12.173  66.324  1.00  0.00    -0.261 C  
HETATM   22  C   UNL     1     -12.140  12.326  66.870  1.00  0.00    -0.026 C  
BRANCH  21  23
HETATM   23  C   UNL     1     -10.370  10.655  66.240  1.00  0.00    -0.296 C  
BRANCH  23  24
HETATM   24  C   UNL     1      -9.204  10.193  67.088  1.00  0.00    -0.157 A  
HETATM   25  C   UNL     1      -8.123   9.994  69.263  1.00  0.00    -0.141 A  
HETATM   26  C   UNL     1      -7.014   9.391  68.674  1.00  0.00    -0.065 A  
HETATM   27  C   UNL     1      -8.079   9.598  66.503  1.00  0.00    -0.119 A  
HETATM   28  C   UNL     1      -7.001   9.190  67.293  1.00  0.00    -0.078 A  
HETATM   29  C   UNL     1      -9.209  10.393  68.475  1.00  0.00    -0.145 A  
BRANCH  26  30
HETATM   30  O   UNL     1      -5.920   8.909  69.341  1.00  0.00    -0.037 OA 
HETATM   31  C   UNL     1      -6.109   8.605  70.718  1.00  0.00    -0.035 C  
ENDBRANCH  26  30
ENDBRANCH  23  24
ENDBRANCH  21  23
ENDBRANCH   3  21
ENDBRANCH   2   3
TORSDOF 14
ENDMDL
MODEL      243
REMARK 921   NORMALIZED FREE ENERGY PREDICTED BY IDOCK:   -3.73 KCAL/MOL
REMARK 922        TOTAL FREE ENERGY PREDICTED BY IDOCK:   -9.58 KCAL/MOL
REMARK 923 INTER-LIGAND FREE ENERGY PREDICTED BY IDOCK:   -7.33 KCAL/MOL
REMARK 924 INTRA-LIGAND FREE ENERGY PREDICTED BY IDOCK:   -2.26 KCAL/MOL
REMARK 927      BINDING AFFINITY PREDICTED BY RF-SCORE:    0.00 PKD
ROOT
HETATM    1  C   UNL     1      -7.675   7.187  70.880  1.00  0.00    -0.094 C  
HETATM    2  C   UNL     1      -7.616   7.213  69.357  1.00  0.00    -0.098 C  
ENDROOT
BRANCH   2   3
HETATM    3  N   UNL     1      -7.922   8.485  68.692  1.00  0.00    -0.114 NA 
BRANCH   3   4
HETATM    4  C   UNL     1      -6.791   9.427  68.590  1.00  0.00    -0.061 C  
BRANCH   4   5
HETATM    5  C   UNL     1      -7.013  10.757  69.327  1.00  0.00    -0.102 C  
BRANCH   5   6
HETATM    6  C   UNL     1      -5.697  11.501  69.557  1.00  0.00    -0.069 C  
BRANCH   6   7
HETATM    7  C   UNL     1      -5.668  12.787  68.739  1.00  0.00    -0.067 C  
BRANCH   7   8
HETATM    8  O   UNL     1      -7.002  13.285  68.571  1.00  0.00    -0.088 OA 
BRANCH   8   9
HETATM    9  C   UNL     1      -7.088  14.600  68.247  1.00  0.00    -0.115 C  
HETATM   10  O   UNL     1      -6.431  15.511  68.721  1.00  0.00    -0.103 OA 
BRANCH   9  11
HETATM   11  C   UNL     1      -8.153  14.798  67.237  1.00  0.00    -0.232 A  
HETATM   12  C   UNL     1      -8.535  16.075  66.808  1.00  0.00    -0.295 A  
HETATM   13  C   UNL     1      -9.563  16.224  65.871  1.00  0.00    -0.301 A  
HETATM   14  C   UNL     1      -9.810  13.808  65.781  1.00  0.00    -0.242 A  
HETATM   15  C   UNL     1     -10.205  15.078  65.352  1.00  0.00    -0.381 A  
HETATM   16  C   UNL     1      -8.795  13.666  66.729  1.00  0.00    -0.150 A  
BRANCH  13  17
HETATM   17  O   UNL     1     -10.016  17.435  65.408  1.00  0.00    -0.479 OA 
HETATM   18  C   UNL     1      -9.807  18.577  66.226  1.00  0.00    -0.337 C  
ENDBRANCH  13  17
BRANCH  15  19
HETATM   19  O   UNL     1     -11.205  15.307  64.440  1.00  0.00    -0.296 OA 
HETATM   20  C   UNL     1     -12.284  14.382  64.404  1.00  0.00    -0.458 C  
ENDBRANCH  15  19
ENDBRANCH   9  11
ENDBRANCH   8   9
ENDBRANCH   7   8
ENDBRANCH   6   7
ENDBRANCH   5   6
ENDBRANCH   4   5
ENDBRANCH   3   4
BRANCH   3  21
HETATM   21  C   UNL     1      -8.723   8.418  67.444  1.00  0.00    -0.135 C  
HETATM   22  C   UNL     1      -8.415   7.214  66.536  1.00  0.00    -0.125 C  
BRANCH  21  23
HETATM   23  C   UNL     1     -10.265   8.498  67.654  1.00  0.00    -0.297 C  
BRANCH  23  24
HETATM   24  C   UNL     1     -10.769   9.739  68.360  1.00  0.00    -0.262 A  
HETATM   25  C   UNL     1     -11.479  10.866  70.401  1.00  0.00    -0.367 A  
HETATM   26  C   UNL     1     -11.762  12.025  69.680  1.00  0.00    -0.335 A  
HETATM   27  C   UNL     1     -11.068  10.904  67.643  1.00  0.00    -0.376 A  
HETATM   28  C   UNL     1     -11.548  12.039  68.302  1.00  0.00    -0.394 A  
HETATM   29  C   UNL     1     -10.987   9.731  69.744  1.00  0.00    -0.287 A  
BRANCH  26  30
HETATM   30  O   UNL     1     -12.192  13.210  70.214  1.00  0.00    -0.338 OA 
HETATM   31  C   UNL     1     -11.977  14.371  69.420  1.00  0.00    -0.328 C  
ENDBRANCH  26  30
ENDBRANCH  23  24
ENDBRANCH  21  23
ENDBRANCH   3  21
ENDBRANCH   2   3
TORSDOF 14
ENDMDL
MODEL      244
REMARK 921   NORMALIZED FREE ENERGY PREDICTED BY IDOCK:   -3.73 KCAL/MOL
REMARK 922        TOTAL FREE ENERGY PREDICTED BY IDOCK:   -9.58 KCAL/MOL
REMARK 923 INTER-LIGAND FREE ENERGY PREDICTED BY IDOCK:   -7.34 KCAL/MOL
REMARK 924 INTRA-LIGAND FREE ENERGY PREDICTED BY IDOCK:   -2.23 KCAL/MOL
REMARK 927      BINDING AFFINITY PREDICTED BY RF-SCORE:    0.00 PKD
ROOT
HETATM    1  C   UNL     1      -8.094   4.515  72.691  1.00  0.00    -0.099 C  
HETATM    2  C   UNL     1      -9.480   4.946  72.227  1.00  0.00    -0.139 C  
ENDROOT
BRANCH   2   3
HETATM    3  N   UNL     1      -9.561   6.099  71.323  1.00  0.00    -0.170 NA 
BRANCH   3   4
HETATM    4  C   UNL     1      -8.417   7.026  71.386  1.00  0.00    -0.114 C  
BRANCH   4   5
HETATM    5  C   UNL     1      -8.764   8.417  71.940  1.00  0.00    -0.258 C  
BRANCH   5   6
HETATM    6  C   UNL     1      -9.249   9.360  70.839  1.00  0.00    -0.242 C  
BRANCH   6   7
HETATM    7  C   UNL     1     -10.748   9.605  70.977  1.00  0.00    -0.323 C  
BRANCH   7   8
HETATM    8  O   UNL     1     -11.351   9.669  69.679  1.00  0.00    -0.185 OA 
BRANCH   8   9
HETATM    9  C   UNL     1     -11.487  10.918  69.168  1.00  0.00    -0.303 C  
HETATM   10  O   UNL     1     -11.890  11.906  69.759  1.00  0.00    -0.309 OA 
BRANCH   9  11
HETATM   11  C   UNL     1     -11.110  10.919  67.736  1.00  0.00    -0.371 A  
HETATM   12  C   UNL     1     -11.431  11.986  66.888  1.00  0.00    -0.402 A  
HETATM   13  C   UNL     1     -11.081  11.939  65.535  1.00  0.00    -0.304 A  
HETATM   14  C   UNL     1     -10.070   9.757  65.888  1.00  0.00    -0.314 A  
HETATM   15  C   UNL     1     -10.392  10.814  65.031  1.00  0.00    -0.287 A  
HETATM   16  C   UNL     1     -10.437   9.802  67.234  1.00  0.00    -0.324 A  
BRANCH  13  17
HETATM   17  O   UNL     1     -11.371  12.929  64.628  1.00  0.00    -0.301 OA 
HETATM   18  C   UNL     1     -12.170  14.018  65.068  1.00  0.00    -0.433 C  
ENDBRANCH  13  17
BRANCH  15  19
HETATM   19  O   UNL     1     -10.086  10.842  63.694  1.00  0.00    -0.325 OA 
HETATM   20  C   UNL     1      -9.077   9.953  63.233  1.00  0.00    -0.266 C  
ENDBRANCH  15  19
ENDBRANCH   9  11
ENDBRANCH   8   9
ENDBRANCH   7   8
ENDBRANCH   6   7
ENDBRANCH   5   6
ENDBRANCH   4   5
ENDBRANCH   3   4
BRANCH   3  21
HETATM   21  C   UNL     1     -10.006   5.835  69.932  1.00  0.00    -0.194 C  
HETATM   22  C   UNL     1     -11.427   6.322  69.599  1.00  0.00    -0.425 C  
BRANCH  21  23
HETATM   23  C   UNL     1      -9.034   6.350  68.828  1.00  0.00    -0.126 C  
BRANCH  23  24
HETATM   24  C   UNL     1      -9.038   5.568  67.531  1.00  0.00    -0.107 A  
HETATM   25  C   UNL     1      -8.763   5.491  65.111  1.00  0.00    -0.118 A  
HETATM   26  C   UNL     1      -9.099   4.138  65.101  1.00  0.00    -0.142 A  
HETATM   27  C   UNL     1      -9.387   4.212  67.509  1.00  0.00    -0.204 A  
HETATM   28  C   UNL     1      -9.404   3.503  66.305  1.00  0.00    -0.177 A  
HETATM   29  C   UNL     1      -8.735   6.200  66.318  1.00  0.00    -0.144 A  
BRANCH  26  30
HETATM   30  O   UNL     1      -9.107   3.328  63.998  1.00  0.00    -0.099 OA 
HETATM   31  C   UNL     1      -9.673   3.881  62.816  1.00  0.00    -0.138 C  
ENDBRANCH  26  30
ENDBRANCH  23  24
ENDBRANCH  21  23
ENDBRANCH   3  21
ENDBRANCH   2   3
TORSDOF 14
ENDMDL
MODEL      245
REMARK 921   NORMALIZED FREE ENERGY PREDICTED BY IDOCK:   -3.73 KCAL/MOL
REMARK 922        TOTAL FREE ENERGY PREDICTED BY IDOCK:   -9.57 KCAL/MOL
REMARK 923 INTER-LIGAND FREE ENERGY PREDICTED BY IDOCK:   -8.58 KCAL/MOL
REMARK 924 INTRA-LIGAND FREE ENERGY PREDICTED BY IDOCK:   -0.99 KCAL/MOL
REMARK 927      BINDING AFFINITY PREDICTED BY RF-SCORE:    0.00 PKD
ROOT
HETATM    1  C   UNL     1      -6.396  19.647  65.437  1.00  0.00    -0.281 C  
HETATM    2  C   UNL     1      -5.267  19.462  66.444  1.00  0.00    -0.158 C  
ENDROOT
BRANCH   2   3
HETATM    3  N   UNL     1      -5.641  19.170  67.832  1.00  0.00    -0.190 NA 
BRANCH   3   4
HETATM    4  C   UNL     1      -6.746  19.986  68.368  1.00  0.00    -0.301 C  
BRANCH   4   5
HETATM    5  C   UNL     1      -8.018  19.966  67.506  1.00  0.00    -0.331 C  
BRANCH   5   6
HETATM    6  C   UNL     1      -9.217  19.418  68.280  1.00  0.00    -0.402 C  
BRANCH   6   7
HETATM    7  C   UNL     1     -10.384  19.162  67.333  1.00  0.00    -0.430 C  
BRANCH   7   8
HETATM    8  O   UNL     1     -10.880  17.830  67.522  1.00  0.00    -0.344 OA 
BRANCH   8   9
HETATM    9  C   UNL     1     -10.527  16.943  66.558  1.00  0.00    -0.253 C  
HETATM   10  O   UNL     1      -9.963  17.197  65.507  1.00  0.00    -0.565 OA 
BRANCH   9  11
HETATM   11  C   UNL     1     -10.970  15.583  66.941  1.00  0.00    -0.268 A  
HETATM   12  C   UNL     1     -11.495  14.686  66.003  1.00  0.00    -0.332 A  
HETATM   13  C   UNL     1     -11.927  13.419  66.408  1.00  0.00    -0.406 A  
HETATM   14  C   UNL     1     -11.287  13.946  68.693  1.00  0.00    -0.310 A  
HETATM   15  C   UNL     1     -11.820  13.045  67.766  1.00  0.00    -0.347 A  
HETATM   16  C   UNL     1     -10.873  15.216  68.286  1.00  0.00    -0.262 A  
BRANCH  13  17
HETATM   17  O   UNL     1     -12.471  12.483  65.563  1.00  0.00    -0.646 OA 
HETATM   18  C   UNL     1     -11.730  12.124  64.406  1.00  0.00    -0.355 C  
ENDBRANCH  13  17
BRANCH  15  19
HETATM   19  O   UNL     1     -12.267  11.787  68.084  1.00  0.00    -0.507 OA 
HETATM   20  C   UNL     1     -11.594  11.097  69.129  1.00  0.00    -0.324 C  
ENDBRANCH  15  19
ENDBRANCH   9  11
ENDBRANCH   8   9
ENDBRANCH   7   8
ENDBRANCH   6   7
ENDBRANCH   5   6
ENDBRANCH   4   5
ENDBRANCH   3   4
BRANCH   3  21
HETATM   21  C   UNL     1      -5.750  17.740  68.215  1.00  0.00    -0.158 C  
HETATM   22  C   UNL     1      -6.262  17.486  69.644  1.00  0.00    -0.227 C  
BRANCH  21  23
HETATM   23  C   UNL     1      -6.577  16.862  67.229  1.00  0.00    -0.205 C  
BRANCH  23  24
HETATM   24  C   UNL     1      -6.514  15.368  67.466  1.00  0.00    -0.174 A  
HETATM   25  C   UNL     1      -7.622  13.201  67.596  1.00  0.00    -0.171 A  
HETATM   26  C   UNL     1      -6.422  12.593  67.961  1.00  0.00    -0.093 A  
HETATM   27  C   UNL     1      -5.316  14.750  67.847  1.00  0.00    -0.092 A  
HETATM   28  C   UNL     1      -5.271  13.373  68.079  1.00  0.00    -0.111 A  
HETATM   29  C   UNL     1      -7.666  14.580  67.351  1.00  0.00    -0.215 A  
BRANCH  26  30
HETATM   30  O   UNL     1      -6.240  11.254  68.171  1.00  0.00    -0.049 OA 
HETATM   31  C   UNL     1      -6.387  10.413  67.032  1.00  0.00    -0.072 C  
ENDBRANCH  26  30
ENDBRANCH  23  24
ENDBRANCH  21  23
ENDBRANCH   3  21
ENDBRANCH   2   3
TORSDOF 14
ENDMDL
MODEL      246
REMARK 921   NORMALIZED FREE ENERGY PREDICTED BY IDOCK:   -3.72 KCAL/MOL
REMARK 922        TOTAL FREE ENERGY PREDICTED BY IDOCK:   -9.55 KCAL/MOL
REMARK 923 INTER-LIGAND FREE ENERGY PREDICTED BY IDOCK:   -8.23 KCAL/MOL
REMARK 924 INTRA-LIGAND FREE ENERGY PREDICTED BY IDOCK:   -1.32 KCAL/MOL
REMARK 927      BINDING AFFINITY PREDICTED BY RF-SCORE:    0.00 PKD
ROOT
HETATM    1  C   UNL     1     -12.154  11.685  69.596  1.00  0.00    -0.345 C  
HETATM    2  C   UNL     1     -11.252  12.289  68.526  1.00  0.00    -0.271 C  
ENDROOT
BRANCH   2   3
HETATM    3  N   UNL     1     -11.876  12.668  67.253  1.00  0.00    -0.419 NA 
BRANCH   3   4
HETATM    4  C   UNL     1     -11.892  14.115  66.969  1.00  0.00    -0.429 C  
BRANCH   4   5
HETATM    5  C   UNL     1     -10.561  14.827  67.261  1.00  0.00    -0.273 C  
BRANCH   5   6
HETATM    6  C   UNL     1     -10.484  15.309  68.710  1.00  0.00    -0.237 C  
BRANCH   6   7
HETATM    7  C   UNL     1     -11.241  16.623  68.869  1.00  0.00    -0.200 C  
BRANCH   7   8
HETATM    8  O   UNL     1     -10.778  17.571  67.899  1.00  0.00    -0.384 OA 
BRANCH   8   9
HETATM    9  C   UNL     1     -10.002  18.568  68.393  1.00  0.00    -0.380 C  
HETATM   10  O   UNL     1     -10.281  19.320  69.312  1.00  0.00    -0.296 OA 
BRANCH   9  11
HETATM   11  C   UNL     1      -8.744  18.658  67.616  1.00  0.00    -0.288 A  
HETATM   12  C   UNL     1      -7.588  17.969  68.002  1.00  0.00    -0.244 A  
HETATM   13  C   UNL     1      -6.412  18.098  67.257  1.00  0.00    -0.177 A  
HETATM   14  C   UNL     1      -7.561  19.598  65.728  1.00  0.00    -0.275 A  
HETATM   15  C   UNL     1      -6.399  18.920  66.108  1.00  0.00    -0.193 A  
HETATM   16  C   UNL     1      -8.729  19.477  66.485  1.00  0.00    -0.388 A  
BRANCH  13  17
HETATM   17  O   UNL     1      -5.228  17.476  67.570  1.00  0.00    -0.113 OA 
HETATM   18  C   UNL     1      -5.220  16.057  67.626  1.00  0.00    -0.123 C  
ENDBRANCH  13  17
BRANCH  15  19
HETATM   19  O   UNL     1      -5.207  18.998  65.434  1.00  0.00    -0.147 OA 
HETATM   20  C   UNL     1      -5.253  19.362  64.060  1.00  0.00    -0.218 C  
ENDBRANCH  15  19
ENDBRANCH   9  11
ENDBRANCH   8   9
ENDBRANCH   7   8
ENDBRANCH   6   7
ENDBRANCH   5   6
ENDBRANCH   4   5
ENDBRANCH   3   4
BRANCH   3  21
HETATM   21  C   UNL     1     -11.523  11.857  66.061  1.00  0.00    -0.281 C  
HETATM   22  C   UNL     1     -11.894  12.491  64.709  1.00  0.00    -0.440 C  
BRANCH  21  23
HETATM   23  C   UNL     1     -10.034  11.399  66.001  1.00  0.00    -0.269 C  
BRANCH  23  24
HETATM   24  C   UNL     1      -9.803   9.904  66.071  1.00  0.00    -0.330 A  
HETATM   25  C   UNL     1      -8.714   7.894  65.227  1.00  0.00    -0.032 A  
HETATM   26  C   UNL     1      -9.405   7.113  66.151  1.00  0.00    -0.045 A  
HETATM   27  C   UNL     1     -10.502   9.110  66.987  1.00  0.00    -0.311 A  
HETATM   28  C   UNL     1     -10.294   7.729  67.033  1.00  0.00    -0.405 A  
HETATM   29  C   UNL     1      -8.913   9.280  65.187  1.00  0.00    -0.257 A  
BRANCH  26  30
HETATM   30  O   UNL     1      -9.255   5.764  66.324  1.00  0.00    -0.152 OA 
HETATM   31  C   UNL     1     -10.445   4.987  66.264  1.00  0.00    -0.303 C  
ENDBRANCH  26  30
ENDBRANCH  23  24
ENDBRANCH  21  23
ENDBRANCH   3  21
ENDBRANCH   2   3
TORSDOF 14
ENDMDL
MODEL      247
REMARK 921   NORMALIZED FREE ENERGY PREDICTED BY IDOCK:   -3.71 KCAL/MOL
REMARK 922        TOTAL FREE ENERGY PREDICTED BY IDOCK:   -9.54 KCAL/MOL
REMARK 923 INTER-LIGAND FREE ENERGY PREDICTED BY IDOCK:   -7.69 KCAL/MOL
REMARK 924 INTRA-LIGAND FREE ENERGY PREDICTED BY IDOCK:   -1.85 KCAL/MOL
REMARK 927      BINDING AFFINITY PREDICTED BY RF-SCORE:    0.00 PKD
ROOT
HETATM    1  C   UNL     1     -13.294  11.475  71.997  1.00  0.00    -0.397 C  
HETATM    2  C   UNL     1     -13.073  10.126  71.322  1.00  0.00    -0.396 C  
ENDROOT
BRANCH   2   3
HETATM    3  N   UNL     1     -11.958  10.021  70.375  1.00  0.00    -0.258 NA 
BRANCH   3   4
HETATM    4  C   UNL     1     -11.364  11.305  69.960  1.00  0.00    -0.208 C  
BRANCH   4   5
HETATM    5  C   UNL     1     -11.897  11.840  68.621  1.00  0.00    -0.369 C  
BRANCH   5   6
HETATM    6  C   UNL     1     -11.665  13.345  68.482  1.00  0.00    -0.392 C  
BRANCH   6   7
HETATM    7  C   UNL     1     -12.033  13.808  67.077  1.00  0.00    -0.413 C  
BRANCH   7   8
HETATM    8  O   UNL     1     -12.080  12.681  66.192  1.00  0.00    -0.521 OA 
BRANCH   8   9
HETATM    9  C   UNL     1     -11.588  12.906  64.948  1.00  0.00    -0.327 C  
HETATM   10  O   UNL     1     -11.844  13.854  64.224  1.00  0.00    -0.408 OA 
BRANCH   9  11
HETATM   11  C   UNL     1     -10.700  11.789  64.549  1.00  0.00    -0.369 A  
HETATM   12  C   UNL     1     -10.337  10.778  65.447  1.00  0.00    -0.315 A  
HETATM   13  C   UNL     1      -9.476   9.754  65.041  1.00  0.00    -0.272 A  
HETATM   14  C   UNL     1      -9.358  10.749  62.828  1.00  0.00    -0.352 A  
HETATM   15  C   UNL     1      -8.983   9.739  63.718  1.00  0.00    -0.240 A  
HETATM   16  C   UNL     1     -10.205  11.779  63.243  1.00  0.00    -0.452 A  
BRANCH  13  17
HETATM   17  O   UNL     1      -9.053   8.733  65.857  1.00  0.00    -0.193 OA 
HETATM   18  C   UNL     1     -10.033   8.049  66.625  1.00  0.00    -0.256 C  
ENDBRANCH  13  17
BRANCH  15  19
HETATM   19  O   UNL     1      -8.142   8.703  63.398  1.00  0.00    -0.157 OA 
HETATM   20  C   UNL     1      -6.849   9.035  62.910  1.00  0.00    -0.093 C  
ENDBRANCH  15  19
ENDBRANCH   9  11
ENDBRANCH   8   9
ENDBRANCH   7   8
ENDBRANCH   6   7
ENDBRANCH   5   6
ENDBRANCH   4   5
ENDBRANCH   3   4
BRANCH   3  21
HETATM   21  C   UNL     1     -10.934   8.982  70.652  1.00  0.00    -0.257 C  
HETATM   22  C   UNL     1     -11.346   7.546  70.282  1.00  0.00    -0.219 C  
BRANCH  21  23
HETATM   23  C   UNL     1      -9.531   9.268  70.036  1.00  0.00    -0.236 C  
BRANCH  23  24
HETATM   24  C   UNL     1      -8.396   8.414  70.560  1.00  0.00    -0.126 A  
HETATM   25  C   UNL     1      -7.013   7.644  72.413  1.00  0.00    -0.071 A  
HETATM   26  C   UNL     1      -6.248   6.872  71.541  1.00  0.00    -0.038 A  
HETATM   27  C   UNL     1      -7.614   7.645  69.690  1.00  0.00    -0.093 A  
HETATM   28  C   UNL     1      -6.558   6.872  70.181  1.00  0.00    -0.044 A  
HETATM   29  C   UNL     1      -8.079   8.410  71.924  1.00  0.00    -0.193 A  
BRANCH  26  30
HETATM   30  O   UNL     1      -5.223   6.042  71.903  1.00  0.00    -0.020 OA 
HETATM   31  C   UNL     1      -5.244   4.735  71.342  1.00  0.00    -0.004 C  
ENDBRANCH  26  30
ENDBRANCH  23  24
ENDBRANCH  21  23
ENDBRANCH   3  21
ENDBRANCH   2   3
TORSDOF 14
ENDMDL
MODEL      248
REMARK 921   NORMALIZED FREE ENERGY PREDICTED BY IDOCK:   -3.71 KCAL/MOL
REMARK 922        TOTAL FREE ENERGY PREDICTED BY IDOCK:   -9.54 KCAL/MOL
REMARK 923 INTER-LIGAND FREE ENERGY PREDICTED BY IDOCK:   -7.19 KCAL/MOL
REMARK 924 INTRA-LIGAND FREE ENERGY PREDICTED BY IDOCK:   -2.34 KCAL/MOL
REMARK 927      BINDING AFFINITY PREDICTED BY RF-SCORE:    0.00 PKD
ROOT
HETATM    1  C   UNL     1      -6.806   8.962  66.693  1.00  0.00    -0.076 C  
HETATM    2  C   UNL     1      -7.612  10.151  66.183  1.00  0.00    -0.114 C  
ENDROOT
BRANCH   2   3
HETATM    3  N   UNL     1      -8.019  11.161  67.166  1.00  0.00    -0.133 NA 
BRANCH   3   4
HETATM    4  C   UNL     1      -7.113  12.318  67.289  1.00  0.00    -0.138 C  
BRANCH   4   5
HETATM    5  C   UNL     1      -6.569  12.541  68.709  1.00  0.00    -0.089 C  
BRANCH   5   6
HETATM    6  C   UNL     1      -5.240  13.298  68.692  1.00  0.00    -0.070 C  
BRANCH   6   7
HETATM    7  C   UNL     1      -5.478  14.774  68.397  1.00  0.00    -0.111 C  
BRANCH   7   8
HETATM    8  O   UNL     1      -6.685  15.209  69.036  1.00  0.00    -0.108 OA 
BRANCH   8   9
HETATM    9  C   UNL     1      -7.270  16.300  68.481  1.00  0.00    -0.159 C  
HETATM   10  O   UNL     1      -6.848  17.444  68.507  1.00  0.00    -0.186 OA 
BRANCH   9  11
HETATM   11  C   UNL     1      -8.556  15.916  67.855  1.00  0.00    -0.164 A  
HETATM   12  C   UNL     1      -9.750  15.873  68.585  1.00  0.00    -0.207 A  
HETATM   13  C   UNL     1     -10.939  15.480  67.964  1.00  0.00    -0.311 A  
HETATM   14  C   UNL     1      -9.736  15.192  65.872  1.00  0.00    -0.385 A  
HETATM   15  C   UNL     1     -10.933  15.138  66.593  1.00  0.00    -0.318 A  
HETATM   16  C   UNL     1      -8.548  15.569  66.501  1.00  0.00    -0.320 A  
BRANCH  13  17
HETATM   17  O   UNL     1     -12.151  15.391  68.605  1.00  0.00    -0.260 OA 
HETATM   18  C   UNL     1     -12.197  14.695  69.842  1.00  0.00    -0.316 C  
ENDBRANCH  13  17
BRANCH  15  19
HETATM   19  O   UNL     1     -12.138  14.762  66.058  1.00  0.00    -0.243 OA 
HETATM   20  C   UNL     1     -12.390  13.369  65.925  1.00  0.00    -0.437 C  
ENDBRANCH  15  19
ENDBRANCH   9  11
ENDBRANCH   8   9
ENDBRANCH   7   8
ENDBRANCH   6   7
ENDBRANCH   5   6
ENDBRANCH   4   5
ENDBRANCH   3   4
BRANCH   3  21
HETATM   21  C   UNL     1      -9.451  11.554  67.175  1.00  0.00    -0.177 C  
HETATM   22  C   UNL     1     -10.424  10.483  66.653  1.00  0.00    -0.290 C  
BRANCH  21  23
HETATM   23  C   UNL     1      -9.976  12.075  68.547  1.00  0.00    -0.188 C  
BRANCH  23  24
HETATM   24  C   UNL     1     -10.438  11.011  69.521  1.00  0.00    -0.133 A  
HETATM   25  C   UNL     1      -9.975   9.023  70.852  1.00  0.00    -0.326 A  
HETATM   26  C   UNL     1     -11.298   8.989  71.289  1.00  0.00    -0.319 A  
HETATM   27  C   UNL     1     -11.768  10.961  69.954  1.00  0.00    -0.418 A  
HETATM   28  C   UNL     1     -12.188   9.965  70.840  1.00  0.00    -0.420 A  
HETATM   29  C   UNL     1      -9.549  10.027  69.973  1.00  0.00    -0.205 A  
BRANCH  26  30
HETATM   30  O   UNL     1     -11.818   8.096  72.186  1.00  0.00    -0.315 OA 
HETATM   31  C   UNL     1     -11.180   6.826  72.250  1.00  0.00    -0.259 C  
ENDBRANCH  26  30
ENDBRANCH  23  24
ENDBRANCH  21  23
ENDBRANCH   3  21
ENDBRANCH   2   3
TORSDOF 14
ENDMDL
MODEL      249
REMARK 921   NORMALIZED FREE ENERGY PREDICTED BY IDOCK:   -3.71 KCAL/MOL
REMARK 922        TOTAL FREE ENERGY PREDICTED BY IDOCK:   -9.54 KCAL/MOL
REMARK 923 INTER-LIGAND FREE ENERGY PREDICTED BY IDOCK:   -6.14 KCAL/MOL
REMARK 924 INTRA-LIGAND FREE ENERGY PREDICTED BY IDOCK:   -3.40 KCAL/MOL
REMARK 927      BINDING AFFINITY PREDICTED BY RF-SCORE:    0.00 PKD
ROOT
HETATM    1  C   UNL     1     -12.977   7.145  71.495  1.00  0.00    -0.431 C  
HETATM    2  C   UNL     1     -11.772   6.423  72.086  1.00  0.00    -0.321 C  
ENDROOT
BRANCH   2   3
HETATM    3  N   UNL     1     -10.520   6.463  71.322  1.00  0.00    -0.211 NA 
BRANCH   3   4
HETATM    4  C   UNL     1     -10.633   6.052  69.911  1.00  0.00    -0.279 C  
BRANCH   4   5
HETATM    5  C   UNL     1      -9.963   4.706  69.592  1.00  0.00    -0.281 C  
BRANCH   5   6
HETATM    6  C   UNL     1      -8.680   4.892  68.781  1.00  0.00    -0.105 C  
BRANCH   6   7
HETATM    7  C   UNL     1      -9.005   4.986  67.294  1.00  0.00    -0.113 C  
BRANCH   7   8
HETATM    8  O   UNL     1      -8.993   6.359  66.881  1.00  0.00    -0.119 OA 
BRANCH   8   9
HETATM    9  C   UNL     1     -10.216   6.933  66.758  1.00  0.00    -0.206 C  
HETATM   10  O   UNL     1     -11.277   6.357  66.583  1.00  0.00    -0.245 OA 
BRANCH   9  11
HETATM   11  C   UNL     1     -10.087   8.407  66.823  1.00  0.00    -0.373 A  
HETATM   12  C   UNL     1     -10.622   9.150  67.883  1.00  0.00    -0.272 A  
HETATM   13  C   UNL     1     -10.503  10.543  67.896  1.00  0.00    -0.210 A  
HETATM   14  C   UNL     1      -9.293  10.444  65.790  1.00  0.00    -0.230 A  
HETATM   15  C   UNL     1      -9.830  11.196  66.839  1.00  0.00    -0.194 A  
HETATM   16  C   UNL     1      -9.430   9.055  65.774  1.00  0.00    -0.305 A  
BRANCH  13  17
HETATM   17  O   UNL     1     -11.011  11.352  68.882  1.00  0.00    -0.200 OA 
HETATM   18  C   UNL     1     -11.516  10.729  70.055  1.00  0.00    -0.331 C  
ENDBRANCH  13  17
BRANCH  15  19
HETATM   19  O   UNL     1      -9.757  12.564  66.923  1.00  0.00    -0.220 OA 
HETATM   20  C   UNL     1     -10.356  13.318  65.878  1.00  0.00    -0.292 C  
ENDBRANCH  15  19
ENDBRANCH   9  11
ENDBRANCH   8   9
ENDBRANCH   7   8
ENDBRANCH   6   7
ENDBRANCH   5   6
ENDBRANCH   4   5
ENDBRANCH   3   4
BRANCH   3  21
HETATM   21  C   UNL     1      -9.659   7.659  71.501  1.00  0.00    -0.154 C  
HETATM   22  C   UNL     1      -9.653   8.251  72.921  1.00  0.00    -0.320 C  
BRANCH  21  23
HETATM   23  C   UNL     1      -8.183   7.475  71.035  1.00  0.00    -0.108 C  
BRANCH  23  24
HETATM   24  C   UNL     1      -7.664   8.519  70.068  1.00  0.00    -0.086 A  
HETATM   25  C   UNL     1      -6.496   9.093  68.007  1.00  0.00    -0.059 A  
HETATM   26  C   UNL     1      -6.641  10.450  68.286  1.00  0.00    -0.060 A  
HETATM   27  C   UNL     1      -7.793   9.885  70.346  1.00  0.00    -0.066 A  
HETATM   28  C   UNL     1      -7.296  10.840  69.455  1.00  0.00    -0.128 A  
HETATM   29  C   UNL     1      -7.004   8.134  68.894  1.00  0.00    -0.062 A  
BRANCH  26  30
HETATM   30  O   UNL     1      -6.239  11.477  67.475  1.00  0.00    -0.060 OA 
HETATM   31  C   UNL     1      -6.290  12.781  68.041  1.00  0.00    -0.099 C  
ENDBRANCH  26  30
ENDBRANCH  23  24
ENDBRANCH  21  23
ENDBRANCH   3  21
ENDBRANCH   2   3
TORSDOF 14
ENDMDL
MODEL      250
REMARK 921   NORMALIZED FREE ENERGY PREDICTED BY IDOCK:   -3.70 KCAL/MOL
REMARK 922        TOTAL FREE ENERGY PREDICTED BY IDOCK:   -9.53 KCAL/MOL
REMARK 923 INTER-LIGAND FREE ENERGY PREDICTED BY IDOCK:   -7.29 KCAL/MOL
REMARK 924 INTRA-LIGAND FREE ENERGY PREDICTED BY IDOCK:   -2.23 KCAL/MOL
REMARK 927      BINDING AFFINITY PREDICTED BY RF-SCORE:    0.00 PKD
ROOT
HETATM    1  C   UNL     1     -12.854   7.163  71.761  1.00  0.00    -0.368 C  
HETATM    2  C   UNL     1     -11.512   6.633  72.250  1.00  0.00    -0.283 C  
ENDROOT
BRANCH   2   3
HETATM    3  N   UNL     1     -10.349   6.828  71.376  1.00  0.00    -0.202 NA 
BRANCH   3   4
HETATM    4  C   UNL     1     -10.663   7.005  69.946  1.00  0.00    -0.240 C  
BRANCH   4   5
HETATM    5  C   UNL     1     -10.375   5.767  69.082  1.00  0.00    -0.316 C  
BRANCH   5   6
HETATM    6  C   UNL     1      -9.641   6.137  67.793  1.00  0.00    -0.114 C  
BRANCH   6   7
HETATM    7  C   UNL     1     -10.569   6.907  66.860  1.00  0.00    -0.302 C  
BRANCH   7   8
HETATM    8  O   UNL     1     -10.597   8.290  67.236  1.00  0.00    -0.301 OA 
BRANCH   8   9
HETATM    9  C   UNL     1     -10.035   9.141  66.342  1.00  0.00    -0.288 C  
HETATM   10  O   UNL     1      -9.164   8.874  65.531  1.00  0.00    -0.220 OA 
BRANCH   9  11
HETATM   11  C   UNL     1     -10.604  10.498  66.514  1.00  0.00    -0.240 A  
HETATM   12  C   UNL     1     -10.675  11.409  65.453  1.00  0.00    -0.313 A  
HETATM   13  C   UNL     1     -11.195  12.690  65.661  1.00  0.00    -0.309 A  
HETATM   14  C   UNL     1     -11.591  12.136  67.994  1.00  0.00    -0.411 A  
HETATM   15  C   UNL     1     -11.660  13.056  66.944  1.00  0.00    -0.366 A  
HETATM   16  C   UNL     1     -11.055  10.864  67.785  1.00  0.00    -0.371 A  
BRANCH  13  17
HETATM   17  O   UNL     1     -11.287  13.653  64.686  1.00  0.00    -0.340 OA 
HETATM   18  C   UNL     1     -11.914  13.299  63.461  1.00  0.00    -0.474 C  
ENDBRANCH  13  17
BRANCH  15  19
HETATM   19  O   UNL     1     -12.153  14.331  67.067  1.00  0.00    -0.425 OA 
HETATM   20  C   UNL     1     -11.628  15.139  68.111  1.00  0.00    -0.341 C  
ENDBRANCH  15  19
ENDBRANCH   9  11
ENDBRANCH   8   9
ENDBRANCH   7   8
ENDBRANCH   6   7
ENDBRANCH   5   6
ENDBRANCH   4   5
ENDBRANCH   3   4
BRANCH   3  21
HETATM   21  C   UNL     1      -9.300   7.765  71.850  1.00  0.00    -0.153 C  
HETATM   22  C   UNL     1      -9.281   8.008  73.369  1.00  0.00    -0.332 C  
BRANCH  21  23
HETATM   23  C   UNL     1      -7.854   7.412  71.387  1.00  0.00    -0.095 C  
BRANCH  23  24
HETATM   24  C   UNL     1      -7.375   8.115  70.134  1.00  0.00    -0.060 A  
HETATM   25  C   UNL     1      -7.507   9.990  68.582  1.00  0.00    -0.083 A  
HETATM   26  C   UNL     1      -6.534   9.407  67.772  1.00  0.00    -0.059 A  
HETATM   27  C   UNL     1      -6.407   7.532  69.307  1.00  0.00    -0.035 A  
HETATM   28  C   UNL     1      -5.983   8.180  68.144  1.00  0.00    -0.042 A  
HETATM   29  C   UNL     1      -7.925   9.346  69.754  1.00  0.00    -0.119 A  
BRANCH  26  30
HETATM   30  O   UNL     1      -6.005   9.962  66.639  1.00  0.00    -0.053 OA 
HETATM   31  C   UNL     1      -5.396   9.059  65.723  1.00  0.00    -0.040 C  
ENDBRANCH  26  30
ENDBRANCH  23  24
ENDBRANCH  21  23
ENDBRANCH   3  21
ENDBRANCH   2   3
TORSDOF 14
ENDMDL
MODEL      251
REMARK 921   NORMALIZED FREE ENERGY PREDICTED BY IDOCK:   -3.70 KCAL/MOL
REMARK 922        TOTAL FREE ENERGY PREDICTED BY IDOCK:   -9.52 KCAL/MOL
REMARK 923 INTER-LIGAND FREE ENERGY PREDICTED BY IDOCK:   -8.05 KCAL/MOL
REMARK 924 INTRA-LIGAND FREE ENERGY PREDICTED BY IDOCK:   -1.47 KCAL/MOL
REMARK 927      BINDING AFFINITY PREDICTED BY RF-SCORE:    0.00 PKD
ROOT
HETATM    1  C   UNL     1     -11.849   9.462  71.713  1.00  0.00    -0.452 C  
HETATM    2  C   UNL     1     -10.636   9.392  70.793  1.00  0.00    -0.303 C  
ENDROOT
BRANCH   2   3
HETATM    3  N   UNL     1     -10.800   8.695  69.512  1.00  0.00    -0.181 NA 
BRANCH   3   4
HETATM    4  C   UNL     1     -10.052   9.275  68.382  1.00  0.00    -0.191 C  
BRANCH   4   5
HETATM    5  C   UNL     1     -10.890  10.190  67.476  1.00  0.00    -0.349 C  
BRANCH   5   6
HETATM    6  C   UNL     1     -10.588  11.668  67.729  1.00  0.00    -0.227 C  
BRANCH   6   7
HETATM    7  C   UNL     1      -9.133  11.843  68.151  1.00  0.00    -0.190 C  
BRANCH   7   8
HETATM    8  O   UNL     1      -8.871  13.226  68.423  1.00  0.00    -0.177 OA 
BRANCH   8   9
HETATM    9  C   UNL     1      -7.996  13.823  67.576  1.00  0.00    -0.181 C  
HETATM   10  O   UNL     1      -6.898  13.404  67.248  1.00  0.00    -0.146 OA 
BRANCH   9  11
HETATM   11  C   UNL     1      -8.546  15.119  67.116  1.00  0.00    -0.247 A  
HETATM   12  C   UNL     1      -7.742  16.089  66.505  1.00  0.00    -0.167 A  
HETATM   13  C   UNL     1      -8.293  17.311  66.109  1.00  0.00    -0.203 A  
HETATM   14  C   UNL     1     -10.464  16.580  66.922  1.00  0.00    -0.282 A  
HETATM   15  C   UNL     1      -9.668  17.558  66.318  1.00  0.00    -0.258 A  
HETATM   16  C   UNL     1      -9.904  15.368  67.331  1.00  0.00    -0.216 A  
BRANCH  13  17
HETATM   17  O   UNL     1      -7.578  18.325  65.520  1.00  0.00    -0.518 OA 
HETATM   18  C   UNL     1      -6.419  18.795  66.193  1.00  0.00    -0.208 C  
ENDBRANCH  13  17
BRANCH  15  19
HETATM   19  O   UNL     1     -10.132  18.781  65.904  1.00  0.00    -0.512 OA 
HETATM   20  C   UNL     1     -10.817  19.580  66.859  1.00  0.00    -0.411 C  
ENDBRANCH  15  19
ENDBRANCH   9  11
ENDBRANCH   8   9
ENDBRANCH   7   8
ENDBRANCH   6   7
ENDBRANCH   5   6
ENDBRANCH   4   5
ENDBRANCH   3   4
BRANCH   3  21
HETATM   21  C   UNL     1     -10.735   7.212  69.538  1.00  0.00    -0.239 C  
HETATM   22  C   UNL     1     -10.759   6.535  68.156  1.00  0.00    -0.347 C  
BRANCH  21  23
HETATM   23  C   UNL     1      -9.546   6.626  70.356  1.00  0.00    -0.173 C  
BRANCH  23  24
HETATM   24  C   UNL     1      -9.892   5.495  71.302  1.00  0.00    -0.228 A  
HETATM   25  C   UNL     1      -9.713   3.151  71.946  1.00  0.00    -0.234 A  
HETATM   26  C   UNL     1     -10.575   3.365  73.020  1.00  0.00    -0.152 A  
HETATM   27  C   UNL     1     -10.768   5.697  72.376  1.00  0.00    -0.286 A  
HETATM   28  C   UNL     1     -11.094   4.643  73.233  1.00  0.00    -0.403 A  
HETATM   29  C   UNL     1      -9.376   4.209  71.093  1.00  0.00    -0.219 A  
BRANCH  26  30
HETATM   30  O   UNL     1     -10.933   2.430  73.952  1.00  0.00    -0.167 OA 
HETATM   31  C   UNL     1     -12.020   1.579  73.603  1.00  0.00    -0.183 C  
ENDBRANCH  26  30
ENDBRANCH  23  24
ENDBRANCH  21  23
ENDBRANCH   3  21
ENDBRANCH   2   3
TORSDOF 14
ENDMDL
MODEL      252
REMARK 921   NORMALIZED FREE ENERGY PREDICTED BY IDOCK:   -3.70 KCAL/MOL
REMARK 922        TOTAL FREE ENERGY PREDICTED BY IDOCK:   -9.52 KCAL/MOL
REMARK 923 INTER-LIGAND FREE ENERGY PREDICTED BY IDOCK:   -8.18 KCAL/MOL
REMARK 924 INTRA-LIGAND FREE ENERGY PREDICTED BY IDOCK:   -1.34 KCAL/MOL
REMARK 927      BINDING AFFINITY PREDICTED BY RF-SCORE:    0.00 PKD
ROOT
HETATM    1  C   UNL     1     -10.210  12.694  64.430  1.00  0.00    -0.344 C  
HETATM    2  C   UNL     1     -10.476  12.209  65.850  1.00  0.00    -0.254 C  
ENDROOT
BRANCH   2   3
HETATM    3  N   UNL     1     -10.394  13.201  66.928  1.00  0.00    -0.245 NA 
BRANCH   3   4
HETATM    4  C   UNL     1     -11.574  13.267  67.810  1.00  0.00    -0.342 C  
BRANCH   4   5
HETATM    5  C   UNL     1     -11.926  11.934  68.489  1.00  0.00    -0.273 C  
BRANCH   5   6
HETATM    6  C   UNL     1     -11.782  12.019  70.009  1.00  0.00    -0.346 C  
BRANCH   6   7
HETATM    7  C   UNL     1     -12.909  11.250  70.689  1.00  0.00    -0.141 C  
BRANCH   7   8
HETATM    8  O   UNL     1     -12.362  10.328  71.641  1.00  0.00    -0.388 OA 
BRANCH   8   9
HETATM    9  C   UNL     1     -12.938   9.100  71.649  1.00  0.00    -0.365 C  
HETATM   10  O   UNL     1     -14.120   8.850  71.488  1.00  0.00    -0.380 OA 
BRANCH   9  11
HETATM   11  C   UNL     1     -11.915   8.067  71.933  1.00  0.00    -0.359 A  
HETATM   12  C   UNL     1     -10.600   8.405  72.277  1.00  0.00    -0.412 A  
HETATM   13  C   UNL     1      -9.655   7.401  72.512  1.00  0.00    -0.157 A  
HETATM   14  C   UNL     1     -11.354   5.719  72.074  1.00  0.00    -0.289 A  
HETATM   15  C   UNL     1     -10.037   6.045  72.411  1.00  0.00    -0.175 A  
HETATM   16  C   UNL     1     -12.289   6.726  71.824  1.00  0.00    -0.400 A  
BRANCH  13  17
HETATM   17  O   UNL     1      -8.342   7.638  72.835  1.00  0.00    -0.114 OA 
HETATM   18  C   UNL     1      -8.057   8.114  74.143  1.00  0.00    -0.253 C  
ENDBRANCH  13  17
BRANCH  15  19
HETATM   19  O   UNL     1      -9.053   5.120  72.653  1.00  0.00    -0.131 OA 
HETATM   20  C   UNL     1      -9.428   3.749  72.657  1.00  0.00    -0.124 C  
ENDBRANCH  15  19
ENDBRANCH   9  11
ENDBRANCH   8   9
ENDBRANCH   7   8
ENDBRANCH   6   7
ENDBRANCH   5   6
ENDBRANCH   4   5
ENDBRANCH   3   4
BRANCH   3  21
HETATM   21  C   UNL     1      -9.116  13.277  67.679  1.00  0.00    -0.204 C  
HETATM   22  C   UNL     1      -8.439  11.923  67.952  1.00  0.00    -0.154 C  
BRANCH  21  23
HETATM   23  C   UNL     1      -8.058  14.245  67.069  1.00  0.00    -0.068 C  
BRANCH  23  24
HETATM   24  C   UNL     1      -8.316  15.722  67.285  1.00  0.00    -0.213 A  
HETATM   25  C   UNL     1      -9.284  17.525  68.608  1.00  0.00    -0.267 A  
HETATM   26  C   UNL     1      -8.854  18.463  67.672  1.00  0.00    -0.263 A  
HETATM   27  C   UNL     1      -7.899  16.671  66.344  1.00  0.00    -0.347 A  
HETATM   28  C   UNL     1      -8.156  18.030  66.544  1.00  0.00    -0.298 A  
HETATM   29  C   UNL     1      -9.018  16.164  68.414  1.00  0.00    -0.196 A  
BRANCH  26  30
HETATM   30  O   UNL     1      -9.004  19.819  67.777  1.00  0.00    -0.313 OA 
HETATM   31  C   UNL     1     -10.110  20.384  67.083  1.00  0.00    -0.362 C  
ENDBRANCH  26  30
ENDBRANCH  23  24
ENDBRANCH  21  23
ENDBRANCH   3  21
ENDBRANCH   2   3
TORSDOF 14
ENDMDL
MODEL      253
REMARK 921   NORMALIZED FREE ENERGY PREDICTED BY IDOCK:   -3.70 KCAL/MOL
REMARK 922        TOTAL FREE ENERGY PREDICTED BY IDOCK:   -9.52 KCAL/MOL
REMARK 923 INTER-LIGAND FREE ENERGY PREDICTED BY IDOCK:   -7.62 KCAL/MOL
REMARK 924 INTRA-LIGAND FREE ENERGY PREDICTED BY IDOCK:   -1.89 KCAL/MOL
REMARK 927      BINDING AFFINITY PREDICTED BY RF-SCORE:    0.00 PKD
ROOT
HETATM    1  C   UNL     1      -6.114   9.452  67.110  1.00  0.00    -0.063 C  
HETATM    2  C   UNL     1      -7.609   9.261  67.336  1.00  0.00    -0.088 C  
ENDROOT
BRANCH   2   3
HETATM    3  N   UNL     1      -8.511   9.640  66.242  1.00  0.00    -0.119 NA 
BRANCH   3   4
HETATM    4  C   UNL     1      -9.593   8.679  65.960  1.00  0.00    -0.195 C  
BRANCH   4   5
HETATM    5  C   UNL     1      -9.890   7.710  67.116  1.00  0.00    -0.265 C  
BRANCH   5   6
HETATM    6  C   UNL     1     -10.880   6.621  66.699  1.00  0.00    -0.185 C  
BRANCH   6   7
HETATM    7  C   UNL     1     -10.172   5.274  66.603  1.00  0.00    -0.253 C  
BRANCH   7   8
HETATM    8  O   UNL     1      -9.275   5.117  67.710  1.00  0.00    -0.110 OA 
BRANCH   8   9
HETATM    9  C   UNL     1      -9.594   4.119  68.572  1.00  0.00    -0.125 C  
HETATM   10  O   UNL     1      -9.648   2.928  68.318  1.00  0.00    -0.184 OA 
BRANCH   9  11
HETATM   11  C   UNL     1      -9.923   4.689  69.899  1.00  0.00    -0.296 A  
HETATM   12  C   UNL     1     -10.803   5.768  70.042  1.00  0.00    -0.403 A  
HETATM   13  C   UNL     1     -11.069   6.295  71.310  1.00  0.00    -0.289 A  
HETATM   14  C   UNL     1      -9.583   4.643  72.293  1.00  0.00    -0.200 A  
HETATM   15  C   UNL     1     -10.454   5.725  72.446  1.00  0.00    -0.211 A  
HETATM   16  C   UNL     1      -9.308   4.131  71.023  1.00  0.00    -0.219 A  
BRANCH  13  17
HETATM   17  O   UNL     1     -11.903   7.362  71.543  1.00  0.00    -0.273 OA 
HETATM   18  C   UNL     1     -13.300   7.157  71.389  1.00  0.00    -0.307 C  
ENDBRANCH  13  17
BRANCH  15  19
HETATM   19  O   UNL     1     -10.764   6.299  73.653  1.00  0.00    -0.267 OA 
HETATM   20  C   UNL     1      -9.683   6.682  74.494  1.00  0.00    -0.288 C  
ENDBRANCH  15  19
ENDBRANCH   9  11
ENDBRANCH   8   9
ENDBRANCH   7   8
ENDBRANCH   6   7
ENDBRANCH   5   6
ENDBRANCH   4   5
ENDBRANCH   3   4
BRANCH   3  21
HETATM   21  C   UNL     1      -8.976  11.049  66.210  1.00  0.00    -0.185 C  
HETATM   22  C   UNL     1     -10.424  11.246  65.726  1.00  0.00    -0.310 C  
BRANCH  21  23
HETATM   23  C   UNL     1      -8.792  11.828  67.548  1.00  0.00    -0.162 C  
BRANCH  23  24
HETATM   24  C   UNL     1      -9.958  11.765  68.512  1.00  0.00    -0.203 A  
HETATM   25  C   UNL     1     -11.810  12.856  69.660  1.00  0.00    -0.387 A  
HETATM   26  C   UNL     1     -12.096  11.679  70.348  1.00  0.00    -0.373 A  
HETATM   27  C   UNL     1     -10.245  10.591  69.218  1.00  0.00    -0.245 A  
HETATM   28  C   UNL     1     -11.313  10.547  70.118  1.00  0.00    -0.400 A  
HETATM   29  C   UNL     1     -10.747  12.898  68.749  1.00  0.00    -0.249 A  
BRANCH  26  30
HETATM   30  O   UNL     1     -13.137  11.498  71.217  1.00  0.00    -0.336 OA 
HETATM   31  C   UNL     1     -13.320  12.512  72.199  1.00  0.00    -0.435 C  
ENDBRANCH  26  30
ENDBRANCH  23  24
ENDBRANCH  21  23
ENDBRANCH   3  21
ENDBRANCH   2   3
TORSDOF 14
ENDMDL
MODEL      254
REMARK 921   NORMALIZED FREE ENERGY PREDICTED BY IDOCK:   -3.69 KCAL/MOL
REMARK 922        TOTAL FREE ENERGY PREDICTED BY IDOCK:   -9.51 KCAL/MOL
REMARK 923 INTER-LIGAND FREE ENERGY PREDICTED BY IDOCK:   -7.64 KCAL/MOL
REMARK 924 INTRA-LIGAND FREE ENERGY PREDICTED BY IDOCK:   -1.87 KCAL/MOL
REMARK 927      BINDING AFFINITY PREDICTED BY RF-SCORE:    0.00 PKD
ROOT
HETATM    1  C   UNL     1     -12.223  14.133  69.938  1.00  0.00    -0.416 C  
HETATM    2  C   UNL     1     -11.879  13.687  68.522  1.00  0.00    -0.371 C  
ENDROOT
BRANCH   2   3
HETATM    3  N   UNL     1     -11.424  14.718  67.582  1.00  0.00    -0.336 NA 
BRANCH   3   4
HETATM    4  C   UNL     1      -9.966  14.940  67.552  1.00  0.00    -0.219 C  
BRANCH   4   5
HETATM    5  C   UNL     1      -9.143  13.783  68.139  1.00  0.00    -0.194 C  
BRANCH   5   6
HETATM    6  C   UNL     1      -7.820  13.596  67.394  1.00  0.00    -0.162 C  
BRANCH   6   7
HETATM    7  C   UNL     1      -6.952  12.567  68.111  1.00  0.00    -0.089 C  
BRANCH   7   8
HETATM    8  O   UNL     1      -7.784  11.650  68.834  1.00  0.00    -0.125 OA 
BRANCH   8   9
HETATM    9  C   UNL     1      -7.137  10.581  69.362  1.00  0.00    -0.110 C  
HETATM   10  O   UNL     1      -5.949  10.327  69.263  1.00  0.00    -0.037 OA 
BRANCH   9  11
HETATM   11  C   UNL     1      -8.104   9.707  70.064  1.00  0.00    -0.190 A  
HETATM   12  C   UNL     1      -7.687   8.706  70.950  1.00  0.00    -0.104 A  
HETATM   13  C   UNL     1      -8.629   7.883  71.575  1.00  0.00    -0.121 A  
HETATM   14  C   UNL     1     -10.410   9.080  70.435  1.00  0.00    -0.253 A  
HETATM   15  C   UNL     1     -10.005   8.073  71.315  1.00  0.00    -0.174 A  
HETATM   16  C   UNL     1      -9.464   9.888  69.801  1.00  0.00    -0.254 A  
BRANCH  13  17
HETATM   17  O   UNL     1      -8.311   6.866  72.442  1.00  0.00    -0.111 OA 
HETATM   18  C   UNL     1      -7.833   5.648  71.889  1.00  0.00    -0.106 C  
ENDBRANCH  13  17
BRANCH  15  19
HETATM   19  O   UNL     1     -10.865   7.224  71.964  1.00  0.00    -0.225 OA 
HETATM   20  C   UNL     1     -11.778   6.481  71.167  1.00  0.00    -0.335 C  
ENDBRANCH  15  19
ENDBRANCH   9  11
ENDBRANCH   8   9
ENDBRANCH   7   8
ENDBRANCH   6   7
ENDBRANCH   5   6
ENDBRANCH   4   5
ENDBRANCH   3   4
BRANCH   3  21
HETATM   21  C   UNL     1     -12.027  14.708  66.226  1.00  0.00    -0.251 C  
HETATM   22  C   UNL     1     -11.128  15.267  65.109  1.00  0.00    -0.412 C  
BRANCH  21  23
HETATM   23  C   UNL     1     -12.582  13.325  65.769  1.00  0.00    -0.413 C  
BRANCH  23  24
HETATM   24  C   UNL     1     -11.554  12.342  65.250  1.00  0.00    -0.419 A  
HETATM   25  C   UNL     1      -9.792  10.712  65.667  1.00  0.00    -0.307 A  
HETATM   26  C   UNL     1      -9.594  10.552  64.297  1.00  0.00    -0.307 A  
HETATM   27  C   UNL     1     -11.339  12.185  63.875  1.00  0.00    -0.501 A  
HETATM   28  C   UNL     1     -10.376  11.288  63.406  1.00  0.00    -0.449 A  
HETATM   29  C   UNL     1     -10.764  11.602  66.139  1.00  0.00    -0.325 A  
BRANCH  26  30
HETATM   30  O   UNL     1      -8.719   9.676  63.715  1.00  0.00    -0.195 OA 
HETATM   31  C   UNL     1      -8.335   8.555  64.503  1.00  0.00    -0.128 C  
ENDBRANCH  26  30
ENDBRANCH  23  24
ENDBRANCH  21  23
ENDBRANCH   3  21
ENDBRANCH   2   3
TORSDOF 14
ENDMDL
MODEL      255
REMARK 921   NORMALIZED FREE ENERGY PREDICTED BY IDOCK:   -3.69 KCAL/MOL
REMARK 922        TOTAL FREE ENERGY PREDICTED BY IDOCK:   -9.50 KCAL/MOL
REMARK 923 INTER-LIGAND FREE ENERGY PREDICTED BY IDOCK:   -7.96 KCAL/MOL
REMARK 924 INTRA-LIGAND FREE ENERGY PREDICTED BY IDOCK:   -1.54 KCAL/MOL
REMARK 927      BINDING AFFINITY PREDICTED BY RF-SCORE:    0.00 PKD
ROOT
HETATM    1  C   UNL     1     -11.410  10.535  70.566  1.00  0.00    -0.400 C  
HETATM    2  C   UNL     1     -12.262  10.797  69.330  1.00  0.00    -0.171 C  
ENDROOT
BRANCH   2   3
HETATM    3  N   UNL     1     -12.068  12.075  68.636  1.00  0.00    -0.328 NA 
BRANCH   3   4
HETATM    4  C   UNL     1     -11.437  13.137  69.442  1.00  0.00    -0.260 C  
BRANCH   4   5
HETATM    5  C   UNL     1     -12.376  14.301  69.795  1.00  0.00    -0.342 C  
BRANCH   5   6
HETATM    6  C   UNL     1     -11.712  15.656  69.553  1.00  0.00    -0.382 C  
BRANCH   6   7
HETATM    7  C   UNL     1     -10.246  15.465  69.179  1.00  0.00    -0.239 C  
BRANCH   7   8
HETATM    8  O   UNL     1      -9.623  16.743  68.988  1.00  0.00    -0.259 OA 
BRANCH   8   9
HETATM    9  C   UNL     1      -8.269  16.718  68.922  1.00  0.00    -0.224 C  
HETATM   10  O   UNL     1      -7.532  15.862  69.383  1.00  0.00    -0.219 OA 
BRANCH   9  11
HETATM   11  C   UNL     1      -7.778  17.932  68.230  1.00  0.00    -0.279 A  
HETATM   12  C   UNL     1      -6.885  18.821  68.841  1.00  0.00    -0.316 A  
HETATM   13  C   UNL     1      -6.465  19.970  68.166  1.00  0.00    -0.266 A  
HETATM   14  C   UNL     1      -7.822  19.327  66.255  1.00  0.00    -0.311 A  
HETATM   15  C   UNL     1      -6.937  20.225  66.859  1.00  0.00    -0.252 A  
HETATM   16  C   UNL     1      -8.252  18.189  66.941  1.00  0.00    -0.258 A  
BRANCH  13  17
HETATM   17  O   UNL     1      -5.607  20.905  68.692  1.00  0.00    -0.310 OA 
HETATM   18  C   UNL     1      -5.272  20.795  70.068  1.00  0.00    -0.354 C  
ENDBRANCH  13  17
BRANCH  15  19
HETATM   19  O   UNL     1      -6.480  21.374  66.264  1.00  0.00    -0.254 OA 
HETATM   20  C   UNL     1      -5.548  21.236  65.200  1.00  0.00    -0.144 C  
ENDBRANCH  15  19
ENDBRANCH   9  11
ENDBRANCH   8   9
ENDBRANCH   7   8
ENDBRANCH   6   7
ENDBRANCH   5   6
ENDBRANCH   4   5
ENDBRANCH   3   4
BRANCH   3  21
HETATM   21  C   UNL     1     -11.536  12.017  67.252  1.00  0.00    -0.335 C  
HETATM   22  C   UNL     1     -11.965  13.179  66.339  1.00  0.00    -0.462 C  
BRANCH  21  23
HETATM   23  C   UNL     1      -9.989  11.856  67.154  1.00  0.00    -0.209 C  
BRANCH  23  24
HETATM   24  C   UNL     1      -9.475  10.431  67.151  1.00  0.00    -0.183 A  
HETATM   25  C   UNL     1      -7.701   8.825  67.615  1.00  0.00    -0.101 A  
HETATM   26  C   UNL     1      -8.481   7.792  67.099  1.00  0.00    -0.124 A  
HETATM   27  C   UNL     1     -10.245   9.389  66.622  1.00  0.00    -0.319 A  
HETATM   28  C   UNL     1      -9.756   8.080  66.609  1.00  0.00    -0.313 A  
HETATM   29  C   UNL     1      -8.195  10.136  67.640  1.00  0.00    -0.110 A  
BRANCH  26  30
HETATM   30  O   UNL     1      -8.133   6.469  67.071  1.00  0.00    -0.110 OA 
HETATM   31  C   UNL     1      -8.359   5.785  65.844  1.00  0.00    -0.130 C  
ENDBRANCH  26  30
ENDBRANCH  23  24
ENDBRANCH  21  23
ENDBRANCH   3  21
ENDBRANCH   2   3
TORSDOF 14
ENDMDL
MODEL      256
REMARK 921   NORMALIZED FREE ENERGY PREDICTED BY IDOCK:   -3.68 KCAL/MOL
REMARK 922        TOTAL FREE ENERGY PREDICTED BY IDOCK:   -9.48 KCAL/MOL
REMARK 923 INTER-LIGAND FREE ENERGY PREDICTED BY IDOCK:   -7.09 KCAL/MOL
REMARK 924 INTRA-LIGAND FREE ENERGY PREDICTED BY IDOCK:   -2.39 KCAL/MOL
REMARK 927      BINDING AFFINITY PREDICTED BY RF-SCORE:    0.00 PKD
ROOT
HETATM    1  C   UNL     1      -7.970   8.594  70.760  1.00  0.00    -0.127 C  
HETATM    2  C   UNL     1      -9.300   9.049  71.348  1.00  0.00    -0.240 C  
ENDROOT
BRANCH   2   3
HETATM    3  N   UNL     1      -9.872   8.240  72.430  1.00  0.00    -0.278 NA 
BRANCH   3   4
HETATM    4  C   UNL     1     -11.235   7.734  72.181  1.00  0.00    -0.297 C  
BRANCH   4   5
HETATM    5  C   UNL     1     -11.680   7.823  70.713  1.00  0.00    -0.242 C  
BRANCH   5   6
HETATM    6  C   UNL     1     -11.510   6.486  69.989  1.00  0.00    -0.476 C  
BRANCH   6   7
HETATM    7  C   UNL     1     -10.766   6.690  68.674  1.00  0.00    -0.254 C  
BRANCH   7   8
HETATM    8  O   UNL     1     -10.706   8.088  68.362  1.00  0.00    -0.139 OA 
BRANCH   8   9
HETATM    9  C   UNL     1     -10.188   8.384  67.143  1.00  0.00    -0.292 C  
HETATM   10  O   UNL     1      -9.537   7.640  66.429  1.00  0.00    -0.200 OA 
BRANCH   9  11
HETATM   11  C   UNL     1     -10.490   9.792  66.798  1.00  0.00    -0.259 A  
HETATM   12  C   UNL     1     -11.056  10.675  67.726  1.00  0.00    -0.385 A  
HETATM   13  C   UNL     1     -11.350  11.991  67.355  1.00  0.00    -0.327 A  
HETATM   14  C   UNL     1     -10.492  11.539  65.126  1.00  0.00    -0.340 A  
HETATM   15  C   UNL     1     -11.064  12.427  66.042  1.00  0.00    -0.308 A  
HETATM   16  C   UNL     1     -10.216  10.222  65.497  1.00  0.00    -0.308 A  
BRANCH  13  17
HETATM   17  O   UNL     1     -11.921  12.919  68.191  1.00  0.00    -0.336 OA 
HETATM   18  C   UNL     1     -11.796  12.715  69.591  1.00  0.00    -0.311 C  
ENDBRANCH  13  17
BRANCH  15  19
HETATM   19  O   UNL     1     -11.384  13.730  65.755  1.00  0.00    -0.300 OA 
HETATM   20  C   UNL     1     -10.562  14.417  64.822  1.00  0.00    -0.393 C  
ENDBRANCH  15  19
ENDBRANCH   9  11
ENDBRANCH   8   9
ENDBRANCH   7   8
ENDBRANCH   6   7
ENDBRANCH   5   6
ENDBRANCH   4   5
ENDBRANCH   3   4
BRANCH   3  21
HETATM   21  C   UNL     1      -8.989   7.219  73.048  1.00  0.00    -0.138 C  
HETATM   22  C   UNL     1      -8.313   7.652  74.361  1.00  0.00    -0.268 C  
BRANCH  21  23
HETATM   23  C   UNL     1      -9.655   5.828  73.268  1.00  0.00    -0.145 C  
BRANCH  23  24
HETATM   24  C   UNL     1      -9.149   4.709  72.382  1.00  0.00    -0.142 A  
HETATM   25  C   UNL     1      -8.041   3.967  70.342  1.00  0.00    -0.058 A  
HETATM   26  C   UNL     1      -8.254   2.635  70.693  1.00  0.00    -0.049 A  
HETATM   27  C   UNL     1      -9.370   3.368  72.719  1.00  0.00    -0.140 A  
HETATM   28  C   UNL     1      -8.914   2.342  71.887  1.00  0.00    -0.128 A  
HETATM   29  C   UNL     1      -8.488   4.996  71.181  1.00  0.00    -0.123 A  
BRANCH  26  30
HETATM   30  O   UNL     1      -7.818   1.547  69.988  1.00  0.00    -0.042 OA 
HETATM   31  C   UNL     1      -7.954   1.619  68.573  1.00  0.00    -0.049 C  
ENDBRANCH  26  30
ENDBRANCH  23  24
ENDBRANCH  21  23
ENDBRANCH   3  21
ENDBRANCH   2   3
TORSDOF 14
ENDMDL
MODEL      257
REMARK 921   NORMALIZED FREE ENERGY PREDICTED BY IDOCK:   -3.66 KCAL/MOL
REMARK 922        TOTAL FREE ENERGY PREDICTED BY IDOCK:   -9.44 KCAL/MOL
REMARK 923 INTER-LIGAND FREE ENERGY PREDICTED BY IDOCK:   -7.89 KCAL/MOL
REMARK 924 INTRA-LIGAND FREE ENERGY PREDICTED BY IDOCK:   -1.55 KCAL/MOL
REMARK 927      BINDING AFFINITY PREDICTED BY RF-SCORE:    0.00 PKD
ROOT
HETATM    1  C   UNL     1     -11.941  13.419  69.355  1.00  0.00    -0.369 C  
HETATM    2  C   UNL     1     -11.681  13.403  67.853  1.00  0.00    -0.361 C  
ENDROOT
BRANCH   2   3
HETATM    3  N   UNL     1     -10.359  13.842  67.393  1.00  0.00    -0.251 NA 
BRANCH   3   4
HETATM    4  C   UNL     1      -9.577  12.824  66.668  1.00  0.00    -0.255 C  
BRANCH   4   5
HETATM    5  C   UNL     1      -9.715  11.403  67.236  1.00  0.00    -0.201 C  
BRANCH   5   6
HETATM    6  C   UNL     1      -9.267  10.345  66.227  1.00  0.00    -0.195 C  
BRANCH   6   7
HETATM    7  C   UNL     1      -8.253   9.403  66.866  1.00  0.00    -0.116 C  
BRANCH   7   8
HETATM    8  O   UNL     1      -7.725   9.995  68.059  1.00  0.00    -0.088 OA 
BRANCH   8   9
HETATM    9  C   UNL     1      -7.419   9.120  69.049  1.00  0.00    -0.074 C  
HETATM   10  O   UNL     1      -6.314   8.676  69.312  1.00  0.00    -0.041 OA 
BRANCH   9  11
HETATM   11  C   UNL     1      -8.651   8.725  69.769  1.00  0.00    -0.131 A  
HETATM   12  C   UNL     1      -9.136   7.412  69.737  1.00  0.00    -0.141 A  
HETATM   13  C   UNL     1     -10.318   7.082  70.408  1.00  0.00    -0.202 A  
HETATM   14  C   UNL     1     -10.516   9.385  71.160  1.00  0.00    -0.392 A  
HETATM   15  C   UNL     1     -11.013   8.079  71.128  1.00  0.00    -0.243 A  
HETATM   16  C   UNL     1      -9.344   9.712  70.474  1.00  0.00    -0.227 A  
BRANCH  13  17
HETATM   17  O   UNL     1     -10.877   5.828  70.416  1.00  0.00    -0.291 OA 
HETATM   18  C   UNL     1     -10.036   4.726  70.105  1.00  0.00    -0.251 C  
ENDBRANCH  13  17
BRANCH  15  19
HETATM   19  O   UNL     1     -12.165   7.678  71.757  1.00  0.00    -0.290 OA 
HETATM   20  C   UNL     1     -13.152   8.668  72.011  1.00  0.00    -0.381 C  
ENDBRANCH  15  19
ENDBRANCH   9  11
ENDBRANCH   8   9
ENDBRANCH   7   8
ENDBRANCH   6   7
ENDBRANCH   5   6
ENDBRANCH   4   5
ENDBRANCH   3   4
BRANCH   3  21
HETATM   21  C   UNL     1     -10.276  15.183  66.761  1.00  0.00    -0.264 C  
HETATM   22  C   UNL     1     -10.967  15.301  65.391  1.00  0.00    -0.380 C  
BRANCH  21  23
HETATM   23  C   UNL     1     -10.757  16.360  67.662  1.00  0.00    -0.312 C  
BRANCH  23  24
HETATM   24  C   UNL     1      -9.740  17.454  67.913  1.00  0.00    -0.272 A  
HETATM   25  C   UNL     1      -9.068  19.791  67.747  1.00  0.00    -0.412 A  
HETATM   26  C   UNL     1      -7.835  19.492  68.322  1.00  0.00    -0.327 A  
HETATM   27  C   UNL     1      -8.493  17.162  68.478  1.00  0.00    -0.262 A  
HETATM   28  C   UNL     1      -7.555  18.176  68.690  1.00  0.00    -0.306 A  
HETATM   29  C   UNL     1     -10.014  18.777  67.543  1.00  0.00    -0.382 A  
BRANCH  26  30
HETATM   30  O   UNL     1      -6.855  20.400  68.621  1.00  0.00    -0.264 OA 
HETATM   31  C   UNL     1      -5.516  19.926  68.545  1.00  0.00    -0.206 C  
ENDBRANCH  26  30
ENDBRANCH  23  24
ENDBRANCH  21  23
ENDBRANCH   3  21
ENDBRANCH   2   3
TORSDOF 14
ENDMDL
MODEL      258
REMARK 921   NORMALIZED FREE ENERGY PREDICTED BY IDOCK:   -3.66 KCAL/MOL
REMARK 922        TOTAL FREE ENERGY PREDICTED BY IDOCK:   -9.44 KCAL/MOL
REMARK 923 INTER-LIGAND FREE ENERGY PREDICTED BY IDOCK:   -8.22 KCAL/MOL
REMARK 924 INTRA-LIGAND FREE ENERGY PREDICTED BY IDOCK:   -1.22 KCAL/MOL
REMARK 927      BINDING AFFINITY PREDICTED BY RF-SCORE:    0.00 PKD
ROOT
HETATM    1  C   UNL     1      -9.579  11.325  62.859  1.00  0.00    -0.377 C  
HETATM    2  C   UNL     1     -10.315  12.163  63.898  1.00  0.00    -0.415 C  
ENDROOT
BRANCH   2   3
HETATM    3  N   UNL     1     -10.083  11.843  65.311  1.00  0.00    -0.252 NA 
BRANCH   3   4
HETATM    4  C   UNL     1     -11.298  11.745  66.140  1.00  0.00    -0.280 C  
BRANCH   4   5
HETATM    5  C   UNL     1     -11.745  13.077  66.761  1.00  0.00    -0.440 C  
BRANCH   5   6
HETATM    6  C   UNL     1     -11.915  12.965  68.276  1.00  0.00    -0.297 C  
BRANCH   6   7
HETATM    7  C   UNL     1     -12.023  14.353  68.899  1.00  0.00    -0.302 C  
BRANCH   7   8
HETATM    8  O   UNL     1     -10.865  14.615  69.703  1.00  0.00    -0.241 OA 
BRANCH   8   9
HETATM    9  C   UNL     1     -10.692  15.913  70.057  1.00  0.00    -0.339 C  
HETATM   10  O   UNL     1     -11.114  16.456  71.064  1.00  0.00    -0.221 OA 
BRANCH   9  11
HETATM   11  C   UNL     1      -9.932  16.623  69.002  1.00  0.00    -0.280 A  
HETATM   12  C   UNL     1     -10.339  17.871  68.512  1.00  0.00    -0.365 A  
HETATM   13  C   UNL     1      -9.610  18.498  67.498  1.00  0.00    -0.287 A  
HETATM   14  C   UNL     1      -8.054  16.631  67.479  1.00  0.00    -0.184 A  
HETATM   15  C   UNL     1      -8.455  17.873  66.977  1.00  0.00    -0.236 A  
HETATM   16  C   UNL     1      -8.795  16.001  68.481  1.00  0.00    -0.199 A  
BRANCH  13  17
HETATM   17  O   UNL     1      -9.944  19.710  66.944  1.00  0.00    -0.345 OA 
HETATM   18  C   UNL     1     -10.869  19.714  65.866  1.00  0.00    -0.317 C  
ENDBRANCH  13  17
BRANCH  15  19
HETATM   19  O   UNL     1      -7.796  18.551  65.983  1.00  0.00    -0.424 OA 
HETATM   20  C   UNL     1      -6.401  18.319  65.844  1.00  0.00    -0.250 C  
ENDBRANCH  15  19
ENDBRANCH   9  11
ENDBRANCH   8   9
ENDBRANCH   7   8
ENDBRANCH   6   7
ENDBRANCH   5   6
ENDBRANCH   4   5
ENDBRANCH   3   4
BRANCH   3  21
HETATM   21  C   UNL     1      -9.102  10.769  65.607  1.00  0.00    -0.194 C  
HETATM   22  C   UNL     1      -8.109  11.087  66.738  1.00  0.00    -0.151 C  
BRANCH  21  23
HETATM   23  C   UNL     1      -9.731   9.369  65.879  1.00  0.00    -0.355 C  
BRANCH  23  24
HETATM   24  C   UNL     1      -9.648   8.877  67.309  1.00  0.00    -0.212 A  
HETATM   25  C   UNL     1      -8.515   7.579  69.032  1.00  0.00    -0.133 A  
HETATM   26  C   UNL     1      -9.510   7.905  69.952  1.00  0.00    -0.160 A  
HETATM   27  C   UNL     1     -10.649   9.189  68.236  1.00  0.00    -0.223 A  
HETATM   28  C   UNL     1     -10.571   8.716  69.549  1.00  0.00    -0.218 A  
HETATM   29  C   UNL     1      -8.586   8.061  67.719  1.00  0.00    -0.128 A  
BRANCH  26  30
HETATM   30  O   UNL     1      -9.523   7.543  71.272  1.00  0.00    -0.151 OA 
HETATM   31  C   UNL     1     -10.635   7.997  72.036  1.00  0.00    -0.248 C  
ENDBRANCH  26  30
ENDBRANCH  23  24
ENDBRANCH  21  23
ENDBRANCH   3  21
ENDBRANCH   2   3
TORSDOF 14
ENDMDL
MODEL      259
REMARK 921   NORMALIZED FREE ENERGY PREDICTED BY IDOCK:   -3.65 KCAL/MOL
REMARK 922        TOTAL FREE ENERGY PREDICTED BY IDOCK:   -9.43 KCAL/MOL
REMARK 923 INTER-LIGAND FREE ENERGY PREDICTED BY IDOCK:   -6.21 KCAL/MOL
REMARK 924 INTRA-LIGAND FREE ENERGY PREDICTED BY IDOCK:   -3.22 KCAL/MOL
REMARK 927      BINDING AFFINITY PREDICTED BY RF-SCORE:    0.00 PKD
ROOT
HETATM    1  C   UNL     1     -13.297   9.895  71.300  1.00  0.00    -0.419 C  
HETATM    2  C   UNL     1     -11.824   9.662  71.616  1.00  0.00    -0.384 C  
ENDROOT
BRANCH   2   3
HETATM    3  N   UNL     1     -11.018   8.971  70.604  1.00  0.00    -0.244 NA 
BRANCH   3   4
HETATM    4  C   UNL     1      -9.868   9.737  70.088  1.00  0.00    -0.255 C  
BRANCH   4   5
HETATM    5  C   UNL     1     -10.253  10.897  69.157  1.00  0.00    -0.215 C  
BRANCH   5   6
HETATM    6  C   UNL     1     -11.187  10.437  68.036  1.00  0.00    -0.340 C  
BRANCH   6   7
HETATM    7  C   UNL     1     -10.572  10.748  66.676  1.00  0.00    -0.232 C  
BRANCH   7   8
HETATM    8  O   UNL     1     -10.113   9.536  66.063  1.00  0.00    -0.295 OA 
BRANCH   8   9
HETATM    9  C   UNL     1      -8.837   9.570  65.604  1.00  0.00    -0.161 C  
HETATM   10  O   UNL     1      -8.484   9.666  64.440  1.00  0.00    -0.155 OA 
BRANCH   9  11
HETATM   11  C   UNL     1      -7.892   9.428  66.736  1.00  0.00    -0.105 A  
HETATM   12  C   UNL     1      -6.984  10.440  67.072  1.00  0.00    -0.090 A  
HETATM   13  C   UNL     1      -6.090  10.258  68.131  1.00  0.00    -0.047 A  
HETATM   14  C   UNL     1      -7.031   8.053  68.528  1.00  0.00    -0.072 A  
HETATM   15  C   UNL     1      -6.115   9.053  68.868  1.00  0.00    -0.044 A  
HETATM   16  C   UNL     1      -7.911   8.233  67.459  1.00  0.00    -0.106 A  
BRANCH  13  17
HETATM   17  O   UNL     1      -5.155  11.186  68.519  1.00  0.00    -0.041 OA 
HETATM   18  C   UNL     1      -5.618  12.473  68.904  1.00  0.00    -0.063 C  
ENDBRANCH  13  17
BRANCH  15  19
HETATM   19  O   UNL     1      -5.206   8.950  69.890  1.00  0.00    -0.029 OA 
HETATM   20  C   UNL     1      -5.708   8.972  71.219  1.00  0.00    -0.051 C  
ENDBRANCH  15  19
ENDBRANCH   9  11
ENDBRANCH   8   9
ENDBRANCH   7   8
ENDBRANCH   6   7
ENDBRANCH   5   6
ENDBRANCH   4   5
ENDBRANCH   3   4
BRANCH   3  21
HETATM   21  C   UNL     1     -10.685   7.548  70.863  1.00  0.00    -0.235 C  
HETATM   22  C   UNL     1     -10.771   7.117  72.338  1.00  0.00    -0.273 C  
BRANCH  21  23
HETATM   23  C   UNL     1     -11.483   6.524  70.001  1.00  0.00    -0.476 C  
BRANCH  23  24
HETATM   24  C   UNL     1     -10.714   5.878  68.868  1.00  0.00    -0.370 A  
HETATM   25  C   UNL     1     -10.336   5.564  66.481  1.00  0.00    -0.309 A  
HETATM   26  C   UNL     1      -9.329   4.639  66.746  1.00  0.00    -0.146 A  
HETATM   27  C   UNL     1      -9.709   4.937  69.124  1.00  0.00    -0.252 A  
HETATM   28  C   UNL     1      -9.016   4.334  68.071  1.00  0.00    -0.148 A  
HETATM   29  C   UNL     1     -11.024   6.178  67.535  1.00  0.00    -0.404 A  
BRANCH  26  30
HETATM   30  O   UNL     1      -8.551   4.017  65.808  1.00  0.00    -0.109 OA 
HETATM   31  C   UNL     1      -9.038   4.043  64.471  1.00  0.00    -0.142 C  
ENDBRANCH  26  30
ENDBRANCH  23  24
ENDBRANCH  21  23
ENDBRANCH   3  21
ENDBRANCH   2   3
TORSDOF 14
ENDMDL
MODEL      260
REMARK 921   NORMALIZED FREE ENERGY PREDICTED BY IDOCK:   -3.65 KCAL/MOL
REMARK 922        TOTAL FREE ENERGY PREDICTED BY IDOCK:   -9.42 KCAL/MOL
REMARK 923 INTER-LIGAND FREE ENERGY PREDICTED BY IDOCK:   -8.00 KCAL/MOL
REMARK 924 INTRA-LIGAND FREE ENERGY PREDICTED BY IDOCK:   -1.42 KCAL/MOL
REMARK 927      BINDING AFFINITY PREDICTED BY RF-SCORE:    0.00 PKD
ROOT
HETATM    1  C   UNL     1      -6.905  10.519  69.893  1.00  0.00    -0.149 C  
HETATM    2  C   UNL     1      -7.530  10.456  68.505  1.00  0.00    -0.089 C  
ENDROOT
BRANCH   2   3
HETATM    3  N   UNL     1      -8.357   9.285  68.190  1.00  0.00    -0.119 NA 
BRANCH   3   4
HETATM    4  C   UNL     1      -9.588   9.154  68.990  1.00  0.00    -0.156 C  
BRANCH   4   5
HETATM    5  C   UNL     1     -10.372  10.465  69.157  1.00  0.00    -0.241 C  
BRANCH   5   6
HETATM    6  C   UNL     1     -11.219  10.458  70.430  1.00  0.00    -0.399 C  
BRANCH   6   7
HETATM    7  C   UNL     1     -11.527   9.026  70.851  1.00  0.00    -0.291 C  
BRANCH   7   8
HETATM    8  O   UNL     1     -11.164   8.834  72.224  1.00  0.00    -0.354 OA 
BRANCH   8   9
HETATM    9  C   UNL     1      -9.960   8.244  72.424  1.00  0.00    -0.309 C  
HETATM   10  O   UNL     1      -8.884   8.806  72.542  1.00  0.00    -0.402 OA 
BRANCH   9  11
HETATM   11  C   UNL     1     -10.119   6.771  72.439  1.00  0.00    -0.188 A  
HETATM   12  C   UNL     1      -9.708   5.973  71.365  1.00  0.00    -0.189 A  
HETATM   13  C   UNL     1      -9.899   4.589  71.405  1.00  0.00    -0.194 A  
HETATM   14  C   UNL     1     -10.897   4.804  73.610  1.00  0.00    -0.377 A  
HETATM   15  C   UNL     1     -10.498   3.998  72.540  1.00  0.00    -0.117 A  
HETATM   16  C   UNL     1     -10.720   6.188  73.558  1.00  0.00    -0.263 A  
BRANCH  13  17
HETATM   17  O   UNL     1      -9.545   3.731  70.391  1.00  0.00    -0.175 OA 
HETATM   18  C   UNL     1      -9.385   4.275  69.089  1.00  0.00    -0.161 C  
ENDBRANCH  13  17
BRANCH  15  19
HETATM   19  O   UNL     1     -10.652   2.635  72.502  1.00  0.00    -0.127 OA 
HETATM   20  C   UNL     1     -11.147   1.999  73.672  1.00  0.00    -0.193 C  
ENDBRANCH  15  19
ENDBRANCH   9  11
ENDBRANCH   8   9
ENDBRANCH   7   8
ENDBRANCH   6   7
ENDBRANCH   5   6
ENDBRANCH   4   5
ENDBRANCH   3   4
BRANCH   3  21
HETATM   21  C   UNL     1      -8.575   8.980  66.753  1.00  0.00    -0.123 C  
HETATM   22  C   UNL     1      -9.959   8.400  66.413  1.00  0.00    -0.291 C  
BRANCH  21  23
HETATM   23  C   UNL     1      -8.283  10.165  65.784  1.00  0.00    -0.144 C  
BRANCH  23  24
HETATM   24  C   UNL     1      -9.466  11.052  65.454  1.00  0.00    -0.257 A  
HETATM   25  C   UNL     1     -11.174  11.796  63.884  1.00  0.00    -0.493 A  
HETATM   26  C   UNL     1     -11.632  12.737  64.805  1.00  0.00    -0.325 A  
HETATM   27  C   UNL     1      -9.924  12.009  66.367  1.00  0.00    -0.240 A  
HETATM   28  C   UNL     1     -11.006  12.834  66.048  1.00  0.00    -0.306 A  
HETATM   29  C   UNL     1     -10.098  10.961  64.207  1.00  0.00    -0.413 A  
BRANCH  26  30
HETATM   30  O   UNL     1     -12.705  13.567  64.628  1.00  0.00    -0.641 OA 
HETATM   31  C   UNL     1     -12.406  14.915  64.283  1.00  0.00    -0.277 C  
ENDBRANCH  26  30
ENDBRANCH  23  24
ENDBRANCH  21  23
ENDBRANCH   3  21
ENDBRANCH   2   3
TORSDOF 14
ENDMDL
MODEL      261
REMARK 921   NORMALIZED FREE ENERGY PREDICTED BY IDOCK:   -3.64 KCAL/MOL
REMARK 922        TOTAL FREE ENERGY PREDICTED BY IDOCK:   -9.41 KCAL/MOL
REMARK 923 INTER-LIGAND FREE ENERGY PREDICTED BY IDOCK:   -8.34 KCAL/MOL
REMARK 924 INTRA-LIGAND FREE ENERGY PREDICTED BY IDOCK:   -1.07 KCAL/MOL
REMARK 927      BINDING AFFINITY PREDICTED BY RF-SCORE:    0.00 PKD
ROOT
HETATM    1  C   UNL     1     -13.129  10.803  72.067  1.00  0.00    -0.476 C  
HETATM    2  C   UNL     1     -13.059   9.736  70.982  1.00  0.00    -0.291 C  
ENDROOT
BRANCH   2   3
HETATM    3  N   UNL     1     -11.844   9.686  70.161  1.00  0.00    -0.106 NA 
BRANCH   3   4
HETATM    4  C   UNL     1     -11.178  10.984  69.947  1.00  0.00    -0.252 C  
BRANCH   4   5
HETATM    5  C   UNL     1     -11.776  11.816  68.802  1.00  0.00    -0.389 C  
BRANCH   5   6
HETATM    6  C   UNL     1     -11.581  13.315  69.031  1.00  0.00    -0.359 C  
BRANCH   6   7
HETATM    7  C   UNL     1     -11.447  14.039  67.695  1.00  0.00    -0.334 C  
BRANCH   7   8
HETATM    8  O   UNL     1     -10.390  15.005  67.771  1.00  0.00    -0.242 OA 
BRANCH   8   9
HETATM    9  C   UNL     1     -10.388  15.935  66.783  1.00  0.00    -0.298 C  
HETATM   10  O   UNL     1     -10.950  15.851  65.704  1.00  0.00    -0.290 OA 
BRANCH   9  11
HETATM   11  C   UNL     1      -9.549  17.089  67.181  1.00  0.00    -0.253 A  
HETATM   12  C   UNL     1      -8.369  17.413  66.502  1.00  0.00    -0.308 A  
HETATM   13  C   UNL     1      -7.590  18.494  66.924  1.00  0.00    -0.221 A  
HETATM   14  C   UNL     1      -9.190  18.937  68.698  1.00  0.00    -0.399 A  
HETATM   15  C   UNL     1      -8.006  19.265  68.032  1.00  0.00    -0.304 A  
HETATM   16  C   UNL     1      -9.956  17.846  68.283  1.00  0.00    -0.360 A  
BRANCH  13  17
HETATM   17  O   UNL     1      -6.410  18.873  66.331  1.00  0.00    -0.183 OA 
HETATM   18  C   UNL     1      -6.241  18.588  64.949  1.00  0.00    -0.049 C  
ENDBRANCH  13  17
BRANCH  15  19
HETATM   19  O   UNL     1      -7.186  20.307  68.385  1.00  0.00    -0.267 OA 
HETATM   20  C   UNL     1      -6.504  20.213  69.628  1.00  0.00    -0.298 C  
ENDBRANCH  15  19
ENDBRANCH   9  11
ENDBRANCH   8   9
ENDBRANCH   7   8
ENDBRANCH   6   7
ENDBRANCH   5   6
ENDBRANCH   4   5
ENDBRANCH   3   4
BRANCH   3  21
HETATM   21  C   UNL     1     -10.882   8.592  70.446  1.00  0.00    -0.227 C  
HETATM   22  C   UNL     1      -9.850   8.902  71.545  1.00  0.00    -0.384 C  
BRANCH  21  23
HETATM   23  C   UNL     1     -11.536   7.212  70.757  1.00  0.00    -0.358 C  
BRANCH  23  24
HETATM   24  C   UNL     1     -10.730   5.996  70.352  1.00  0.00    -0.358 A  
HETATM   25  C   UNL     1      -9.733   4.605  68.618  1.00  0.00    -0.217 A  
HETATM   26  C   UNL     1      -9.279   3.704  69.580  1.00  0.00    -0.155 A  
HETATM   27  C   UNL     1     -10.282   5.079  71.310  1.00  0.00    -0.273 A  
HETATM   28  C   UNL     1      -9.553   3.950  70.926  1.00  0.00    -0.258 A  
HETATM   29  C   UNL     1     -10.454   5.742  69.002  1.00  0.00    -0.336 A  
BRANCH  26  30
HETATM   30  O   UNL     1      -8.521   2.592  69.335  1.00  0.00    -0.057 OA 
HETATM   31  C   UNL     1      -7.360   2.433  70.143  1.00  0.00    -0.040 C  
ENDBRANCH  26  30
ENDBRANCH  23  24
ENDBRANCH  21  23
ENDBRANCH   3  21
ENDBRANCH   2   3
TORSDOF 14
ENDMDL
MODEL      262
REMARK 921   NORMALIZED FREE ENERGY PREDICTED BY IDOCK:   -3.64 KCAL/MOL
REMARK 922        TOTAL FREE ENERGY PREDICTED BY IDOCK:   -9.41 KCAL/MOL
REMARK 923 INTER-LIGAND FREE ENERGY PREDICTED BY IDOCK:   -7.45 KCAL/MOL
REMARK 924 INTRA-LIGAND FREE ENERGY PREDICTED BY IDOCK:   -1.96 KCAL/MOL
REMARK 927      BINDING AFFINITY PREDICTED BY RF-SCORE:    0.00 PKD
ROOT
HETATM    1  C   UNL     1     -12.320  11.765  70.466  1.00  0.00    -0.387 C  
HETATM    2  C   UNL     1     -12.165  10.361  69.893  1.00  0.00    -0.146 C  
ENDROOT
BRANCH   2   3
HETATM    3  N   UNL     1     -10.872  10.017  69.292  1.00  0.00    -0.221 NA 
BRANCH   3   4
HETATM    4  C   UNL     1      -9.974  11.159  69.039  1.00  0.00    -0.137 C  
BRANCH   4   5
HETATM    5  C   UNL     1      -8.740  10.813  68.190  1.00  0.00    -0.130 C  
BRANCH   5   6
HETATM    6  C   UNL     1      -7.499  11.570  68.662  1.00  0.00    -0.116 C  
BRANCH   6   7
HETATM    7  C   UNL     1      -6.999  12.500  67.562  1.00  0.00    -0.149 C  
BRANCH   7   8
HETATM    8  O   UNL     1      -6.706  13.791  68.113  1.00  0.00    -0.094 OA 
BRANCH   8   9
HETATM    9  C   UNL     1      -7.346  14.829  67.518  1.00  0.00    -0.201 C  
HETATM   10  O   UNL     1      -6.870  15.613  66.715  1.00  0.00    -0.203 OA 
BRANCH   9  11
HETATM   11  C   UNL     1      -8.736  14.915  68.021  1.00  0.00    -0.165 A  
HETATM   12  C   UNL     1      -9.827  14.488  67.254  1.00  0.00    -0.236 A  
HETATM   13  C   UNL     1     -11.128  14.610  67.753  1.00  0.00    -0.298 A  
HETATM   14  C   UNL     1     -10.238  15.572  69.799  1.00  0.00    -0.301 A  
HETATM   15  C   UNL     1     -11.335  15.156  69.039  1.00  0.00    -0.294 A  
HETATM   16  C   UNL     1      -8.942  15.464  69.290  1.00  0.00    -0.261 A  
BRANCH  13  17
HETATM   17  O   UNL     1     -12.256  14.236  67.065  1.00  0.00    -0.424 OA 
HETATM   18  C   UNL     1     -12.158  13.126  66.184  1.00  0.00    -0.417 C  
ENDBRANCH  13  17
BRANCH  15  19
HETATM   19  O   UNL     1     -12.639  15.245  69.456  1.00  0.00    -0.139 OA 
HETATM   20  C   UNL     1     -12.874  15.361  70.852  1.00  0.00    -0.476 C  
ENDBRANCH  15  19
ENDBRANCH   9  11
ENDBRANCH   8   9
ENDBRANCH   7   8
ENDBRANCH   6   7
ENDBRANCH   5   6
ENDBRANCH   4   5
ENDBRANCH   3   4
BRANCH   3  21
HETATM   21  C   UNL     1     -10.157   8.843  69.855  1.00  0.00    -0.195 C  
HETATM   22  C   UNL     1      -9.514   9.073  71.234  1.00  0.00    -0.339 C  
BRANCH  21  23
HETATM   23  C   UNL     1     -11.000   7.534  69.913  1.00  0.00    -0.223 C  
BRANCH  23  24
HETATM   24  C   UNL     1     -10.677   6.496  68.858  1.00  0.00    -0.318 A  
HETATM   25  C   UNL     1      -9.784   4.312  68.247  1.00  0.00    -0.162 A  
HETATM   26  C   UNL     1     -10.016   4.578  66.899  1.00  0.00    -0.198 A  
HETATM   27  C   UNL     1     -10.893   6.760  67.500  1.00  0.00    -0.388 A  
HETATM   28  C   UNL     1     -10.577   5.802  66.532  1.00  0.00    -0.294 A  
HETATM   29  C   UNL     1     -10.112   5.266  69.219  1.00  0.00    -0.300 A  
BRANCH  26  30
HETATM   30  O   UNL     1      -9.792   3.709  65.866  1.00  0.00    -0.134 OA 
HETATM   31  C   UNL     1      -8.430   3.449  65.548  1.00  0.00    -0.108 C  
ENDBRANCH  26  30
ENDBRANCH  23  24
ENDBRANCH  21  23
ENDBRANCH   3  21
ENDBRANCH   2   3
TORSDOF 14
ENDMDL
MODEL      263
REMARK 921   NORMALIZED FREE ENERGY PREDICTED BY IDOCK:   -3.64 KCAL/MOL
REMARK 922        TOTAL FREE ENERGY PREDICTED BY IDOCK:   -9.40 KCAL/MOL
REMARK 923 INTER-LIGAND FREE ENERGY PREDICTED BY IDOCK:   -7.84 KCAL/MOL
REMARK 924 INTRA-LIGAND FREE ENERGY PREDICTED BY IDOCK:   -1.56 KCAL/MOL
REMARK 927      BINDING AFFINITY PREDICTED BY RF-SCORE:    0.00 PKD
ROOT
HETATM    1  C   UNL     1      -8.121  12.501  68.139  1.00  0.00    -0.167 C  
HETATM    2  C   UNL     1      -9.119  12.130  67.048  1.00  0.00    -0.198 C  
ENDROOT
BRANCH   2   3
HETATM    3  N   UNL     1     -10.535  12.419  67.301  1.00  0.00    -0.221 NA 
BRANCH   3   4
HETATM    4  C   UNL     1     -10.937  12.389  68.719  1.00  0.00    -0.246 C  
BRANCH   4   5
HETATM    5  C   UNL     1     -11.704  11.122  69.128  1.00  0.00    -0.408 C  
BRANCH   5   6
HETATM    6  C   UNL     1     -12.562  11.359  70.372  1.00  0.00    -0.267 C  
BRANCH   6   7
HETATM    7  C   UNL     1     -12.109  10.446  71.506  1.00  0.00    -0.270 C  
BRANCH   7   8
HETATM    8  O   UNL     1     -10.959   9.696  71.095  1.00  0.00    -0.336 OA 
BRANCH   8   9
HETATM    9  C   UNL     1     -10.875   8.443  71.608  1.00  0.00    -0.268 C  
HETATM   10  O   UNL     1     -11.175   8.097  72.738  1.00  0.00    -0.389 OA 
BRANCH   9  11
HETATM   11  C   UNL     1     -10.310   7.522  70.594  1.00  0.00    -0.211 A  
HETATM   12  C   UNL     1     -10.267   7.857  69.235  1.00  0.00    -0.216 A  
HETATM   13  C   UNL     1      -9.750   6.951  68.305  1.00  0.00    -0.132 A  
HETATM   14  C   UNL     1      -9.304   5.379  70.104  1.00  0.00    -0.193 A  
HETATM   15  C   UNL     1      -9.262   5.700  68.744  1.00  0.00    -0.118 A  
HETATM   16  C   UNL     1      -9.836   6.281  71.027  1.00  0.00    -0.206 A  
BRANCH  13  17
HETATM   17  O   UNL     1      -9.684   7.186  66.953  1.00  0.00    -0.165 OA 
HETATM   18  C   UNL     1      -8.952   8.321  66.513  1.00  0.00    -0.156 C  
ENDBRANCH  13  17
BRANCH  15  19
HETATM   19  O   UNL     1      -8.773   4.866  67.770  1.00  0.00    -0.103 OA 
HETATM   20  C   UNL     1      -9.361   3.577  67.656  1.00  0.00    -0.204 C  
ENDBRANCH  15  19
ENDBRANCH   9  11
ENDBRANCH   8   9
ENDBRANCH   7   8
ENDBRANCH   6   7
ENDBRANCH   5   6
ENDBRANCH   4   5
ENDBRANCH   3   4
BRANCH   3  21
HETATM   21  C   UNL     1     -11.133  13.560  66.563  1.00  0.00    -0.300 C  
HETATM   22  C   UNL     1     -12.108  14.426  67.381  1.00  0.00    -0.348 C  
BRANCH  21  23
HETATM   23  C   UNL     1     -10.101  14.499  65.867  1.00  0.00    -0.346 C  
BRANCH  23  24
HETATM   24  C   UNL     1      -9.822  15.808  66.575  1.00  0.00    -0.286 A  
HETATM   25  C   UNL     1     -10.109  18.223  66.740  1.00  0.00    -0.375 A  
HETATM   26  C   UNL     1      -9.264  18.263  67.847  1.00  0.00    -0.276 A  
HETATM   27  C   UNL     1      -8.963  15.860  67.679  1.00  0.00    -0.193 A  
HETATM   28  C   UNL     1      -8.698  17.076  68.315  1.00  0.00    -0.241 A  
HETATM   29  C   UNL     1     -10.385  17.003  66.108  1.00  0.00    -0.326 A  
BRANCH  26  30
HETATM   30  O   UNL     1      -8.964  19.378  68.580  1.00  0.00    -0.353 OA 
HETATM   31  C   UNL     1      -7.611  19.507  69.004  1.00  0.00    -0.321 C  
ENDBRANCH  26  30
ENDBRANCH  23  24
ENDBRANCH  21  23
ENDBRANCH   3  21
ENDBRANCH   2   3
TORSDOF 14
ENDMDL
MODEL      264
REMARK 921   NORMALIZED FREE ENERGY PREDICTED BY IDOCK:   -3.63 KCAL/MOL
REMARK 922        TOTAL FREE ENERGY PREDICTED BY IDOCK:   -9.39 KCAL/MOL
REMARK 923 INTER-LIGAND FREE ENERGY PREDICTED BY IDOCK:   -8.14 KCAL/MOL
REMARK 924 INTRA-LIGAND FREE ENERGY PREDICTED BY IDOCK:   -1.25 KCAL/MOL
REMARK 927      BINDING AFFINITY PREDICTED BY RF-SCORE:    0.00 PKD
ROOT
HETATM    1  C   UNL     1     -11.837  13.611  68.724  1.00  0.00    -0.395 C  
HETATM    2  C   UNL     1     -11.898  13.957  67.241  1.00  0.00    -0.407 C  
ENDROOT
BRANCH   2   3
HETATM    3  N   UNL     1     -10.627  14.219  66.556  1.00  0.00    -0.283 NA 
BRANCH   3   4
HETATM    4  C   UNL     1     -10.315  13.305  65.442  1.00  0.00    -0.306 C  
BRANCH   4   5
HETATM    5  C   UNL     1     -10.897  11.892  65.607  1.00  0.00    -0.333 C  
BRANCH   5   6
HETATM    6  C   UNL     1     -10.649  11.031  64.368  1.00  0.00    -0.395 C  
BRANCH   6   7
HETATM    7  C   UNL     1      -9.654   9.921  64.688  1.00  0.00    -0.252 C  
BRANCH   7   8
HETATM    8  O   UNL     1      -9.065  10.152  65.974  1.00  0.00    -0.146 OA 
BRANCH   8   9
HETATM    9  C   UNL     1      -8.102   9.267  66.334  1.00  0.00    -0.107 C  
HETATM   10  O   UNL     1      -6.917   9.327  66.052  1.00  0.00    -0.086 OA 
BRANCH   9  11
HETATM   11  C   UNL     1      -8.704   8.156  67.104  1.00  0.00    -0.130 A  
HETATM   12  C   UNL     1      -8.690   6.837  66.633  1.00  0.00    -0.128 A  
HETATM   13  C   UNL     1      -9.292   5.818  67.377  1.00  0.00    -0.112 A  
HETATM   14  C   UNL     1      -9.908   7.442  69.077  1.00  0.00    -0.168 A  
HETATM   15  C   UNL     1      -9.905   6.124  68.613  1.00  0.00    -0.138 A  
HETATM   16  C   UNL     1      -9.319   8.459  68.322  1.00  0.00    -0.139 A  
BRANCH  13  17
HETATM   17  O   UNL     1      -9.342   4.502  66.986  1.00  0.00    -0.126 OA 
HETATM   18  C   UNL     1      -9.157   4.214  65.607  1.00  0.00    -0.137 C  
ENDBRANCH  13  17
BRANCH  15  19
HETATM   19  O   UNL     1     -10.476   5.070  69.281  1.00  0.00    -0.190 OA 
HETATM   20  C   UNL     1      -9.918   4.713  70.539  1.00  0.00    -0.225 C  
ENDBRANCH  15  19
ENDBRANCH   9  11
ENDBRANCH   8   9
ENDBRANCH   7   8
ENDBRANCH   6   7
ENDBRANCH   5   6
ENDBRANCH   4   5
ENDBRANCH   3   4
BRANCH   3  21
HETATM   21  C   UNL     1     -10.312  15.634  66.238  1.00  0.00    -0.306 C  
HETATM   22  C   UNL     1     -11.007  16.190  64.982  1.00  0.00    -0.357 C  
BRANCH  21  23
HETATM   23  C   UNL     1     -10.538  16.633  67.412  1.00  0.00    -0.295 C  
BRANCH  23  24
HETATM   24  C   UNL     1      -9.676  17.878  67.392  1.00  0.00    -0.288 A  
HETATM   25  C   UNL     1      -9.472  20.306  67.438  1.00  0.00    -0.547 A  
HETATM   26  C   UNL     1      -8.089  20.207  67.298  1.00  0.00    -0.330 A  
HETATM   27  C   UNL     1      -8.287  17.789  67.239  1.00  0.00    -0.228 A  
HETATM   28  C   UNL     1      -7.502  18.945  67.205  1.00  0.00    -0.237 A  
HETATM   29  C   UNL     1     -10.259  19.149  67.483  1.00  0.00    -0.493 A  
BRANCH  26  30
HETATM   30  O   UNL     1      -7.212  21.257  67.297  1.00  0.00    -0.508 OA 
HETATM   31  C   UNL     1      -6.032  21.092  68.076  1.00  0.00    -0.345 C  
ENDBRANCH  26  30
ENDBRANCH  23  24
ENDBRANCH  21  23
ENDBRANCH   3  21
ENDBRANCH   2   3
TORSDOF 14
ENDMDL
MODEL      265
REMARK 921   NORMALIZED FREE ENERGY PREDICTED BY IDOCK:   -3.62 KCAL/MOL
REMARK 922        TOTAL FREE ENERGY PREDICTED BY IDOCK:   -9.37 KCAL/MOL
REMARK 923 INTER-LIGAND FREE ENERGY PREDICTED BY IDOCK:   -7.19 KCAL/MOL
REMARK 924 INTRA-LIGAND FREE ENERGY PREDICTED BY IDOCK:   -2.18 KCAL/MOL
REMARK 927      BINDING AFFINITY PREDICTED BY RF-SCORE:    0.00 PKD
ROOT
HETATM    1  C   UNL     1     -11.605  15.857  68.937  1.00  0.00    -0.392 C  
HETATM    2  C   UNL     1     -10.162  15.827  69.424  1.00  0.00    -0.262 C  
ENDROOT
BRANCH   2   3
HETATM    3  N   UNL     1      -9.171  16.579  68.646  1.00  0.00    -0.230 NA 
BRANCH   3   4
HETATM    4  C   UNL     1      -7.926  15.849  68.343  1.00  0.00    -0.147 C  
BRANCH   4   5
HETATM    5  C   UNL     1      -7.786  14.511  69.085  1.00  0.00    -0.071 C  
BRANCH   5   6
HETATM    6  C   UNL     1      -7.790  13.326  68.118  1.00  0.00    -0.145 C  
BRANCH   6   7
HETATM    7  C   UNL     1      -8.858  12.317  68.525  1.00  0.00    -0.068 C  
BRANCH   7   8
HETATM    8  O   UNL     1      -8.974  11.301  67.520  1.00  0.00    -0.139 OA 
BRANCH   8   9
HETATM    9  C   UNL     1     -10.054  10.489  67.645  1.00  0.00    -0.179 C  
HETATM   10  O   UNL     1     -11.095  10.560  67.013  1.00  0.00    -0.236 OA 
BRANCH   9  11
HETATM   11  C   UNL     1      -9.815   9.496  68.717  1.00  0.00    -0.177 A  
HETATM   12  C   UNL     1      -8.707   8.640  68.697  1.00  0.00    -0.138 A  
HETATM   13  C   UNL     1      -8.529   7.698  69.715  1.00  0.00    -0.134 A  
HETATM   14  C   UNL     1     -10.565   8.486  70.783  1.00  0.00    -0.244 A  
HETATM   15  C   UNL     1      -9.466   7.621  70.769  1.00  0.00    -0.162 A  
HETATM   16  C   UNL     1     -10.747   9.414  69.755  1.00  0.00    -0.250 A  
BRANCH  13  17
HETATM   17  O   UNL     1      -7.485   6.806  69.767  1.00  0.00    -0.087 OA 
HETATM   18  C   UNL     1      -7.320   5.914  68.674  1.00  0.00    -0.085 C  
ENDBRANCH  13  17
BRANCH  15  19
HETATM   19  O   UNL     1      -9.223   6.670  71.726  1.00  0.00    -0.149 OA 
HETATM   20  C   UNL     1      -9.396   7.048  73.085  1.00  0.00    -0.149 C  
ENDBRANCH  15  19
ENDBRANCH   9  11
ENDBRANCH   8   9
ENDBRANCH   7   8
ENDBRANCH   6   7
ENDBRANCH   5   6
ENDBRANCH   4   5
ENDBRANCH   3   4
BRANCH   3  21
HETATM   21  C   UNL     1      -9.674  17.355  67.484  1.00  0.00    -0.266 C  
HETATM   22  C   UNL     1      -9.321  18.853  67.500  1.00  0.00    -0.327 C  
BRANCH  21  23
HETATM   23  C   UNL     1      -9.288  16.770  66.093  1.00  0.00    -0.288 C  
BRANCH  23  24
HETATM   24  C   UNL     1     -10.256  15.760  65.513  1.00  0.00    -0.407 A  
HETATM   25  C   UNL     1     -10.920  13.445  65.137  1.00  0.00    -0.315 A  
HETATM   26  C   UNL     1     -12.018  13.865  64.390  1.00  0.00    -0.450 A  
HETATM   27  C   UNL     1     -11.355  16.172  64.750  1.00  0.00    -0.253 A  
HETATM   28  C   UNL     1     -12.234  15.232  64.205  1.00  0.00    -0.205 A  
HETATM   29  C   UNL     1     -10.045  14.386  65.693  1.00  0.00    -0.377 A  
BRANCH  26  30
HETATM   30  O   UNL     1     -12.971  13.048  63.845  1.00  0.00    -0.567 OA 
HETATM   31  C   UNL     1     -12.504  11.830  63.277  1.00  0.00    -0.290 C  
ENDBRANCH  26  30
ENDBRANCH  23  24
ENDBRANCH  21  23
ENDBRANCH   3  21
ENDBRANCH   2   3
TORSDOF 14
ENDMDL
MODEL      266
REMARK 921   NORMALIZED FREE ENERGY PREDICTED BY IDOCK:   -3.62 KCAL/MOL
REMARK 922        TOTAL FREE ENERGY PREDICTED BY IDOCK:   -9.36 KCAL/MOL
REMARK 923 INTER-LIGAND FREE ENERGY PREDICTED BY IDOCK:   -7.34 KCAL/MOL
REMARK 924 INTRA-LIGAND FREE ENERGY PREDICTED BY IDOCK:   -2.02 KCAL/MOL
REMARK 927      BINDING AFFINITY PREDICTED BY RF-SCORE:    0.00 PKD
ROOT
HETATM    1  C   UNL     1      -7.799  10.776  68.997  1.00  0.00    -0.138 C  
HETATM    2  C   UNL     1      -8.850   9.821  68.447  1.00  0.00    -0.120 C  
ENDROOT
BRANCH   2   3
HETATM    3  N   UNL     1      -9.389  10.107  67.112  1.00  0.00    -0.152 NA 
BRANCH   3   4
HETATM    4  C   UNL     1      -9.958   8.946  66.403  1.00  0.00    -0.284 C  
BRANCH   4   5
HETATM    5  C   UNL     1      -8.910   7.935  65.912  1.00  0.00    -0.183 C  
BRANCH   5   6
HETATM    6  C   UNL     1      -8.948   6.641  66.726  1.00  0.00    -0.139 C  
BRANCH   6   7
HETATM    7  C   UNL     1     -10.349   6.039  66.694  1.00  0.00    -0.204 C  
BRANCH   7   8
HETATM    8  O   UNL     1     -10.868   5.948  68.027  1.00  0.00    -0.269 OA 
BRANCH   8   9
HETATM    9  C   UNL     1     -10.070   5.301  68.913  1.00  0.00    -0.184 C  
HETATM   10  O   UNL     1      -9.637   4.166  68.808  1.00  0.00    -0.162 OA 
BRANCH   9  11
HETATM   11  C   UNL     1      -9.819   6.168  70.088  1.00  0.00    -0.209 A  
HETATM   12  C   UNL     1     -10.656   7.245  70.404  1.00  0.00    -0.240 A  
HETATM   13  C   UNL     1     -10.371   8.056  71.506  1.00  0.00    -0.209 A  
HETATM   14  C   UNL     1      -8.416   6.694  71.986  1.00  0.00    -0.116 A  
HETATM   15  C   UNL     1      -9.241   7.777  72.306  1.00  0.00    -0.154 A  
HETATM   16  C   UNL     1      -8.696   5.898  70.874  1.00  0.00    -0.131 A  
BRANCH  13  17
HETATM   17  O   UNL     1     -11.124   9.142  71.880  1.00  0.00    -0.364 OA 
HETATM   18  C   UNL     1     -12.466   8.911  72.285  1.00  0.00    -0.369 C  
ENDBRANCH  13  17
BRANCH  15  19
HETATM   19  O   UNL     1      -9.028   8.620  73.368  1.00  0.00    -0.252 OA 
HETATM   20  C   UNL     1      -7.959   8.306  74.250  1.00  0.00    -0.233 C  
ENDBRANCH  15  19
ENDBRANCH   9  11
ENDBRANCH   8   9
ENDBRANCH   7   8
ENDBRANCH   6   7
ENDBRANCH   5   6
ENDBRANCH   4   5
ENDBRANCH   3   4
BRANCH   3  21
HETATM   21  C   UNL     1     -10.223  11.327  66.969  1.00  0.00    -0.215 C  
HETATM   22  C   UNL     1     -10.496  11.763  65.519  1.00  0.00    -0.311 C  
BRANCH  21  23
HETATM   23  C   UNL     1     -11.579  11.284  67.737  1.00  0.00    -0.307 C  
BRANCH  23  24
HETATM   24  C   UNL     1     -11.782  12.368  68.774  1.00  0.00    -0.379 A  
HETATM   25  C   UNL     1     -11.899  14.729  69.366  1.00  0.00    -0.360 A  
HETATM   26  C   UNL     1     -12.100  14.399  70.705  1.00  0.00    -0.334 A  
HETATM   27  C   UNL     1     -11.971  12.046  70.124  1.00  0.00    -0.401 A  
HETATM   28  C   UNL     1     -12.142  13.055  71.076  1.00  0.00    -0.078 A  
HETATM   29  C   UNL     1     -11.739  13.720  68.408  1.00  0.00    -0.393 A  
BRANCH  26  30
HETATM   30  O   UNL     1     -12.324  15.289  71.720  1.00  0.00    -0.307 OA 
HETATM   31  C   UNL     1     -11.669  16.548  71.607  1.00  0.00    -0.144 C  
ENDBRANCH  26  30
ENDBRANCH  23  24
ENDBRANCH  21  23
ENDBRANCH   3  21
ENDBRANCH   2   3
TORSDOF 14
ENDMDL
MODEL      267
REMARK 921   NORMALIZED FREE ENERGY PREDICTED BY IDOCK:   -3.62 KCAL/MOL
REMARK 922        TOTAL FREE ENERGY PREDICTED BY IDOCK:   -9.36 KCAL/MOL
REMARK 923 INTER-LIGAND FREE ENERGY PREDICTED BY IDOCK:   -6.78 KCAL/MOL
REMARK 924 INTRA-LIGAND FREE ENERGY PREDICTED BY IDOCK:   -2.58 KCAL/MOL
REMARK 927      BINDING AFFINITY PREDICTED BY RF-SCORE:    0.00 PKD
ROOT
HETATM    1  C   UNL     1      -6.916  10.122  67.461  1.00  0.00    -0.085 C  
HETATM    2  C   UNL     1      -6.867   8.812  66.683  1.00  0.00    -0.072 C  
ENDROOT
BRANCH   2   3
HETATM    3  N   UNL     1      -6.381   8.867  65.300  1.00  0.00    -0.063 NA 
BRANCH   3   4
HETATM    4  C   UNL     1      -5.996   7.567  64.719  1.00  0.00    -0.038 C  
BRANCH   4   5
HETATM    5  C   UNL     1      -5.575   6.515  65.756  1.00  0.00    -0.021 C  
BRANCH   5   6
HETATM    6  C   UNL     1      -6.534   5.324  65.774  1.00  0.00    -0.036 C  
BRANCH   6   7
HETATM    7  C   UNL     1      -7.470   5.383  64.572  1.00  0.00    -0.067 C  
BRANCH   7   8
HETATM    8  O   UNL     1      -8.771   5.817  64.990  1.00  0.00    -0.127 OA 
BRANCH   8   9
HETATM    9  C   UNL     1      -9.397   4.995  65.869  1.00  0.00    -0.159 C  
HETATM   10  O   UNL     1      -9.607   3.802  65.728  1.00  0.00    -0.173 OA 
BRANCH   9  11
HETATM   11  C   UNL     1      -9.848   5.770  67.048  1.00  0.00    -0.171 A  
HETATM   12  C   UNL     1      -9.995   5.179  68.309  1.00  0.00    -0.208 A  
HETATM   13  C   UNL     1     -10.448   5.938  69.392  1.00  0.00    -0.275 A  
HETATM   14  C   UNL     1     -10.588   7.889  67.949  1.00  0.00    -0.215 A  
HETATM   15  C   UNL     1     -10.746   7.307  69.210  1.00  0.00    -0.198 A  
HETATM   16  C   UNL     1     -10.151   7.122  66.867  1.00  0.00    -0.308 A  
BRANCH  13  17
HETATM   17  O   UNL     1     -10.640   5.439  70.657  1.00  0.00    -0.263 OA 
HETATM   18  C   UNL     1      -9.849   4.330  71.059  1.00  0.00    -0.181 C  
ENDBRANCH  13  17
BRANCH  15  19
HETATM   19  O   UNL     1     -11.187   7.982  70.320  1.00  0.00    -0.258 OA 
HETATM   20  C   UNL     1     -10.525   9.194  70.657  1.00  0.00    -0.245 C  
ENDBRANCH  15  19
ENDBRANCH   9  11
ENDBRANCH   8   9
ENDBRANCH   7   8
ENDBRANCH   6   7
ENDBRANCH   5   6
ENDBRANCH   4   5
ENDBRANCH   3   4
BRANCH   3  21
HETATM   21  C   UNL     1      -7.145   9.713  64.350  1.00  0.00    -0.118 C  
HETATM   22  C   UNL     1      -6.475   9.922  62.980  1.00  0.00    -0.123 C  
BRANCH  21  23
HETATM   23  C   UNL     1      -8.619   9.264  64.117  1.00  0.00    -0.207 C  
BRANCH  23  24
HETATM   24  C   UNL     1      -9.677  10.309  64.403  1.00  0.00    -0.381 A  
HETATM   25  C   UNL     1     -11.244  11.999  63.612  1.00  0.00    -0.528 A  
HETATM   26  C   UNL     1     -11.608  12.297  64.924  1.00  0.00    -0.342 A  
HETATM   27  C   UNL     1     -10.040  10.625  65.718  1.00  0.00    -0.327 A  
HETATM   28  C   UNL     1     -11.006  11.602  65.972  1.00  0.00    -0.338 A  
HETATM   29  C   UNL     1     -10.285  11.012  63.355  1.00  0.00    -0.404 A  
BRANCH  26  30
HETATM   30  O   UNL     1     -12.569  13.196  65.299  1.00  0.00    -0.481 OA 
HETATM   31  C   UNL     1     -12.386  14.534  64.850  1.00  0.00    -0.370 C  
ENDBRANCH  26  30
ENDBRANCH  23  24
ENDBRANCH  21  23
ENDBRANCH   3  21
ENDBRANCH   2   3
TORSDOF 14
ENDMDL
MODEL      268
REMARK 921   NORMALIZED FREE ENERGY PREDICTED BY IDOCK:   -3.60 KCAL/MOL
REMARK 922        TOTAL FREE ENERGY PREDICTED BY IDOCK:   -9.34 KCAL/MOL
REMARK 923 INTER-LIGAND FREE ENERGY PREDICTED BY IDOCK:   -8.12 KCAL/MOL
REMARK 924 INTRA-LIGAND FREE ENERGY PREDICTED BY IDOCK:   -1.23 KCAL/MOL
REMARK 927      BINDING AFFINITY PREDICTED BY RF-SCORE:    0.00 PKD
ROOT
HETATM    1  C   UNL     1     -10.920  10.329  69.664  1.00  0.00    -0.314 C  
HETATM    2  C   UNL     1     -11.651  10.516  68.340  1.00  0.00    -0.128 C  
ENDROOT
BRANCH   2   3
HETATM    3  N   UNL     1     -11.774  11.884  67.825  1.00  0.00    -0.516 NA 
BRANCH   3   4
HETATM    4  C   UNL     1     -11.241  12.938  68.709  1.00  0.00    -0.279 C  
BRANCH   4   5
HETATM    5  C   UNL     1     -12.251  14.047  69.044  1.00  0.00    -0.280 C  
BRANCH   5   6
HETATM    6  C   UNL     1     -11.616  15.435  68.949  1.00  0.00    -0.369 C  
BRANCH   6   7
HETATM    7  C   UNL     1     -10.100  15.331  69.071  1.00  0.00    -0.239 C  
BRANCH   7   8
HETATM    8  O   UNL     1      -9.508  16.624  68.887  1.00  0.00    -0.245 OA 
BRANCH   8   9
HETATM    9  C   UNL     1      -8.152  16.644  68.908  1.00  0.00    -0.235 C  
HETATM   10  O   UNL     1      -7.421  15.875  69.510  1.00  0.00    -0.221 OA 
BRANCH   9  11
HETATM   11  C   UNL     1      -7.655  17.790  68.113  1.00  0.00    -0.250 A  
HETATM   12  C   UNL     1      -6.643  18.634  68.586  1.00  0.00    -0.273 A  
HETATM   13  C   UNL     1      -6.218  19.722  67.817  1.00  0.00    -0.205 A  
HETATM   14  C   UNL     1      -7.811  19.104  66.088  1.00  0.00    -0.298 A  
HETATM   15  C   UNL     1      -6.807  19.957  66.554  1.00  0.00    -0.217 A  
HETATM   16  C   UNL     1      -8.243  18.029  66.868  1.00  0.00    -0.259 A  
BRANCH  13  17
HETATM   17  O   UNL     1      -5.247  20.611  68.208  1.00  0.00    -0.218 OA 
HETATM   18  C   UNL     1      -5.248  21.039  69.562  1.00  0.00    -0.360 C  
ENDBRANCH  13  17
BRANCH  15  19
HETATM   19  O   UNL     1      -6.337  21.045  65.862  1.00  0.00    -0.249 OA 
HETATM   20  C   UNL     1      -6.384  20.988  64.443  1.00  0.00    -0.232 C  
ENDBRANCH  15  19
ENDBRANCH   9  11
ENDBRANCH   8   9
ENDBRANCH   7   8
ENDBRANCH   6   7
ENDBRANCH   5   6
ENDBRANCH   4   5
ENDBRANCH   3   4
BRANCH   3  21
HETATM   21  C   UNL     1     -11.420  12.103  66.400  1.00  0.00    -0.370 C  
HETATM   22  C   UNL     1     -12.113  13.304  65.733  1.00  0.00    -0.491 C  
BRANCH  21  23
HETATM   23  C   UNL     1      -9.891  12.192  66.115  1.00  0.00    -0.254 C  
BRANCH  23  24
HETATM   24  C   UNL     1      -9.354  11.213  65.091  1.00  0.00    -0.237 A  
HETATM   25  C   UNL     1      -9.493  10.165  62.896  1.00  0.00    -0.288 A  
HETATM   26  C   UNL     1      -8.402   9.353  63.198  1.00  0.00    -0.190 A  
HETATM   27  C   UNL     1      -8.266  10.383  65.390  1.00  0.00    -0.159 A  
HETATM   28  C   UNL     1      -7.789   9.471  64.445  1.00  0.00    -0.128 A  
HETATM   29  C   UNL     1      -9.966  11.087  63.838  1.00  0.00    -0.396 A  
BRANCH  26  30
HETATM   30  O   UNL     1      -7.816   8.457  62.345  1.00  0.00    -0.126 OA 
HETATM   31  C   UNL     1      -7.345   7.248  62.930  1.00  0.00    -0.087 C  
ENDBRANCH  26  30
ENDBRANCH  23  24
ENDBRANCH  21  23
ENDBRANCH   3  21
ENDBRANCH   2   3
TORSDOF 14
ENDMDL
MODEL      269
REMARK 921   NORMALIZED FREE ENERGY PREDICTED BY IDOCK:   -3.60 KCAL/MOL
REMARK 922        TOTAL FREE ENERGY PREDICTED BY IDOCK:   -9.33 KCAL/MOL
REMARK 923 INTER-LIGAND FREE ENERGY PREDICTED BY IDOCK:   -7.03 KCAL/MOL
REMARK 924 INTRA-LIGAND FREE ENERGY PREDICTED BY IDOCK:   -2.30 KCAL/MOL
REMARK 927      BINDING AFFINITY PREDICTED BY RF-SCORE:    0.00 PKD
ROOT
HETATM    1  C   UNL     1     -11.634   6.675  70.472  1.00  0.00    -0.448 C  
HETATM    2  C   UNL     1     -10.370   6.323  69.698  1.00  0.00    -0.215 C  
ENDROOT
BRANCH   2   3
HETATM    3  N   UNL     1      -9.666   7.419  69.021  1.00  0.00    -0.159 NA 
BRANCH   3   4
HETATM    4  C   UNL     1      -8.448   7.896  69.702  1.00  0.00    -0.132 C  
BRANCH   4   5
HETATM    5  C   UNL     1      -8.546   9.335  70.231  1.00  0.00    -0.234 C  
BRANCH   5   6
HETATM    6  C   UNL     1      -7.165   9.941  70.479  1.00  0.00    -0.099 C  
BRANCH   6   7
HETATM    7  C   UNL     1      -6.597  10.509  69.183  1.00  0.00    -0.057 C  
BRANCH   7   8
HETATM    8  O   UNL     1      -7.492  11.496  68.653  1.00  0.00    -0.104 OA 
BRANCH   8   9
HETATM    9  C   UNL     1      -7.051  12.133  67.539  1.00  0.00    -0.135 C  
HETATM   10  O   UNL     1      -6.332  11.668  66.671  1.00  0.00    -0.137 OA 
BRANCH   9  11
HETATM   11  C   UNL     1      -7.539  13.532  67.535  1.00  0.00    -0.176 A  
HETATM   12  C   UNL     1      -6.731  14.597  67.950  1.00  0.00    -0.175 A  
HETATM   13  C   UNL     1      -7.235  15.901  67.957  1.00  0.00    -0.132 A  
HETATM   14  C   UNL     1      -9.357  15.069  67.112  1.00  0.00    -0.225 A  
HETATM   15  C   UNL     1      -8.561  16.139  67.532  1.00  0.00    -0.177 A  
HETATM   16  C   UNL     1      -8.853  13.767  67.123  1.00  0.00    -0.240 A  
BRANCH  13  17
HETATM   17  O   UNL     1      -6.523  17.002  68.364  1.00  0.00    -0.148 OA 
HETATM   18  C   UNL     1      -6.112  17.060  69.723  1.00  0.00    -0.227 C  
ENDBRANCH  13  17
BRANCH  15  19
HETATM   19  O   UNL     1      -8.983  17.444  67.570  1.00  0.00    -0.228 OA 
HETATM   20  C   UNL     1     -10.331  17.687  67.951  1.00  0.00    -0.371 C  
ENDBRANCH  15  19
ENDBRANCH   9  11
ENDBRANCH   8   9
ENDBRANCH   7   8
ENDBRANCH   6   7
ENDBRANCH   5   6
ENDBRANCH   4   5
ENDBRANCH   3   4
BRANCH   3  21
HETATM   21  C   UNL     1      -9.490   7.302  67.552  1.00  0.00    -0.129 C  
HETATM   22  C   UNL     1     -10.787   7.063  66.758  1.00  0.00    -0.228 C  
BRANCH  21  23
HETATM   23  C   UNL     1      -8.716   8.483  66.892  1.00  0.00    -0.137 C  
BRANCH  23  24
HETATM   24  C   UNL     1      -9.573   9.595  66.323  1.00  0.00    -0.281 A  
HETATM   25  C   UNL     1     -11.241  11.344  66.632  1.00  0.00    -0.298 A  
HETATM   26  C   UNL     1     -11.216  11.629  65.268  1.00  0.00    -0.199 A  
HETATM   27  C   UNL     1      -9.564   9.880  64.953  1.00  0.00    -0.356 A  
HETATM   28  C   UNL     1     -10.370  10.897  64.435  1.00  0.00    -0.430 A  
HETATM   29  C   UNL     1     -10.426  10.332  67.155  1.00  0.00    -0.311 A  
BRANCH  26  30
HETATM   30  O   UNL     1     -11.921  12.626  64.650  1.00  0.00    -0.359 OA 
HETATM   31  C   UNL     1     -12.642  13.508  65.503  1.00  0.00    -0.481 C  
ENDBRANCH  26  30
ENDBRANCH  23  24
ENDBRANCH  21  23
ENDBRANCH   3  21
ENDBRANCH   2   3
TORSDOF 14
ENDMDL
MODEL      270
REMARK 921   NORMALIZED FREE ENERGY PREDICTED BY IDOCK:   -3.57 KCAL/MOL
REMARK 922        TOTAL FREE ENERGY PREDICTED BY IDOCK:   -9.29 KCAL/MOL
REMARK 923 INTER-LIGAND FREE ENERGY PREDICTED BY IDOCK:   -6.13 KCAL/MOL
REMARK 924 INTRA-LIGAND FREE ENERGY PREDICTED BY IDOCK:   -3.16 KCAL/MOL
REMARK 927      BINDING AFFINITY PREDICTED BY RF-SCORE:    0.00 PKD
ROOT
HETATM    1  C   UNL     1      -7.678   9.506  70.384  1.00  0.00    -0.177 C  
HETATM    2  C   UNL     1      -8.756   8.902  71.276  1.00  0.00    -0.215 C  
ENDROOT
BRANCH   2   3
HETATM    3  N   UNL     1      -8.511   7.561  71.817  1.00  0.00    -0.106 NA 
BRANCH   3   4
HETATM    4  C   UNL     1      -9.722   6.776  72.120  1.00  0.00    -0.149 C  
BRANCH   4   5
HETATM    5  C   UNL     1     -11.032   7.445  71.677  1.00  0.00    -0.252 C  
BRANCH   5   6
HETATM    6  C   UNL     1     -11.915   6.485  70.879  1.00  0.00    -0.353 C  
BRANCH   6   7
HETATM    7  C   UNL     1     -11.282   6.190  69.524  1.00  0.00    -0.411 C  
BRANCH   7   8
HETATM    8  O   UNL     1     -10.679   7.380  69.000  1.00  0.00    -0.209 OA 
BRANCH   8   9
HETATM    9  C   UNL     1     -10.767   7.526  67.654  1.00  0.00    -0.196 C  
HETATM   10  O   UNL     1     -11.025   6.653  66.843  1.00  0.00    -0.376 OA 
BRANCH   9  11
HETATM   11  C   UNL     1     -10.456   8.925  67.279  1.00  0.00    -0.348 A  
HETATM   12  C   UNL     1     -10.617   9.984  68.181  1.00  0.00    -0.268 A  
HETATM   13  C   UNL     1     -10.338  11.295  67.782  1.00  0.00    -0.182 A  
HETATM   14  C   UNL     1      -9.719  10.477  65.578  1.00  0.00    -0.298 A  
HETATM   15  C   UNL     1      -9.883  11.543  66.468  1.00  0.00    -0.202 A  
HETATM   16  C   UNL     1     -10.015   9.172  65.977  1.00  0.00    -0.293 A  
BRANCH  13  17
HETATM   17  O   UNL     1     -10.484  12.396  68.590  1.00  0.00    -0.228 OA 
HETATM   18  C   UNL     1     -11.734  12.579  69.240  1.00  0.00    -0.321 C  
ENDBRANCH  13  17
BRANCH  15  19
HETATM   19  O   UNL     1      -9.633  12.855  66.152  1.00  0.00    -0.260 OA 
HETATM   20  C   UNL     1     -10.343  13.411  65.053  1.00  0.00    -0.347 C  
ENDBRANCH  15  19
ENDBRANCH   9  11
ENDBRANCH   8   9
ENDBRANCH   7   8
ENDBRANCH   6   7
ENDBRANCH   5   6
ENDBRANCH   4   5
ENDBRANCH   3   4
BRANCH   3  21
HETATM   21  C   UNL     1      -7.456   6.750  71.158  1.00  0.00    -0.087 C  
HETATM   22  C   UNL     1      -6.277   6.354  72.064  1.00  0.00    -0.042 C  
BRANCH  21  23
HETATM   23  C   UNL     1      -7.975   5.472  70.432  1.00  0.00    -0.102 C  
BRANCH  23  24
HETATM   24  C   UNL     1      -7.856   5.479  68.922  1.00  0.00    -0.095 A  
HETATM   25  C   UNL     1      -7.229   6.613  66.859  1.00  0.00    -0.077 A  
HETATM   26  C   UNL     1      -7.683   5.530  66.108  1.00  0.00    -0.095 A  
HETATM   27  C   UNL     1      -8.322   4.402  68.159  1.00  0.00    -0.096 A  
HETATM   28  C   UNL     1      -8.223   4.424  66.765  1.00  0.00    -0.102 A  
HETATM   29  C   UNL     1      -7.316   6.587  68.256  1.00  0.00    -0.087 A  
BRANCH  26  30
HETATM   30  O   UNL     1      -7.600   5.414  64.747  1.00  0.00    -0.077 OA 
HETATM   31  C   UNL     1      -7.935   6.575  63.996  1.00  0.00    -0.081 C  
ENDBRANCH  26  30
ENDBRANCH  23  24
ENDBRANCH  21  23
ENDBRANCH   3  21
ENDBRANCH   2   3
TORSDOF 14
ENDMDL
MODEL      271
REMARK 921   NORMALIZED FREE ENERGY PREDICTED BY IDOCK:   -3.57 KCAL/MOL
REMARK 922        TOTAL FREE ENERGY PREDICTED BY IDOCK:   -9.27 KCAL/MOL
REMARK 923 INTER-LIGAND FREE ENERGY PREDICTED BY IDOCK:   -7.72 KCAL/MOL
REMARK 924 INTRA-LIGAND FREE ENERGY PREDICTED BY IDOCK:   -1.56 KCAL/MOL
REMARK 927      BINDING AFFINITY PREDICTED BY RF-SCORE:    0.00 PKD
ROOT
HETATM    1  C   UNL     1      -8.546   9.962  68.612  1.00  0.00    -0.119 C  
HETATM    2  C   UNL     1      -9.097   9.110  67.475  1.00  0.00    -0.124 C  
ENDROOT
BRANCH   2   3
HETATM    3  N   UNL     1      -8.248   8.936  66.291  1.00  0.00    -0.109 NA 
BRANCH   3   4
HETATM    4  C   UNL     1      -8.155   7.554  65.784  1.00  0.00    -0.127 C  
BRANCH   4   5
HETATM    5  C   UNL     1      -7.112   6.688  66.508  1.00  0.00    -0.068 C  
BRANCH   5   6
HETATM    6  C   UNL     1      -7.713   5.369  66.994  1.00  0.00    -0.100 C  
BRANCH   6   7
HETATM    7  C   UNL     1      -9.221   5.361  66.768  1.00  0.00    -0.128 C  
BRANCH   7   8
HETATM    8  O   UNL     1      -9.877   4.760  67.892  1.00  0.00    -0.158 OA 
BRANCH   8   9
HETATM    9  C   UNL     1      -9.222   4.881  69.074  1.00  0.00    -0.119 C  
HETATM   10  O   UNL     1      -8.281   4.207  69.457  1.00  0.00    -0.059 OA 
BRANCH   9  11
HETATM   11  C   UNL     1      -9.847   5.949  69.887  1.00  0.00    -0.223 A  
HETATM   12  C   UNL     1      -9.082   6.846  70.643  1.00  0.00    -0.155 A  
HETATM   13  C   UNL     1      -9.709   7.825  71.419  1.00  0.00    -0.166 A  
HETATM   14  C   UNL     1     -11.873   7.017  70.663  1.00  0.00    -0.377 A  
HETATM   15  C   UNL     1     -11.119   7.912  71.428  1.00  0.00    -0.243 A  
HETATM   16  C   UNL     1     -11.242   6.030  69.903  1.00  0.00    -0.438 A  
BRANCH  13  17
HETATM   17  O   UNL     1      -9.041   8.732  72.205  1.00  0.00    -0.355 OA 
HETATM   18  C   UNL     1      -8.271   8.230  73.288  1.00  0.00    -0.173 C  
ENDBRANCH  13  17
BRANCH  15  19
HETATM   19  O   UNL     1     -11.659   8.897  72.216  1.00  0.00    -0.353 OA 
HETATM   20  C   UNL     1     -12.800   9.582  71.718  1.00  0.00    -0.406 C  
ENDBRANCH  15  19
ENDBRANCH   9  11
ENDBRANCH   8   9
ENDBRANCH   7   8
ENDBRANCH   6   7
ENDBRANCH   5   6
ENDBRANCH   4   5
ENDBRANCH   3   4
BRANCH   3  21
HETATM   21  C   UNL     1      -8.396   9.934  65.202  1.00  0.00    -0.148 C  
HETATM   22  C   UNL     1      -7.376   9.805  64.057  1.00  0.00    -0.128 C  
BRANCH  21  23
HETATM   23  C   UNL     1      -9.825  10.018  64.585  1.00  0.00    -0.288 C  
BRANCH  23  24
HETATM   24  C   UNL     1     -10.433  11.403  64.522  1.00  0.00    -0.381 A  
HETATM   25  C   UNL     1     -12.043  12.961  63.562  1.00  0.00    -0.633 A  
HETATM   26  C   UNL     1     -11.539  13.992  64.351  1.00  0.00    -0.369 A  
HETATM   27  C   UNL     1      -9.925  12.449  65.301  1.00  0.00    -0.234 A  
HETATM   28  C   UNL     1     -10.483  13.728  65.224  1.00  0.00    -0.376 A  
HETATM   29  C   UNL     1     -11.493  11.676  63.646  1.00  0.00    -0.458 A  
BRANCH  26  30
HETATM   30  O   UNL     1     -12.026  15.270  64.399  1.00  0.00    -0.421 OA 
HETATM   31  C   UNL     1     -11.111  16.276  64.816  1.00  0.00    -0.281 C  
ENDBRANCH  26  30
ENDBRANCH  23  24
ENDBRANCH  21  23
ENDBRANCH   3  21
ENDBRANCH   2   3
TORSDOF 14
ENDMDL
MODEL      272
REMARK 921   NORMALIZED FREE ENERGY PREDICTED BY IDOCK:   -3.55 KCAL/MOL
REMARK 922        TOTAL FREE ENERGY PREDICTED BY IDOCK:   -9.24 KCAL/MOL
REMARK 923 INTER-LIGAND FREE ENERGY PREDICTED BY IDOCK:   -7.50 KCAL/MOL
REMARK 924 INTRA-LIGAND FREE ENERGY PREDICTED BY IDOCK:   -1.74 KCAL/MOL
REMARK 927      BINDING AFFINITY PREDICTED BY RF-SCORE:    0.00 PKD
ROOT
HETATM    1  C   UNL     1      -9.016   9.609  69.709  1.00  0.00    -0.226 C  
HETATM    2  C   UNL     1      -7.794  10.518  69.658  1.00  0.00    -0.086 C  
ENDROOT
BRANCH   2   3
HETATM    3  N   UNL     1      -6.958  10.456  68.454  1.00  0.00    -0.068 NA 
BRANCH   3   4
HETATM    4  C   UNL     1      -7.655  10.029  67.227  1.00  0.00    -0.095 C  
BRANCH   4   5
HETATM    5  C   UNL     1      -8.950  10.804  66.938  1.00  0.00    -0.147 C  
BRANCH   5   6
HETATM    6  C   UNL     1      -9.062  11.187  65.462  1.00  0.00    -0.211 C  
BRANCH   6   7
HETATM    7  C   UNL     1      -9.979  12.395  65.298  1.00  0.00    -0.215 C  
BRANCH   7   8
HETATM    8  O   UNL     1     -11.335  12.014  65.563  1.00  0.00    -0.336 OA 
BRANCH   8   9
HETATM    9  C   UNL     1     -12.183  13.042  65.815  1.00  0.00    -0.453 C  
HETATM   10  O   UNL     1     -12.973  13.543  65.032  1.00  0.00    -0.719 OA 
BRANCH   9  11
HETATM   11  C   UNL     1     -11.988  13.525  67.202  1.00  0.00    -0.426 A  
HETATM   12  C   UNL     1     -11.747  14.875  67.486  1.00  0.00    -0.328 A  
HETATM   13  C   UNL     1     -11.543  15.289  68.806  1.00  0.00    -0.362 A  
HETATM   14  C   UNL     1     -11.840  12.997  69.556  1.00  0.00    -0.385 A  
HETATM   15  C   UNL     1     -11.592  14.340  69.852  1.00  0.00    -0.276 A  
HETATM   16  C   UNL     1     -12.027  12.586  68.235  1.00  0.00    -0.274 A  
BRANCH  13  17
HETATM   17  O   UNL     1     -11.282  16.586  69.177  1.00  0.00    -0.295 OA 
HETATM   18  C   UNL     1     -10.703  17.448  68.207  1.00  0.00    -0.327 C  
ENDBRANCH  13  17
BRANCH  15  19
HETATM   19  O   UNL     1     -11.378  14.824  71.117  1.00  0.00    -0.253 OA 
HETATM   20  C   UNL     1     -12.503  14.919  71.981  1.00  0.00    -0.334 C  
ENDBRANCH  15  19
ENDBRANCH   9  11
ENDBRANCH   8   9
ENDBRANCH   7   8
ENDBRANCH   6   7
ENDBRANCH   5   6
ENDBRANCH   4   5
ENDBRANCH   3   4
BRANCH   3  21
HETATM   21  C   UNL     1      -6.032  11.592  68.217  1.00  0.00    -0.045 C  
HETATM   22  C   UNL     1      -5.826  11.967  66.738  1.00  0.00     0.016 C  
BRANCH  21  23
HETATM   23  C   UNL     1      -6.372  12.887  69.013  1.00  0.00    -0.100 C  
BRANCH  23  24
HETATM   24  C   UNL     1      -6.657  14.118  68.178  1.00  0.00    -0.125 A  
HETATM   25  C   UNL     1      -8.130  15.366  66.690  1.00  0.00    -0.133 A  
HETATM   26  C   UNL     1      -7.178  16.376  66.571  1.00  0.00    -0.092 A  
HETATM   27  C   UNL     1      -5.702  15.132  68.042  1.00  0.00    -0.149 A  
HETATM   28  C   UNL     1      -5.968  16.256  67.255  1.00  0.00    -0.175 A  
HETATM   29  C   UNL     1      -7.869  14.244  67.487  1.00  0.00    -0.209 A  
BRANCH  26  30
HETATM   30  O   UNL     1      -7.337  17.541  65.871  1.00  0.00    -0.418 OA 
HETATM   31  C   UNL     1      -7.898  18.634  66.589  1.00  0.00    -0.255 C  
ENDBRANCH  26  30
ENDBRANCH  23  24
ENDBRANCH  21  23
ENDBRANCH   3  21
ENDBRANCH   2   3
TORSDOF 14
ENDMDL
MODEL      273
REMARK 921   NORMALIZED FREE ENERGY PREDICTED BY IDOCK:   -3.54 KCAL/MOL
REMARK 922        TOTAL FREE ENERGY PREDICTED BY IDOCK:   -9.22 KCAL/MOL
REMARK 923 INTER-LIGAND FREE ENERGY PREDICTED BY IDOCK:   -7.47 KCAL/MOL
REMARK 924 INTRA-LIGAND FREE ENERGY PREDICTED BY IDOCK:   -1.75 KCAL/MOL
REMARK 927      BINDING AFFINITY PREDICTED BY RF-SCORE:    0.00 PKD
ROOT
HETATM    1  C   UNL     1     -11.714  11.122  70.043  1.00  0.00    -0.438 C  
HETATM    2  C   UNL     1     -10.320  10.574  69.759  1.00  0.00    -0.166 C  
ENDROOT
BRANCH   2   3
HETATM    3  N   UNL     1      -9.917  10.450  68.353  1.00  0.00    -0.157 NA 
BRANCH   3   4
HETATM    4  C   UNL     1      -8.786  11.304  67.948  1.00  0.00    -0.142 C  
BRANCH   4   5
HETATM    5  C   UNL     1      -9.116  12.805  67.905  1.00  0.00    -0.204 C  
BRANCH   5   6
HETATM    6  C   UNL     1      -9.969  13.161  66.688  1.00  0.00    -0.270 C  
BRANCH   6   7
HETATM    7  C   UNL     1     -11.364  13.591  67.129  1.00  0.00    -0.321 C  
BRANCH   7   8
HETATM    8  O   UNL     1     -11.504  15.010  66.980  1.00  0.00    -0.344 OA 
BRANCH   8   9
HETATM    9  C   UNL     1     -11.296  15.731  68.110  1.00  0.00    -0.337 C  
HETATM   10  O   UNL     1     -11.942  15.668  69.143  1.00  0.00    -0.368 OA 
BRANCH   9  11
HETATM   11  C   UNL     1     -10.169  16.670  67.907  1.00  0.00    -0.284 A  
HETATM   12  C   UNL     1      -9.056  16.683  68.756  1.00  0.00    -0.256 A  
HETATM   13  C   UNL     1      -8.023  17.602  68.547  1.00  0.00    -0.283 A  
HETATM   14  C   UNL     1      -9.216  18.483  66.622  1.00  0.00    -0.306 A  
HETATM   15  C   UNL     1      -8.104  18.510  67.468  1.00  0.00    -0.251 A  
HETATM   16  C   UNL     1     -10.253  17.574  66.845  1.00  0.00    -0.329 A  
BRANCH  13  17
HETATM   17  O   UNL     1      -6.904  17.699  69.338  1.00  0.00    -0.232 OA 
HETATM   18  C   UNL     1      -6.167  16.512  69.591  1.00  0.00    -0.220 C  
ENDBRANCH  13  17
BRANCH  15  19
HETATM   19  O   UNL     1      -7.053  19.381  67.331  1.00  0.00    -0.207 OA 
HETATM   20  C   UNL     1      -7.332  20.769  67.453  1.00  0.00    -0.339 C  
ENDBRANCH  15  19
ENDBRANCH   9  11
ENDBRANCH   8   9
ENDBRANCH   7   8
ENDBRANCH   6   7
ENDBRANCH   5   6
ENDBRANCH   4   5
ENDBRANCH   3   4
BRANCH   3  21
HETATM   21  C   UNL     1      -9.822   9.077  67.798  1.00  0.00    -0.168 C  
HETATM   22  C   UNL     1      -9.762   8.998  66.262  1.00  0.00    -0.345 C  
BRANCH  21  23
HETATM   23  C   UNL     1      -8.664   8.215  68.383  1.00  0.00    -0.134 C  
BRANCH  23  24
HETATM   24  C   UNL     1      -9.085   6.965  69.127  1.00  0.00    -0.136 A  
HETATM   25  C   UNL     1     -10.783   5.691  70.324  1.00  0.00    -0.364 A  
HETATM   26  C   UNL     1      -9.868   4.668  70.564  1.00  0.00    -0.231 A  
HETATM   27  C   UNL     1      -8.169   5.938  69.385  1.00  0.00    -0.113 A  
HETATM   28  C   UNL     1      -8.563   4.795  70.087  1.00  0.00    -0.102 A  
HETATM   29  C   UNL     1     -10.393   6.831  69.611  1.00  0.00    -0.223 A  
BRANCH  26  30
HETATM   30  O   UNL     1     -10.142   3.486  71.196  1.00  0.00    -0.094 OA 
HETATM   31  C   UNL     1      -9.258   3.116  72.248  1.00  0.00    -0.104 C  
ENDBRANCH  26  30
ENDBRANCH  23  24
ENDBRANCH  21  23
ENDBRANCH   3  21
ENDBRANCH   2   3
TORSDOF 14
ENDMDL
MODEL      274
REMARK 921   NORMALIZED FREE ENERGY PREDICTED BY IDOCK:   -3.52 KCAL/MOL
REMARK 922        TOTAL FREE ENERGY PREDICTED BY IDOCK:   -9.20 KCAL/MOL
REMARK 923 INTER-LIGAND FREE ENERGY PREDICTED BY IDOCK:   -7.56 KCAL/MOL
REMARK 924 INTRA-LIGAND FREE ENERGY PREDICTED BY IDOCK:   -1.63 KCAL/MOL
REMARK 927      BINDING AFFINITY PREDICTED BY RF-SCORE:    0.00 PKD
ROOT
HETATM    1  C   UNL     1     -11.598  11.540  69.000  1.00  0.00    -0.383 C  
HETATM    2  C   UNL     1     -11.219  10.974  67.637  1.00  0.00    -0.305 C  
ENDROOT
BRANCH   2   3
HETATM    3  N   UNL     1      -9.803  10.665  67.405  1.00  0.00    -0.167 NA 
BRANCH   3   4
HETATM    4  C   UNL     1      -8.878  11.143  68.449  1.00  0.00    -0.157 C  
BRANCH   4   5
HETATM    5  C   UNL     1      -8.083  12.398  68.057  1.00  0.00    -0.162 C  
BRANCH   5   6
HETATM    6  C   UNL     1      -6.576  12.176  68.191  1.00  0.00    -0.061 C  
BRANCH   6   7
HETATM    7  C   UNL     1      -5.920  13.390  68.841  1.00  0.00    -0.079 C  
BRANCH   7   8
HETATM    8  O   UNL     1      -6.925  14.339  69.222  1.00  0.00    -0.118 OA 
BRANCH   8   9
HETATM    9  C   UNL     1      -6.498  15.623  69.312  1.00  0.00    -0.145 C  
HETATM   10  O   UNL     1      -5.392  16.000  69.659  1.00  0.00    -0.110 OA 
BRANCH   9  11
HETATM   11  C   UNL     1      -7.604  16.545  68.964  1.00  0.00    -0.233 A  
HETATM   12  C   UNL     1      -8.924  16.097  68.829  1.00  0.00    -0.236 A  
HETATM   13  C   UNL     1      -9.937  16.992  68.473  1.00  0.00    -0.293 A  
HETATM   14  C   UNL     1      -8.304  18.791  68.407  1.00  0.00    -0.373 A  
HETATM   15  C   UNL     1      -9.624  18.354  68.262  1.00  0.00    -0.334 A  
HETATM   16  C   UNL     1      -7.294  17.889  68.746  1.00  0.00    -0.271 A  
BRANCH  13  17
HETATM   17  O   UNL     1     -11.253  16.640  68.300  1.00  0.00    -0.349 OA 
HETATM   18  C   UNL     1     -11.743  15.527  69.035  1.00  0.00    -0.377 C  
ENDBRANCH  13  17
BRANCH  15  19
HETATM   19  O   UNL     1     -10.672  19.168  67.913  1.00  0.00    -0.388 OA 
HETATM   20  C   UNL     1     -10.754  19.586  66.557  1.00  0.00    -0.432 C  
ENDBRANCH  15  19
ENDBRANCH   9  11
ENDBRANCH   8   9
ENDBRANCH   7   8
ENDBRANCH   6   7
ENDBRANCH   5   6
ENDBRANCH   4   5
ENDBRANCH   3   4
BRANCH   3  21
HETATM   21  C   UNL     1      -9.480   9.293  66.940  1.00  0.00    -0.161 C  
HETATM   22  C   UNL     1      -8.170   8.709  67.497  1.00  0.00    -0.110 C  
BRANCH  21  23
HETATM   23  C   UNL     1     -10.617   8.248  67.151  1.00  0.00    -0.340 C  
BRANCH  23  24
HETATM   24  C   UNL     1     -10.536   7.436  68.426  1.00  0.00    -0.220 A  
HETATM   25  C   UNL     1     -10.280   5.288  69.549  1.00  0.00    -0.338 A  
HETATM   26  C   UNL     1     -10.441   5.901  70.790  1.00  0.00    -0.248 A  
HETATM   27  C   UNL     1     -10.709   8.041  69.677  1.00  0.00    -0.207 A  
HETATM   28  C   UNL     1     -10.649   7.280  70.847  1.00  0.00    -0.234 A  
HETATM   29  C   UNL     1     -10.329   6.051  68.376  1.00  0.00    -0.252 A  
BRANCH  26  30
HETATM   30  O   UNL     1     -10.358   5.275  72.004  1.00  0.00    -0.203 OA 
HETATM   31  C   UNL     1     -11.503   5.378  72.843  1.00  0.00    -0.275 C  
ENDBRANCH  26  30
ENDBRANCH  23  24
ENDBRANCH  21  23
ENDBRANCH   3  21
ENDBRANCH   2   3
TORSDOF 14
ENDMDL
MODEL      275
REMARK 921   NORMALIZED FREE ENERGY PREDICTED BY IDOCK:   -3.52 KCAL/MOL
REMARK 922        TOTAL FREE ENERGY PREDICTED BY IDOCK:   -9.19 KCAL/MOL
REMARK 923 INTER-LIGAND FREE ENERGY PREDICTED BY IDOCK:   -8.31 KCAL/MOL
REMARK 924 INTRA-LIGAND FREE ENERGY PREDICTED BY IDOCK:   -0.87 KCAL/MOL
REMARK 927      BINDING AFFINITY PREDICTED BY RF-SCORE:    0.00 PKD
ROOT
HETATM    1  C   UNL     1     -12.433  16.036  72.983  1.00  0.00    -0.614 C  
HETATM    2  C   UNL     1     -12.317  16.017  71.463  1.00  0.00    -0.376 C  
ENDROOT
BRANCH   2   3
HETATM    3  N   UNL     1     -11.555  14.919  70.858  1.00  0.00    -0.300 NA 
BRANCH   3   4
HETATM    4  C   UNL     1     -12.336  13.707  70.553  1.00  0.00    -0.355 C  
BRANCH   4   5
HETATM    5  C   UNL     1     -12.881  12.982  71.793  1.00  0.00    -0.351 C  
BRANCH   5   6
HETATM    6  C   UNL     1     -12.938  11.468  71.584  1.00  0.00    -0.499 C  
BRANCH   6   7
HETATM    7  C   UNL     1     -12.105  11.073  70.370  1.00  0.00    -0.373 C  
BRANCH   7   8
HETATM    8  O   UNL     1     -11.210  10.009  70.721  1.00  0.00    -0.312 OA 
BRANCH   8   9
HETATM    9  C   UNL     1     -10.116   9.892  69.927  1.00  0.00    -0.257 C  
HETATM   10  O   UNL     1      -9.889  10.515  68.904  1.00  0.00    -0.183 OA 
BRANCH   9  11
HETATM   11  C   UNL     1      -9.221   8.838  70.459  1.00  0.00    -0.218 A  
HETATM   12  C   UNL     1      -9.159   8.542  71.826  1.00  0.00    -0.304 A  
HETATM   13  C   UNL     1      -8.283   7.558  72.293  1.00  0.00    -0.103 A  
HETATM   14  C   UNL     1      -7.542   7.156  70.013  1.00  0.00    -0.091 A  
HETATM   15  C   UNL     1      -7.467   6.857  71.377  1.00  0.00    -0.082 A  
HETATM   16  C   UNL     1      -8.407   8.151  69.554  1.00  0.00    -0.122 A  
BRANCH  13  17
HETATM   17  O   UNL     1      -8.142   7.214  73.615  1.00  0.00    -0.111 OA 
HETATM   18  C   UNL     1      -9.141   7.654  74.524  1.00  0.00     0.174 C  
ENDBRANCH  13  17
BRANCH  15  19
HETATM   19  O   UNL     1      -6.632   5.909  71.913  1.00  0.00    -0.055 OA 
HETATM   20  C   UNL     1      -6.826   4.561  71.508  1.00  0.00    -0.031 C  
ENDBRANCH  15  19
ENDBRANCH   9  11
ENDBRANCH   8   9
ENDBRANCH   7   8
ENDBRANCH   6   7
ENDBRANCH   5   6
ENDBRANCH   4   5
ENDBRANCH   3   4
BRANCH   3  21
HETATM   21  C   UNL     1     -10.607  15.275  69.772  1.00  0.00    -0.282 C  
HETATM   22  C   UNL     1      -9.747  14.110  69.250  1.00  0.00     0.204 C  
BRANCH  21  23
HETATM   23  C   UNL     1     -11.253  15.999  68.553  1.00  0.00    -0.374 C  
BRANCH  23  24
HETATM   24  C   UNL     1     -11.284  15.210  67.260  1.00  0.00    -0.324 A  
HETATM   25  C   UNL     1     -12.154  13.359  65.936  1.00  0.00    -0.486 A  
HETATM   26  C   UNL     1     -11.309  13.697  64.881  1.00  0.00    -0.344 A  
HETATM   27  C   UNL     1     -10.430  15.534  66.200  1.00  0.00    -0.323 A  
HETATM   28  C   UNL     1     -10.454  14.790  65.017  1.00  0.00    -0.443 A  
HETATM   29  C   UNL     1     -12.139  14.110  67.118  1.00  0.00    -0.432 A  
BRANCH  26  30
HETATM   30  O   UNL     1     -11.271  13.077  63.661  1.00  0.00    -0.399 OA 
HETATM   31  C   UNL     1     -12.188  12.006  63.472  1.00  0.00    -0.547 C  
ENDBRANCH  26  30
ENDBRANCH  23  24
ENDBRANCH  21  23
ENDBRANCH   3  21
ENDBRANCH   2   3
TORSDOF 14
ENDMDL
MODEL      276
REMARK 921   NORMALIZED FREE ENERGY PREDICTED BY IDOCK:   -3.51 KCAL/MOL
REMARK 922        TOTAL FREE ENERGY PREDICTED BY IDOCK:   -9.18 KCAL/MOL
REMARK 923 INTER-LIGAND FREE ENERGY PREDICTED BY IDOCK:   -8.18 KCAL/MOL
REMARK 924 INTRA-LIGAND FREE ENERGY PREDICTED BY IDOCK:   -1.00 KCAL/MOL
REMARK 927      BINDING AFFINITY PREDICTED BY RF-SCORE:    0.00 PKD
ROOT
HETATM    1  C   UNL     1      -9.878  11.968  65.959  1.00  0.00    -0.258 C  
HETATM    2  C   UNL     1      -9.930  13.403  66.470  1.00  0.00    -0.286 C  
ENDROOT
BRANCH   2   3
HETATM    3  N   UNL     1     -10.954  13.726  67.470  1.00  0.00    -0.268 NA 
BRANCH   3   4
HETATM    4  C   UNL     1     -11.785  12.588  67.906  1.00  0.00    -0.359 C  
BRANCH   4   5
HETATM    5  C   UNL     1     -11.786  12.356  69.425  1.00  0.00    -0.365 C  
BRANCH   5   6
HETATM    6  C   UNL     1     -10.816  11.244  69.826  1.00  0.00    -0.089 C  
BRANCH   6   7
HETATM    7  C   UNL     1     -11.585  10.043  70.366  1.00  0.00    -0.302 C  
BRANCH   7   8
HETATM    8  O   UNL     1     -11.030   9.638  71.625  1.00  0.00    -0.322 OA 
BRANCH   8   9
HETATM    9  C   UNL     1     -11.595   8.534  72.174  1.00  0.00    -0.377 C  
HETATM   10  O   UNL     1     -12.786   8.282  72.240  1.00  0.00    -0.325 OA 
BRANCH   9  11
HETATM   11  C   UNL     1     -10.542   7.661  72.743  1.00  0.00    -0.381 A  
HETATM   12  C   UNL     1     -10.762   6.300  72.986  1.00  0.00    -0.278 A  
HETATM   13  C   UNL     1      -9.752   5.514  73.548  1.00  0.00    -0.149 A  
HETATM   14  C   UNL     1      -8.292   7.456  73.606  1.00  0.00    -0.187 A  
HETATM   15  C   UNL     1      -8.504   6.098  73.860  1.00  0.00    -0.119 A  
HETATM   16  C   UNL     1      -9.311   8.240  73.059  1.00  0.00    -0.310 A  
BRANCH  13  17
HETATM   17  O   UNL     1      -9.884   4.178  73.838  1.00  0.00    -0.112 OA 
HETATM   18  C   UNL     1     -10.956   3.471  73.229  1.00  0.00    -0.168 C  
ENDBRANCH  13  17
BRANCH  15  19
HETATM   19  O   UNL     1      -7.566   5.262  74.411  1.00  0.00    -0.089 OA 
HETATM   20  C   UNL     1      -6.223   5.725  74.459  1.00  0.00    -0.066 C  
ENDBRANCH  15  19
ENDBRANCH   9  11
ENDBRANCH   8   9
ENDBRANCH   7   8
ENDBRANCH   6   7
ENDBRANCH   5   6
ENDBRANCH   4   5
ENDBRANCH   3   4
BRANCH   3  21
HETATM   21  C   UNL     1     -10.542  14.597  68.599  1.00  0.00    -0.252 C  
HETATM   22  C   UNL     1      -9.026  14.825  68.727  1.00  0.00    -0.179 C  
BRANCH  21  23
HETATM   23  C   UNL     1     -11.257  15.981  68.649  1.00  0.00    -0.366 C  
BRANCH  23  24
HETATM   24  C   UNL     1     -10.435  17.163  68.180  1.00  0.00    -0.366 A  
HETATM   25  C   UNL     1      -9.186  18.303  66.426  1.00  0.00    -0.272 A  
HETATM   26  C   UNL     1      -8.855  19.329  67.308  1.00  0.00    -0.292 A  
HETATM   27  C   UNL     1     -10.086  18.192  69.063  1.00  0.00    -0.290 A  
HETATM   28  C   UNL     1      -9.313  19.271  68.624  1.00  0.00    -0.446 A  
HETATM   29  C   UNL     1      -9.970  17.227  66.860  1.00  0.00    -0.294 A  
BRANCH  26  30
HETATM   30  O   UNL     1      -8.146  20.455  66.989  1.00  0.00    -0.321 OA 
HETATM   31  C   UNL     1      -7.024  20.746  67.814  1.00  0.00    -0.292 C  
ENDBRANCH  26  30
ENDBRANCH  23  24
ENDBRANCH  21  23
ENDBRANCH   3  21
ENDBRANCH   2   3
TORSDOF 14
ENDMDL
MODEL      277
REMARK 921   NORMALIZED FREE ENERGY PREDICTED BY IDOCK:   -3.51 KCAL/MOL
REMARK 922        TOTAL FREE ENERGY PREDICTED BY IDOCK:   -9.18 KCAL/MOL
REMARK 923 INTER-LIGAND FREE ENERGY PREDICTED BY IDOCK:   -6.42 KCAL/MOL
REMARK 924 INTRA-LIGAND FREE ENERGY PREDICTED BY IDOCK:   -2.76 KCAL/MOL
REMARK 927      BINDING AFFINITY PREDICTED BY RF-SCORE:    0.00 PKD
ROOT
HETATM    1  C   UNL     1      -5.375   9.698  63.647  1.00  0.00    -0.073 C  
HETATM    2  C   UNL     1      -6.263   9.639  64.884  1.00  0.00    -0.085 C  
ENDROOT
BRANCH   2   3
HETATM    3  N   UNL     1      -7.704   9.458  64.672  1.00  0.00    -0.112 NA 
BRANCH   3   4
HETATM    4  C   UNL     1      -8.195   8.080  64.853  1.00  0.00    -0.134 C  
BRANCH   4   5
HETATM    5  C   UNL     1      -7.124   7.088  65.333  1.00  0.00    -0.068 C  
BRANCH   5   6
HETATM    6  C   UNL     1      -7.662   6.159  66.422  1.00  0.00    -0.102 C  
BRANCH   6   7
HETATM    7  C   UNL     1      -9.018   5.595  66.011  1.00  0.00    -0.154 C  
BRANCH   7   8
HETATM    8  O   UNL     1      -9.759   5.215  67.178  1.00  0.00    -0.136 OA 
BRANCH   8   9
HETATM    9  C   UNL     1     -10.578   6.174  67.677  1.00  0.00    -0.270 C  
HETATM   10  O   UNL     1     -11.103   7.080  67.053  1.00  0.00    -0.373 OA 
BRANCH   9  11
HETATM   11  C   UNL     1     -10.723   5.997  69.141  1.00  0.00    -0.399 A  
HETATM   12  C   UNL     1     -11.662   6.724  69.883  1.00  0.00    -0.279 A  
HETATM   13  C   UNL     1     -11.752   6.549  71.267  1.00  0.00    -0.331 A  
HETATM   14  C   UNL     1      -9.969   4.901  71.160  1.00  0.00    -0.278 A  
HETATM   15  C   UNL     1     -10.898   5.627  71.911  1.00  0.00    -0.242 A  
HETATM   16  C   UNL     1      -9.872   5.092  69.780  1.00  0.00    -0.283 A  
BRANCH  13  17
HETATM   17  O   UNL     1     -12.629   7.230  72.076  1.00  0.00    -0.288 OA 
HETATM   18  C   UNL     1     -12.542   8.648  72.100  1.00  0.00    -0.391 C  
ENDBRANCH  13  17
BRANCH  15  19
HETATM   19  O   UNL     1     -11.046   5.514  73.271  1.00  0.00    -0.283 OA 
HETATM   20  C   UNL     1     -10.673   4.280  73.870  1.00  0.00    -0.264 C  
ENDBRANCH  15  19
ENDBRANCH   9  11
ENDBRANCH   8   9
ENDBRANCH   7   8
ENDBRANCH   6   7
ENDBRANCH   5   6
ENDBRANCH   4   5
ENDBRANCH   3   4
BRANCH   3  21
HETATM   21  C   UNL     1      -8.607  10.470  65.275  1.00  0.00    -0.177 C  
HETATM   22  C   UNL     1     -10.034   9.975  65.571  1.00  0.00    -0.367 C  
BRANCH  21  23
HETATM   23  C   UNL     1      -8.047  11.164  66.553  1.00  0.00    -0.163 C  
BRANCH  23  24
HETATM   24  C   UNL     1      -8.281  10.428  67.856  1.00  0.00    -0.106 A  
HETATM   25  C   UNL     1      -7.674   8.662  69.422  1.00  0.00    -0.091 A  
HETATM   26  C   UNL     1      -8.738   9.011  70.251  1.00  0.00    -0.184 A  
HETATM   27  C   UNL     1      -9.355  10.762  68.689  1.00  0.00    -0.184 A  
HETATM   28  C   UNL     1      -9.571  10.067  69.882  1.00  0.00    -0.233 A  
HETATM   29  C   UNL     1      -7.448   9.365  68.232  1.00  0.00    -0.078 A  
BRANCH  26  30
HETATM   30  O   UNL     1      -9.026   8.438  71.460  1.00  0.00    -0.158 OA 
HETATM   31  C   UNL     1      -7.920   8.206  72.325  1.00  0.00    -0.135 C  
ENDBRANCH  26  30
ENDBRANCH  23  24
ENDBRANCH  21  23
ENDBRANCH   3  21
ENDBRANCH   2   3
TORSDOF 14
ENDMDL
MODEL      278
REMARK 921   NORMALIZED FREE ENERGY PREDICTED BY IDOCK:   -3.51 KCAL/MOL
REMARK 922        TOTAL FREE ENERGY PREDICTED BY IDOCK:   -9.17 KCAL/MOL
REMARK 923 INTER-LIGAND FREE ENERGY PREDICTED BY IDOCK:   -7.27 KCAL/MOL
REMARK 924 INTRA-LIGAND FREE ENERGY PREDICTED BY IDOCK:   -1.89 KCAL/MOL
REMARK 927      BINDING AFFINITY PREDICTED BY RF-SCORE:    0.00 PKD
ROOT
HETATM    1  C   UNL     1     -14.410   7.662  71.651  1.00  0.00    -0.613 C  
HETATM    2  C   UNL     1     -13.810   8.957  72.186  1.00  0.00    -0.473 C  
ENDROOT
BRANCH   2   3
HETATM    3  N   UNL     1     -12.356   9.120  72.084  1.00  0.00    -0.368 NA 
BRANCH   3   4
HETATM    4  C   UNL     1     -11.628   7.943  71.575  1.00  0.00    -0.270 C  
BRANCH   4   5
HETATM    5  C   UNL     1     -10.591   7.373  72.556  1.00  0.00    -0.304 C  
BRANCH   5   6
HETATM    6  C   UNL     1      -9.164   7.744  72.149  1.00  0.00    -0.198 C  
BRANCH   6   7
HETATM    7  C   UNL     1      -8.648   6.772  71.094  1.00  0.00    -0.132 C  
BRANCH   7   8
HETATM    8  O   UNL     1      -7.627   7.403  70.309  1.00  0.00    -0.085 OA 
BRANCH   8   9
HETATM    9  C   UNL     1      -7.900   7.505  68.985  1.00  0.00    -0.120 C  
HETATM   10  O   UNL     1      -8.175   6.591  68.225  1.00  0.00    -0.112 OA 
BRANCH   9  11
HETATM   11  C   UNL     1      -7.775   8.917  68.554  1.00  0.00    -0.098 A  
HETATM   12  C   UNL     1      -8.585   9.456  67.547  1.00  0.00    -0.122 A  
HETATM   13  C   UNL     1      -8.420  10.786  67.149  1.00  0.00    -0.126 A  
HETATM   14  C   UNL     1      -6.640  11.039  68.784  1.00  0.00    -0.061 A  
HETATM   15  C   UNL     1      -7.438  11.586  67.776  1.00  0.00    -0.101 A  
HETATM   16  C   UNL     1      -6.798   9.705  69.166  1.00  0.00    -0.050 A  
BRANCH  13  17
HETATM   17  O   UNL     1      -9.155  11.394  66.161  1.00  0.00    -0.199 OA 
HETATM   18  C   UNL     1     -10.533  11.631  66.411  1.00  0.00    -0.244 C  
ENDBRANCH  13  17
BRANCH  15  19
HETATM   19  O   UNL     1      -7.335  12.879  67.328  1.00  0.00    -0.140 OA 
HETATM   20  C   UNL     1      -6.426  13.737  68.004  1.00  0.00    -0.140 C  
ENDBRANCH  15  19
ENDBRANCH   9  11
ENDBRANCH   8   9
ENDBRANCH   7   8
ENDBRANCH   6   7
ENDBRANCH   5   6
ENDBRANCH   4   5
ENDBRANCH   3   4
BRANCH   3  21
HETATM   21  C   UNL     1     -11.858  10.393  71.504  1.00  0.00    -0.120 C  
HETATM   22  C   UNL     1     -10.960  10.236  70.264  1.00  0.00    -0.375 C  
BRANCH  21  23
HETATM   23  C   UNL     1     -12.967  11.440  71.183  1.00  0.00    -0.349 C  
BRANCH  23  24
HETATM   24  C   UNL     1     -12.476  12.820  70.798  1.00  0.00    -0.357 A  
HETATM   25  C   UNL     1     -11.643  14.372  69.114  1.00  0.00    -0.344 A  
HETATM   26  C   UNL     1     -11.505  15.368  70.079  1.00  0.00    -0.316 A  
HETATM   27  C   UNL     1     -12.321  13.823  71.763  1.00  0.00    -0.154 A  
HETATM   28  C   UNL     1     -11.852  15.089  71.401  1.00  0.00    -0.413 A  
HETATM   29  C   UNL     1     -12.124  13.106  69.473  1.00  0.00    -0.296 A  
BRANCH  26  30
HETATM   30  O   UNL     1     -11.101  16.654  69.843  1.00  0.00    -0.305 OA 
HETATM   31  C   UNL     1     -10.100  16.826  68.847  1.00  0.00    -0.285 C  
ENDBRANCH  26  30
ENDBRANCH  23  24
ENDBRANCH  21  23
ENDBRANCH   3  21
ENDBRANCH   2   3
TORSDOF 14
ENDMDL
MODEL      279
REMARK 921   NORMALIZED FREE ENERGY PREDICTED BY IDOCK:   -3.50 KCAL/MOL
REMARK 922        TOTAL FREE ENERGY PREDICTED BY IDOCK:   -9.15 KCAL/MOL
REMARK 923 INTER-LIGAND FREE ENERGY PREDICTED BY IDOCK:   -7.68 KCAL/MOL
REMARK 924 INTRA-LIGAND FREE ENERGY PREDICTED BY IDOCK:   -1.48 KCAL/MOL
REMARK 927      BINDING AFFINITY PREDICTED BY RF-SCORE:    0.00 PKD
ROOT
HETATM    1  C   UNL     1      -8.003  14.931  68.351  1.00  0.00    -0.134 C  
HETATM    2  C   UNL     1      -9.000  13.923  67.793  1.00  0.00    -0.188 C  
ENDROOT
BRANCH   2   3
HETATM    3  N   UNL     1     -10.145  14.451  67.043  1.00  0.00    -0.253 NA 
BRANCH   3   4
HETATM    4  C   UNL     1     -10.307  13.908  65.681  1.00  0.00    -0.325 C  
BRANCH   4   5
HETATM    5  C   UNL     1      -9.589  12.570  65.449  1.00  0.00    -0.015 C  
BRANCH   5   6
HETATM    6  C   UNL     1     -10.493  11.559  64.742  1.00  0.00    -0.354 C  
BRANCH   6   7
HETATM    7  C   UNL     1     -10.030  10.137  65.043  1.00  0.00    -0.305 C  
BRANCH   7   8
HETATM    8  O   UNL     1     -10.187   9.862  66.441  1.00  0.00    -0.242 OA 
BRANCH   8   9
HETATM    9  C   UNL     1      -9.119   9.271  67.035  1.00  0.00    -0.130 C  
HETATM   10  O   UNL     1      -7.951   9.377  66.702  1.00  0.00    -0.107 OA 
BRANCH   9  11
HETATM   11  C   UNL     1      -9.576   8.417  68.155  1.00  0.00    -0.158 A  
HETATM   12  C   UNL     1      -9.004   8.502  69.430  1.00  0.00    -0.149 A  
HETATM   13  C   UNL     1      -9.445   7.660  70.455  1.00  0.00    -0.164 A  
HETATM   14  C   UNL     1     -11.047   6.659  68.926  1.00  0.00    -0.312 A  
HETATM   15  C   UNL     1     -10.478   6.730  70.201  1.00  0.00    -0.209 A  
HETATM   16  C   UNL     1     -10.592   7.491  67.901  1.00  0.00    -0.250 A  
BRANCH  13  17
HETATM   17  O   UNL     1      -8.931   7.660  71.729  1.00  0.00    -0.117 OA 
HETATM   18  C   UNL     1      -7.579   7.259  71.897  1.00  0.00    -0.085 C  
ENDBRANCH  13  17
BRANCH  15  19
HETATM   19  O   UNL     1     -10.853   5.939  71.257  1.00  0.00    -0.257 OA 
HETATM   20  C   UNL     1     -10.221   4.672  71.382  1.00  0.00    -0.141 C  
ENDBRANCH  15  19
ENDBRANCH   9  11
ENDBRANCH   8   9
ENDBRANCH   7   8
ENDBRANCH   6   7
ENDBRANCH   5   6
ENDBRANCH   4   5
ENDBRANCH   3   4
BRANCH   3  21
HETATM   21  C   UNL     1     -11.435  14.561  67.770  1.00  0.00    -0.340 C  
HETATM   22  C   UNL     1     -12.506  13.537  67.355  1.00  0.00     0.075 C  
BRANCH  21  23
HETATM   23  C   UNL     1     -11.310  14.545  69.324  1.00  0.00    -0.317 C  
BRANCH  23  24
HETATM   24  C   UNL     1     -11.914  13.343  70.020  1.00  0.00    -0.407 A  
HETATM   25  C   UNL     1     -13.292  12.404  71.797  1.00  0.00    -0.368 A  
HETATM   26  C   UNL     1     -13.000  11.113  71.362  1.00  0.00    -0.403 A  
HETATM   27  C   UNL     1     -11.616  12.042  69.598  1.00  0.00    -0.371 A  
HETATM   28  C   UNL     1     -12.165  10.939  70.257  1.00  0.00    -0.432 A  
HETATM   29  C   UNL     1     -12.751  13.511  71.131  1.00  0.00    -0.425 A  
BRANCH  26  30
HETATM   30  O   UNL     1     -13.509   9.959  71.893  1.00  0.00    -0.397 OA 
HETATM   31  C   UNL     1     -12.580   8.903  72.107  1.00  0.00    -0.399 C  
ENDBRANCH  26  30
ENDBRANCH  23  24
ENDBRANCH  21  23
ENDBRANCH   3  21
ENDBRANCH   2   3
TORSDOF 14
ENDMDL
MODEL      280
REMARK 921   NORMALIZED FREE ENERGY PREDICTED BY IDOCK:   -3.49 KCAL/MOL
REMARK 922        TOTAL FREE ENERGY PREDICTED BY IDOCK:   -9.13 KCAL/MOL
REMARK 923 INTER-LIGAND FREE ENERGY PREDICTED BY IDOCK:   -7.09 KCAL/MOL
REMARK 924 INTRA-LIGAND FREE ENERGY PREDICTED BY IDOCK:   -2.05 KCAL/MOL
REMARK 927      BINDING AFFINITY PREDICTED BY RF-SCORE:    0.00 PKD
ROOT
HETATM    1  C   UNL     1     -14.231   7.819  71.592  1.00  0.00    -0.572 C  
HETATM    2  C   UNL     1     -13.606   9.195  71.791  1.00  0.00    -0.415 C  
ENDROOT
BRANCH   2   3
HETATM    3  N   UNL     1     -12.142   9.269  71.856  1.00  0.00    -0.373 NA 
BRANCH   3   4
HETATM    4  C   UNL     1     -11.459   7.981  72.073  1.00  0.00    -0.309 C  
BRANCH   4   5
HETATM    5  C   UNL     1     -10.776   7.854  73.444  1.00  0.00    -0.065 C  
BRANCH   5   6
HETATM    6  C   UNL     1      -9.259   7.718  73.309  1.00  0.00    -0.318 C  
BRANCH   6   7
HETATM    7  C   UNL     1      -8.850   6.253  73.419  1.00  0.00    -0.124 C  
BRANCH   7   8
HETATM    8  O   UNL     1      -7.755   5.988  72.532  1.00  0.00    -0.099 OA 
BRANCH   8   9
HETATM    9  C   UNL     1      -8.036   5.144  71.508  1.00  0.00    -0.115 C  
HETATM   10  O   UNL     1      -8.246   3.945  71.589  1.00  0.00    -0.075 OA 
BRANCH   9  11
HETATM   11  C   UNL     1      -8.011   5.885  70.225  1.00  0.00    -0.106 A  
HETATM   12  C   UNL     1      -8.783   5.487  69.127  1.00  0.00    -0.103 A  
HETATM   13  C   UNL     1      -8.713   6.197  67.925  1.00  0.00    -0.113 A  
HETATM   14  C   UNL     1      -7.106   7.717  68.932  1.00  0.00    -0.079 A  
HETATM   15  C   UNL     1      -7.867   7.324  67.827  1.00  0.00    -0.114 A  
HETATM   16  C   UNL     1      -7.167   6.994  70.125  1.00  0.00    -0.075 A  
BRANCH  13  17
HETATM   17  O   UNL     1      -9.419   5.870  66.793  1.00  0.00    -0.132 OA 
HETATM   18  C   UNL     1     -10.833   6.000  66.833  1.00  0.00    -0.318 C  
ENDBRANCH  13  17
BRANCH  15  19
HETATM   19  O   UNL     1      -7.852   7.965  66.614  1.00  0.00    -0.098 OA 
HETATM   20  C   UNL     1      -7.126   9.184  66.526  1.00  0.00    -0.081 C  
ENDBRANCH  15  19
ENDBRANCH   9  11
ENDBRANCH   8   9
ENDBRANCH   7   8
ENDBRANCH   6   7
ENDBRANCH   5   6
ENDBRANCH   4   5
ENDBRANCH   3   4
BRANCH   3  21
HETATM   21  C   UNL     1     -11.464  10.110  70.838  1.00  0.00    -0.360 C  
HETATM   22  C   UNL     1     -10.414   9.379  69.983  1.00  0.00    -0.266 C  
BRANCH  21  23
HETATM   23  C   UNL     1     -12.425  10.885  69.887  1.00  0.00    -0.292 C  
BRANCH  23  24
HETATM   24  C   UNL     1     -11.779  11.950  69.025  1.00  0.00    -0.391 A  
HETATM   25  C   UNL     1     -11.001  14.240  68.727  1.00  0.00    -0.271 A  
HETATM   26  C   UNL     1     -10.632  13.960  67.413  1.00  0.00    -0.267 A  
HETATM   27  C   UNL     1     -11.417  11.682  67.700  1.00  0.00    -0.373 A  
HETATM   28  C   UNL     1     -10.837  12.676  66.907  1.00  0.00    -0.282 A  
HETATM   29  C   UNL     1     -11.572  13.242  69.527  1.00  0.00    -0.349 A  
BRANCH  26  30
HETATM   30  O   UNL     1     -10.017  14.831  66.556  1.00  0.00    -0.253 OA 
HETATM   31  C   UNL     1     -10.494  16.172  66.574  1.00  0.00    -0.297 C  
ENDBRANCH  26  30
ENDBRANCH  23  24
ENDBRANCH  21  23
ENDBRANCH   3  21
ENDBRANCH   2   3
TORSDOF 14
ENDMDL
MODEL      281
REMARK 921   NORMALIZED FREE ENERGY PREDICTED BY IDOCK:   -3.48 KCAL/MOL
REMARK 922        TOTAL FREE ENERGY PREDICTED BY IDOCK:   -9.12 KCAL/MOL
REMARK 923 INTER-LIGAND FREE ENERGY PREDICTED BY IDOCK:   -8.14 KCAL/MOL
REMARK 924 INTRA-LIGAND FREE ENERGY PREDICTED BY IDOCK:   -0.98 KCAL/MOL
REMARK 927      BINDING AFFINITY PREDICTED BY RF-SCORE:    0.00 PKD
ROOT
HETATM    1  C   UNL     1     -14.328   8.377  71.814  1.00  0.00    -0.558 C  
HETATM    2  C   UNL     1     -13.184   9.381  71.878  1.00  0.00    -0.429 C  
ENDROOT
BRANCH   2   3
HETATM    3  N   UNL     1     -12.062   9.185  70.952  1.00  0.00    -0.257 NA 
BRANCH   3   4
HETATM    4  C   UNL     1     -11.450  10.423  70.437  1.00  0.00    -0.337 C  
BRANCH   4   5
HETATM    5  C   UNL     1     -11.817  10.747  68.980  1.00  0.00    -0.325 C  
BRANCH   5   6
HETATM    6  C   UNL     1     -10.634  10.525  68.037  1.00  0.00    -0.251 C  
BRANCH   6   7
HETATM    7  C   UNL     1      -9.883  11.833  67.816  1.00  0.00    -0.181 C  
BRANCH   7   8
HETATM    8  O   UNL     1     -10.048  12.264  66.459  1.00  0.00    -0.209 OA 
BRANCH   8   9
HETATM    9  C   UNL     1     -11.158  13.009  66.223  1.00  0.00    -0.289 C  
HETATM   10  O   UNL     1     -12.291  12.592  66.052  1.00  0.00    -0.615 OA 
BRANCH   9  11
HETATM   11  C   UNL     1     -10.795  14.443  66.154  1.00  0.00    -0.309 A  
HETATM   12  C   UNL     1     -10.039  15.062  67.157  1.00  0.00    -0.239 A  
HETATM   13  C   UNL     1      -9.738  16.425  67.069  1.00  0.00    -0.248 A  
HETATM   14  C   UNL     1     -10.940  16.540  64.960  1.00  0.00    -0.222 A  
HETATM   15  C   UNL     1     -10.192  17.171  65.959  1.00  0.00    -0.321 A  
HETATM   16  C   UNL     1     -11.251  15.183  65.061  1.00  0.00    -0.414 A  
BRANCH  13  17
HETATM   17  O   UNL     1      -9.020  17.119  68.013  1.00  0.00    -0.223 OA 
HETATM   18  C   UNL     1      -9.714  17.590  69.159  1.00  0.00    -0.105 C  
ENDBRANCH  13  17
BRANCH  15  19
HETATM   19  O   UNL     1      -9.858  18.502  65.947  1.00  0.00    -0.507 OA 
HETATM   20  C   UNL     1     -10.890  19.434  65.653  1.00  0.00    -0.230 C  
ENDBRANCH  15  19
ENDBRANCH   9  11
ENDBRANCH   8   9
ENDBRANCH   7   8
ENDBRANCH   6   7
ENDBRANCH   5   6
ENDBRANCH   4   5
ENDBRANCH   3   4
BRANCH   3  21
HETATM   21  C   UNL     1     -11.053   8.161  71.324  1.00  0.00    -0.248 C  
HETATM   22  C   UNL     1     -11.039   7.771  72.812  1.00  0.00    -0.457 C  
BRANCH  21  23
HETATM   23  C   UNL     1     -11.100   6.859  70.470  1.00  0.00    -0.332 C  
BRANCH  23  24
HETATM   24  C   UNL     1      -9.758   6.237  70.143  1.00  0.00    -0.187 A  
HETATM   25  C   UNL     1      -7.560   6.387  69.103  1.00  0.00    -0.100 A  
HETATM   26  C   UNL     1      -7.277   5.074  69.476  1.00  0.00    -0.056 A  
HETATM   27  C   UNL     1      -9.471   4.915  70.502  1.00  0.00    -0.232 A  
HETATM   28  C   UNL     1      -8.236   4.345  70.181  1.00  0.00    -0.067 A  
HETATM   29  C   UNL     1      -8.792   6.963  69.434  1.00  0.00    -0.136 A  
BRANCH  26  30
HETATM   30  O   UNL     1      -6.094   4.422  69.261  1.00  0.00    -0.025 OA 
HETATM   31  C   UNL     1      -5.920   3.845  67.972  1.00  0.00    -0.027 C  
ENDBRANCH  26  30
ENDBRANCH  23  24
ENDBRANCH  21  23
ENDBRANCH   3  21
ENDBRANCH   2   3
TORSDOF 14
ENDMDL
MODEL      282
REMARK 921   NORMALIZED FREE ENERGY PREDICTED BY IDOCK:   -3.48 KCAL/MOL
REMARK 922        TOTAL FREE ENERGY PREDICTED BY IDOCK:   -9.11 KCAL/MOL
REMARK 923 INTER-LIGAND FREE ENERGY PREDICTED BY IDOCK:   -8.03 KCAL/MOL
REMARK 924 INTRA-LIGAND FREE ENERGY PREDICTED BY IDOCK:   -1.08 KCAL/MOL
REMARK 927      BINDING AFFINITY PREDICTED BY RF-SCORE:    0.00 PKD
ROOT
HETATM    1  C   UNL     1      -5.861  10.133  71.072  1.00  0.00    -0.059 C  
HETATM    2  C   UNL     1      -6.994   9.307  70.474  1.00  0.00    -0.093 C  
ENDROOT
BRANCH   2   3
HETATM    3  N   UNL     1      -8.254   9.247  71.224  1.00  0.00    -0.325 NA 
BRANCH   3   4
HETATM    4  C   UNL     1      -9.477   9.283  70.400  1.00  0.00    -0.246 C  
BRANCH   4   5
HETATM    5  C   UNL     1      -9.427  10.297  69.246  1.00  0.00    -0.230 C  
BRANCH   5   6
HETATM    6  C   UNL     1     -10.767  11.009  69.062  1.00  0.00    -0.258 C  
BRANCH   6   7
HETATM    7  C   UNL     1     -11.286  10.798  67.644  1.00  0.00    -0.299 C  
BRANCH   7   8
HETATM    8  O   UNL     1     -10.755  11.809  66.777  1.00  0.00    -0.231 OA 
BRANCH   8   9
HETATM    9  C   UNL     1     -11.660  12.714  66.326  1.00  0.00    -0.386 C  
HETATM   10  O   UNL     1     -12.579  12.501  65.554  1.00  0.00    -0.642 OA 
BRANCH   9  11
HETATM   11  C   UNL     1     -11.351  14.052  66.880  1.00  0.00    -0.343 A  
HETATM   12  C   UNL     1     -11.738  14.424  68.173  1.00  0.00    -0.377 A  
HETATM   13  C   UNL     1     -11.450  15.706  68.652  1.00  0.00    -0.375 A  
HETATM   14  C   UNL     1     -10.368  16.236  66.541  1.00  0.00    -0.310 A  
HETATM   15  C   UNL     1     -10.757  16.620  67.828  1.00  0.00    -0.327 A  
HETATM   16  C   UNL     1     -10.673  14.960  66.062  1.00  0.00    -0.326 A  
BRANCH  13  17
HETATM   17  O   UNL     1     -11.807  16.163  69.897  1.00  0.00    -0.274 OA 
HETATM   18  C   UNL     1     -12.660  15.344  70.684  1.00  0.00    -0.439 C  
ENDBRANCH  13  17
BRANCH  15  19
HETATM   19  O   UNL     1     -10.515  17.858  68.368  1.00  0.00    -0.367 OA 
HETATM   20  C   UNL     1     -10.661  18.985  67.515  1.00  0.00    -0.461 C  
ENDBRANCH  15  19
ENDBRANCH   9  11
ENDBRANCH   8   9
ENDBRANCH   7   8
ENDBRANCH   6   7
ENDBRANCH   5   6
ENDBRANCH   4   5
ENDBRANCH   3   4
BRANCH   3  21
HETATM   21  C   UNL     1      -8.337   8.254  72.325  1.00  0.00    -0.169 C  
HETATM   22  C   UNL     1      -9.765   7.841  72.723  1.00  0.00    -0.292 C  
BRANCH  21  23
HETATM   23  C   UNL     1      -7.492   6.964  72.104  1.00  0.00    -0.091 C  
BRANCH  23  24
HETATM   24  C   UNL     1      -8.077   5.951  71.142  1.00  0.00    -0.121 A  
HETATM   25  C   UNL     1      -8.381   5.127  68.869  1.00  0.00    -0.087 A  
HETATM   26  C   UNL     1      -9.207   4.106  69.333  1.00  0.00    -0.143 A  
HETATM   27  C   UNL     1      -8.918   4.929  71.598  1.00  0.00    -0.161 A  
HETATM   28  C   UNL     1      -9.467   4.008  70.701  1.00  0.00    -0.240 A  
HETATM   29  C   UNL     1      -7.821   6.044  69.768  1.00  0.00    -0.101 A  
BRANCH  26  30
HETATM   30  O   UNL     1      -9.765   3.121  68.564  1.00  0.00    -0.106 OA 
HETATM   31  C   UNL     1      -9.369   1.788  68.866  1.00  0.00    -0.149 C  
ENDBRANCH  26  30
ENDBRANCH  23  24
ENDBRANCH  21  23
ENDBRANCH   3  21
ENDBRANCH   2   3
TORSDOF 14
ENDMDL
MODEL      283
REMARK 921   NORMALIZED FREE ENERGY PREDICTED BY IDOCK:   -3.47 KCAL/MOL
REMARK 922        TOTAL FREE ENERGY PREDICTED BY IDOCK:   -9.11 KCAL/MOL
REMARK 923 INTER-LIGAND FREE ENERGY PREDICTED BY IDOCK:   -7.01 KCAL/MOL
REMARK 924 INTRA-LIGAND FREE ENERGY PREDICTED BY IDOCK:   -2.09 KCAL/MOL
REMARK 927      BINDING AFFINITY PREDICTED BY RF-SCORE:    0.00 PKD
ROOT
HETATM    1  C   UNL     1      -6.018  11.026  66.442  1.00  0.00    -0.143 C  
HETATM    2  C   UNL     1      -5.722   9.623  66.958  1.00  0.00    -0.051 C  
ENDROOT
BRANCH   2   3
HETATM    3  N   UNL     1      -6.826   8.888  67.586  1.00  0.00    -0.070 NA 
BRANCH   3   4
HETATM    4  C   UNL     1      -7.269   7.683  66.862  1.00  0.00    -0.088 C  
BRANCH   4   5
HETATM    5  C   UNL     1      -8.217   7.968  65.686  1.00  0.00    -0.135 C  
BRANCH   5   6
HETATM    6  C   UNL     1      -9.188   9.105  66.006  1.00  0.00    -0.271 C  
BRANCH   6   7
HETATM    7  C   UNL     1      -9.298  10.054  64.818  1.00  0.00    -0.271 C  
BRANCH   7   8
HETATM    8  O   UNL     1     -10.642  10.539  64.708  1.00  0.00    -0.253 OA 
BRANCH   8   9
HETATM    9  C   UNL     1     -10.756  11.865  64.444  1.00  0.00    -0.323 C  
HETATM   10  O   UNL     1     -10.795  12.387  63.342  1.00  0.00    -0.451 OA 
BRANCH   9  11
HETATM   11  C   UNL     1     -10.785  12.629  65.712  1.00  0.00    -0.295 A  
HETATM   12  C   UNL     1     -10.123  13.855  65.852  1.00  0.00    -0.331 A  
HETATM   13  C   UNL     1     -10.151  14.534  67.073  1.00  0.00    -0.254 A  
HETATM   14  C   UNL     1     -11.524  12.761  68.011  1.00  0.00    -0.364 A  
HETATM   15  C   UNL     1     -10.860  13.982  68.163  1.00  0.00    -0.248 A  
HETATM   16  C   UNL     1     -11.479  12.079  66.793  1.00  0.00    -0.410 A  
BRANCH  13  17
HETATM   17  O   UNL     1      -9.517  15.730  67.306  1.00  0.00    -0.210 OA 
HETATM   18  C   UNL     1      -8.821  16.332  66.224  1.00  0.00    -0.331 C  
ENDBRANCH  13  17
BRANCH  15  19
HETATM   19  O   UNL     1     -10.839  14.707  69.328  1.00  0.00    -0.248 OA 
HETATM   20  C   UNL     1     -12.074  15.230  69.798  1.00  0.00    -0.328 C  
ENDBRANCH  15  19
ENDBRANCH   9  11
ENDBRANCH   8   9
ENDBRANCH   7   8
ENDBRANCH   6   7
ENDBRANCH   5   6
ENDBRANCH   4   5
ENDBRANCH   3   4
BRANCH   3  21
HETATM   21  C   UNL     1      -6.746   8.675  69.053  1.00  0.00    -0.052 C  
HETATM   22  C   UNL     1      -7.141   9.891  69.910  1.00  0.00    -0.118 C  
BRANCH  21  23
HETATM   23  C   UNL     1      -7.523   7.428  69.574  1.00  0.00    -0.090 C  
BRANCH  23  24
HETATM   24  C   UNL     1      -8.908   7.698  70.123  1.00  0.00    -0.146 A  
HETATM   25  C   UNL     1     -10.506   7.604  71.960  1.00  0.00    -0.258 A  
HETATM   26  C   UNL     1     -11.500   8.141  71.143  1.00  0.00    -0.276 A  
HETATM   27  C   UNL     1      -9.916   8.225  69.307  1.00  0.00    -0.192 A  
HETATM   28  C   UNL     1     -11.196   8.455  69.818  1.00  0.00     0.027 A  
HETATM   29  C   UNL     1      -9.220   7.383  71.452  1.00  0.00    -0.148 A  
BRANCH  26  30
HETATM   30  O   UNL     1     -12.772   8.453  71.537  1.00  0.00    -0.311 OA 
HETATM   31  C   UNL     1     -13.696   7.372  71.592  1.00  0.00    -0.373 C  
ENDBRANCH  26  30
ENDBRANCH  23  24
ENDBRANCH  21  23
ENDBRANCH   3  21
ENDBRANCH   2   3
TORSDOF 14
ENDMDL
MODEL      284
REMARK 921   NORMALIZED FREE ENERGY PREDICTED BY IDOCK:   -3.47 KCAL/MOL
REMARK 922        TOTAL FREE ENERGY PREDICTED BY IDOCK:   -9.09 KCAL/MOL
REMARK 923 INTER-LIGAND FREE ENERGY PREDICTED BY IDOCK:   -7.77 KCAL/MOL
REMARK 924 INTRA-LIGAND FREE ENERGY PREDICTED BY IDOCK:   -1.32 KCAL/MOL
REMARK 927      BINDING AFFINITY PREDICTED BY RF-SCORE:    0.00 PKD
ROOT
HETATM    1  C   UNL     1     -11.794  10.999  69.432  1.00  0.00    -0.407 C  
HETATM    2  C   UNL     1     -10.918   9.770  69.642  1.00  0.00    -0.241 C  
ENDROOT
BRANCH   2   3
HETATM    3  N   UNL     1     -10.526   9.009  68.451  1.00  0.00    -0.207 NA 
BRANCH   3   4
HETATM    4  C   UNL     1      -9.253   9.425  67.832  1.00  0.00    -0.129 C  
BRANCH   4   5
HETATM    5  C   UNL     1      -9.419  10.328  66.599  1.00  0.00    -0.203 C  
BRANCH   5   6
HETATM    6  C   UNL     1      -8.397  11.465  66.590  1.00  0.00    -0.172 C  
BRANCH   6   7
HETATM    7  C   UNL     1      -8.593  12.360  67.808  1.00  0.00    -0.172 C  
BRANCH   7   8
HETATM    8  O   UNL     1      -8.648  13.733  67.397  1.00  0.00    -0.181 OA 
BRANCH   8   9
HETATM    9  C   UNL     1      -9.627  14.469  67.981  1.00  0.00    -0.217 C  
HETATM   10  O   UNL     1     -10.753  14.093  68.259  1.00  0.00    -0.238 OA 
BRANCH   9  11
HETATM   11  C   UNL     1      -9.148  15.852  68.206  1.00  0.00    -0.185 A  
HETATM   12  C   UNL     1      -9.966  16.965  67.971  1.00  0.00    -0.279 A  
HETATM   13  C   UNL     1      -9.469  18.256  68.171  1.00  0.00    -0.303 A  
HETATM   14  C   UNL     1      -7.336  17.316  68.858  1.00  0.00    -0.243 A  
HETATM   15  C   UNL     1      -8.142  18.433  68.620  1.00  0.00    -0.297 A  
HETATM   16  C   UNL     1      -7.832  16.028  68.641  1.00  0.00    -0.179 A  
BRANCH  13  17
HETATM   17  O   UNL     1     -10.192  19.403  67.949  1.00  0.00    -0.373 OA 
HETATM   18  C   UNL     1     -10.706  19.620  66.643  1.00  0.00    -0.440 C  
ENDBRANCH  13  17
BRANCH  15  19
HETATM   19  O   UNL     1      -7.729  19.731  68.789  1.00  0.00    -0.316 OA 
HETATM   20  C   UNL     1      -6.548  19.949  69.550  1.00  0.00    -0.337 C  
ENDBRANCH  15  19
ENDBRANCH   9  11
ENDBRANCH   8   9
ENDBRANCH   7   8
ENDBRANCH   6   7
ENDBRANCH   5   6
ENDBRANCH   4   5
ENDBRANCH   3   4
BRANCH   3  21
HETATM   21  C   UNL     1     -10.673   7.533  68.514  1.00  0.00    -0.073 C  
HETATM   22  C   UNL     1     -10.861   6.839  67.154  1.00  0.00    -0.462 C  
BRANCH  21  23
HETATM   23  C   UNL     1      -9.542   6.798  69.293  1.00  0.00    -0.144 C  
BRANCH  23  24
HETATM   24  C   UNL     1      -9.987   6.000  70.502  1.00  0.00    -0.233 A  
HETATM   25  C   UNL     1     -11.372   5.783  72.495  1.00  0.00    -0.358 A  
HETATM   26  C   UNL     1     -10.785   4.554  72.787  1.00  0.00    -0.186 A  
HETATM   27  C   UNL     1      -9.394   4.770  70.810  1.00  0.00    -0.210 A  
HETATM   28  C   UNL     1      -9.800   4.050  71.936  1.00  0.00    -0.247 A  
HETATM   29  C   UNL     1     -10.974   6.502  71.361  1.00  0.00    -0.303 A  
BRANCH  26  30
HETATM   30  O   UNL     1     -11.126   3.736  73.830  1.00  0.00    -0.231 OA 
HETATM   31  C   UNL     1     -11.274   2.354  73.522  1.00  0.00    -0.209 C  
ENDBRANCH  26  30
ENDBRANCH  23  24
ENDBRANCH  21  23
ENDBRANCH   3  21
ENDBRANCH   2   3
TORSDOF 14
ENDMDL
MODEL      285
REMARK 921   NORMALIZED FREE ENERGY PREDICTED BY IDOCK:   -3.46 KCAL/MOL
REMARK 922        TOTAL FREE ENERGY PREDICTED BY IDOCK:   -9.08 KCAL/MOL
REMARK 923 INTER-LIGAND FREE ENERGY PREDICTED BY IDOCK:   -8.31 KCAL/MOL
REMARK 924 INTRA-LIGAND FREE ENERGY PREDICTED BY IDOCK:   -0.77 KCAL/MOL
REMARK 927      BINDING AFFINITY PREDICTED BY RF-SCORE:    0.00 PKD
ROOT
HETATM    1  C   UNL     1      -7.347  13.622  67.510  1.00  0.00    -0.178 C  
HETATM    2  C   UNL     1      -8.695  13.914  66.863  1.00  0.00    -0.158 C  
ENDROOT
BRANCH   2   3
HETATM    3  N   UNL     1      -9.894  13.738  67.691  1.00  0.00    -0.229 NA 
BRANCH   3   4
HETATM    4  C   UNL     1      -9.869  12.568  68.588  1.00  0.00    -0.075 C  
BRANCH   4   5
HETATM    5  C   UNL     1     -11.202  11.806  68.665  1.00  0.00    -0.312 C  
BRANCH   5   6
HETATM    6  C   UNL     1     -12.200  12.506  69.588  1.00  0.00    -0.167 C  
BRANCH   6   7
HETATM    7  C   UNL     1     -12.318  11.750  70.906  1.00  0.00    -0.320 C  
BRANCH   7   8
HETATM    8  O   UNL     1     -11.750  10.441  70.767  1.00  0.00    -0.321 OA 
BRANCH   8   9
HETATM    9  C   UNL     1     -12.564   9.419  71.134  1.00  0.00    -0.282 C  
HETATM   10  O   UNL     1     -13.776   9.461  71.257  1.00  0.00    -0.346 OA 
BRANCH   9  11
HETATM   11  C   UNL     1     -11.755   8.211  71.419  1.00  0.00    -0.321 A  
HETATM   12  C   UNL     1     -11.560   7.209  70.461  1.00  0.00    -0.331 A  
HETATM   13  C   UNL     1     -10.812   6.071  70.776  1.00  0.00    -0.292 A  
HETATM   14  C   UNL     1     -10.438   6.952  73.009  1.00  0.00    -0.291 A  
HETATM   15  C   UNL     1     -10.243   5.942  72.062  1.00  0.00    -0.197 A  
HETATM   16  C   UNL     1     -11.200   8.079  72.695  1.00  0.00    -0.462 A  
BRANCH  13  17
HETATM   17  O   UNL     1     -10.585   5.032  69.907  1.00  0.00    -0.237 OA 
HETATM   18  C   UNL     1      -9.870   5.312  68.711  1.00  0.00    -0.161 C  
ENDBRANCH  13  17
BRANCH  15  19
HETATM   19  O   UNL     1      -9.526   4.796  72.294  1.00  0.00    -0.132 OA 
HETATM   20  C   UNL     1      -8.180   4.942  72.728  1.00  0.00    -0.105 C  
ENDBRANCH  15  19
ENDBRANCH   9  11
ENDBRANCH   8   9
ENDBRANCH   7   8
ENDBRANCH   6   7
ENDBRANCH   5   6
ENDBRANCH   4   5
ENDBRANCH   3   4
BRANCH   3  21
HETATM   21  C   UNL     1     -10.444  14.949  68.349  1.00  0.00    -0.243 C  
HETATM   22  C   UNL     1      -9.508  15.616  69.373  1.00  0.00    -0.279 C  
BRANCH  21  23
HETATM   23  C   UNL     1     -10.965  16.043  67.369  1.00  0.00    -0.237 C  
BRANCH  23  24
HETATM   24  C   UNL     1     -10.147  17.316  67.309  1.00  0.00    -0.300 A  
HETATM   25  C   UNL     1      -8.227  18.554  66.460  1.00  0.00    -0.299 A  
HETATM   26  C   UNL     1      -8.581  19.660  67.230  1.00  0.00    -0.308 A  
HETATM   27  C   UNL     1     -10.487  18.428  68.089  1.00  0.00    -0.355 A  
HETATM   28  C   UNL     1      -9.716  19.592  68.039  1.00  0.00    -0.501 A  
HETATM   29  C   UNL     1      -9.005  17.390  66.501  1.00  0.00    -0.285 A  
BRANCH  26  30
HETATM   30  O   UNL     1      -7.936  20.867  67.234  1.00  0.00    -0.303 OA 
HETATM   31  C   UNL     1      -6.524  20.826  67.067  1.00  0.00    -0.284 C  
ENDBRANCH  26  30
ENDBRANCH  23  24
ENDBRANCH  21  23
ENDBRANCH   3  21
ENDBRANCH   2   3
TORSDOF 14
ENDMDL
MODEL      286
REMARK 921   NORMALIZED FREE ENERGY PREDICTED BY IDOCK:   -3.46 KCAL/MOL
REMARK 922        TOTAL FREE ENERGY PREDICTED BY IDOCK:   -9.08 KCAL/MOL
REMARK 923 INTER-LIGAND FREE ENERGY PREDICTED BY IDOCK:   -7.13 KCAL/MOL
REMARK 924 INTRA-LIGAND FREE ENERGY PREDICTED BY IDOCK:   -1.94 KCAL/MOL
REMARK 927      BINDING AFFINITY PREDICTED BY RF-SCORE:    0.00 PKD
ROOT
HETATM    1  C   UNL     1      -6.998   7.658  64.726  1.00  0.00    -0.055 C  
HETATM    2  C   UNL     1      -6.959   9.006  64.016  1.00  0.00    -0.087 C  
ENDROOT
BRANCH   2   3
HETATM    3  N   UNL     1      -7.843  10.062  64.522  1.00  0.00    -0.142 NA 
BRANCH   3   4
HETATM    4  C   UNL     1      -9.159  10.147  63.862  1.00  0.00    -0.260 C  
BRANCH   4   5
HETATM    5  C   UNL     1      -9.618  11.582  63.558  1.00  0.00    -0.297 C  
BRANCH   5   6
HETATM    6  C   UNL     1     -11.034  11.612  62.981  1.00  0.00    -0.086 C  
BRANCH   6   7
HETATM    7  C   UNL     1     -11.826  12.763  63.591  1.00  0.00    -0.532 C  
BRANCH   7   8
HETATM    8  O   UNL     1     -10.928  13.719  64.168  1.00  0.00    -0.317 OA 
BRANCH   8   9
HETATM    9  C   UNL     1     -11.521  14.713  64.876  1.00  0.00    -0.401 C  
HETATM   10  O   UNL     1     -12.718  14.926  64.969  1.00  0.00    -0.218 OA 
BRANCH   9  11
HETATM   11  C   UNL     1     -10.488  15.563  65.512  1.00  0.00    -0.407 A  
HETATM   12  C   UNL     1      -9.323  15.019  66.066  1.00  0.00    -0.304 A  
HETATM   13  C   UNL     1      -8.382  15.852  66.680  1.00  0.00    -0.293 A  
HETATM   14  C   UNL     1      -9.772  17.778  66.166  1.00  0.00    -0.230 A  
HETATM   15  C   UNL     1      -8.609  17.245  66.730  1.00  0.00    -0.249 A  
HETATM   16  C   UNL     1     -10.716  16.940  65.569  1.00  0.00    -0.171 A  
BRANCH  13  17
HETATM   17  O   UNL     1      -7.222  15.406  67.266  1.00  0.00    -0.199 OA 
HETATM   18  C   UNL     1      -7.321  14.775  68.535  1.00  0.00    -0.118 C  
ENDBRANCH  13  17
BRANCH  15  19
HETATM   19  O   UNL     1      -7.641  17.993  67.351  1.00  0.00    -0.201 OA 
HETATM   20  C   UNL     1      -7.970  19.332  67.698  1.00  0.00    -0.278 C  
ENDBRANCH  15  19
ENDBRANCH   9  11
ENDBRANCH   8   9
ENDBRANCH   7   8
ENDBRANCH   6   7
ENDBRANCH   5   6
ENDBRANCH   4   5
ENDBRANCH   3   4
BRANCH   3  21
HETATM   21  C   UNL     1      -7.933  10.216  65.996  1.00  0.00    -0.124 C  
HETATM   22  C   UNL     1      -7.739  11.653  66.513  1.00  0.00    -0.003 C  
BRANCH  21  23
HETATM   23  C   UNL     1      -9.228   9.631  66.635  1.00  0.00    -0.187 C  
BRANCH  23  24
HETATM   24  C   UNL     1     -10.098  10.620  67.383  1.00  0.00    -0.231 A  
HETATM   25  C   UNL     1     -10.886  11.573  69.483  1.00  0.00    -0.121 A  
HETATM   26  C   UNL     1     -11.754  12.416  68.792  1.00  0.00    -0.332 A  
HETATM   27  C   UNL     1     -10.983  11.462  66.698  1.00  0.00    -0.341 A  
HETATM   28  C   UNL     1     -11.793  12.360  67.399  1.00  0.00    -0.360 A  
HETATM   29  C   UNL     1     -10.065  10.680  68.782  1.00  0.00    -0.203 A  
BRANCH  26  30
HETATM   30  O   UNL     1     -12.561  13.365  69.358  1.00  0.00    -0.042 OA 
HETATM   31  C   UNL     1     -12.115  13.913  70.593  1.00  0.00    -0.347 C  
ENDBRANCH  26  30
ENDBRANCH  23  24
ENDBRANCH  21  23
ENDBRANCH   3  21
ENDBRANCH   2   3
TORSDOF 14
ENDMDL
MODEL      287
REMARK 921   NORMALIZED FREE ENERGY PREDICTED BY IDOCK:   -3.45 KCAL/MOL
REMARK 922        TOTAL FREE ENERGY PREDICTED BY IDOCK:   -9.07 KCAL/MOL
REMARK 923 INTER-LIGAND FREE ENERGY PREDICTED BY IDOCK:   -7.52 KCAL/MOL
REMARK 924 INTRA-LIGAND FREE ENERGY PREDICTED BY IDOCK:   -1.55 KCAL/MOL
REMARK 927      BINDING AFFINITY PREDICTED BY RF-SCORE:    0.00 PKD
ROOT
HETATM    1  C   UNL     1      -7.985   6.887  70.020  1.00  0.00    -0.116 C  
HETATM    2  C   UNL     1      -9.165   7.597  69.367  1.00  0.00    -0.149 C  
ENDROOT
BRANCH   2   3
HETATM    3  N   UNL     1      -8.863   8.667  68.410  1.00  0.00    -0.142 NA 
BRANCH   3   4
HETATM    4  C   UNL     1      -7.635   9.433  68.693  1.00  0.00    -0.080 C  
BRANCH   4   5
HETATM    5  C   UNL     1      -7.888  10.864  69.195  1.00  0.00    -0.119 C  
BRANCH   5   6
HETATM    6  C   UNL     1      -6.760  11.812  68.789  1.00  0.00    -0.083 C  
BRANCH   6   7
HETATM    7  C   UNL     1      -7.223  13.261  68.901  1.00  0.00    -0.054 C  
BRANCH   7   8
HETATM    8  O   UNL     1      -8.215  13.532  67.902  1.00  0.00    -0.142 OA 
BRANCH   8   9
HETATM    9  C   UNL     1      -9.179  14.411  68.272  1.00  0.00    -0.201 C  
HETATM   10  O   UNL     1     -10.199  14.156  68.890  1.00  0.00    -0.230 OA 
BRANCH   9  11
HETATM   11  C   UNL     1      -8.843  15.764  67.773  1.00  0.00    -0.173 A  
HETATM   12  C   UNL     1      -9.315  16.923  68.402  1.00  0.00    -0.255 A  
HETATM   13  C   UNL     1      -8.997  18.182  67.886  1.00  0.00    -0.269 A  
HETATM   14  C   UNL     1      -7.716  17.118  66.116  1.00  0.00    -0.302 A  
HETATM   15  C   UNL     1      -8.188  18.281  66.732  1.00  0.00    -0.253 A  
HETATM   16  C   UNL     1      -8.050  15.862  66.627  1.00  0.00    -0.298 A  
BRANCH  13  17
HETATM   17  O   UNL     1      -9.430  19.369  68.426  1.00  0.00    -0.337 OA 
HETATM   18  C   UNL     1     -10.651  19.911  67.941  1.00  0.00    -0.284 C  
ENDBRANCH  13  17
BRANCH  15  19
HETATM   19  O   UNL     1      -7.923  19.551  66.287  1.00  0.00    -0.294 OA 
HETATM   20  C   UNL     1      -6.687  20.137  66.674  1.00  0.00    -0.222 C  
ENDBRANCH  15  19
ENDBRANCH   9  11
ENDBRANCH   8   9
ENDBRANCH   7   8
ENDBRANCH   6   7
ENDBRANCH   5   6
ENDBRANCH   4   5
ENDBRANCH   3   4
BRANCH   3  21
HETATM   21  C   UNL     1      -9.016   8.346  66.969  1.00  0.00    -0.142 C  
HETATM   22  C   UNL     1     -10.406   7.828  66.560  1.00  0.00    -0.126 C  
BRANCH  21  23
HETATM   23  C   UNL     1      -8.611   9.496  65.998  1.00  0.00    -0.145 C  
BRANCH  23  24
HETATM   24  C   UNL     1      -9.711  10.473  65.640  1.00  0.00    -0.289 A  
HETATM   25  C   UNL     1     -11.444  12.045  66.323  1.00  0.00    -0.408 A  
HETATM   26  C   UNL     1     -11.802  12.251  64.992  1.00  0.00    -0.357 A  
HETATM   27  C   UNL     1     -10.087  10.676  64.307  1.00  0.00    -0.411 A  
HETATM   28  C   UNL     1     -11.115  11.567  63.988  1.00  0.00    -0.441 A  
HETATM   29  C   UNL     1     -10.406  11.161  66.644  1.00  0.00    -0.286 A  
BRANCH  26  30
HETATM   30  O   UNL     1     -12.756  13.126  64.551  1.00  0.00    -0.647 OA 
HETATM   31  C   UNL     1     -12.280  14.344  63.989  1.00  0.00    -0.265 C  
ENDBRANCH  26  30
ENDBRANCH  23  24
ENDBRANCH  21  23
ENDBRANCH   3  21
ENDBRANCH   2   3
TORSDOF 14
ENDMDL
MODEL      288
REMARK 921   NORMALIZED FREE ENERGY PREDICTED BY IDOCK:   -3.45 KCAL/MOL
REMARK 922        TOTAL FREE ENERGY PREDICTED BY IDOCK:   -9.06 KCAL/MOL
REMARK 923 INTER-LIGAND FREE ENERGY PREDICTED BY IDOCK:   -7.56 KCAL/MOL
REMARK 924 INTRA-LIGAND FREE ENERGY PREDICTED BY IDOCK:   -1.50 KCAL/MOL
REMARK 927      BINDING AFFINITY PREDICTED BY RF-SCORE:    0.00 PKD
ROOT
HETATM    1  C   UNL     1      -8.806  11.820  68.065  1.00  0.00    -0.164 C  
HETATM    2  C   UNL     1      -7.964  10.940  67.149  1.00  0.00    -0.127 C  
ENDROOT
BRANCH   2   3
HETATM    3  N   UNL     1      -8.350   9.529  67.026  1.00  0.00    -0.123 NA 
BRANCH   3   4
HETATM    4  C   UNL     1      -9.157   9.202  65.836  1.00  0.00    -0.205 C  
BRANCH   4   5
HETATM    5  C   UNL     1      -9.167  10.300  64.761  1.00  0.00    -0.287 C  
BRANCH   5   6
HETATM    6  C   UNL     1     -10.583  10.809  64.487  1.00  0.00    -0.258 C  
BRANCH   6   7
HETATM    7  C   UNL     1     -10.600  11.667  63.226  1.00  0.00    -0.356 C  
BRANCH   7   8
HETATM    8  O   UNL     1     -10.517  13.054  63.582  1.00  0.00    -0.278 OA 
BRANCH   8   9
HETATM    9  C   UNL     1     -11.652  13.582  64.106  1.00  0.00    -0.376 C  
HETATM   10  O   UNL     1     -12.767  13.542  63.615  1.00  0.00    -0.695 OA 
BRANCH   9  11
HETATM   11  C   UNL     1     -11.342  14.276  65.377  1.00  0.00    -0.329 A  
HETATM   12  C   UNL     1     -10.603  15.465  65.408  1.00  0.00    -0.430 A  
HETATM   13  C   UNL     1     -10.308  16.078  66.629  1.00  0.00    -0.298 A  
HETATM   14  C   UNL     1     -11.513  14.314  67.789  1.00  0.00    -0.354 A  
HETATM   15  C   UNL     1     -10.770  15.497  67.832  1.00  0.00    -0.294 A  
HETATM   16  C   UNL     1     -11.790  13.697  66.567  1.00  0.00    -0.441 A  
BRANCH  13  17
HETATM   17  O   UNL     1      -9.576  17.233  66.757  1.00  0.00    -0.252 OA 
HETATM   18  C   UNL     1     -10.222  18.463  66.461  1.00  0.00    -0.401 C  
ENDBRANCH  13  17
BRANCH  15  19
HETATM   19  O   UNL     1     -10.438  16.156  68.988  1.00  0.00    -0.228 OA 
HETATM   20  C   UNL     1      -9.875  15.387  70.042  1.00  0.00    -0.095 C  
ENDBRANCH  15  19
ENDBRANCH   9  11
ENDBRANCH   8   9
ENDBRANCH   7   8
ENDBRANCH   6   7
ENDBRANCH   5   6
ENDBRANCH   4   5
ENDBRANCH   3   4
BRANCH   3  21
HETATM   21  C   UNL     1      -7.300   8.516  67.299  1.00  0.00    -0.088 C  
HETATM   22  C   UNL     1      -6.110   9.021  68.133  1.00  0.00    -0.050 C  
BRANCH  21  23
HETATM   23  C   UNL     1      -7.822   7.191  67.932  1.00  0.00    -0.114 C  
BRANCH  23  24
HETATM   24  C   UNL     1      -8.558   6.259  66.993  1.00  0.00    -0.104 A  
HETATM   25  C   UNL     1      -8.627   4.957  64.934  1.00  0.00    -0.148 A  
HETATM   26  C   UNL     1      -9.938   4.569  65.205  1.00  0.00    -0.131 A  
HETATM   27  C   UNL     1      -9.880   5.875  67.250  1.00  0.00    -0.155 A  
HETATM   28  C   UNL     1     -10.557   5.027  66.368  1.00  0.00    -0.317 A  
HETATM   29  C   UNL     1      -7.943   5.797  65.822  1.00  0.00    -0.110 A  
BRANCH  26  30
HETATM   30  O   UNL     1     -10.687   3.712  64.447  1.00  0.00    -0.210 OA 
HETATM   31  C   UNL     1      -9.997   3.020  63.413  1.00  0.00    -0.136 C  
ENDBRANCH  26  30
ENDBRANCH  23  24
ENDBRANCH  21  23
ENDBRANCH   3  21
ENDBRANCH   2   3
TORSDOF 14
ENDMDL
MODEL      289
REMARK 921   NORMALIZED FREE ENERGY PREDICTED BY IDOCK:   -3.44 KCAL/MOL
REMARK 922        TOTAL FREE ENERGY PREDICTED BY IDOCK:   -9.04 KCAL/MOL
REMARK 923 INTER-LIGAND FREE ENERGY PREDICTED BY IDOCK:   -8.40 KCAL/MOL
REMARK 924 INTRA-LIGAND FREE ENERGY PREDICTED BY IDOCK:   -0.65 KCAL/MOL
REMARK 927      BINDING AFFINITY PREDICTED BY RF-SCORE:    0.00 PKD
ROOT
HETATM    1  C   UNL     1      -7.276  12.060  68.345  1.00  0.00    -0.092 C  
HETATM    2  C   UNL     1      -8.295  11.673  67.280  1.00  0.00    -0.158 C  
ENDROOT
BRANCH   2   3
HETATM    3  N   UNL     1      -9.369  10.755  67.677  1.00  0.00    -0.147 NA 
BRANCH   3   4
HETATM    4  C   UNL     1      -9.325  10.308  69.081  1.00  0.00    -0.204 C  
BRANCH   4   5
HETATM    5  C   UNL     1      -8.660   8.937  69.284  1.00  0.00    -0.133 C  
BRANCH   5   6
HETATM    6  C   UNL     1      -8.723   8.086  68.015  1.00  0.00    -0.125 C  
BRANCH   6   7
HETATM    7  C   UNL     1      -8.112   6.712  68.271  1.00  0.00    -0.111 C  
BRANCH   7   8
HETATM    8  O   UNL     1      -8.993   5.691  67.786  1.00  0.00    -0.110 OA 
BRANCH   8   9
HETATM    9  C   UNL     1     -10.300   5.859  68.107  1.00  0.00    -0.210 C  
HETATM   10  O   UNL     1     -11.206   6.144  67.342  1.00  0.00    -0.288 OA 
BRANCH   9  11
HETATM   11  C   UNL     1     -10.485   5.687  69.566  1.00  0.00    -0.372 A  
HETATM   12  C   UNL     1      -9.904   4.622  70.264  1.00  0.00    -0.314 A  
HETATM   13  C   UNL     1     -10.123   4.478  71.638  1.00  0.00    -0.179 A  
HETATM   14  C   UNL     1     -11.495   6.484  71.614  1.00  0.00    -0.345 A  
HETATM   15  C   UNL     1     -10.925   5.420  72.319  1.00  0.00    -0.216 A  
HETATM   16  C   UNL     1     -11.286   6.613  70.239  1.00  0.00    -0.431 A  
BRANCH  13  17
HETATM   17  O   UNL     1      -9.609   3.457  72.399  1.00  0.00    -0.118 OA 
HETATM   18  C   UNL     1      -8.321   2.961  72.060  1.00  0.00    -0.059 C  
ENDBRANCH  13  17
BRANCH  15  19
HETATM   19  O   UNL     1     -11.094   5.209  73.664  1.00  0.00    -0.308 OA 
HETATM   20  C   UNL     1     -10.364   6.041  74.555  1.00  0.00    -0.221 C  
ENDBRANCH  15  19
ENDBRANCH   9  11
ENDBRANCH   8   9
ENDBRANCH   7   8
ENDBRANCH   6   7
ENDBRANCH   5   6
ENDBRANCH   4   5
ENDBRANCH   3   4
BRANCH   3  21
HETATM   21  C   UNL     1     -10.744  11.091  67.228  1.00  0.00    -0.265 C  
HETATM   22  C   UNL     1     -11.444  12.193  68.043  1.00  0.00    -0.380 C  
BRANCH  21  23
HETATM   23  C   UNL     1     -10.868  11.441  65.714  1.00  0.00    -0.290 C  
BRANCH  23  24
HETATM   24  C   UNL     1     -11.025  12.912  65.389  1.00  0.00    -0.305 A  
HETATM   25  C   UNL     1     -12.257  14.716  64.311  1.00  0.00    -0.432 A  
HETATM   26  C   UNL     1     -11.299  15.639  64.727  1.00  0.00    -0.343 A  
HETATM   27  C   UNL     1     -10.061  13.844  65.792  1.00  0.00    -0.336 A  
HETATM   28  C   UNL     1     -10.206  15.197  65.473  1.00  0.00    -0.405 A  
HETATM   29  C   UNL     1     -12.119  13.362  64.639  1.00  0.00    -0.456 A  
BRANCH  26  30
HETATM   30  O   UNL     1     -11.351  16.990  64.518  1.00  0.00    -1.035 OA 
HETATM   31  C   UNL     1     -10.751  17.805  65.519  1.00  0.00    -0.009 C  
ENDBRANCH  26  30
ENDBRANCH  23  24
ENDBRANCH  21  23
ENDBRANCH   3  21
ENDBRANCH   2   3
TORSDOF 14
ENDMDL
MODEL      290
REMARK 921   NORMALIZED FREE ENERGY PREDICTED BY IDOCK:   -3.43 KCAL/MOL
REMARK 922        TOTAL FREE ENERGY PREDICTED BY IDOCK:   -9.03 KCAL/MOL
REMARK 923 INTER-LIGAND FREE ENERGY PREDICTED BY IDOCK:   -6.88 KCAL/MOL
REMARK 924 INTRA-LIGAND FREE ENERGY PREDICTED BY IDOCK:   -2.15 KCAL/MOL
REMARK 927      BINDING AFFINITY PREDICTED BY RF-SCORE:    0.00 PKD
ROOT
HETATM    1  C   UNL     1     -10.441   5.410  69.286  1.00  0.00    -0.309 C  
HETATM    2  C   UNL     1      -9.095   5.055  69.906  1.00  0.00    -0.119 C  
ENDROOT
BRANCH   2   3
HETATM    3  N   UNL     1      -9.053   4.855  71.359  1.00  0.00    -0.139 NA 
BRANCH   3   4
HETATM    4  C   UNL     1      -8.122   5.737  72.087  1.00  0.00    -0.108 C  
BRANCH   4   5
HETATM    5  C   UNL     1      -7.410   6.769  71.198  1.00  0.00    -0.079 C  
BRANCH   5   6
HETATM    6  C   UNL     1      -7.630   8.196  71.702  1.00  0.00    -0.097 C  
BRANCH   6   7
HETATM    7  C   UNL     1      -7.598   9.177  70.535  1.00  0.00    -0.125 C  
BRANCH   7   8
HETATM    8  O   UNL     1      -8.899   9.748  70.346  1.00  0.00    -0.210 OA 
BRANCH   8   9
HETATM    9  C   UNL     1      -9.368   9.705  69.074  1.00  0.00    -0.159 C  
HETATM   10  O   UNL     1      -9.629   8.703  68.428  1.00  0.00    -0.144 OA 
BRANCH   9  11
HETATM   11  C   UNL     1      -9.485  11.079  68.534  1.00  0.00    -0.188 A  
HETATM   12  C   UNL     1     -10.636  11.853  68.728  1.00  0.00    -0.234 A  
HETATM   13  C   UNL     1     -10.719  13.137  68.181  1.00  0.00    -0.242 A  
HETATM   14  C   UNL     1      -8.485  12.875  67.261  1.00  0.00    -0.197 A  
HETATM   15  C   UNL     1      -9.632  13.654  67.441  1.00  0.00    -0.226 A  
HETATM   16  C   UNL     1      -8.414  11.587  67.795  1.00  0.00    -0.137 A  
BRANCH  13  17
HETATM   17  O   UNL     1     -11.813  13.959  68.304  1.00  0.00    -0.343 OA 
HETATM   18  C   UNL     1     -12.013  14.613  69.549  1.00  0.00    -0.319 C  
ENDBRANCH  13  17
BRANCH  15  19
HETATM   19  O   UNL     1      -9.792  14.919  66.935  1.00  0.00    -0.231 OA 
HETATM   20  C   UNL     1      -9.693  15.078  65.526  1.00  0.00    -0.259 C  
ENDBRANCH  15  19
ENDBRANCH   9  11
ENDBRANCH   8   9
ENDBRANCH   7   8
ENDBRANCH   6   7
ENDBRANCH   5   6
ENDBRANCH   4   5
ENDBRANCH   3   4
BRANCH   3  21
HETATM   21  C   UNL     1     -10.354   4.699  72.055  1.00  0.00    -0.164 C  
HETATM   22  C   UNL     1     -10.561   3.343  72.754  1.00  0.00    -0.169 C  
BRANCH  21  23
HETATM   23  C   UNL     1     -10.692   5.834  73.068  1.00  0.00    -0.290 C  
BRANCH  23  24
HETATM   24  C   UNL     1     -11.503   6.988  72.516  1.00  0.00    -0.275 A  
HETATM   25  C   UNL     1     -13.585   7.852  71.591  1.00  0.00    -0.397 A  
HETATM   26  C   UNL     1     -13.010   9.111  71.433  1.00  0.00    -0.307 A  
HETATM   27  C   UNL     1     -10.930   8.253  72.342  1.00  0.00    -0.438 A  
HETATM   28  C   UNL     1     -11.683   9.307  71.817  1.00  0.00    -0.456 A  
HETATM   29  C   UNL     1     -12.836   6.798  72.128  1.00  0.00    -0.093 A  
BRANCH  26  30
HETATM   30  O   UNL     1     -13.652  10.229  70.975  1.00  0.00    -0.236 OA 
HETATM   31  C   UNL     1     -13.390  11.438  71.679  1.00  0.00    -0.187 C  
ENDBRANCH  26  30
ENDBRANCH  23  24
ENDBRANCH  21  23
ENDBRANCH   3  21
ENDBRANCH   2   3
TORSDOF 14
ENDMDL
MODEL      291
REMARK 921   NORMALIZED FREE ENERGY PREDICTED BY IDOCK:   -3.43 KCAL/MOL
REMARK 922        TOTAL FREE ENERGY PREDICTED BY IDOCK:   -9.03 KCAL/MOL
REMARK 923 INTER-LIGAND FREE ENERGY PREDICTED BY IDOCK:   -7.43 KCAL/MOL
REMARK 924 INTRA-LIGAND FREE ENERGY PREDICTED BY IDOCK:   -1.60 KCAL/MOL
REMARK 927      BINDING AFFINITY PREDICTED BY RF-SCORE:    0.00 PKD
ROOT
HETATM    1  C   UNL     1      -7.163   8.782  70.523  1.00  0.00    -0.059 C  
HETATM    2  C   UNL     1      -7.021   9.410  69.141  1.00  0.00    -0.058 C  
ENDROOT
BRANCH   2   3
HETATM    3  N   UNL     1      -8.116  10.267  68.673  1.00  0.00    -0.107 NA 
BRANCH   3   4
HETATM    4  C   UNL     1      -7.788  11.701  68.567  1.00  0.00    -0.140 C  
BRANCH   4   5
HETATM    5  C   UNL     1      -8.039  12.301  67.175  1.00  0.00    -0.173 C  
BRANCH   5   6
HETATM    6  C   UNL     1      -8.605  13.719  67.265  1.00  0.00    -0.221 C  
BRANCH   6   7
HETATM    7  C   UNL     1      -7.481  14.720  67.506  1.00  0.00    -0.198 C  
BRANCH   7   8
HETATM    8  O   UNL     1      -7.524  15.180  68.863  1.00  0.00    -0.122 OA 
BRANCH   8   9
HETATM    9  C   UNL     1      -8.524  16.052  69.144  1.00  0.00    -0.247 C  
HETATM   10  O   UNL     1      -9.572  15.799  69.712  1.00  0.00    -0.265 OA 
BRANCH   9  11
HETATM   11  C   UNL     1      -8.184  17.393  68.614  1.00  0.00    -0.264 A  
HETATM   12  C   UNL     1      -8.928  17.993  67.591  1.00  0.00    -0.251 A  
HETATM   13  C   UNL     1      -8.561  19.249  67.099  1.00  0.00    -0.287 A  
HETATM   14  C   UNL     1      -6.711  19.310  68.674  1.00  0.00    -0.321 A  
HETATM   15  C   UNL     1      -7.442  19.915  67.647  1.00  0.00    -0.285 A  
HETATM   16  C   UNL     1      -7.072  18.048  69.150  1.00  0.00    -0.189 A  
BRANCH  13  17
HETATM   17  O   UNL     1      -9.219  19.904  66.087  1.00  0.00    -0.380 OA 
HETATM   18  C   UNL     1     -10.539  19.484  65.775  1.00  0.00    -0.427 C  
ENDBRANCH  13  17
BRANCH  15  19
HETATM   19  O   UNL     1      -7.145  21.141  67.110  1.00  0.00    -0.415 OA 
HETATM   20  C   UNL     1      -5.815  21.352  66.653  1.00  0.00    -0.320 C  
ENDBRANCH  15  19
ENDBRANCH   9  11
ENDBRANCH   8   9
ENDBRANCH   7   8
ENDBRANCH   6   7
ENDBRANCH   5   6
ENDBRANCH   4   5
ENDBRANCH   3   4
BRANCH   3  21
HETATM   21  C   UNL     1      -8.910   9.776  67.520  1.00  0.00    -0.125 C  
HETATM   22  C   UNL     1      -8.328   8.544  66.805  1.00  0.00    -0.109 C  
BRANCH  21  23
HETATM   23  C   UNL     1     -10.413   9.505  67.831  1.00  0.00    -0.293 C  
BRANCH  23  24
HETATM   24  C   UNL     1     -10.691   8.708  69.089  1.00  0.00    -0.136 A  
HETATM   25  C   UNL     1     -11.061   6.569  70.195  1.00  0.00    -0.410 A  
HETATM   26  C   UNL     1     -11.264   7.216  71.412  1.00  0.00    -0.251 A  
HETATM   27  C   UNL     1     -10.909   9.351  70.313  1.00  0.00    -0.303 A  
HETATM   28  C   UNL     1     -11.181   8.608  71.466  1.00  0.00    -0.360 A  
HETATM   29  C   UNL     1     -10.778   7.311  69.042  1.00  0.00    -0.183 A  
BRANCH  26  30
HETATM   30  O   UNL     1     -11.492   6.601  72.613  1.00  0.00    -0.251 OA 
HETATM   31  C   UNL     1     -10.403   6.588  73.529  1.00  0.00    -0.281 C  
ENDBRANCH  26  30
ENDBRANCH  23  24
ENDBRANCH  21  23
ENDBRANCH   3  21
ENDBRANCH   2   3
TORSDOF 14
ENDMDL
MODEL      292
REMARK 921   NORMALIZED FREE ENERGY PREDICTED BY IDOCK:   -3.42 KCAL/MOL
REMARK 922        TOTAL FREE ENERGY PREDICTED BY IDOCK:   -9.02 KCAL/MOL
REMARK 923 INTER-LIGAND FREE ENERGY PREDICTED BY IDOCK:   -7.09 KCAL/MOL
REMARK 924 INTRA-LIGAND FREE ENERGY PREDICTED BY IDOCK:   -1.93 KCAL/MOL
REMARK 927      BINDING AFFINITY PREDICTED BY RF-SCORE:    0.00 PKD
ROOT
HETATM    1  C   UNL     1     -10.287  10.866  65.348  1.00  0.00    -0.326 C  
HETATM    2  C   UNL     1      -9.508  12.022  65.964  1.00  0.00    -0.219 C  
ENDROOT
BRANCH   2   3
HETATM    3  N   UNL     1      -9.981  12.544  67.251  1.00  0.00    -0.209 NA 
BRANCH   3   4
HETATM    4  C   UNL     1     -10.936  11.678  67.966  1.00  0.00    -0.224 C  
BRANCH   4   5
HETATM    5  C   UNL     1     -12.026  12.443  68.734  1.00  0.00    -0.276 C  
BRANCH   5   6
HETATM    6  C   UNL     1     -12.002  12.112  70.227  1.00  0.00    -0.389 C  
BRANCH   6   7
HETATM    7  C   UNL     1     -12.471  10.680  70.457  1.00  0.00    -0.358 C  
BRANCH   7   8
HETATM    8  O   UNL     1     -11.443   9.933  71.121  1.00  0.00    -0.350 OA 
BRANCH   8   9
HETATM    9  C   UNL     1     -11.336   8.636  70.740  1.00  0.00    -0.263 C  
HETATM   10  O   UNL     1     -11.950   7.689  71.202  1.00  0.00    -0.296 OA 
BRANCH   9  11
HETATM   11  C   UNL     1     -10.310   8.507  69.680  1.00  0.00    -0.218 A  
HETATM   12  C   UNL     1     -10.506   7.696  68.556  1.00  0.00    -0.206 A  
HETATM   13  C   UNL     1      -9.503   7.579  67.589  1.00  0.00    -0.138 A  
HETATM   14  C   UNL     1      -8.111   9.105  68.870  1.00  0.00    -0.100 A  
HETATM   15  C   UNL     1      -8.294   8.292  67.748  1.00  0.00    -0.128 A  
HETATM   16  C   UNL     1      -9.110   9.205  69.841  1.00  0.00    -0.188 A  
BRANCH  13  17
HETATM   17  O   UNL     1      -9.600   6.794  66.466  1.00  0.00    -0.172 OA 
HETATM   18  C   UNL     1     -10.492   5.689  66.506  1.00  0.00    -0.249 C  
ENDBRANCH  13  17
BRANCH  15  19
HETATM   19  O   UNL     1      -7.358   8.123  66.758  1.00  0.00    -0.080 OA 
HETATM   20  C   UNL     1      -6.903   9.287  66.081  1.00  0.00    -0.085 C  
ENDBRANCH  15  19
ENDBRANCH   9  11
ENDBRANCH   8   9
ENDBRANCH   7   8
ENDBRANCH   6   7
ENDBRANCH   5   6
ENDBRANCH   4   5
ENDBRANCH   3   4
BRANCH   3  21
HETATM   21  C   UNL     1      -8.962  13.136  68.154  1.00  0.00    -0.195 C  
HETATM   22  C   UNL     1      -7.572  13.336  67.525  1.00  0.00    -0.169 C  
BRANCH  21  23
HETATM   23  C   UNL     1      -9.393  14.469  68.838  1.00  0.00    -0.136 C  
BRANCH  23  24
HETATM   24  C   UNL     1      -9.075  15.735  68.070  1.00  0.00    -0.187 A  
HETATM   25  C   UNL     1      -7.973  17.904  67.939  1.00  0.00    -0.235 A  
HETATM   26  C   UNL     1      -8.522  18.123  66.677  1.00  0.00    -0.264 A  
HETATM   27  C   UNL     1      -9.633  15.970  66.808  1.00  0.00    -0.248 A  
HETATM   28  C   UNL     1      -9.347  17.149  66.114  1.00  0.00    -0.222 A  
HETATM   29  C   UNL     1      -8.250  16.718  68.630  1.00  0.00    -0.252 A  
BRANCH  26  30
HETATM   30  O   UNL     1      -8.283  19.211  65.882  1.00  0.00    -0.455 OA 
HETATM   31  C   UNL     1      -6.921  19.466  65.558  1.00  0.00    -0.254 C  
ENDBRANCH  26  30
ENDBRANCH  23  24
ENDBRANCH  21  23
ENDBRANCH   3  21
ENDBRANCH   2   3
TORSDOF 14
ENDMDL
MODEL      293
REMARK 921   NORMALIZED FREE ENERGY PREDICTED BY IDOCK:   -3.42 KCAL/MOL
REMARK 922        TOTAL FREE ENERGY PREDICTED BY IDOCK:   -9.01 KCAL/MOL
REMARK 923 INTER-LIGAND FREE ENERGY PREDICTED BY IDOCK:   -7.75 KCAL/MOL
REMARK 924 INTRA-LIGAND FREE ENERGY PREDICTED BY IDOCK:   -1.27 KCAL/MOL
REMARK 927      BINDING AFFINITY PREDICTED BY RF-SCORE:    0.00 PKD
ROOT
HETATM    1  C   UNL     1     -12.644  12.777  65.132  1.00  0.00    -0.513 C  
HETATM    2  C   UNL     1     -11.158  13.044  64.919  1.00  0.00    -0.301 C  
ENDROOT
BRANCH   2   3
HETATM    3  N   UNL     1     -10.323  13.203  66.114  1.00  0.00    -0.278 NA 
BRANCH   3   4
HETATM    4  C   UNL     1      -9.311  12.150  66.316  1.00  0.00    -0.218 C  
BRANCH   4   5
HETATM    5  C   UNL     1      -9.748  10.757  65.835  1.00  0.00    -0.272 C  
BRANCH   5   6
HETATM    6  C   UNL     1      -8.566   9.791  65.751  1.00  0.00    -0.147 C  
BRANCH   6   7
HETATM    7  C   UNL     1      -8.757   8.638  66.730  1.00  0.00    -0.124 C  
BRANCH   7   8
HETATM    8  O   UNL     1      -9.850   8.927  67.612  1.00  0.00    -0.164 OA 
BRANCH   8   9
HETATM    9  C   UNL     1      -9.506   9.124  68.910  1.00  0.00    -0.151 C  
HETATM   10  O   UNL     1      -9.024  10.136  69.389  1.00  0.00    -0.177 OA 
BRANCH   9  11
HETATM   11  C   UNL     1      -9.760   7.890  69.690  1.00  0.00    -0.173 A  
HETATM   12  C   UNL     1      -8.790   6.889  69.825  1.00  0.00    -0.141 A  
HETATM   13  C   UNL     1      -9.077   5.727  70.547  1.00  0.00    -0.147 A  
HETATM   14  C   UNL     1     -11.303   6.582  71.014  1.00  0.00    -0.378 A  
HETATM   15  C   UNL     1     -10.345   5.573  71.150  1.00  0.00    -0.234 A  
HETATM   16  C   UNL     1     -11.018   7.734  70.278  1.00  0.00    -0.252 A  
BRANCH  13  17
HETATM   17  O   UNL     1      -8.196   4.687  70.717  1.00  0.00    -0.084 OA 
HETATM   18  C   UNL     1      -7.235   4.459  69.695  1.00  0.00    -0.050 C  
ENDBRANCH  13  17
BRANCH  15  19
HETATM   19  O   UNL     1     -10.549   4.405  71.839  1.00  0.00    -0.089 OA 
HETATM   20  C   UNL     1     -11.010   4.506  73.180  1.00  0.00    -0.264 C  
ENDBRANCH  15  19
ENDBRANCH   9  11
ENDBRANCH   8   9
ENDBRANCH   7   8
ENDBRANCH   6   7
ENDBRANCH   5   6
ENDBRANCH   4   5
ENDBRANCH   3   4
BRANCH   3  21
HETATM   21  C   UNL     1      -9.795  14.562  66.392  1.00  0.00    -0.290 C  
HETATM   22  C   UNL     1     -10.663  15.719  65.867  1.00  0.00    -0.320 C  
BRANCH  21  23
HETATM   23  C   UNL     1      -9.457  14.837  67.889  1.00  0.00    -0.201 C  
BRANCH  23  24
HETATM   24  C   UNL     1     -10.606  14.675  68.863  1.00  0.00    -0.253 A  
HETATM   25  C   UNL     1     -12.133  13.241  70.108  1.00  0.00    -0.403 A  
HETATM   26  C   UNL     1     -12.781  14.359  70.629  1.00  0.00    -0.357 A  
HETATM   27  C   UNL     1     -11.272  15.792  69.381  1.00  0.00    -0.324 A  
HETATM   28  C   UNL     1     -12.341  15.632  70.267  1.00  0.00    -0.402 A  
HETATM   29  C   UNL     1     -11.053  13.399  69.229  1.00  0.00    -0.216 A  
BRANCH  26  30
HETATM   30  O   UNL     1     -13.806  14.334  71.535  1.00  0.00    -0.379 OA 
HETATM   31  C   UNL     1     -13.490  14.766  72.854  1.00  0.00    -0.442 C  
ENDBRANCH  26  30
ENDBRANCH  23  24
ENDBRANCH  21  23
ENDBRANCH   3  21
ENDBRANCH   2   3
TORSDOF 14
ENDMDL
MODEL      294
REMARK 921   NORMALIZED FREE ENERGY PREDICTED BY IDOCK:   -3.42 KCAL/MOL
REMARK 922        TOTAL FREE ENERGY PREDICTED BY IDOCK:   -9.01 KCAL/MOL
REMARK 923 INTER-LIGAND FREE ENERGY PREDICTED BY IDOCK:   -8.02 KCAL/MOL
REMARK 924 INTRA-LIGAND FREE ENERGY PREDICTED BY IDOCK:   -0.98 KCAL/MOL
REMARK 927      BINDING AFFINITY PREDICTED BY RF-SCORE:    0.00 PKD
ROOT
HETATM    1  C   UNL     1      -9.184   9.180  68.181  1.00  0.00    -0.137 C  
HETATM    2  C   UNL     1     -10.269   8.298  68.785  1.00  0.00    -0.210 C  
ENDROOT
BRANCH   2   3
HETATM    3  N   UNL     1     -10.602   8.509  70.199  1.00  0.00    -0.228 NA 
BRANCH   3   4
HETATM    4  C   UNL     1     -11.140   9.843  70.523  1.00  0.00    -0.332 C  
BRANCH   4   5
HETATM    5  C   UNL     1     -12.354   9.819  71.465  1.00  0.00    -0.495 C  
BRANCH   5   6
HETATM    6  C   UNL     1     -12.970  11.209  71.628  1.00  0.00    -0.548 C  
BRANCH   6   7
HETATM    7  C   UNL     1     -12.285  12.202  70.695  1.00  0.00    -0.300 C  
BRANCH   7   8
HETATM    8  O   UNL     1     -12.177  13.478  71.340  1.00  0.00    -0.248 OA 
BRANCH   8   9
HETATM    9  C   UNL     1     -12.879  14.480  70.754  1.00  0.00    -0.361 C  
HETATM   10  O   UNL     1     -14.003  14.851  71.050  1.00  0.00    -0.367 OA 
BRANCH   9  11
HETATM   11  C   UNL     1     -12.094  15.059  69.640  1.00  0.00    -0.337 A  
HETATM   12  C   UNL     1     -12.241  14.611  68.321  1.00  0.00    -0.112 A  
HETATM   13  C   UNL     1     -11.463  15.164  67.300  1.00  0.00    -0.279 A  
HETATM   14  C   UNL     1     -10.401  16.630  68.922  1.00  0.00    -0.300 A  
HETATM   15  C   UNL     1     -10.535  16.185  67.604  1.00  0.00    -0.292 A  
HETATM   16  C   UNL     1     -11.169  16.062  69.941  1.00  0.00    -0.361 A  
BRANCH  13  17
HETATM   17  O   UNL     1     -11.527  14.775  65.984  1.00  0.00    -0.351 OA 
HETATM   18  C   UNL     1     -12.177  13.548  65.687  1.00  0.00    -0.458 C  
ENDBRANCH  13  17
BRANCH  15  19
HETATM   19  O   UNL     1      -9.808  16.675  66.548  1.00  0.00    -0.253 OA 
HETATM   20  C   UNL     1      -8.439  16.302  66.467  1.00  0.00    -0.303 C  
ENDBRANCH  15  19
ENDBRANCH   9  11
ENDBRANCH   8   9
ENDBRANCH   7   8
ENDBRANCH   6   7
ENDBRANCH   5   6
ENDBRANCH   4   5
ENDBRANCH   3   4
BRANCH   3  21
HETATM   21  C   UNL     1     -11.330   7.417  70.891  1.00  0.00    -0.276 C  
HETATM   22  C   UNL     1     -11.752   6.242  69.990  1.00  0.00    -0.248 C  
BRANCH  21  23
HETATM   23  C   UNL     1     -10.606   6.843  72.146  1.00  0.00    -0.241 C  
BRANCH  23  24
HETATM   24  C   UNL     1      -9.843   5.553  71.933  1.00  0.00    -0.210 A  
HETATM   25  C   UNL     1      -9.683   3.132  72.163  1.00  0.00    -0.230 A  
HETATM   26  C   UNL     1      -8.410   3.147  71.596  1.00  0.00    -0.061 A  
HETATM   27  C   UNL     1      -8.559   5.559  71.377  1.00  0.00    -0.131 A  
HETATM   28  C   UNL     1      -7.856   4.365  71.199  1.00  0.00    -0.072 A  
HETATM   29  C   UNL     1     -10.394   4.327  72.331  1.00  0.00    -0.230 A  
BRANCH  26  30
HETATM   30  O   UNL     1      -7.644   2.045  71.330  1.00  0.00    -0.036 OA 
HETATM   31  C   UNL     1      -6.242   2.195  71.519  1.00  0.00    -0.014 C  
ENDBRANCH  26  30
ENDBRANCH  23  24
ENDBRANCH  21  23
ENDBRANCH   3  21
ENDBRANCH   2   3
TORSDOF 14
ENDMDL
MODEL      295
REMARK 921   NORMALIZED FREE ENERGY PREDICTED BY IDOCK:   -3.42 KCAL/MOL
REMARK 922        TOTAL FREE ENERGY PREDICTED BY IDOCK:   -9.00 KCAL/MOL
REMARK 923 INTER-LIGAND FREE ENERGY PREDICTED BY IDOCK:   -7.06 KCAL/MOL
REMARK 924 INTRA-LIGAND FREE ENERGY PREDICTED BY IDOCK:   -1.95 KCAL/MOL
REMARK 927      BINDING AFFINITY PREDICTED BY RF-SCORE:    0.00 PKD
ROOT
HETATM    1  C   UNL     1      -7.874   3.366  72.083  1.00  0.00    -0.059 C  
HETATM    2  C   UNL     1      -8.900   3.700  71.007  1.00  0.00    -0.082 C  
ENDROOT
BRANCH   2   3
HETATM    3  N   UNL     1      -8.862   5.051  70.435  1.00  0.00    -0.110 NA 
BRANCH   3   4
HETATM    4  C   UNL     1      -7.856   5.954  71.025  1.00  0.00    -0.110 C  
BRANCH   4   5
HETATM    5  C   UNL     1      -8.453   7.160  71.767  1.00  0.00    -0.114 C  
BRANCH   5   6
HETATM    6  C   UNL     1      -9.719   6.781  72.535  1.00  0.00    -0.166 C  
BRANCH   6   7
HETATM    7  C   UNL     1     -10.390   8.031  73.094  1.00  0.00    -0.199 C  
BRANCH   7   8
HETATM    8  O   UNL     1     -11.794   7.999  72.805  1.00  0.00    -0.372 OA 
BRANCH   8   9
HETATM    9  C   UNL     1     -12.116   8.160  71.497  1.00  0.00    -0.298 C  
HETATM   10  O   UNL     1     -12.259   7.277  70.668  1.00  0.00    -0.250 OA 
BRANCH   9  11
HETATM   11  C   UNL     1     -12.233   9.603  71.183  1.00  0.00    -0.437 A  
HETATM   12  C   UNL     1     -11.577  10.176  70.086  1.00  0.00    -0.350 A  
HETATM   13  C   UNL     1     -11.691  11.547  69.837  1.00  0.00    -0.343 A  
HETATM   14  C   UNL     1     -13.136  11.765  71.779  1.00  0.00    -0.480 A  
HETATM   15  C   UNL     1     -12.480  12.349  70.691  1.00  0.00    -0.234 A  
HETATM   16  C   UNL     1     -13.006  10.399  72.033  1.00  0.00    -0.499 A  
BRANCH  13  17
HETATM   17  O   UNL     1     -11.070  12.197  68.799  1.00  0.00    -0.223 OA 
HETATM   18  C   UNL     1     -11.624  12.050  67.499  1.00  0.00    -0.330 C  
ENDBRANCH  13  17
BRANCH  15  19
HETATM   19  O   UNL     1     -12.540  13.684  70.382  1.00  0.00    -0.298 OA 
HETATM   20  C   UNL     1     -12.750  14.596  71.452  1.00  0.00    -0.333 C  
ENDBRANCH  15  19
ENDBRANCH   9  11
ENDBRANCH   8   9
ENDBRANCH   7   8
ENDBRANCH   6   7
ENDBRANCH   5   6
ENDBRANCH   4   5
ENDBRANCH   3   4
BRANCH   3  21
HETATM   21  C   UNL     1      -8.928   5.159  68.956  1.00  0.00    -0.100 C  
HETATM   22  C   UNL     1     -10.248   5.726  68.402  1.00  0.00    -0.242 C  
BRANCH  21  23
HETATM   23  C   UNL     1      -7.744   5.936  68.306  1.00  0.00    -0.101 C  
BRANCH  23  24
HETATM   24  C   UNL     1      -8.122   7.179  67.527  1.00  0.00    -0.113 A  
HETATM   25  C   UNL     1      -8.598   8.277  65.404  1.00  0.00    -0.176 A  
HETATM   26  C   UNL     1      -8.767   9.497  66.056  1.00  0.00    -0.147 A  
HETATM   27  C   UNL     1      -8.280   8.412  68.171  1.00  0.00    -0.124 A  
HETATM   28  C   UNL     1      -8.613   9.556  67.441  1.00  0.00    -0.125 A  
HETATM   29  C   UNL     1      -8.276   7.127  66.135  1.00  0.00    -0.128 A  
BRANCH  26  30
HETATM   30  O   UNL     1      -9.135  10.673  65.462  1.00  0.00    -0.175 OA 
HETATM   31  C   UNL     1      -9.815  10.562  64.217  1.00  0.00    -0.338 C  
ENDBRANCH  26  30
ENDBRANCH  23  24
ENDBRANCH  21  23
ENDBRANCH   3  21
ENDBRANCH   2   3
TORSDOF 14
ENDMDL
MODEL      296
REMARK 921   NORMALIZED FREE ENERGY PREDICTED BY IDOCK:   -3.42 KCAL/MOL
REMARK 922        TOTAL FREE ENERGY PREDICTED BY IDOCK:   -9.00 KCAL/MOL
REMARK 923 INTER-LIGAND FREE ENERGY PREDICTED BY IDOCK:   -7.20 KCAL/MOL
REMARK 924 INTRA-LIGAND FREE ENERGY PREDICTED BY IDOCK:   -1.81 KCAL/MOL
REMARK 927      BINDING AFFINITY PREDICTED BY RF-SCORE:    0.00 PKD
ROOT
HETATM    1  C   UNL     1     -10.504  10.323  66.225  1.00  0.00    -0.214 C  
HETATM    2  C   UNL     1      -9.941  11.699  65.890  1.00  0.00    -0.231 C  
ENDROOT
BRANCH   2   3
HETATM    3  N   UNL     1     -10.243  12.247  64.563  1.00  0.00    -0.299 NA 
BRANCH   3   4
HETATM    4  C   UNL     1     -10.254  11.262  63.466  1.00  0.00    -0.403 C  
BRANCH   4   5
HETATM    5  C   UNL     1      -8.883  11.039  62.808  1.00  0.00    -0.297 C  
BRANCH   5   6
HETATM    6  C   UNL     1      -8.687   9.580  62.392  1.00  0.00    -0.236 C  
BRANCH   6   7
HETATM    7  C   UNL     1      -7.462   8.995  63.086  1.00  0.00    -0.098 C  
BRANCH   7   8
HETATM    8  O   UNL     1      -7.863   8.291  64.268  1.00  0.00    -0.129 OA 
BRANCH   8   9
HETATM    9  C   UNL     1      -6.935   8.248  65.256  1.00  0.00    -0.066 C  
HETATM   10  O   UNL     1      -5.725   8.189  65.116  1.00  0.00    -0.043 OA 
BRANCH   9  11
HETATM   11  C   UNL     1      -7.606   8.240  66.576  1.00  0.00    -0.092 A  
HETATM   12  C   UNL     1      -7.377   9.241  67.528  1.00  0.00    -0.087 A  
HETATM   13  C   UNL     1      -8.010   9.185  68.773  1.00  0.00    -0.100 A  
HETATM   14  C   UNL     1      -9.119   7.129  68.102  1.00  0.00    -0.133 A  
HETATM   15  C   UNL     1      -8.891   8.119  69.062  1.00  0.00    -0.144 A  
HETATM   16  C   UNL     1      -8.471   7.181  66.866  1.00  0.00    -0.123 A  
BRANCH  13  17
HETATM   17  O   UNL     1      -7.831  10.110  69.773  1.00  0.00    -0.154 OA 
HETATM   18  C   UNL     1      -6.523  10.262  70.308  1.00  0.00    -0.137 C  
ENDBRANCH  13  17
BRANCH  15  19
HETATM   19  O   UNL     1      -9.470   8.134  70.306  1.00  0.00    -0.168 OA 
HETATM   20  C   UNL     1      -9.397   6.942  71.077  1.00  0.00    -0.156 C  
ENDBRANCH  15  19
ENDBRANCH   9  11
ENDBRANCH   8   9
ENDBRANCH   7   8
ENDBRANCH   6   7
ENDBRANCH   5   6
ENDBRANCH   4   5
ENDBRANCH   3   4
BRANCH   3  21
HETATM   21  C   UNL     1     -11.365  13.214  64.473  1.00  0.00    -0.349 C  
HETATM   22  C   UNL     1     -12.450  12.858  63.441  1.00  0.00    -0.396 C  
BRANCH  21  23
HETATM   23  C   UNL     1     -12.060  13.536  65.830  1.00  0.00    -0.477 C  
BRANCH  23  24
HETATM   24  C   UNL     1     -11.496  14.716  66.594  1.00  0.00    -0.363 A  
HETATM   25  C   UNL     1     -11.345  16.027  68.642  1.00  0.00    -0.383 A  
HETATM   26  C   UNL     1     -10.501  16.941  68.013  1.00  0.00    -0.347 A  
HETATM   27  C   UNL     1     -10.659  15.646  65.967  1.00  0.00    -0.336 A  
HETATM   28  C   UNL     1     -10.157  16.740  66.676  1.00  0.00    -0.304 A  
HETATM   29  C   UNL     1     -11.839  14.923  67.937  1.00  0.00    -0.286 A  
BRANCH  26  30
HETATM   30  O   UNL     1      -9.912  18.022  68.609  1.00  0.00    -0.357 OA 
HETATM   31  C   UNL     1      -9.011  18.771  67.802  1.00  0.00    -0.286 C  
ENDBRANCH  26  30
ENDBRANCH  23  24
ENDBRANCH  21  23
ENDBRANCH   3  21
ENDBRANCH   2   3
TORSDOF 14
ENDMDL
MODEL      297
REMARK 921   NORMALIZED FREE ENERGY PREDICTED BY IDOCK:   -3.42 KCAL/MOL
REMARK 922        TOTAL FREE ENERGY PREDICTED BY IDOCK:   -9.00 KCAL/MOL
REMARK 923 INTER-LIGAND FREE ENERGY PREDICTED BY IDOCK:   -7.21 KCAL/MOL
REMARK 924 INTRA-LIGAND FREE ENERGY PREDICTED BY IDOCK:   -1.79 KCAL/MOL
REMARK 927      BINDING AFFINITY PREDICTED BY RF-SCORE:    0.00 PKD
ROOT
HETATM    1  C   UNL     1      -7.132  19.640  67.341  1.00  0.00    -0.242 C  
HETATM    2  C   UNL     1      -7.819  18.505  68.092  1.00  0.00    -0.290 C  
ENDROOT
BRANCH   2   3
HETATM    3  N   UNL     1      -8.147  17.294  67.331  1.00  0.00    -0.188 NA 
BRANCH   3   4
HETATM    4  C   UNL     1      -8.663  17.530  65.970  1.00  0.00    -0.034 C  
BRANCH   4   5
HETATM    5  C   UNL     1     -10.193  17.649  65.889  1.00  0.00    -0.240 C  
BRANCH   5   6
HETATM    6  C   UNL     1     -10.880  16.317  66.192  1.00  0.00    -0.105 C  
BRANCH   6   7
HETATM    7  C   UNL     1     -10.879  15.430  64.952  1.00  0.00    -0.425 C  
BRANCH   7   8
HETATM    8  O   UNL     1     -10.068  14.271  65.185  1.00  0.00    -0.373 OA 
BRANCH   8   9
HETATM    9  C   UNL     1     -10.530  13.123  64.628  1.00  0.00    -0.392 C  
HETATM   10  O   UNL     1     -11.093  13.011  63.552  1.00  0.00    -0.338 OA 
BRANCH   9  11
HETATM   11  C   UNL     1     -10.294  11.988  65.549  1.00  0.00    -0.298 A  
HETATM   12  C   UNL     1     -11.275  11.549  66.447  1.00  0.00    -0.307 A  
HETATM   13  C   UNL     1     -11.006  10.490  67.319  1.00  0.00    -0.260 A  
HETATM   14  C   UNL     1      -8.774  10.300  66.378  1.00  0.00    -0.144 A  
HETATM   15  C   UNL     1      -9.743   9.858  67.283  1.00  0.00    -0.171 A  
HETATM   16  C   UNL     1      -9.042  11.369  65.520  1.00  0.00    -0.149 A  
BRANCH  13  17
HETATM   17  O   UNL     1     -11.899  10.006  68.244  1.00  0.00    -0.003 OA 
HETATM   18  C   UNL     1     -12.124  10.777  69.415  1.00  0.00    -0.244 C  
ENDBRANCH  13  17
BRANCH  15  19
HETATM   19  O   UNL     1      -9.556   8.830  68.171  1.00  0.00    -0.143 OA 
HETATM   20  C   UNL     1      -8.611   9.028  69.214  1.00  0.00    -0.136 C  
ENDBRANCH  15  19
ENDBRANCH   9  11
ENDBRANCH   8   9
ENDBRANCH   7   8
ENDBRANCH   6   7
ENDBRANCH   5   6
ENDBRANCH   4   5
ENDBRANCH   3   4
BRANCH   3  21
HETATM   21  C   UNL     1      -7.170  16.178  67.386  1.00  0.00    -0.182 C  
HETATM   22  C   UNL     1      -5.693  16.606  67.422  1.00  0.00    -0.182 C  
BRANCH  21  23
HETATM   23  C   UNL     1      -7.417  15.152  68.532  1.00  0.00    -0.121 C  
BRANCH  23  24
HETATM   24  C   UNL     1      -8.861  14.964  68.948  1.00  0.00    -0.184 A  
HETATM   25  C   UNL     1     -10.913  13.650  68.918  1.00  0.00    -0.281 A  
HETATM   26  C   UNL     1     -11.567  14.627  69.665  1.00  0.00    -0.307 A  
HETATM   27  C   UNL     1      -9.530  15.946  69.687  1.00  0.00    -0.148 A  
HETATM   28  C   UNL     1     -10.868  15.771  70.052  1.00  0.00    -0.348 A  
HETATM   29  C   UNL     1      -9.569  13.819  68.561  1.00  0.00    -0.176 A  
BRANCH  26  30
HETATM   30  O   UNL     1     -12.855  14.552  70.120  1.00  0.00    -0.290 OA 
HETATM   31  C   UNL     1     -13.210  15.461  71.156  1.00  0.00    -0.513 C  
ENDBRANCH  26  30
ENDBRANCH  23  24
ENDBRANCH  21  23
ENDBRANCH   3  21
ENDBRANCH   2   3
TORSDOF 14
ENDMDL
MODEL      298
REMARK 921   NORMALIZED FREE ENERGY PREDICTED BY IDOCK:   -3.42 KCAL/MOL
REMARK 922        TOTAL FREE ENERGY PREDICTED BY IDOCK:   -9.00 KCAL/MOL
REMARK 923 INTER-LIGAND FREE ENERGY PREDICTED BY IDOCK:   -7.65 KCAL/MOL
REMARK 924 INTRA-LIGAND FREE ENERGY PREDICTED BY IDOCK:   -1.35 KCAL/MOL
REMARK 927      BINDING AFFINITY PREDICTED BY RF-SCORE:    0.00 PKD
ROOT
HETATM    1  C   UNL     1      -5.671  10.844  66.804  1.00  0.00    -0.080 C  
HETATM    2  C   UNL     1      -6.273   9.448  66.707  1.00  0.00    -0.065 C  
ENDROOT
BRANCH   2   3
HETATM    3  N   UNL     1      -7.484   9.179  67.491  1.00  0.00    -0.088 NA 
BRANCH   3   4
HETATM    4  C   UNL     1      -8.394   8.173  66.915  1.00  0.00    -0.115 C  
BRANCH   4   5
HETATM    5  C   UNL     1      -9.442   8.751  65.951  1.00  0.00    -0.278 C  
BRANCH   5   6
HETATM    6  C   UNL     1      -9.571  10.268  66.101  1.00  0.00    -0.248 C  
BRANCH   6   7
HETATM    7  C   UNL     1     -10.724  10.786  65.248  1.00  0.00    -0.083 C  
BRANCH   7   8
HETATM    8  O   UNL     1     -11.631  11.539  66.064  1.00  0.00    -0.311 OA 
BRANCH   8   9
HETATM    9  C   UNL     1     -12.116  12.669  65.492  1.00  0.00    -0.458 C  
HETATM   10  O   UNL     1     -13.138  12.770  64.834  1.00  0.00    -0.833 OA 
BRANCH   9  11
HETATM   11  C   UNL     1     -11.189  13.797  65.741  1.00  0.00    -0.300 A  
HETATM   12  C   UNL     1     -10.240  13.759  66.769  1.00  0.00    -0.268 A  
HETATM   13  C   UNL     1      -9.399  14.854  66.990  1.00  0.00    -0.227 A  
HETATM   14  C   UNL     1     -10.451  16.018  65.134  1.00  0.00    -0.331 A  
HETATM   15  C   UNL     1      -9.504  15.994  66.163  1.00  0.00    -0.336 A  
HETATM   16  C   UNL     1     -11.299  14.928  64.929  1.00  0.00    -0.415 A  
BRANCH  13  17
HETATM   17  O   UNL     1      -8.453  14.912  67.984  1.00  0.00    -0.143 OA 
HETATM   18  C   UNL     1      -7.388  13.973  67.942  1.00  0.00    -0.157 C  
ENDBRANCH  13  17
BRANCH  15  19
HETATM   19  O   UNL     1      -8.646  17.027  66.444  1.00  0.00    -0.245 OA 
HETATM   20  C   UNL     1      -9.165  18.348  66.371  1.00  0.00    -0.273 C  
ENDBRANCH  15  19
ENDBRANCH   9  11
ENDBRANCH   8   9
ENDBRANCH   7   8
ENDBRANCH   6   7
ENDBRANCH   5   6
ENDBRANCH   4   5
ENDBRANCH   3   4
BRANCH   3  21
HETATM   21  C   UNL     1      -7.315   9.022  68.958  1.00  0.00    -0.073 C  
HETATM   22  C   UNL     1      -7.810  10.211  69.801  1.00  0.00    -0.175 C  
BRANCH  21  23
HETATM   23  C   UNL     1      -7.920   7.712  69.547  1.00  0.00    -0.125 C  
BRANCH  23  24
HETATM   24  C   UNL     1      -9.214   7.872  70.316  1.00  0.00    -0.152 A  
HETATM   25  C   UNL     1     -10.394   8.147  72.430  1.00  0.00    -0.382 A  
HETATM   26  C   UNL     1     -11.620   8.114  71.768  1.00  0.00    -0.291 A  
HETATM   27  C   UNL     1     -10.451   7.827  69.661  1.00  0.00    -0.229 A  
HETATM   28  C   UNL     1     -11.641   7.960  70.381  1.00  0.00    -0.092 A  
HETATM   29  C   UNL     1      -9.200   8.025  71.709  1.00  0.00    -0.212 A  
BRANCH  26  30
HETATM   30  O   UNL     1     -12.846   8.277  72.353  1.00  0.00    -0.301 OA 
HETATM   31  C   UNL     1     -13.972   7.905  71.567  1.00  0.00    -0.367 C  
ENDBRANCH  26  30
ENDBRANCH  23  24
ENDBRANCH  21  23
ENDBRANCH   3  21
ENDBRANCH   2   3
TORSDOF 14
ENDMDL
MODEL      299
REMARK 921   NORMALIZED FREE ENERGY PREDICTED BY IDOCK:   -3.41 KCAL/MOL
REMARK 922        TOTAL FREE ENERGY PREDICTED BY IDOCK:   -9.00 KCAL/MOL
REMARK 923 INTER-LIGAND FREE ENERGY PREDICTED BY IDOCK:   -7.33 KCAL/MOL
REMARK 924 INTRA-LIGAND FREE ENERGY PREDICTED BY IDOCK:   -1.67 KCAL/MOL
REMARK 927      BINDING AFFINITY PREDICTED BY RF-SCORE:    0.00 PKD
ROOT
HETATM    1  C   UNL     1     -11.719  12.630  67.587  1.00  0.00    -0.420 C  
HETATM    2  C   UNL     1     -10.670  13.349  66.748  1.00  0.00    -0.277 C  
ENDROOT
BRANCH   2   3
HETATM    3  N   UNL     1      -9.401  13.688  67.401  1.00  0.00    -0.218 NA 
BRANCH   3   4
HETATM    4  C   UNL     1      -8.314  12.711  67.205  1.00  0.00    -0.189 C  
BRANCH   4   5
HETATM    5  C   UNL     1      -8.764  11.392  66.558  1.00  0.00    -0.181 C  
BRANCH   5   6
HETATM    6  C   UNL     1      -7.620  10.380  66.484  1.00  0.00    -0.118 C  
BRANCH   6   7
HETATM    7  C   UNL     1      -7.812   9.291  67.535  1.00  0.00    -0.096 C  
BRANCH   7   8
HETATM    8  O   UNL     1      -8.689   9.761  68.567  1.00  0.00    -0.118 OA 
BRANCH   8   9
HETATM    9  C   UNL     1      -8.100   9.976  69.770  1.00  0.00    -0.177 C  
HETATM   10  O   UNL     1      -7.118  10.666  69.987  1.00  0.00    -0.158 OA 
BRANCH   9  11
HETATM   11  C   UNL     1      -8.803   9.200  70.818  1.00  0.00    -0.291 A  
HETATM   12  C   UNL     1     -10.180   9.331  71.035  1.00  0.00    -0.384 A  
HETATM   13  C   UNL     1     -10.803   8.602  72.052  1.00  0.00    -0.360 A  
HETATM   14  C   UNL     1      -8.666   7.595  72.621  1.00  0.00    -0.182 A  
HETATM   15  C   UNL     1     -10.039   7.723  72.851  1.00  0.00    -0.301 A  
HETATM   16  C   UNL     1      -8.045   8.338  71.615  1.00  0.00    -0.167 A  
BRANCH  13  17
HETATM   17  O   UNL     1     -12.142   8.680  72.349  1.00  0.00    -0.375 OA 
HETATM   18  C   UNL     1     -12.910   9.677  71.688  1.00  0.00    -0.405 C  
ENDBRANCH  13  17
BRANCH  15  19
HETATM   19  O   UNL     1     -10.722   7.045  73.829  1.00  0.00    -0.360 OA 
HETATM   20  C   UNL     1     -10.308   5.717  74.117  1.00  0.00    -0.281 C  
ENDBRANCH  15  19
ENDBRANCH   9  11
ENDBRANCH   8   9
ENDBRANCH   7   8
ENDBRANCH   6   7
ENDBRANCH   5   6
ENDBRANCH   4   5
ENDBRANCH   3   4
BRANCH   3  21
HETATM   21  C   UNL     1      -8.934  15.092  67.279  1.00  0.00    -0.199 C  
HETATM   22  C   UNL     1      -9.420  15.833  66.021  1.00  0.00    -0.392 C  
BRANCH  21  23
HETATM   23  C   UNL     1      -9.223  15.986  68.523  1.00  0.00    -0.206 C  
BRANCH  23  24
HETATM   24  C   UNL     1     -10.476  15.644  69.301  1.00  0.00    -0.247 A  
HETATM   25  C   UNL     1     -12.898  15.742  69.553  1.00  0.00     0.570 A  
HETATM   26  C   UNL     1     -12.814  15.066  70.769  1.00  0.00    -0.392 A  
HETATM   27  C   UNL     1     -10.401  14.978  70.530  1.00  0.00     0.140 A  
HETATM   28  C   UNL     1     -11.562  14.681  71.249  1.00  0.00    -0.252 A  
HETATM   29  C   UNL     1     -11.736  16.029  68.825  1.00  0.00    -0.302 A  
BRANCH  26  30
HETATM   30  O   UNL     1     -13.876  14.680  71.540  1.00  0.00    -0.385 OA 
HETATM   31  C   UNL     1     -13.684  13.518  72.338  1.00  0.00    -0.602 C  
ENDBRANCH  26  30
ENDBRANCH  23  24
ENDBRANCH  21  23
ENDBRANCH   3  21
ENDBRANCH   2   3
TORSDOF 14
ENDMDL
MODEL      300
REMARK 921   NORMALIZED FREE ENERGY PREDICTED BY IDOCK:   -3.41 KCAL/MOL
REMARK 922        TOTAL FREE ENERGY PREDICTED BY IDOCK:   -8.98 KCAL/MOL
REMARK 923 INTER-LIGAND FREE ENERGY PREDICTED BY IDOCK:   -5.79 KCAL/MOL
REMARK 924 INTRA-LIGAND FREE ENERGY PREDICTED BY IDOCK:   -3.19 KCAL/MOL
REMARK 927      BINDING AFFINITY PREDICTED BY RF-SCORE:    0.00 PKD
ROOT
HETATM    1  C   UNL     1     -11.890  12.353  66.131  1.00  0.00    -0.442 C  
HETATM    2  C   UNL     1     -10.489  11.780  65.949  1.00  0.00    -0.255 C  
ENDROOT
BRANCH   2   3
HETATM    3  N   UNL     1     -10.189  10.508  66.616  1.00  0.00    -0.225 NA 
BRANCH   3   4
HETATM    4  C   UNL     1      -9.345   9.579  65.842  1.00  0.00    -0.226 C  
BRANCH   4   5
HETATM    5  C   UNL     1      -8.171  10.253  65.114  1.00  0.00    -0.161 C  
BRANCH   5   6
HETATM    6  C   UNL     1      -6.824   9.819  65.692  1.00  0.00    -0.096 C  
BRANCH   6   7
HETATM    7  C   UNL     1      -6.883   8.358  66.126  1.00  0.00    -0.065 C  
BRANCH   7   8
HETATM    8  O   UNL     1      -6.058   8.162  67.282  1.00  0.00    -0.051 OA 
BRANCH   8   9
HETATM    9  C   UNL     1      -6.643   8.472  68.466  1.00  0.00    -0.059 C  
HETATM   10  O   UNL     1      -6.466   9.484  69.123  1.00  0.00    -0.044 OA 
BRANCH   9  11
HETATM   11  C   UNL     1      -7.524   7.362  68.896  1.00  0.00    -0.101 A  
HETATM   12  C   UNL     1      -8.757   7.117  68.280  1.00  0.00    -0.128 A  
HETATM   13  C   UNL     1      -9.573   6.075  68.731  1.00  0.00    -0.129 A  
HETATM   14  C   UNL     1      -7.905   5.512  70.407  1.00  0.00    -0.101 A  
HETATM   15  C   UNL     1      -9.142   5.264  69.804  1.00  0.00    -0.116 A  
HETATM   16  C   UNL     1      -7.102   6.565  69.963  1.00  0.00    -0.074 A  
BRANCH  13  17
HETATM   17  O   UNL     1     -10.804   5.774  68.201  1.00  0.00    -0.241 OA 
HETATM   18  C   UNL     1     -11.152   6.365  66.957  1.00  0.00    -0.329 C  
ENDBRANCH  13  17
BRANCH  15  19
HETATM   19  O   UNL     1     -10.000   4.265  70.190  1.00  0.00    -0.220 OA 
HETATM   20  C   UNL     1      -9.428   3.091  70.751  1.00  0.00    -0.158 C  
ENDBRANCH  15  19
ENDBRANCH   9  11
ENDBRANCH   8   9
ENDBRANCH   7   8
ENDBRANCH   6   7
ENDBRANCH   5   6
ENDBRANCH   4   5
ENDBRANCH   3   4
BRANCH   3  21
HETATM   21  C   UNL     1      -9.803  10.572  68.048  1.00  0.00    -0.147 C  
HETATM   22  C   UNL     1      -8.934  11.781  68.435  1.00  0.00    -0.168 C  
BRANCH  21  23
HETATM   23  C   UNL     1     -10.993  10.477  69.049  1.00  0.00    -0.289 C  
BRANCH  23  24
HETATM   24  C   UNL     1     -10.821   9.489  70.184  1.00  0.00    -0.300 A  
HETATM   25  C   UNL     1      -9.467   8.550  71.979  1.00  0.00    -0.364 A  
HETATM   26  C   UNL     1     -10.462   7.617  72.263  1.00  0.00    -0.237 A  
HETATM   27  C   UNL     1     -11.810   8.540  70.468  1.00  0.00    -0.022 A  
HETATM   28  C   UNL     1     -11.635   7.622  71.507  1.00  0.00    -0.304 A  
HETATM   29  C   UNL     1      -9.645   9.478  70.945  1.00  0.00    -0.216 A  
BRANCH  26  30
HETATM   30  O   UNL     1     -10.429   6.701  73.278  1.00  0.00    -0.231 OA 
HETATM   31  C   UNL     1     -11.190   5.515  73.080  1.00  0.00    -0.293 C  
ENDBRANCH  26  30
ENDBRANCH  23  24
ENDBRANCH  21  23
ENDBRANCH   3  21
ENDBRANCH   2   3
TORSDOF 14
ENDMDL
MODEL      301
REMARK 921   NORMALIZED FREE ENERGY PREDICTED BY IDOCK:   -3.40 KCAL/MOL
REMARK 922        TOTAL FREE ENERGY PREDICTED BY IDOCK:   -8.98 KCAL/MOL
REMARK 923 INTER-LIGAND FREE ENERGY PREDICTED BY IDOCK:   -6.72 KCAL/MOL
REMARK 924 INTRA-LIGAND FREE ENERGY PREDICTED BY IDOCK:   -2.26 KCAL/MOL
REMARK 927      BINDING AFFINITY PREDICTED BY RF-SCORE:    0.00 PKD
ROOT
HETATM    1  C   UNL     1     -11.004  11.295  64.578  1.00  0.00    -0.301 C  
HETATM    2  C   UNL     1     -10.959  11.191  66.098  1.00  0.00    -0.138 C  
ENDROOT
BRANCH   2   3
HETATM    3  N   UNL     1     -10.707  12.424  66.851  1.00  0.00    -0.236 NA 
BRANCH   3   4
HETATM    4  C   UNL     1     -11.655  12.693  67.948  1.00  0.00    -0.349 C  
BRANCH   4   5
HETATM    5  C   UNL     1     -12.018  11.455  68.783  1.00  0.00    -0.353 C  
BRANCH   5   6
HETATM    6  C   UNL     1     -11.758  11.683  70.273  1.00  0.00    -0.355 C  
BRANCH   6   7
HETATM    7  C   UNL     1     -13.001  11.333  71.084  1.00  0.00    -0.272 C  
BRANCH   7   8
HETATM    8  O   UNL     1     -12.698  10.278  72.005  1.00  0.00    -0.401 OA 
BRANCH   8   9
HETATM    9  C   UNL     1     -13.055   9.035  71.594  1.00  0.00    -0.365 C  
HETATM   10  O   UNL     1     -14.180   8.654  71.320  1.00  0.00    -0.336 OA 
BRANCH   9  11
HETATM   11  C   UNL     1     -11.863   8.156  71.561  1.00  0.00    -0.332 A  
HETATM   12  C   UNL     1     -10.609   8.595  72.004  1.00  0.00    -0.421 A  
HETATM   13  C   UNL     1      -9.502   7.744  71.933  1.00  0.00    -0.153 A  
HETATM   14  C   UNL     1     -10.914   6.007  70.989  1.00  0.00    -0.350 A  
HETATM   15  C   UNL     1      -9.656   6.437  71.422  1.00  0.00    -0.162 A  
HETATM   16  C   UNL     1     -12.013   6.866  71.047  1.00  0.00    -0.422 A  
BRANCH  13  17
HETATM   17  O   UNL     1      -8.233   8.095  72.327  1.00  0.00    -0.128 OA 
HETATM   18  C   UNL     1      -7.419   8.791  71.394  1.00  0.00    -0.101 C  
ENDBRANCH  13  17
BRANCH  15  19
HETATM   19  O   UNL     1      -8.523   5.665  71.383  1.00  0.00    -0.125 OA 
HETATM   20  C   UNL     1      -8.638   4.359  70.834  1.00  0.00    -0.092 C  
ENDBRANCH  15  19
ENDBRANCH   9  11
ENDBRANCH   8   9
ENDBRANCH   7   8
ENDBRANCH   6   7
ENDBRANCH   5   6
ENDBRANCH   4   5
ENDBRANCH   3   4
BRANCH   3  21
HETATM   21  C   UNL     1      -9.300  12.708  67.231  1.00  0.00    -0.195 C  
HETATM   22  C   UNL     1      -9.003  14.177  67.579  1.00  0.00    -0.198 C  
BRANCH  21  23
HETATM   23  C   UNL     1      -8.738  11.804  68.369  1.00  0.00    -0.155 C  
BRANCH  23  24
HETATM   24  C   UNL     1      -8.362  10.394  67.965  1.00  0.00    -0.118 A  
HETATM   25  C   UNL     1      -8.845   8.006  67.936  1.00  0.00    -0.130 A  
HETATM   26  C   UNL     1      -7.647   7.756  67.270  1.00  0.00    -0.104 A  
HETATM   27  C   UNL     1      -7.154  10.132  67.307  1.00  0.00    -0.088 A  
HETATM   28  C   UNL     1      -6.808   8.825  66.953  1.00  0.00    -0.070 A  
HETATM   29  C   UNL     1      -9.198   9.316  68.282  1.00  0.00    -0.134 A  
BRANCH  26  30
HETATM   30  O   UNL     1      -7.219   6.532  66.831  1.00  0.00    -0.074 OA 
HETATM   31  C   UNL     1      -6.953   5.562  67.838  1.00  0.00    -0.066 C  
ENDBRANCH  26  30
ENDBRANCH  23  24
ENDBRANCH  21  23
ENDBRANCH   3  21
ENDBRANCH   2   3
TORSDOF 14
ENDMDL
MODEL      302
REMARK 921   NORMALIZED FREE ENERGY PREDICTED BY IDOCK:   -3.39 KCAL/MOL
REMARK 922        TOTAL FREE ENERGY PREDICTED BY IDOCK:   -8.95 KCAL/MOL
REMARK 923 INTER-LIGAND FREE ENERGY PREDICTED BY IDOCK:   -6.29 KCAL/MOL
REMARK 924 INTRA-LIGAND FREE ENERGY PREDICTED BY IDOCK:   -2.66 KCAL/MOL
REMARK 927      BINDING AFFINITY PREDICTED BY RF-SCORE:    0.00 PKD
ROOT
HETATM    1  C   UNL     1      -9.863   4.057  73.910  1.00  0.00    -0.156 C  
HETATM    2  C   UNL     1     -10.600   4.399  72.621  1.00  0.00    -0.162 C  
ENDROOT
BRANCH   2   3
HETATM    3  N   UNL     1     -10.268   5.672  71.971  1.00  0.00    -0.199 NA 
BRANCH   3   4
HETATM    4  C   UNL     1      -9.703   6.702  72.862  1.00  0.00    -0.154 C  
BRANCH   4   5
HETATM    5  C   UNL     1     -10.686   7.826  73.227  1.00  0.00    -0.335 C  
BRANCH   5   6
HETATM    6  C   UNL     1     -11.706   8.067  72.114  1.00  0.00    -0.399 C  
BRANCH   6   7
HETATM    7  C   UNL     1     -11.392   9.368  71.383  1.00  0.00    -0.381 C  
BRANCH   7   8
HETATM    8  O   UNL     1     -10.936   9.080  70.054  1.00  0.00    -0.235 OA 
BRANCH   8   9
HETATM    9  C   UNL     1      -9.622   9.330  69.830  1.00  0.00    -0.199 C  
HETATM   10  O   UNL     1      -8.777   9.591  70.670  1.00  0.00    -0.218 OA 
BRANCH   9  11
HETATM   11  C   UNL     1      -9.343   9.286  68.376  1.00  0.00    -0.142 A  
HETATM   12  C   UNL     1      -8.042   9.150  67.878  1.00  0.00    -0.105 A  
HETATM   13  C   UNL     1      -7.816   9.138  66.498  1.00  0.00    -0.100 A  
HETATM   14  C   UNL     1     -10.204   9.380  66.119  1.00  0.00    -0.264 A  
HETATM   15  C   UNL     1      -8.909   9.253  65.610  1.00  0.00    -0.180 A  
HETATM   16  C   UNL     1     -10.423   9.408  67.498  1.00  0.00    -0.343 A  
BRANCH  13  17
HETATM   17  O   UNL     1      -6.575   9.029  65.920  1.00  0.00    -0.063 OA 
HETATM   18  C   UNL     1      -5.631  10.060  66.176  1.00  0.00    -0.059 C  
ENDBRANCH  13  17
BRANCH  15  19
HETATM   19  O   UNL     1      -8.605   9.235  64.272  1.00  0.00    -0.185 OA 
HETATM   20  C   UNL     1      -8.827  10.429  63.534  1.00  0.00    -0.212 C  
ENDBRANCH  15  19
ENDBRANCH   9  11
ENDBRANCH   8   9
ENDBRANCH   7   8
ENDBRANCH   6   7
ENDBRANCH   5   6
ENDBRANCH   4   5
ENDBRANCH   3   4
BRANCH   3  21
HETATM   21  C   UNL     1      -9.565   5.600  70.666  1.00  0.00    -0.168 C  
HETATM   22  C   UNL     1      -8.098   6.063  70.689  1.00  0.00    -0.116 C  
BRANCH  21  23
HETATM   23  C   UNL     1      -9.636   4.211  69.963  1.00  0.00    -0.274 C  
BRANCH  23  24
HETATM   24  C   UNL     1      -9.658   4.240  68.449  1.00  0.00    -0.197 A  
HETATM   25  C   UNL     1     -10.345   5.305  66.368  1.00  0.00    -0.315 A  
HETATM   26  C   UNL     1      -9.760   4.277  65.631  1.00  0.00    -0.205 A  
HETATM   27  C   UNL     1      -9.085   3.205  67.701  1.00  0.00    -0.215 A  
HETATM   28  C   UNL     1      -9.126   3.232  66.304  1.00  0.00    -0.161 A  
HETATM   29  C   UNL     1     -10.295   5.285  67.767  1.00  0.00    -0.196 A  
BRANCH  26  30
HETATM   30  O   UNL     1      -9.694   4.213  64.266  1.00  0.00    -0.159 OA 
HETATM   31  C   UNL     1     -10.801   3.603  63.612  1.00  0.00    -0.195 C  
ENDBRANCH  26  30
ENDBRANCH  23  24
ENDBRANCH  21  23
ENDBRANCH   3  21
ENDBRANCH   2   3
TORSDOF 14
ENDMDL
MODEL      303
REMARK 921   NORMALIZED FREE ENERGY PREDICTED BY IDOCK:   -3.36 KCAL/MOL
REMARK 922        TOTAL FREE ENERGY PREDICTED BY IDOCK:   -8.90 KCAL/MOL
REMARK 923 INTER-LIGAND FREE ENERGY PREDICTED BY IDOCK:   -7.42 KCAL/MOL
REMARK 924 INTRA-LIGAND FREE ENERGY PREDICTED BY IDOCK:   -1.48 KCAL/MOL
REMARK 927      BINDING AFFINITY PREDICTED BY RF-SCORE:    0.00 PKD
ROOT
HETATM    1  C   UNL     1      -6.563  17.678  66.133  1.00  0.00    -0.302 C  
HETATM    2  C   UNL     1      -5.284  17.188  66.802  1.00  0.00    -0.161 C  
ENDROOT
BRANCH   2   3
HETATM    3  N   UNL     1      -5.386  16.715  68.188  1.00  0.00    -0.113 NA 
BRANCH   3   4
HETATM    4  C   UNL     1      -6.170  17.579  69.089  1.00  0.00    -0.226 C  
BRANCH   4   5
HETATM    5  C   UNL     1      -7.489  18.085  68.485  1.00  0.00    -0.283 C  
BRANCH   5   6
HETATM    6  C   UNL     1      -8.692  17.313  69.028  1.00  0.00    -0.079 C  
BRANCH   6   7
HETATM    7  C   UNL     1      -9.977  18.096  68.782  1.00  0.00    -0.375 C  
BRANCH   7   8
HETATM    8  O   UNL     1     -10.887  17.305  68.007  1.00  0.00    -0.381 OA 
BRANCH   8   9
HETATM    9  C   UNL     1     -10.528  17.117  66.712  1.00  0.00    -0.263 C  
HETATM   10  O   UNL     1     -10.162  17.975  65.926  1.00  0.00    -0.540 OA 
BRANCH   9  11
HETATM   11  C   UNL     1     -10.684  15.690  66.350  1.00  0.00    -0.291 A  
HETATM   12  C   UNL     1     -11.390  14.794  67.163  1.00  0.00    -0.363 A  
HETATM   13  C   UNL     1     -11.494  13.448  66.800  1.00  0.00    -0.343 A  
HETATM   14  C   UNL     1     -10.196  13.902  64.797  1.00  0.00    -0.353 A  
HETATM   15  C   UNL     1     -10.892  12.998  65.604  1.00  0.00    -0.273 A  
HETATM   16  C   UNL     1     -10.081  15.242  65.172  1.00  0.00    -0.323 A  
BRANCH  13  17
HETATM   17  O   UNL     1     -12.150  12.497  67.544  1.00  0.00    -0.453 OA 
HETATM   18  C   UNL     1     -11.952  12.503  68.950  1.00  0.00    -0.236 C  
ENDBRANCH  13  17
BRANCH  15  19
HETATM   19  O   UNL     1     -11.037  11.663  65.320  1.00  0.00    -0.292 OA 
HETATM   20  C   UNL     1     -10.910  11.265  63.962  1.00  0.00    -0.344 C  
ENDBRANCH  15  19
ENDBRANCH   9  11
ENDBRANCH   8   9
ENDBRANCH   7   8
ENDBRANCH   6   7
ENDBRANCH   5   6
ENDBRANCH   4   5
ENDBRANCH   3   4
BRANCH   3  21
HETATM   21  C   UNL     1      -5.673  15.272  68.388  1.00  0.00    -0.107 C  
HETATM   22  C   UNL     1      -5.912  14.853  69.849  1.00  0.00    -0.132 C  
BRANCH  21  23
HETATM   23  C   UNL     1      -6.836  14.711  67.515  1.00  0.00    -0.174 C  
BRANCH  23  24
HETATM   24  C   UNL     1      -7.090  13.223  67.636  1.00  0.00    -0.163 A  
HETATM   25  C   UNL     1      -8.520  11.375  68.327  1.00  0.00    -0.154 A  
HETATM   26  C   UNL     1      -7.554  10.456  67.921  1.00  0.00    -0.088 A  
HETATM   27  C   UNL     1      -6.121  12.293  67.243  1.00  0.00    -0.153 A  
HETATM   28  C   UNL     1      -6.358  10.922  67.374  1.00  0.00    -0.064 A  
HETATM   29  C   UNL     1      -8.288  12.749  68.187  1.00  0.00    -0.172 A  
BRANCH  26  30
HETATM   30  O   UNL     1      -7.686   9.095  67.956  1.00  0.00    -0.091 OA 
HETATM   31  C   UNL     1      -8.587   8.575  68.926  1.00  0.00    -0.127 C  
ENDBRANCH  26  30
ENDBRANCH  23  24
ENDBRANCH  21  23
ENDBRANCH   3  21
ENDBRANCH   2   3
TORSDOF 14
ENDMDL
MODEL      304
REMARK 921   NORMALIZED FREE ENERGY PREDICTED BY IDOCK:   -3.35 KCAL/MOL
REMARK 922        TOTAL FREE ENERGY PREDICTED BY IDOCK:   -8.88 KCAL/MOL
REMARK 923 INTER-LIGAND FREE ENERGY PREDICTED BY IDOCK:   -7.22 KCAL/MOL
REMARK 924 INTRA-LIGAND FREE ENERGY PREDICTED BY IDOCK:   -1.65 KCAL/MOL
REMARK 927      BINDING AFFINITY PREDICTED BY RF-SCORE:    0.00 PKD
ROOT
HETATM    1  C   UNL     1      -9.664   3.290  73.504  1.00  0.00    -0.149 C  
HETATM    2  C   UNL     1     -10.640   4.079  72.639  1.00  0.00    -0.108 C  
ENDROOT
BRANCH   2   3
HETATM    3  N   UNL     1     -10.154   5.330  72.044  1.00  0.00    -0.187 NA 
BRANCH   3   4
HETATM    4  C   UNL     1      -9.637   6.321  73.005  1.00  0.00    -0.153 C  
BRANCH   4   5
HETATM    5  C   UNL     1     -10.673   7.366  73.450  1.00  0.00    -0.407 C  
BRANCH   5   6
HETATM    6  C   UNL     1     -11.377   8.007  72.254  1.00  0.00    -0.413 C  
BRANCH   6   7
HETATM    7  C   UNL     1     -10.497   9.092  71.643  1.00  0.00    -0.332 C  
BRANCH   7   8
HETATM    8  O   UNL     1     -11.078   9.556  70.418  1.00  0.00    -0.243 OA 
BRANCH   8   9
HETATM    9  C   UNL     1     -10.350   9.300  69.302  1.00  0.00    -0.215 C  
HETATM   10  O   UNL     1      -9.514   8.423  69.164  1.00  0.00    -0.154 OA 
BRANCH   9  11
HETATM   11  C   UNL     1     -10.681  10.287  68.249  1.00  0.00    -0.276 A  
HETATM   12  C   UNL     1     -10.132  10.209  66.964  1.00  0.00    -0.277 A  
HETATM   13  C   UNL     1     -10.448  11.174  66.003  1.00  0.00    -0.256 A  
HETATM   14  C   UNL     1     -11.884  12.288  67.617  1.00  0.00    -0.334 A  
HETATM   15  C   UNL     1     -11.335  12.223  66.333  1.00  0.00    -0.354 A  
HETATM   16  C   UNL     1     -11.551  11.330  68.578  1.00  0.00    -0.384 A  
BRANCH  13  17
HETATM   17  O   UNL     1      -9.943  11.187  64.726  1.00  0.00    -0.246 OA 
HETATM   18  C   UNL     1      -9.573   9.944  64.147  1.00  0.00    -0.108 C  
ENDBRANCH  13  17
BRANCH  15  19
HETATM   19  O   UNL     1     -11.594  13.131  65.338  1.00  0.00    -0.315 OA 
HETATM   20  C   UNL     1     -11.423  14.508  65.647  1.00  0.00    -0.341 C  
ENDBRANCH  15  19
ENDBRANCH   9  11
ENDBRANCH   8   9
ENDBRANCH   7   8
ENDBRANCH   6   7
ENDBRANCH   5   6
ENDBRANCH   4   5
ENDBRANCH   3   4
BRANCH   3  21
HETATM   21  C   UNL     1      -9.306   5.215  70.831  1.00  0.00    -0.150 C  
HETATM   22  C   UNL     1      -7.816   5.536  71.045  1.00  0.00    -0.105 C  
BRANCH  21  23
HETATM   23  C   UNL     1      -9.417   3.852  70.084  1.00  0.00    -0.261 C  
BRANCH  23  24
HETATM   24  C   UNL     1      -9.453   3.931  68.572  1.00  0.00    -0.213 A  
HETATM   25  C   UNL     1     -10.153   5.067  66.533  1.00  0.00    -0.278 A  
HETATM   26  C   UNL     1      -9.579   4.062  65.758  1.00  0.00    -0.191 A  
HETATM   27  C   UNL     1      -8.891   2.919  67.785  1.00  0.00    -0.164 A  
HETATM   28  C   UNL     1      -8.944   2.993  66.391  1.00  0.00    -0.159 A  
HETATM   29  C   UNL     1     -10.091   5.001  67.931  1.00  0.00    -0.173 A  
BRANCH  26  30
HETATM   30  O   UNL     1      -9.526   4.043  64.391  1.00  0.00    -0.149 OA 
HETATM   31  C   UNL     1      -8.581   4.919  63.787  1.00  0.00    -0.129 C  
ENDBRANCH  26  30
ENDBRANCH  23  24
ENDBRANCH  21  23
ENDBRANCH   3  21
ENDBRANCH   2   3
TORSDOF 14
ENDMDL
MODEL      305
REMARK 921   NORMALIZED FREE ENERGY PREDICTED BY IDOCK:   -3.34 KCAL/MOL
REMARK 922        TOTAL FREE ENERGY PREDICTED BY IDOCK:   -8.87 KCAL/MOL
REMARK 923 INTER-LIGAND FREE ENERGY PREDICTED BY IDOCK:   -6.77 KCAL/MOL
REMARK 924 INTRA-LIGAND FREE ENERGY PREDICTED BY IDOCK:   -2.10 KCAL/MOL
REMARK 927      BINDING AFFINITY PREDICTED BY RF-SCORE:    0.00 PKD
ROOT
HETATM    1  C   UNL     1     -10.301   5.661  69.485  1.00  0.00    -0.345 C  
HETATM    2  C   UNL     1      -8.996   5.749  70.268  1.00  0.00    -0.141 C  
ENDROOT
BRANCH   2   3
HETATM    3  N   UNL     1      -9.093   5.961  71.717  1.00  0.00    -0.142 NA 
BRANCH   3   4
HETATM    4  C   UNL     1      -8.040   6.814  72.298  1.00  0.00    -0.099 C  
BRANCH   4   5
HETATM    5  C   UNL     1      -7.105   7.454  71.259  1.00  0.00    -0.063 C  
BRANCH   5   6
HETATM    6  C   UNL     1      -6.990   8.966  71.457  1.00  0.00    -0.080 C  
BRANCH   6   7
HETATM    7  C   UNL     1      -6.449   9.624  70.193  1.00  0.00    -0.075 C  
BRANCH   7   8
HETATM    8  O   UNL     1      -7.388  10.593  69.710  1.00  0.00    -0.153 OA 
BRANCH   8   9
HETATM    9  C   UNL     1      -7.239  10.939  68.407  1.00  0.00    -0.087 C  
HETATM   10  O   UNL     1      -7.058  10.182  67.469  1.00  0.00    -0.085 OA 
BRANCH   9  11
HETATM   11  C   UNL     1      -7.284  12.413  68.271  1.00  0.00    -0.103 A  
HETATM   12  C   UNL     1      -8.486  13.127  68.352  1.00  0.00    -0.126 A  
HETATM   13  C   UNL     1      -8.490  14.516  68.193  1.00  0.00    -0.157 A  
HETATM   14  C   UNL     1      -6.080  14.475  67.888  1.00  0.00    -0.161 A  
HETATM   15  C   UNL     1      -7.275  15.197  67.960  1.00  0.00    -0.127 A  
HETATM   16  C   UNL     1      -6.083  13.086  68.032  1.00  0.00    -0.112 A  
BRANCH  13  17
HETATM   17  O   UNL     1      -9.622  15.294  68.239  1.00  0.00    -0.200 OA 
HETATM   18  C   UNL     1     -10.123  15.659  69.517  1.00  0.00    -0.277 C  
ENDBRANCH  13  17
BRANCH  15  19
HETATM   19  O   UNL     1      -7.363  16.558  67.812  1.00  0.00    -0.131 OA 
HETATM   20  C   UNL     1      -7.139  17.092  66.514  1.00  0.00    -0.271 C  
ENDBRANCH  15  19
ENDBRANCH   9  11
ENDBRANCH   8   9
ENDBRANCH   7   8
ENDBRANCH   6   7
ENDBRANCH   5   6
ENDBRANCH   4   5
ENDBRANCH   3   4
BRANCH   3  21
HETATM   21  C   UNL     1     -10.438   6.262  72.267  1.00  0.00    -0.199 C  
HETATM   22  C   UNL     1     -10.954   5.257  73.312  1.00  0.00    -0.369 C  
BRANCH  21  23
HETATM   23  C   UNL     1     -10.601   7.701  72.841  1.00  0.00    -0.411 C  
BRANCH  23  24
HETATM   24  C   UNL     1     -11.170   8.730  71.886  1.00  0.00    -0.438 A  
HETATM   25  C   UNL     1     -13.041  10.086  71.113  1.00  0.00    -0.472 A  
HETATM   26  C   UNL     1     -12.261  10.600  70.079  1.00  0.00    -0.298 A  
HETATM   27  C   UNL     1     -10.398   9.242  70.836  1.00  0.00    -0.367 A  
HETATM   28  C   UNL     1     -10.938  10.178  69.950  1.00  0.00    -0.344 A  
HETATM   29  C   UNL     1     -12.499   9.156  72.009  1.00  0.00    -0.452 A  
BRANCH  26  30
HETATM   30  O   UNL     1     -12.658  11.551  69.179  1.00  0.00    -0.185 OA 
HETATM   31  C   UNL     1     -11.842  12.713  69.091  1.00  0.00    -0.297 C  
ENDBRANCH  26  30
ENDBRANCH  23  24
ENDBRANCH  21  23
ENDBRANCH   3  21
ENDBRANCH   2   3
TORSDOF 14
ENDMDL
MODEL      306
REMARK 921   NORMALIZED FREE ENERGY PREDICTED BY IDOCK:   -3.34 KCAL/MOL
REMARK 922        TOTAL FREE ENERGY PREDICTED BY IDOCK:   -8.86 KCAL/MOL
REMARK 923 INTER-LIGAND FREE ENERGY PREDICTED BY IDOCK:   -7.49 KCAL/MOL
REMARK 924 INTRA-LIGAND FREE ENERGY PREDICTED BY IDOCK:   -1.37 KCAL/MOL
REMARK 927      BINDING AFFINITY PREDICTED BY RF-SCORE:    0.00 PKD
ROOT
HETATM    1  C   UNL     1      -6.476  11.210  66.452  1.00  0.00    -0.109 C  
HETATM    2  C   UNL     1      -7.369  10.350  65.566  1.00  0.00    -0.139 C  
ENDROOT
BRANCH   2   3
HETATM    3  N   UNL     1      -8.337   9.471  66.233  1.00  0.00    -0.115 NA 
BRANCH   3   4
HETATM    4  C   UNL     1      -7.908   8.946  67.543  1.00  0.00    -0.101 C  
BRANCH   4   5
HETATM    5  C   UNL     1      -7.388   7.500  67.501  1.00  0.00    -0.102 C  
BRANCH   5   6
HETATM    6  C   UNL     1      -8.122   6.667  66.450  1.00  0.00    -0.113 C  
BRANCH   6   7
HETATM    7  C   UNL     1      -7.574   5.244  66.429  1.00  0.00    -0.088 C  
BRANCH   7   8
HETATM    8  O   UNL     1      -8.370   4.405  67.276  1.00  0.00    -0.100 OA 
BRANCH   8   9
HETATM    9  C   UNL     1      -9.695   4.697  67.294  1.00  0.00    -0.185 C  
HETATM   10  O   UNL     1     -10.457   4.678  66.343  1.00  0.00    -0.268 OA 
BRANCH   9  11
HETATM   11  C   UNL     1     -10.102   5.097  68.661  1.00  0.00    -0.220 A  
HETATM   12  C   UNL     1      -9.574   4.477  69.800  1.00  0.00    -0.270 A  
HETATM   13  C   UNL     1     -10.003   4.864  71.073  1.00  0.00    -0.212 A  
HETATM   14  C   UNL     1     -11.478   6.509  70.061  1.00  0.00    -0.476 A  
HETATM   15  C   UNL     1     -10.963   5.892  71.205  1.00  0.00    -0.260 A  
HETATM   16  C   UNL     1     -11.058   6.107  68.791  1.00  0.00    -0.398 A  
BRANCH  13  17
HETATM   17  O   UNL     1      -9.555   4.301  72.243  1.00  0.00    -0.130 OA 
HETATM   18  C   UNL     1      -8.513   3.339  72.159  1.00  0.00    -0.078 C  
ENDBRANCH  13  17
BRANCH  15  19
HETATM   19  O   UNL     1     -11.334   6.213  72.486  1.00  0.00    -0.270 OA 
HETATM   20  C   UNL     1     -10.954   7.491  72.978  1.00  0.00    -0.390 C  
ENDBRANCH  15  19
ENDBRANCH   9  11
ENDBRANCH   8   9
ENDBRANCH   7   8
ENDBRANCH   6   7
ENDBRANCH   5   6
ENDBRANCH   4   5
ENDBRANCH   3   4
BRANCH   3  21
HETATM   21  C   UNL     1      -9.756   9.906  66.230  1.00  0.00    -0.222 C  
HETATM   22  C   UNL     1     -10.384  10.090  67.623  1.00  0.00    -0.272 C  
BRANCH  21  23
HETATM   23  C   UNL     1     -10.046  11.181  65.384  1.00  0.00    -0.317 C  
BRANCH  23  24
HETATM   24  C   UNL     1     -10.459  12.410  66.166  1.00  0.00    -0.274 A  
HETATM   25  C   UNL     1      -9.874  14.326  67.554  1.00  0.00    -0.231 A  
HETATM   26  C   UNL     1     -11.219  14.668  67.675  1.00  0.00    -0.321 A  
HETATM   27  C   UNL     1     -11.809  12.755  66.305  1.00  0.00    -0.485 A  
HETATM   28  C   UNL     1     -12.182  13.881  67.042  1.00  0.00    -0.392 A  
HETATM   29  C   UNL     1      -9.497  13.204  66.805  1.00  0.00    -0.252 A  
BRANCH  26  30
HETATM   30  O   UNL     1     -11.705  15.767  68.329  1.00  0.00    -0.345 OA 
HETATM   31  C   UNL     1     -10.891  16.934  68.289  1.00  0.00    -0.357 C  
ENDBRANCH  26  30
ENDBRANCH  23  24
ENDBRANCH  21  23
ENDBRANCH   3  21
ENDBRANCH   2   3
TORSDOF 14
ENDMDL
MODEL      307
REMARK 921   NORMALIZED FREE ENERGY PREDICTED BY IDOCK:   -3.33 KCAL/MOL
REMARK 922        TOTAL FREE ENERGY PREDICTED BY IDOCK:   -8.85 KCAL/MOL
REMARK 923 INTER-LIGAND FREE ENERGY PREDICTED BY IDOCK:   -7.23 KCAL/MOL
REMARK 924 INTRA-LIGAND FREE ENERGY PREDICTED BY IDOCK:   -1.62 KCAL/MOL
REMARK 927      BINDING AFFINITY PREDICTED BY RF-SCORE:    0.00 PKD
ROOT
HETATM    1  C   UNL     1      -6.185  11.935  69.764  1.00  0.00    -0.137 C  
HETATM    2  C   UNL     1      -7.431  11.328  69.130  1.00  0.00    -0.084 C  
ENDROOT
BRANCH   2   3
HETATM    3  N   UNL     1      -7.701  11.655  67.725  1.00  0.00    -0.119 NA 
BRANCH   3   4
HETATM    4  C   UNL     1      -8.030  10.503  66.866  1.00  0.00    -0.121 C  
BRANCH   4   5
HETATM    5  C   UNL     1      -8.922  10.851  65.664  1.00  0.00    -0.209 C  
BRANCH   5   6
HETATM    6  C   UNL     1     -10.270  10.132  65.734  1.00  0.00    -0.283 C  
BRANCH   6   7
HETATM    7  C   UNL     1     -10.502   9.584  67.138  1.00  0.00    -0.253 C  
BRANCH   7   8
HETATM    8  O   UNL     1     -10.690   8.163  67.079  1.00  0.00    -0.321 OA 
BRANCH   8   9
HETATM    9  C   UNL     1      -9.748   7.431  67.725  1.00  0.00    -0.143 C  
HETATM   10  O   UNL     1      -8.784   6.879  67.223  1.00  0.00    -0.119 OA 
BRANCH   9  11
HETATM   11  C   UNL     1     -10.078   7.350  69.167  1.00  0.00    -0.189 A  
HETATM   12  C   UNL     1      -9.366   8.075  70.130  1.00  0.00    -0.156 A  
HETATM   13  C   UNL     1      -9.690   7.952  71.484  1.00  0.00    -0.161 A  
HETATM   14  C   UNL     1     -11.457   6.387  70.905  1.00  0.00    -0.406 A  
HETATM   15  C   UNL     1     -10.747   7.101  71.875  1.00  0.00    -0.216 A  
HETATM   16  C   UNL     1     -11.118   6.501  69.555  1.00  0.00    -0.425 A  
BRANCH  13  17
HETATM   17  O   UNL     1      -9.035   8.609  72.497  1.00  0.00    -0.337 OA 
HETATM   18  C   UNL     1      -7.705   8.210  72.795  1.00  0.00    -0.136 C  
ENDBRANCH  13  17
BRANCH  15  19
HETATM   19  O   UNL     1     -11.002   7.033  73.221  1.00  0.00    -0.303 OA 
HETATM   20  C   UNL     1     -10.907   5.758  73.843  1.00  0.00    -0.059 C  
ENDBRANCH  15  19
ENDBRANCH   9  11
ENDBRANCH   8   9
ENDBRANCH   7   8
ENDBRANCH   6   7
ENDBRANCH   5   6
ENDBRANCH   4   5
ENDBRANCH   3   4
BRANCH   3  21
HETATM   21  C   UNL     1      -8.568  12.831  67.461  1.00  0.00    -0.187 C  
HETATM   22  C   UNL     1      -9.796  12.954  68.379  1.00  0.00    -0.197 C  
BRANCH  21  23
HETATM   23  C   UNL     1      -7.823  14.200  67.443  1.00  0.00    -0.195 C  
BRANCH  23  24
HETATM   24  C   UNL     1      -8.626  15.380  66.938  1.00  0.00    -0.291 A  
HETATM   25  C   UNL     1      -9.340  17.699  67.161  1.00  0.00    -0.245 A  
HETATM   26  C   UNL     1     -10.163  17.569  66.044  1.00  0.00    -0.299 A  
HETATM   27  C   UNL     1      -9.466  15.255  65.825  1.00  0.00    -0.310 A  
HETATM   28  C   UNL     1     -10.216  16.345  65.376  1.00  0.00    -0.218 A  
HETATM   29  C   UNL     1      -8.578  16.611  67.605  1.00  0.00    -0.207 A  
BRANCH  26  30
HETATM   30  O   UNL     1     -10.908  18.570  65.483  1.00  0.00    -0.488 OA 
HETATM   31  C   UNL     1     -10.533  19.900  65.824  1.00  0.00    -0.414 C  
ENDBRANCH  26  30
ENDBRANCH  23  24
ENDBRANCH  21  23
ENDBRANCH   3  21
ENDBRANCH   2   3
TORSDOF 14
ENDMDL
MODEL      308
REMARK 921   NORMALIZED FREE ENERGY PREDICTED BY IDOCK:   -3.33 KCAL/MOL
REMARK 922        TOTAL FREE ENERGY PREDICTED BY IDOCK:   -8.84 KCAL/MOL
REMARK 923 INTER-LIGAND FREE ENERGY PREDICTED BY IDOCK:   -7.51 KCAL/MOL
REMARK 924 INTRA-LIGAND FREE ENERGY PREDICTED BY IDOCK:   -1.33 KCAL/MOL
REMARK 927      BINDING AFFINITY PREDICTED BY RF-SCORE:    0.00 PKD
ROOT
HETATM    1  C   UNL     1     -10.475  16.935  66.707  1.00  0.00    -0.260 C  
HETATM    2  C   UNL     1      -9.667  15.885  67.461  1.00  0.00    -0.223 C  
ENDROOT
BRANCH   2   3
HETATM    3  N   UNL     1     -10.009  14.477  67.230  1.00  0.00    -0.234 NA 
BRANCH   3   4
HETATM    4  C   UNL     1      -9.047  13.501  67.775  1.00  0.00    -0.207 C  
BRANCH   4   5
HETATM    5  C   UNL     1      -8.728  12.335  66.826  1.00  0.00    -0.175 C  
BRANCH   5   6
HETATM    6  C   UNL     1      -7.910  11.247  67.523  1.00  0.00    -0.123 C  
BRANCH   6   7
HETATM    7  C   UNL     1      -7.826  10.005  66.642  1.00  0.00    -0.111 C  
BRANCH   7   8
HETATM    8  O   UNL     1      -7.816   8.829  67.461  1.00  0.00    -0.100 OA 
BRANCH   8   9
HETATM    9  C   UNL     1      -9.015   8.208  67.592  1.00  0.00    -0.132 C  
HETATM   10  O   UNL     1     -10.102   8.647  67.256  1.00  0.00    -0.200 OA 
BRANCH   9  11
HETATM   11  C   UNL     1      -8.832   6.899  68.260  1.00  0.00    -0.122 A  
HETATM   12  C   UNL     1      -7.596   6.241  68.271  1.00  0.00    -0.099 A  
HETATM   13  C   UNL     1      -7.469   4.995  68.890  1.00  0.00    -0.069 A  
HETATM   14  C   UNL     1      -9.819   5.076  69.505  1.00  0.00    -0.281 A  
HETATM   15  C   UNL     1      -8.592   4.407  69.515  1.00  0.00    -0.076 A  
HETATM   16  C   UNL     1      -9.944   6.313  68.870  1.00  0.00    -0.179 A  
BRANCH  13  17
HETATM   17  O   UNL     1      -6.303   4.269  68.933  1.00  0.00    -0.031 OA 
HETATM   18  C   UNL     1      -5.191   4.759  68.197  1.00  0.00    -0.010 C  
ENDBRANCH  13  17
BRANCH  15  19
HETATM   19  O   UNL     1      -8.387   3.182  70.097  1.00  0.00    -0.048 OA 
HETATM   20  C   UNL     1      -9.272   2.129  69.739  1.00  0.00    -0.112 C  
ENDBRANCH  15  19
ENDBRANCH   9  11
ENDBRANCH   8   9
ENDBRANCH   7   8
ENDBRANCH   6   7
ENDBRANCH   5   6
ENDBRANCH   4   5
ENDBRANCH   3   4
BRANCH   3  21
HETATM   21  C   UNL     1     -11.420  14.078  67.463  1.00  0.00    -0.343 C  
HETATM   22  C   UNL     1     -12.181  13.616  66.209  1.00  0.00    -0.484 C  
BRANCH  21  23
HETATM   23  C   UNL     1     -11.620  13.015  68.584  1.00  0.00    -0.354 C  
BRANCH  23  24
HETATM   24  C   UNL     1     -12.113  13.546  69.914  1.00  0.00    -0.408 A  
HETATM   25  C   UNL     1     -13.140  13.164  72.091  1.00  0.00    -0.481 A  
HETATM   26  C   UNL     1     -13.087  14.527  72.372  1.00  0.00    -0.402 A  
HETATM   27  C   UNL     1     -12.076  14.916  70.200  1.00  0.00    -0.379 A  
HETATM   28  C   UNL     1     -12.548  15.398  71.424  1.00  0.00    -0.471 A  
HETATM   29  C   UNL     1     -12.657  12.677  70.870  1.00  0.00    -0.338 A  
BRANCH  26  30
HETATM   30  O   UNL     1     -13.474  15.114  73.546  1.00  0.00    -0.423 OA 
HETATM   31  C   UNL     1     -12.490  15.897  74.211  1.00  0.00    -0.633 C  
ENDBRANCH  26  30
ENDBRANCH  23  24
ENDBRANCH  21  23
ENDBRANCH   3  21
ENDBRANCH   2   3
TORSDOF 14
ENDMDL
MODEL      309
REMARK 921   NORMALIZED FREE ENERGY PREDICTED BY IDOCK:   -3.32 KCAL/MOL
REMARK 922        TOTAL FREE ENERGY PREDICTED BY IDOCK:   -8.82 KCAL/MOL
REMARK 923 INTER-LIGAND FREE ENERGY PREDICTED BY IDOCK:   -6.62 KCAL/MOL
REMARK 924 INTRA-LIGAND FREE ENERGY PREDICTED BY IDOCK:   -2.20 KCAL/MOL
REMARK 927      BINDING AFFINITY PREDICTED BY RF-SCORE:    0.00 PKD
ROOT
HETATM    1  C   UNL     1      -9.096   4.620  66.482  1.00  0.00    -0.123 C  
HETATM    2  C   UNL     1      -9.356   6.108  66.682  1.00  0.00    -0.146 C  
ENDROOT
BRANCH   2   3
HETATM    3  N   UNL     1      -9.087   6.667  68.012  1.00  0.00    -0.116 NA 
BRANCH   3   4
HETATM    4  C   UNL     1      -7.907   7.547  68.095  1.00  0.00    -0.122 C  
BRANCH   4   5
HETATM    5  C   UNL     1      -7.503   8.185  66.757  1.00  0.00    -0.090 C  
BRANCH   5   6
HETATM    6  C   UNL     1      -7.590   9.711  66.810  1.00  0.00    -0.098 C  
BRANCH   6   7
HETATM    7  C   UNL     1      -6.653  10.255  67.883  1.00  0.00    -0.062 C  
BRANCH   7   8
HETATM    8  O   UNL     1      -7.150  11.509  68.370  1.00  0.00    -0.071 OA 
BRANCH   8   9
HETATM    9  C   UNL     1      -6.631  12.607  67.765  1.00  0.00    -0.130 C  
HETATM   10  O   UNL     1      -5.616  12.656  67.091  1.00  0.00    -0.311 OA 
BRANCH   9  11
HETATM   11  C   UNL     1      -7.464  13.792  68.077  1.00  0.00    -0.139 A  
HETATM   12  C   UNL     1      -6.900  15.000  68.503  1.00  0.00    -0.102 A  
HETATM   13  C   UNL     1      -7.721  16.089  68.812  1.00  0.00    -0.187 A  
HETATM   14  C   UNL     1      -9.674  14.758  68.248  1.00  0.00    -0.218 A  
HETATM   15  C   UNL     1      -9.122  15.967  68.682  1.00  0.00    -0.206 A  
HETATM   16  C   UNL     1      -8.851  13.669  67.957  1.00  0.00    -0.187 A  
BRANCH  13  17
HETATM   17  O   UNL     1      -7.257  17.304  69.255  1.00  0.00    -0.221 OA 
HETATM   18  C   UNL     1      -6.482  18.084  68.355  1.00  0.00    -0.203 C  
ENDBRANCH  13  17
BRANCH  15  19
HETATM   19  O   UNL     1      -9.859  17.078  69.007  1.00  0.00    -0.265 OA 
HETATM   20  C   UNL     1     -10.517  17.760  67.948  1.00  0.00    -0.397 C  
ENDBRANCH  15  19
ENDBRANCH   9  11
ENDBRANCH   8   9
ENDBRANCH   7   8
ENDBRANCH   6   7
ENDBRANCH   5   6
ENDBRANCH   4   5
ENDBRANCH   3   4
BRANCH   3  21
HETATM   21  C   UNL     1     -10.249   7.198  68.768  1.00  0.00    -0.179 C  
HETATM   22  C   UNL     1     -11.268   6.140  69.224  1.00  0.00    -0.438 C  
BRANCH  21  23
HETATM   23  C   UNL     1      -9.878   8.089  69.992  1.00  0.00    -0.185 C  
BRANCH  23  24
HETATM   24  C   UNL     1     -10.773   9.288  70.228  1.00  0.00    -0.284 A  
HETATM   25  C   UNL     1     -12.602  10.352  71.436  1.00  0.00    -0.539 A  
HETATM   26  C   UNL     1     -12.485  11.490  70.641  1.00  0.00    -0.314 A  
HETATM   27  C   UNL     1     -10.672  10.430  69.426  1.00  0.00    -0.277 A  
HETATM   28  C   UNL     1     -11.513  11.525  69.641  1.00  0.00    -0.373 A  
HETATM   29  C   UNL     1     -11.752   9.258  71.230  1.00  0.00    -0.416 A  
BRANCH  26  30
HETATM   30  O   UNL     1     -13.216  12.639  70.782  1.00  0.00     0.130 OA 
HETATM   31  C   UNL     1     -12.526  13.857  70.531  1.00  0.00    -0.352 C  
ENDBRANCH  26  30
ENDBRANCH  23  24
ENDBRANCH  21  23
ENDBRANCH   3  21
ENDBRANCH   2   3
TORSDOF 14
ENDMDL
MODEL      310
REMARK 921   NORMALIZED FREE ENERGY PREDICTED BY IDOCK:   -3.31 KCAL/MOL
REMARK 922        TOTAL FREE ENERGY PREDICTED BY IDOCK:   -8.81 KCAL/MOL
REMARK 923 INTER-LIGAND FREE ENERGY PREDICTED BY IDOCK:   -7.01 KCAL/MOL
REMARK 924 INTRA-LIGAND FREE ENERGY PREDICTED BY IDOCK:   -1.79 KCAL/MOL
REMARK 927      BINDING AFFINITY PREDICTED BY RF-SCORE:    0.00 PKD
ROOT
HETATM    1  C   UNL     1      -7.457   8.806  71.807  1.00  0.00    -0.080 C  
HETATM    2  C   UNL     1      -8.230   8.795  70.494  1.00  0.00    -0.131 C  
ENDROOT
BRANCH   2   3
HETATM    3  N   UNL     1      -9.695   8.789  70.573  1.00  0.00    -0.179 NA 
BRANCH   3   4
HETATM    4  C   UNL     1     -10.390   9.294  69.375  1.00  0.00    -0.215 C  
BRANCH   4   5
HETATM    5  C   UNL     1      -9.468   9.544  68.172  1.00  0.00    -0.145 C  
BRANCH   5   6
HETATM    6  C   UNL     1     -10.161   9.213  66.850  1.00  0.00    -0.336 C  
BRANCH   6   7
HETATM    7  C   UNL     1      -9.455   9.913  65.694  1.00  0.00    -0.235 C  
BRANCH   7   8
HETATM    8  O   UNL     1      -9.151  11.266  66.059  1.00  0.00    -0.200 OA 
BRANCH   8   9
HETATM    9  C   UNL     1      -9.971  12.205  65.523  1.00  0.00    -0.246 C  
HETATM   10  O   UNL     1     -10.288  12.309  64.350  1.00  0.00    -0.299 OA 
BRANCH   9  11
HETATM   11  C   UNL     1     -10.412  13.147  66.577  1.00  0.00    -0.283 A  
HETATM   12  C   UNL     1      -9.506  13.734  67.469  1.00  0.00    -0.220 A  
HETATM   13  C   UNL     1      -9.964  14.599  68.467  1.00  0.00    -0.235 A  
HETATM   14  C   UNL     1     -12.238  14.300  67.664  1.00  0.00    -0.215 A  
HETATM   15  C   UNL     1     -11.344  14.886  68.565  1.00  0.00    -0.298 A  
HETATM   16  C   UNL     1     -11.777  13.424  66.679  1.00  0.00    -0.428 A  
BRANCH  13  17
HETATM   17  O   UNL     1      -9.152  15.205  69.395  1.00  0.00    -0.227 OA 
HETATM   18  C   UNL     1      -8.365  16.307  68.967  1.00  0.00    -0.239 C  
ENDBRANCH  13  17
BRANCH  15  19
HETATM   19  O   UNL     1     -11.714  15.741  69.572  1.00  0.00    -0.340 OA 
HETATM   20  C   UNL     1     -12.668  15.270  70.514  1.00  0.00    -0.390 C  
ENDBRANCH  15  19
ENDBRANCH   9  11
ENDBRANCH   8   9
ENDBRANCH   7   8
ENDBRANCH   6   7
ENDBRANCH   5   6
ENDBRANCH   4   5
ENDBRANCH   3   4
BRANCH   3  21
HETATM   21  C   UNL     1     -10.335   7.573  71.134  1.00  0.00    -0.200 C  
HETATM   22  C   UNL     1     -11.845   7.448  70.864  1.00  0.00    -0.320 C  
BRANCH  21  23
HETATM   23  C   UNL     1      -9.648   6.232  70.735  1.00  0.00    -0.193 C  
BRANCH  23  24
HETATM   24  C   UNL     1      -9.544   5.963  69.248  1.00  0.00    -0.172 A  
HETATM   25  C   UNL     1      -8.187   5.659  67.247  1.00  0.00    -0.101 A  
HETATM   26  C   UNL     1      -9.335   5.521  66.471  1.00  0.00    -0.147 A  
HETATM   27  C   UNL     1     -10.693   5.837  68.458  1.00  0.00    -0.288 A  
HETATM   28  C   UNL     1     -10.586   5.605  67.084  1.00  0.00    -0.344 A  
HETATM   29  C   UNL     1      -8.291   5.880  68.627  1.00  0.00    -0.109 A  
BRANCH  26  30
HETATM   30  O   UNL     1      -9.362   5.248  65.130  1.00  0.00    -0.081 OA 
HETATM   31  C   UNL     1      -8.745   4.032  64.724  1.00  0.00    -0.119 C  
ENDBRANCH  26  30
ENDBRANCH  23  24
ENDBRANCH  21  23
ENDBRANCH   3  21
ENDBRANCH   2   3
TORSDOF 14
ENDMDL
MODEL      311
REMARK 921   NORMALIZED FREE ENERGY PREDICTED BY IDOCK:   -3.31 KCAL/MOL
REMARK 922        TOTAL FREE ENERGY PREDICTED BY IDOCK:   -8.81 KCAL/MOL
REMARK 923 INTER-LIGAND FREE ENERGY PREDICTED BY IDOCK:   -7.40 KCAL/MOL
REMARK 924 INTRA-LIGAND FREE ENERGY PREDICTED BY IDOCK:   -1.41 KCAL/MOL
REMARK 927      BINDING AFFINITY PREDICTED BY RF-SCORE:    0.00 PKD
ROOT
HETATM    1  C   UNL     1      -9.558  20.123  66.321  1.00  0.00    -0.487 C  
HETATM    2  C   UNL     1      -9.128  19.266  67.506  1.00  0.00    -0.297 C  
ENDROOT
BRANCH   2   3
HETATM    3  N   UNL     1      -8.624  17.919  67.216  1.00  0.00    -0.234 NA 
BRANCH   3   4
HETATM    4  C   UNL     1      -9.132  17.314  65.971  1.00  0.00    -0.079 C  
BRANCH   4   5
HETATM    5  C   UNL     1     -10.477  16.587  66.128  1.00  0.00    -0.301 C  
BRANCH   5   6
HETATM    6  C   UNL     1     -10.351  15.094  65.819  1.00  0.00    -0.359 C  
BRANCH   6   7
HETATM    7  C   UNL     1     -11.669  14.557  65.272  1.00  0.00    -0.361 C  
BRANCH   7   8
HETATM    8  O   UNL     1     -11.430  13.831  64.059  1.00  0.00    -0.334 OA 
BRANCH   8   9
HETATM    9  C   UNL     1     -11.919  12.565  64.040  1.00  0.00    -0.454 C  
HETATM   10  O   UNL     1     -13.091  12.239  63.958  1.00  0.00    -0.764 OA 
BRANCH   9  11
HETATM   11  C   UNL     1     -10.808  11.596  64.181  1.00  0.00    -0.433 A  
HETATM   12  C   UNL     1      -9.877  11.386  63.156  1.00  0.00    -0.413 A  
HETATM   13  C   UNL     1      -8.857  10.444  63.316  1.00  0.00    -0.216 A  
HETATM   14  C   UNL     1      -9.695   9.934  65.539  1.00  0.00    -0.370 A  
HETATM   15  C   UNL     1      -8.764   9.711  64.520  1.00  0.00    -0.202 A  
HETATM   16  C   UNL     1     -10.722  10.865  65.368  1.00  0.00    -0.189 A  
BRANCH  13  17
HETATM   17  O   UNL     1      -7.912  10.159  62.360  1.00  0.00    -0.122 OA 
HETATM   18  C   UNL     1      -6.597  10.658  62.559  1.00  0.00    -0.091 C  
ENDBRANCH  13  17
BRANCH  15  19
HETATM   19  O   UNL     1      -7.738   8.804  64.599  1.00  0.00    -0.107 OA 
HETATM   20  C   UNL     1      -8.024   7.459  64.237  1.00  0.00    -0.097 C  
ENDBRANCH  15  19
ENDBRANCH   9  11
ENDBRANCH   8   9
ENDBRANCH   7   8
ENDBRANCH   6   7
ENDBRANCH   5   6
ENDBRANCH   4   5
ENDBRANCH   3   4
BRANCH   3  21
HETATM   21  C   UNL     1      -7.171  17.686  67.412  1.00  0.00    -0.181 C  
HETATM   22  C   UNL     1      -6.287  18.938  67.279  1.00  0.00    -0.187 C  
BRANCH  21  23
HETATM   23  C   UNL     1      -6.802  16.957  68.739  1.00  0.00    -0.195 C  
BRANCH  23  24
HETATM   24  C   UNL     1      -6.756  15.445  68.669  1.00  0.00    -0.102 A  
HETATM   25  C   UNL     1      -7.071  13.379  67.416  1.00  0.00    -0.108 A  
HETATM   26  C   UNL     1      -6.733  12.628  68.540  1.00  0.00    -0.089 A  
HETATM   27  C   UNL     1      -6.431  14.682  69.797  1.00  0.00    -0.159 A  
HETATM   28  C   UNL     1      -6.408  13.286  69.726  1.00  0.00    -0.073 A  
HETATM   29  C   UNL     1      -7.084  14.778  67.482  1.00  0.00    -0.209 A  
BRANCH  26  30
HETATM   30  O   UNL     1      -6.632  11.264  68.585  1.00  0.00    -0.058 OA 
HETATM   31  C   UNL     1      -7.229  10.627  69.709  1.00  0.00    -0.131 C  
ENDBRANCH  26  30
ENDBRANCH  23  24
ENDBRANCH  21  23
ENDBRANCH   3  21
ENDBRANCH   2   3
TORSDOF 14
ENDMDL
MODEL      312
REMARK 921   NORMALIZED FREE ENERGY PREDICTED BY IDOCK:   -3.30 KCAL/MOL
REMARK 922        TOTAL FREE ENERGY PREDICTED BY IDOCK:   -8.79 KCAL/MOL
REMARK 923 INTER-LIGAND FREE ENERGY PREDICTED BY IDOCK:   -7.28 KCAL/MOL
REMARK 924 INTRA-LIGAND FREE ENERGY PREDICTED BY IDOCK:   -1.50 KCAL/MOL
REMARK 927      BINDING AFFINITY PREDICTED BY RF-SCORE:    0.00 PKD
ROOT
HETATM    1  C   UNL     1     -10.289  18.343  66.915  1.00  0.00    -0.417 C  
HETATM    2  C   UNL     1      -9.395  17.455  67.772  1.00  0.00    -0.255 C  
ENDROOT
BRANCH   2   3
HETATM    3  N   UNL     1      -9.422  16.013  67.506  1.00  0.00    -0.222 NA 
BRANCH   3   4
HETATM    4  C   UNL     1      -8.417  15.221  68.238  1.00  0.00    -0.154 C  
BRANCH   4   5
HETATM    5  C   UNL     1      -7.617  14.250  67.356  1.00  0.00    -0.185 C  
BRANCH   5   6
HETATM    6  C   UNL     1      -7.009  13.111  68.176  1.00  0.00    -0.108 C  
BRANCH   6   7
HETATM    7  C   UNL     1      -5.714  12.630  67.531  1.00  0.00    -0.131 C  
BRANCH   7   8
HETATM    8  O   UNL     1      -5.703  11.198  67.474  1.00  0.00    -0.043 OA 
BRANCH   8   9
HETATM    9  C   UNL     1      -6.075  10.667  66.282  1.00  0.00    -0.111 C  
HETATM   10  O   UNL     1      -5.759  11.070  65.175  1.00  0.00    -0.066 OA 
BRANCH   9  11
HETATM   11  C   UNL     1      -6.982   9.518  66.505  1.00  0.00    -0.085 A  
HETATM   12  C   UNL     1      -6.641   8.219  66.109  1.00  0.00    -0.050 A  
HETATM   13  C   UNL     1      -7.536   7.164  66.313  1.00  0.00    -0.087 A  
HETATM   14  C   UNL     1      -9.108   8.713  67.331  1.00  0.00    -0.148 A  
HETATM   15  C   UNL     1      -8.781   7.414  66.933  1.00  0.00    -0.126 A  
HETATM   16  C   UNL     1      -8.218   9.766  67.109  1.00  0.00    -0.121 A  
BRANCH  13  17
HETATM   17  O   UNL     1      -7.294   5.864  65.941  1.00  0.00    -0.074 OA 
HETATM   18  C   UNL     1      -6.192   5.197  66.540  1.00  0.00    -0.035 C  
ENDBRANCH  13  17
BRANCH  15  19
HETATM   19  O   UNL     1      -9.603   6.328  67.095  1.00  0.00    -0.125 OA 
HETATM   20  C   UNL     1     -10.994   6.519  66.871  1.00  0.00    -0.338 C  
ENDBRANCH  15  19
ENDBRANCH   9  11
ENDBRANCH   8   9
ENDBRANCH   7   8
ENDBRANCH   6   7
ENDBRANCH   5   6
ENDBRANCH   4   5
ENDBRANCH   3   4
BRANCH   3  21
HETATM   21  C   UNL     1     -10.754  15.357  67.476  1.00  0.00    -0.295 C  
HETATM   22  C   UNL     1     -11.197  14.845  66.095  1.00  0.00    -0.325 C  
BRANCH  21  23
HETATM   23  C   UNL     1     -10.937  14.207  68.512  1.00  0.00    -0.271 C  
BRANCH  23  24
HETATM   24  C   UNL     1     -11.603  14.597  69.816  1.00  0.00    -0.341 A  
HETATM   25  C   UNL     1     -13.232  14.147  71.572  1.00  0.00    -0.423 A  
HETATM   26  C   UNL     1     -12.892  15.337  72.212  1.00  0.00    -0.360 A  
HETATM   27  C   UNL     1     -11.277  15.796  70.460  1.00  0.00    -0.392 A  
HETATM   28  C   UNL     1     -11.909  16.155  71.654  1.00  0.00    -0.557 A  
HETATM   29  C   UNL     1     -12.592  13.781  70.381  1.00  0.00    -0.325 A  
BRANCH  26  30
HETATM   30  O   UNL     1     -13.404  15.774  73.404  1.00  0.00    -0.544 OA 
HETATM   31  C   UNL     1     -12.462  16.008  74.444  1.00  0.00    -0.572 C  
ENDBRANCH  26  30
ENDBRANCH  23  24
ENDBRANCH  21  23
ENDBRANCH   3  21
ENDBRANCH   2   3
TORSDOF 14
ENDMDL
MODEL      313
REMARK 921   NORMALIZED FREE ENERGY PREDICTED BY IDOCK:   -3.30 KCAL/MOL
REMARK 922        TOTAL FREE ENERGY PREDICTED BY IDOCK:   -8.78 KCAL/MOL
REMARK 923 INTER-LIGAND FREE ENERGY PREDICTED BY IDOCK:   -6.31 KCAL/MOL
REMARK 924 INTRA-LIGAND FREE ENERGY PREDICTED BY IDOCK:   -2.48 KCAL/MOL
REMARK 927      BINDING AFFINITY PREDICTED BY RF-SCORE:    0.00 PKD
ROOT
HETATM    1  C   UNL     1     -10.248   5.320  69.424  1.00  0.00    -0.321 C  
HETATM    2  C   UNL     1      -9.150   5.462  70.472  1.00  0.00    -0.142 C  
ENDROOT
BRANCH   2   3
HETATM    3  N   UNL     1      -9.564   5.530  71.878  1.00  0.00    -0.155 NA 
BRANCH   3   4
HETATM    4  C   UNL     1      -8.597   6.177  72.785  1.00  0.00    -0.123 C  
BRANCH   4   5
HETATM    5  C   UNL     1      -7.439   6.886  72.067  1.00  0.00    -0.092 C  
BRANCH   5   6
HETATM    6  C   UNL     1      -7.387   8.375  72.413  1.00  0.00    -0.126 C  
BRANCH   6   7
HETATM    7  C   UNL     1      -6.564   9.129  71.374  1.00  0.00    -0.059 C  
BRANCH   7   8
HETATM    8  O   UNL     1      -7.430   9.925  70.554  1.00  0.00    -0.231 OA 
BRANCH   8   9
HETATM    9  C   UNL     1      -6.798  10.779  69.710  1.00  0.00    -0.151 C  
HETATM   10  O   UNL     1      -6.385  11.895  69.979  1.00  0.00    -0.144 OA 
BRANCH   9  11
HETATM   11  C   UNL     1      -6.710  10.178  68.360  1.00  0.00    -0.054 A  
HETATM   12  C   UNL     1      -7.848   9.961  67.572  1.00  0.00    -0.098 A  
HETATM   13  C   UNL     1      -7.727   9.367  66.313  1.00  0.00    -0.097 A  
HETATM   14  C   UNL     1      -5.321   9.223  66.626  1.00  0.00    -0.041 A  
HETATM   15  C   UNL     1      -6.451   8.995  65.834  1.00  0.00    -0.061 A  
HETATM   16  C   UNL     1      -5.449   9.802  67.890  1.00  0.00    -0.039 A  
BRANCH  13  17
HETATM   17  O   UNL     1      -8.787   9.100  65.481  1.00  0.00    -0.167 OA 
HETATM   18  C   UNL     1      -9.975   9.858  65.658  1.00  0.00    -0.283 C  
ENDBRANCH  13  17
BRANCH  15  19
HETATM   19  O   UNL     1      -6.416   8.416  64.591  1.00  0.00    -0.064 OA 
HETATM   20  C   UNL     1      -5.585   9.020  63.609  1.00  0.00    -0.070 C  
ENDBRANCH  15  19
ENDBRANCH   9  11
ENDBRANCH   8   9
ENDBRANCH   7   8
ENDBRANCH   6   7
ENDBRANCH   5   6
ENDBRANCH   4   5
ENDBRANCH   3   4
BRANCH   3  21
HETATM   21  C   UNL     1     -10.964   5.941  72.150  1.00  0.00    -0.266 C  
HETATM   22  C   UNL     1     -11.830   4.880  72.852  1.00  0.00    -0.095 C  
BRANCH  21  23
HETATM   23  C   UNL     1     -11.110   7.289  72.919  1.00  0.00    -0.369 C  
BRANCH  23  24
HETATM   24  C   UNL     1     -11.442   8.498  72.070  1.00  0.00    -0.431 A  
HETATM   25  C   UNL     1     -12.954  10.317  71.485  1.00  0.00    -0.556 A  
HETATM   26  C   UNL     1     -12.100  10.717  70.459  1.00  0.00    -0.366 A  
HETATM   27  C   UNL     1     -10.596   8.900  71.029  1.00  0.00    -0.315 A  
HETATM   28  C   UNL     1     -10.919  10.008  70.240  1.00  0.00    -0.377 A  
HETATM   29  C   UNL     1     -12.627   9.214  72.283  1.00  0.00    -0.425 A  
BRANCH  26  30
HETATM   30  O   UNL     1     -12.281  11.807  69.651  1.00  0.00    -0.262 OA 
HETATM   31  C   UNL     1     -11.702  11.731  68.354  1.00  0.00    -0.325 C  
ENDBRANCH  26  30
ENDBRANCH  23  24
ENDBRANCH  21  23
ENDBRANCH   3  21
ENDBRANCH   2   3
TORSDOF 14
ENDMDL
MODEL      314
REMARK 921   NORMALIZED FREE ENERGY PREDICTED BY IDOCK:   -3.29 KCAL/MOL
REMARK 922        TOTAL FREE ENERGY PREDICTED BY IDOCK:   -8.78 KCAL/MOL
REMARK 923 INTER-LIGAND FREE ENERGY PREDICTED BY IDOCK:   -6.50 KCAL/MOL
REMARK 924 INTRA-LIGAND FREE ENERGY PREDICTED BY IDOCK:   -2.27 KCAL/MOL
REMARK 927      BINDING AFFINITY PREDICTED BY RF-SCORE:    0.00 PKD
ROOT
HETATM    1  C   UNL     1      -6.802   9.942  66.589  1.00  0.00    -0.084 C  
HETATM    2  C   UNL     1      -7.575   9.558  65.333  1.00  0.00    -0.106 C  
ENDROOT
BRANCH   2   3
HETATM    3  N   UNL     1      -8.777   8.734  65.506  1.00  0.00    -0.176 NA 
BRANCH   3   4
HETATM    4  C   UNL     1      -8.648   7.634  66.480  1.00  0.00    -0.138 C  
BRANCH   4   5
HETATM    5  C   UNL     1      -8.929   6.241  65.896  1.00  0.00    -0.122 C  
BRANCH   5   6
HETATM    6  C   UNL     1     -10.100   5.557  66.602  1.00  0.00    -0.245 C  
BRANCH   6   7
HETATM    7  C   UNL     1      -9.651   4.231  67.204  1.00  0.00    -0.194 C  
BRANCH   7   8
HETATM    8  O   UNL     1      -8.733   4.471  68.279  1.00  0.00    -0.097 OA 
BRANCH   8   9
HETATM    9  C   UNL     1      -9.302   4.880  69.441  1.00  0.00    -0.127 C  
HETATM   10  O   UNL     1     -10.111   4.262  70.112  1.00  0.00    -0.194 OA 
BRANCH   9  11
HETATM   11  C   UNL     1      -8.828   6.242  69.780  1.00  0.00    -0.140 A  
HETATM   12  C   UNL     1      -9.717   7.269  70.120  1.00  0.00    -0.172 A  
HETATM   13  C   UNL     1      -9.234   8.549  70.409  1.00  0.00    -0.160 A  
HETATM   14  C   UNL     1      -6.966   7.763  70.032  1.00  0.00    -0.050 A  
HETATM   15  C   UNL     1      -7.844   8.797  70.366  1.00  0.00    -0.098 A  
HETATM   16  C   UNL     1      -7.455   6.490  69.728  1.00  0.00    -0.088 A  
BRANCH  13  17
HETATM   17  O   UNL     1     -10.031   9.619  70.734  1.00  0.00    -0.270 OA 
HETATM   18  C   UNL     1     -11.437   9.415  70.760  1.00  0.00    -0.300 C  
ENDBRANCH  13  17
BRANCH  15  19
HETATM   19  O   UNL     1      -7.450  10.078  70.659  1.00  0.00    -0.302 OA 
HETATM   20  C   UNL     1      -6.068  10.385  70.529  1.00  0.00    -0.116 C  
ENDBRANCH  15  19
ENDBRANCH   9  11
ENDBRANCH   8   9
ENDBRANCH   7   8
ENDBRANCH   6   7
ENDBRANCH   5   6
ENDBRANCH   4   5
ENDBRANCH   3   4
BRANCH   3  21
HETATM   21  C   UNL     1     -10.073   9.448  65.619  1.00  0.00    -0.004 C  
HETATM   22  C   UNL     1     -10.554   9.701  67.059  1.00  0.00    -0.267 C  
BRANCH  21  23
HETATM   23  C   UNL     1     -10.151  10.788  64.828  1.00  0.00    -0.396 C  
BRANCH  23  24
HETATM   24  C   UNL     1     -10.548  12.006  65.635  1.00  0.00    -0.303 A  
HETATM   25  C   UNL     1      -9.972  13.778  67.206  1.00  0.00    -0.239 A  
HETATM   26  C   UNL     1     -11.287  14.241  67.189  1.00  0.00    -0.337 A  
HETATM   27  C   UNL     1     -11.869  12.470  65.635  1.00  0.00    -0.493 A  
HETATM   28  C   UNL     1     -12.229  13.585  66.397  1.00  0.00    -0.454 A  
HETATM   29  C   UNL     1      -9.607  12.668  66.435  1.00  0.00    -0.248 A  
BRANCH  26  30
HETATM   30  O   UNL     1     -11.751  15.343  67.852  1.00  0.00    -0.319 OA 
HETATM   31  C   UNL     1     -11.026  15.731  69.014  1.00  0.00    -0.262 C  
ENDBRANCH  26  30
ENDBRANCH  23  24
ENDBRANCH  21  23
ENDBRANCH   3  21
ENDBRANCH   2   3
TORSDOF 14
ENDMDL
MODEL      315
REMARK 921   NORMALIZED FREE ENERGY PREDICTED BY IDOCK:   -3.29 KCAL/MOL
REMARK 922        TOTAL FREE ENERGY PREDICTED BY IDOCK:   -8.77 KCAL/MOL
REMARK 923 INTER-LIGAND FREE ENERGY PREDICTED BY IDOCK:   -7.55 KCAL/MOL
REMARK 924 INTRA-LIGAND FREE ENERGY PREDICTED BY IDOCK:   -1.22 KCAL/MOL
REMARK 927      BINDING AFFINITY PREDICTED BY RF-SCORE:    0.00 PKD
ROOT
HETATM    1  C   UNL     1      -9.925   3.776  73.989  1.00  0.00    -0.175 C  
HETATM    2  C   UNL     1     -10.644   4.175  72.706  1.00  0.00    -0.148 C  
ENDROOT
BRANCH   2   3
HETATM    3  N   UNL     1     -10.276   5.458  72.097  1.00  0.00    -0.196 NA 
BRANCH   3   4
HETATM    4  C   UNL     1      -9.811   6.490  73.042  1.00  0.00    -0.166 C  
BRANCH   4   5
HETATM    5  C   UNL     1     -10.892   7.504  73.448  1.00  0.00    -0.339 C  
BRANCH   5   6
HETATM    6  C   UNL     1     -11.573   8.123  72.226  1.00  0.00    -0.436 C  
BRANCH   6   7
HETATM    7  C   UNL     1     -10.599   9.032  71.485  1.00  0.00    -0.345 C  
BRANCH   7   8
HETATM    8  O   UNL     1     -11.278  10.219  71.051  1.00  0.00    -0.315 OA 
BRANCH   8   9
HETATM    9  C   UNL     1     -11.361  10.375  69.706  1.00  0.00    -0.289 C  
HETATM   10  O   UNL     1     -11.286   9.495  68.865  1.00  0.00    -0.076 OA 
BRANCH   9  11
HETATM   11  C   UNL     1     -11.517  11.810  69.376  1.00  0.00    -0.371 A  
HETATM   12  C   UNL     1     -11.021  12.352  68.184  1.00  0.00    -0.263 A  
HETATM   13  C   UNL     1     -11.165  13.718  67.920  1.00  0.00    -0.274 A  
HETATM   14  C   UNL     1     -12.320  13.992  70.040  1.00  0.00    -0.397 A  
HETATM   15  C   UNL     1     -11.823  14.546  68.857  1.00  0.00    -0.324 A  
HETATM   16  C   UNL     1     -12.159  12.631  70.307  1.00  0.00    -0.372 A  
BRANCH  13  17
HETATM   17  O   UNL     1     -10.696  14.339  66.788  1.00  0.00    -0.282 OA 
HETATM   18  C   UNL     1      -9.289  14.469  66.639  1.00  0.00    -0.281 C  
ENDBRANCH  13  17
BRANCH  15  19
HETATM   19  O   UNL     1     -11.921  15.873  68.526  1.00  0.00    -0.306 OA 
HETATM   20  C   UNL     1     -10.828  16.716  68.866  1.00  0.00    -0.321 C  
ENDBRANCH  15  19
ENDBRANCH   9  11
ENDBRANCH   8   9
ENDBRANCH   7   8
ENDBRANCH   6   7
ENDBRANCH   5   6
ENDBRANCH   4   5
ENDBRANCH   3   4
BRANCH   3  21
HETATM   21  C   UNL     1      -9.458   5.408  70.859  1.00  0.00    -0.167 C  
HETATM   22  C   UNL     1      -7.942   5.559  71.075  1.00  0.00    -0.106 C  
BRANCH  21  23
HETATM   23  C   UNL     1      -9.709   4.158  69.962  1.00  0.00    -0.282 C  
BRANCH  23  24
HETATM   24  C   UNL     1      -9.482   4.358  68.478  1.00  0.00    -0.217 A  
HETATM   25  C   UNL     1     -10.076   5.442  66.378  1.00  0.00    -0.239 A  
HETATM   26  C   UNL     1      -9.111   4.698  65.704  1.00  0.00    -0.142 A  
HETATM   27  C   UNL     1      -8.523   3.606  67.789  1.00  0.00    -0.106 A  
HETATM   28  C   UNL     1      -8.333   3.785  66.417  1.00  0.00    -0.105 A  
HETATM   29  C   UNL     1     -10.261   5.272  67.756  1.00  0.00    -0.211 A  
BRANCH  26  30
HETATM   30  O   UNL     1      -8.799   4.815  64.376  1.00  0.00    -0.151 OA 
HETATM   31  C   UNL     1      -9.563   4.017  63.479  1.00  0.00    -0.149 C  
ENDBRANCH  26  30
ENDBRANCH  23  24
ENDBRANCH  21  23
ENDBRANCH   3  21
ENDBRANCH   2   3
TORSDOF 14
ENDMDL
MODEL      316
REMARK 921   NORMALIZED FREE ENERGY PREDICTED BY IDOCK:   -3.28 KCAL/MOL
REMARK 922        TOTAL FREE ENERGY PREDICTED BY IDOCK:   -8.76 KCAL/MOL
REMARK 923 INTER-LIGAND FREE ENERGY PREDICTED BY IDOCK:   -6.97 KCAL/MOL
REMARK 924 INTRA-LIGAND FREE ENERGY PREDICTED BY IDOCK:   -1.79 KCAL/MOL
REMARK 927      BINDING AFFINITY PREDICTED BY RF-SCORE:    0.00 PKD
ROOT
HETATM    1  C   UNL     1     -12.734  13.930  65.149  1.00  0.00    -0.434 C  
HETATM    2  C   UNL     1     -11.452  13.142  64.909  1.00  0.00    -0.309 C  
ENDROOT
BRANCH   2   3
HETATM    3  N   UNL     1     -11.265  11.908  65.680  1.00  0.00    -0.322 NA 
BRANCH   3   4
HETATM    4  C   UNL     1     -10.704  10.774  64.922  1.00  0.00    -0.096 C  
BRANCH   4   5
HETATM    5  C   UNL     1      -9.889  11.187  63.685  1.00  0.00    -0.387 C  
BRANCH   5   6
HETATM    6  C   UNL     1      -8.518  10.511  63.661  1.00  0.00    -0.133 C  
BRANCH   6   7
HETATM    7  C   UNL     1      -8.659   9.022  63.957  1.00  0.00    -0.140 C  
BRANCH   7   8
HETATM    8  O   UNL     1      -7.565   8.583  64.772  1.00  0.00    -0.091 OA 
BRANCH   8   9
HETATM    9  C   UNL     1      -7.848   8.448  66.092  1.00  0.00    -0.101 C  
HETATM   10  O   UNL     1      -7.941   9.347  66.911  1.00  0.00    -0.107 OA 
BRANCH   9  11
HETATM   11  C   UNL     1      -7.992   7.014  66.431  1.00  0.00    -0.109 A  
HETATM   12  C   UNL     1      -8.373   6.592  67.711  1.00  0.00    -0.119 A  
HETATM   13  C   UNL     1      -8.474   5.228  68.000  1.00  0.00    -0.097 A  
HETATM   14  C   UNL     1      -7.827   4.710  65.715  1.00  0.00    -0.095 A  
HETATM   15  C   UNL     1      -8.199   4.278  66.991  1.00  0.00    -0.101 A  
HETATM   16  C   UNL     1      -7.712   6.073  65.436  1.00  0.00    -0.091 A  
BRANCH  13  17
HETATM   17  O   UNL     1      -8.822   4.723  69.229  1.00  0.00    -0.089 OA 
HETATM   18  C   UNL     1     -10.137   4.980  69.702  1.00  0.00    -0.251 C  
ENDBRANCH  13  17
BRANCH  15  19
HETATM   19  O   UNL     1      -8.317   2.960  67.354  1.00  0.00    -0.080 OA 
HETATM   20  C   UNL     1      -8.842   2.058  66.389  1.00  0.00    -0.121 C  
ENDBRANCH  15  19
ENDBRANCH   9  11
ENDBRANCH   8   9
ENDBRANCH   7   8
ENDBRANCH   6   7
ENDBRANCH   5   6
ENDBRANCH   4   5
ENDBRANCH   3   4
BRANCH   3  21
HETATM   21  C   UNL     1     -10.668  12.041  67.032  1.00  0.00    -0.242 C  
HETATM   22  C   UNL     1      -9.768  13.274  67.228  1.00  0.00    -0.231 C  
BRANCH  21  23
HETATM   23  C   UNL     1     -11.692  11.984  68.205  1.00  0.00    -0.396 C  
BRANCH  23  24
HETATM   24  C   UNL     1     -11.353  11.025  69.328  1.00  0.00    -0.350 A  
HETATM   25  C   UNL     1     -11.945   9.938  71.427  1.00  0.00    -0.489 A  
HETATM   26  C   UNL     1     -10.713   9.288  71.455  1.00  0.00    -0.355 A  
HETATM   27  C   UNL     1     -10.112  10.378  69.372  1.00  0.00    -0.251 A  
HETATM   28  C   UNL     1      -9.803   9.508  70.421  1.00  0.00    -0.329 A  
HETATM   29  C   UNL     1     -12.262  10.802  70.371  1.00  0.00    -0.437 A  
BRANCH  26  30
HETATM   30  O   UNL     1     -10.312   8.383  72.399  1.00  0.00    -0.305 OA 
HETATM   31  C   UNL     1     -11.201   7.301  72.651  1.00  0.00    -0.313 C  
ENDBRANCH  26  30
ENDBRANCH  23  24
ENDBRANCH  21  23
ENDBRANCH   3  21
ENDBRANCH   2   3
TORSDOF 14
ENDMDL
MODEL      317
REMARK 921   NORMALIZED FREE ENERGY PREDICTED BY IDOCK:   -3.27 KCAL/MOL
REMARK 922        TOTAL FREE ENERGY PREDICTED BY IDOCK:   -8.74 KCAL/MOL
REMARK 923 INTER-LIGAND FREE ENERGY PREDICTED BY IDOCK:   -6.28 KCAL/MOL
REMARK 924 INTRA-LIGAND FREE ENERGY PREDICTED BY IDOCK:   -2.46 KCAL/MOL
REMARK 927      BINDING AFFINITY PREDICTED BY RF-SCORE:    0.00 PKD
ROOT
HETATM    1  C   UNL     1      -7.895   5.947  63.569  1.00  0.00    -0.103 C  
HETATM    2  C   UNL     1      -8.072   6.952  64.701  1.00  0.00    -0.082 C  
ENDROOT
BRANCH   2   3
HETATM    3  N   UNL     1      -7.401   6.661  65.972  1.00  0.00    -0.074 NA 
BRANCH   3   4
HETATM    4  C   UNL     1      -6.373   7.638  66.377  1.00  0.00    -0.046 C  
BRANCH   4   5
HETATM    5  C   UNL     1      -6.435   8.969  65.611  1.00  0.00    -0.067 C  
BRANCH   5   6
HETATM    6  C   UNL     1      -7.469   9.921  66.215  1.00  0.00    -0.102 C  
BRANCH   6   7
HETATM    7  C   UNL     1      -6.921  10.555  67.488  1.00  0.00    -0.080 C  
BRANCH   7   8
HETATM    8  O   UNL     1      -7.983  11.192  68.210  1.00  0.00    -0.114 OA 
BRANCH   8   9
HETATM    9  C   UNL     1      -8.005  12.545  68.128  1.00  0.00    -0.157 C  
HETATM   10  O   UNL     1      -7.281  13.323  68.727  1.00  0.00    -0.102 OA 
BRANCH   9  11
HETATM   11  C   UNL     1      -9.089  12.976  67.215  1.00  0.00    -0.209 A  
HETATM   12  C   UNL     1      -9.080  14.233  66.598  1.00  0.00    -0.249 A  
HETATM   13  C   UNL     1     -10.134  14.613  65.763  1.00  0.00    -0.340 A  
HETATM   14  C   UNL     1     -11.198  12.463  66.150  1.00  0.00    -0.364 A  
HETATM   15  C   UNL     1     -11.203  13.718  65.535  1.00  0.00    -0.299 A  
HETATM   16  C   UNL     1     -10.151  12.094  66.996  1.00  0.00    -0.219 A  
BRANCH  13  17
HETATM   17  O   UNL     1     -10.219  15.831  65.132  1.00  0.00    -0.430 OA 
HETATM   18  C   UNL     1     -10.276  16.995  65.945  1.00  0.00    -0.296 C  
ENDBRANCH  13  17
BRANCH  15  19
HETATM   19  O   UNL     1     -12.201  14.166  64.706  1.00  0.00    -0.411 OA 
HETATM   20  C   UNL     1     -12.403  13.465  63.486  1.00  0.00    -0.326 C  
ENDBRANCH  15  19
ENDBRANCH   9  11
ENDBRANCH   8   9
ENDBRANCH   7   8
ENDBRANCH   6   7
ENDBRANCH   5   6
ENDBRANCH   4   5
ENDBRANCH   3   4
BRANCH   3  21
HETATM   21  C   UNL     1      -8.259   6.234  67.106  1.00  0.00    -0.109 C  
HETATM   22  C   UNL     1      -8.455   4.713  67.237  1.00  0.00    -0.104 C  
BRANCH  21  23
HETATM   23  C   UNL     1      -7.835   6.800  68.494  1.00  0.00    -0.118 C  
BRANCH  23  24
HETATM   24  C   UNL     1      -8.793   7.793  69.120  1.00  0.00    -0.138 A  
HETATM   25  C   UNL     1     -10.816   9.144  68.990  1.00  0.00    -0.115 A  
HETATM   26  C   UNL     1     -10.555   9.683  70.248  1.00  0.00    -0.278 A  
HETATM   27  C   UNL     1      -8.532   8.350  70.378  1.00  0.00    -0.130 A  
HETATM   28  C   UNL     1      -9.413   9.277  70.940  1.00  0.00    -0.330 A  
HETATM   29  C   UNL     1      -9.940   8.206  68.430  1.00  0.00    -0.210 A  
BRANCH  26  30
HETATM   30  O   UNL     1     -11.361  10.561  70.922  1.00  0.00    -0.306 OA 
HETATM   31  C   UNL     1     -12.762  10.396  70.737  1.00  0.00    -0.371 C  
ENDBRANCH  26  30
ENDBRANCH  23  24
ENDBRANCH  21  23
ENDBRANCH   3  21
ENDBRANCH   2   3
TORSDOF 14
ENDMDL
MODEL      318
REMARK 921   NORMALIZED FREE ENERGY PREDICTED BY IDOCK:   -3.27 KCAL/MOL
REMARK 922        TOTAL FREE ENERGY PREDICTED BY IDOCK:   -8.73 KCAL/MOL
REMARK 923 INTER-LIGAND FREE ENERGY PREDICTED BY IDOCK:   -7.97 KCAL/MOL
REMARK 924 INTRA-LIGAND FREE ENERGY PREDICTED BY IDOCK:   -0.76 KCAL/MOL
REMARK 927      BINDING AFFINITY PREDICTED BY RF-SCORE:    0.00 PKD
ROOT
HETATM    1  C   UNL     1     -11.886  12.470  63.291  1.00  0.00    -0.498 C  
HETATM    2  C   UNL     1     -10.630  12.840  64.070  1.00  0.00    -0.416 C  
ENDROOT
BRANCH   2   3
HETATM    3  N   UNL     1     -10.764  13.846  65.130  1.00  0.00    -0.339 NA 
BRANCH   3   4
HETATM    4  C   UNL     1     -11.560  15.034  64.769  1.00  0.00    -0.395 C  
BRANCH   4   5
HETATM    5  C   UNL     1     -10.736  16.322  64.625  1.00  0.00     0.020 C  
BRANCH   5   6
HETATM    6  C   UNL     1     -10.817  17.189  65.883  1.00  0.00    -0.017 C  
BRANCH   6   7
HETATM    7  C   UNL     1     -10.640  18.660  65.522  1.00  0.00     0.028 C  
BRANCH   7   8
HETATM    8  O   UNL     1      -9.275  19.048  65.722  1.00  0.00    -0.385 OA 
BRANCH   8   9
HETATM    9  C   UNL     1      -8.885  19.133  67.019  1.00  0.00    -0.295 C  
HETATM   10  O   UNL     1      -8.768  20.152  67.678  1.00  0.00    -0.324 OA 
BRANCH   9  11
HETATM   11  C   UNL     1      -8.568  17.782  67.537  1.00  0.00    -0.228 A  
HETATM   12  C   UNL     1      -9.274  17.216  68.605  1.00  0.00    -0.263 A  
HETATM   13  C   UNL     1      -8.928  15.949  69.084  1.00  0.00    -0.256 A  
HETATM   14  C   UNL     1      -7.175  15.810  67.407  1.00  0.00    -0.235 A  
HETATM   15  C   UNL     1      -7.869  15.238  68.477  1.00  0.00    -0.134 A  
HETATM   16  C   UNL     1      -7.514  17.083  66.943  1.00  0.00    -0.248 A  
BRANCH  13  17
HETATM   17  O   UNL     1      -9.552  15.324  70.136  1.00  0.00    -0.100 OA 
HETATM   18  C   UNL     1     -10.889  15.703  70.433  1.00  0.00    -0.340 C  
ENDBRANCH  13  17
BRANCH  15  19
HETATM   19  O   UNL     1      -7.589  14.003  69.005  1.00  0.00    -0.107 OA 
HETATM   20  C   UNL     1      -7.588  12.895  68.116  1.00  0.00    -0.135 C  
ENDBRANCH  15  19
ENDBRANCH   9  11
ENDBRANCH   8   9
ENDBRANCH   7   8
ENDBRANCH   6   7
ENDBRANCH   5   6
ENDBRANCH   4   5
ENDBRANCH   3   4
BRANCH   3  21
HETATM   21  C   UNL     1     -11.067  13.349  66.496  1.00  0.00    -0.297 C  
HETATM   22  C   UNL     1     -12.015  14.240  67.317  1.00  0.00    -0.439 C  
BRANCH  21  23
HETATM   23  C   UNL     1     -11.589  11.882  66.556  1.00  0.00    -0.328 C  
BRANCH  23  24
HETATM   24  C   UNL     1     -11.135  11.071  67.751  1.00  0.00    -0.356 A  
HETATM   25  C   UNL     1     -11.388  10.434  70.090  1.00  0.00    -0.397 A  
HETATM   26  C   UNL     1     -10.267   9.610  70.002  1.00  0.00    -0.255 A  
HETATM   27  C   UNL     1     -10.004  10.250  67.676  1.00  0.00    -0.212 A  
HETATM   28  C   UNL     1      -9.583   9.518  68.789  1.00  0.00    -0.159 A  
HETATM   29  C   UNL     1     -11.817  11.160  68.972  1.00  0.00    -0.418 A  
BRANCH  26  30
HETATM   30  O   UNL     1      -9.785   8.812  71.003  1.00  0.00    -0.191 OA 
HETATM   31  C   UNL     1     -10.536   8.797  72.211  1.00  0.00    -0.249 C  
ENDBRANCH  26  30
ENDBRANCH  23  24
ENDBRANCH  21  23
ENDBRANCH   3  21
ENDBRANCH   2   3
TORSDOF 14
ENDMDL
MODEL      319
REMARK 921   NORMALIZED FREE ENERGY PREDICTED BY IDOCK:   -3.26 KCAL/MOL
REMARK 922        TOTAL FREE ENERGY PREDICTED BY IDOCK:   -8.73 KCAL/MOL
REMARK 923 INTER-LIGAND FREE ENERGY PREDICTED BY IDOCK:   -7.33 KCAL/MOL
REMARK 924 INTRA-LIGAND FREE ENERGY PREDICTED BY IDOCK:   -1.40 KCAL/MOL
REMARK 927      BINDING AFFINITY PREDICTED BY RF-SCORE:    0.00 PKD
ROOT
HETATM    1  C   UNL     1     -11.466  10.826  68.503  1.00  0.00    -0.362 C  
HETATM    2  C   UNL     1     -10.820   9.788  69.414  1.00  0.00    -0.232 C  
ENDROOT
BRANCH   2   3
HETATM    3  N   UNL     1      -9.822   8.894  68.816  1.00  0.00    -0.169 NA 
BRANCH   3   4
HETATM    4  C   UNL     1      -8.449   9.057  69.327  1.00  0.00    -0.128 C  
BRANCH   4   5
HETATM    5  C   UNL     1      -7.526   9.865  68.402  1.00  0.00    -0.082 C  
BRANCH   5   6
HETATM    6  C   UNL     1      -7.303  11.284  68.926  1.00  0.00    -0.115 C  
BRANCH   6   7
HETATM    7  C   UNL     1      -8.049  12.290  68.057  1.00  0.00    -0.156 C  
BRANCH   7   8
HETATM    8  O   UNL     1      -7.838  13.616  68.558  1.00  0.00    -0.136 OA 
BRANCH   8   9
HETATM    9  C   UNL     1      -7.123  14.433  67.744  1.00  0.00    -0.176 C  
HETATM   10  O   UNL     1      -6.058  14.176  67.208  1.00  0.00    -0.304 OA 
BRANCH   9  11
HETATM   11  C   UNL     1      -7.807  15.741  67.619  1.00  0.00    -0.168 A  
HETATM   12  C   UNL     1      -7.476  16.828  68.438  1.00  0.00    -0.202 A  
HETATM   13  C   UNL     1      -8.162  18.040  68.307  1.00  0.00    -0.292 A  
HETATM   14  C   UNL     1      -9.500  17.075  66.523  1.00  0.00    -0.295 A  
HETATM   15  C   UNL     1      -9.183  18.164  67.339  1.00  0.00    -0.257 A  
HETATM   16  C   UNL     1      -8.823  15.862  66.668  1.00  0.00    -0.316 A  
BRANCH  13  17
HETATM   17  O   UNL     1      -7.918  19.151  69.077  1.00  0.00    -0.328 OA 
HETATM   18  C   UNL     1      -6.607  19.698  69.055  1.00  0.00    -0.323 C  
ENDBRANCH  13  17
BRANCH  15  19
HETATM   19  O   UNL     1      -9.810  19.383  67.275  1.00  0.00    -0.317 OA 
HETATM   20  C   UNL     1      -9.891  20.012  66.003  1.00  0.00    -0.406 C  
ENDBRANCH  15  19
ENDBRANCH   9  11
ENDBRANCH   8   9
ENDBRANCH   7   8
ENDBRANCH   6   7
ENDBRANCH   5   6
ENDBRANCH   4   5
ENDBRANCH   3   4
BRANCH   3  21
HETATM   21  C   UNL     1     -10.205   7.468  68.654  1.00  0.00    -0.197 C  
HETATM   22  C   UNL     1     -10.478   7.029  67.204  1.00  0.00    -0.383 C  
BRANCH  21  23
HETATM   23  C   UNL     1      -9.220   6.451  69.303  1.00  0.00    -0.135 C  
BRANCH  23  24
HETATM   24  C   UNL     1      -9.726   5.746  70.545  1.00  0.00    -0.225 A  
HETATM   25  C   UNL     1     -10.860   5.821  72.700  1.00  0.00    -0.296 A  
HETATM   26  C   UNL     1     -10.622   4.461  72.889  1.00  0.00    -0.193 A  
HETATM   27  C   UNL     1      -9.480   4.384  70.750  1.00  0.00    -0.243 A  
HETATM   28  C   UNL     1      -9.936   3.746  71.907  1.00  0.00    -0.230 A  
HETATM   29  C   UNL     1     -10.413   6.459  71.536  1.00  0.00    -0.256 A  
BRANCH  26  30
HETATM   30  O   UNL     1     -11.055   3.717  73.953  1.00  0.00    -0.214 OA 
HETATM   31  C   UNL     1     -10.981   2.304  73.803  1.00  0.00    -0.193 C  
ENDBRANCH  26  30
ENDBRANCH  23  24
ENDBRANCH  21  23
ENDBRANCH   3  21
ENDBRANCH   2   3
TORSDOF 14
ENDMDL
MODEL      320
REMARK 921   NORMALIZED FREE ENERGY PREDICTED BY IDOCK:   -3.25 KCAL/MOL
REMARK 922        TOTAL FREE ENERGY PREDICTED BY IDOCK:   -8.69 KCAL/MOL
REMARK 923 INTER-LIGAND FREE ENERGY PREDICTED BY IDOCK:   -7.32 KCAL/MOL
REMARK 924 INTRA-LIGAND FREE ENERGY PREDICTED BY IDOCK:   -1.37 KCAL/MOL
REMARK 927      BINDING AFFINITY PREDICTED BY RF-SCORE:    0.00 PKD
ROOT
HETATM    1  C   UNL     1     -11.641  12.922  68.833  1.00  0.00    -0.360 C  
HETATM    2  C   UNL     1     -11.284  12.237  67.519  1.00  0.00    -0.297 C  
ENDROOT
BRANCH   2   3
HETATM    3  N   UNL     1      -9.925  11.702  67.384  1.00  0.00    -0.183 NA 
BRANCH   3   4
HETATM    4  C   UNL     1      -9.001  12.055  68.477  1.00  0.00    -0.098 C  
BRANCH   4   5
HETATM    5  C   UNL     1      -8.034  13.200  68.138  1.00  0.00    -0.154 C  
BRANCH   5   6
HETATM    6  C   UNL     1      -6.661  12.988  68.775  1.00  0.00    -0.096 C  
BRANCH   6   7
HETATM    7  C   UNL     1      -6.377  14.086  69.795  1.00  0.00    -0.134 C  
BRANCH   7   8
HETATM    8  O   UNL     1      -7.328  15.147  69.642  1.00  0.00    -0.195 OA 
BRANCH   8   9
HETATM    9  C   UNL     1      -6.791  16.382  69.480  1.00  0.00    -0.187 C  
HETATM   10  O   UNL     1      -5.858  16.858  70.104  1.00  0.00    -0.224 OA 
BRANCH   9  11
HETATM   11  C   UNL     1      -7.540  17.122  68.438  1.00  0.00    -0.231 A  
HETATM   12  C   UNL     1      -8.324  16.463  67.483  1.00  0.00    -0.176 A  
HETATM   13  C   UNL     1      -8.995  17.195  66.499  1.00  0.00    -0.272 A  
HETATM   14  C   UNL     1      -8.109  19.252  67.443  1.00  0.00    -0.306 A  
HETATM   15  C   UNL     1      -8.888  18.603  66.480  1.00  0.00    -0.304 A  
HETATM   16  C   UNL     1      -7.427  18.515  68.413  1.00  0.00    -0.315 A  
BRANCH  13  17
HETATM   17  O   UNL     1      -9.769  16.633  65.513  1.00  0.00    -0.538 OA 
HETATM   18  C   UNL     1      -9.845  15.216  65.457  1.00  0.00    -0.321 C  
ENDBRANCH  13  17
BRANCH  15  19
HETATM   19  O   UNL     1      -9.574  19.249  65.482  1.00  0.00    -0.216 OA 
HETATM   20  C   UNL     1     -10.797  19.883  65.832  1.00  0.00    -0.234 C  
ENDBRANCH  15  19
ENDBRANCH   9  11
ENDBRANCH   8   9
ENDBRANCH   7   8
ENDBRANCH   6   7
ENDBRANCH   5   6
ENDBRANCH   4   5
ENDBRANCH   3   4
BRANCH   3  21
HETATM   21  C   UNL     1      -9.798  10.283  66.966  1.00  0.00    -0.193 C  
HETATM   22  C   UNL     1      -8.405   9.664  67.177  1.00  0.00    -0.121 C  
BRANCH  21  23
HETATM   23  C   UNL     1     -10.864   9.325  67.577  1.00  0.00    -0.182 C  
BRANCH  23  24
HETATM   24  C   UNL     1     -10.644   8.934  69.024  1.00  0.00    -0.203 A  
HETATM   25  C   UNL     1     -11.038   9.319  71.398  1.00  0.00    -0.437 A  
HETATM   26  C   UNL     1     -10.200   8.255  71.724  1.00  0.00    -0.230 A  
HETATM   27  C   UNL     1      -9.794   7.875  69.362  1.00  0.00    -0.180 A  
HETATM   28  C   UNL     1      -9.585   7.533  70.701  1.00  0.00    -0.171 A  
HETATM   29  C   UNL     1     -11.257   9.656  70.056  1.00  0.00    -0.271 A  
BRANCH  26  30
HETATM   30  O   UNL     1      -9.952   7.796  72.989  1.00  0.00    -0.243 OA 
HETATM   31  C   UNL     1      -8.717   8.195  73.572  1.00  0.00    -0.249 C  
ENDBRANCH  26  30
ENDBRANCH  23  24
ENDBRANCH  21  23
ENDBRANCH   3  21
ENDBRANCH   2   3
TORSDOF 14
ENDMDL
MODEL      321
REMARK 921   NORMALIZED FREE ENERGY PREDICTED BY IDOCK:   -3.24 KCAL/MOL
REMARK 922        TOTAL FREE ENERGY PREDICTED BY IDOCK:   -8.69 KCAL/MOL
REMARK 923 INTER-LIGAND FREE ENERGY PREDICTED BY IDOCK:   -7.12 KCAL/MOL
REMARK 924 INTRA-LIGAND FREE ENERGY PREDICTED BY IDOCK:   -1.57 KCAL/MOL
REMARK 927      BINDING AFFINITY PREDICTED BY RF-SCORE:    0.00 PKD
ROOT
HETATM    1  C   UNL     1      -7.039  19.146  68.096  1.00  0.00    -0.289 C  
HETATM    2  C   UNL     1      -8.072  18.138  68.586  1.00  0.00    -0.288 C  
ENDROOT
BRANCH   2   3
HETATM    3  N   UNL     1      -8.164  16.863  67.866  1.00  0.00    -0.193 NA 
BRANCH   3   4
HETATM    4  C   UNL     1      -8.731  16.950  66.507  1.00  0.00    -0.269 C  
BRANCH   4   5
HETATM    5  C   UNL     1     -10.214  17.349  66.468  1.00  0.00    -0.329 C  
BRANCH   5   6
HETATM    6  C   UNL     1     -11.108  16.166  66.093  1.00  0.00     0.087 C  
BRANCH   6   7
HETATM    7  C   UNL     1     -10.723  15.630  64.718  1.00  0.00    -0.276 C  
BRANCH   7   8
HETATM    8  O   UNL     1     -10.390  14.239  64.815  1.00  0.00    -0.433 OA 
BRANCH   8   9
HETATM    9  C   UNL     1     -11.448  13.391  64.792  1.00  0.00    -0.336 C  
HETATM   10  O   UNL     1     -12.418  13.457  64.055  1.00  0.00    -0.632 OA 
BRANCH   9  11
HETATM   11  C   UNL     1     -11.289  12.361  65.843  1.00  0.00    -0.399 A  
HETATM   12  C   UNL     1     -11.901  12.484  67.097  1.00  0.00    -0.386 A  
HETATM   13  C   UNL     1     -11.706  11.503  68.074  1.00  0.00    -0.273 A  
HETATM   14  C   UNL     1     -10.299  10.263  66.528  1.00  0.00    -0.276 A  
HETATM   15  C   UNL     1     -10.898  10.380  67.785  1.00  0.00    -0.297 A  
HETATM   16  C   UNL     1     -10.483  11.255  65.562  1.00  0.00    -0.323 A  
BRANCH  13  17
HETATM   17  O   UNL     1     -12.250  11.550  69.334  1.00  0.00    -0.289 OA 
HETATM   18  C   UNL     1     -11.936  12.670  70.149  1.00  0.00    -0.299 C  
ENDBRANCH  13  17
BRANCH  15  19
HETATM   19  O   UNL     1     -10.754   9.464  68.796  1.00  0.00    -0.220 OA 
HETATM   20  C   UNL     1      -9.464   9.326  69.377  1.00  0.00    -0.168 C  
ENDBRANCH  15  19
ENDBRANCH   9  11
ENDBRANCH   8   9
ENDBRANCH   7   8
ENDBRANCH   6   7
ENDBRANCH   5   6
ENDBRANCH   4   5
ENDBRANCH   3   4
BRANCH   3  21
HETATM   21  C   UNL     1      -6.987  15.962  67.937  1.00  0.00    -0.139 C  
HETATM   22  C   UNL     1      -5.713  16.500  67.261  1.00  0.00    -0.180 C  
BRANCH  21  23
HETATM   23  C   UNL     1      -6.620  15.480  69.372  1.00  0.00    -0.158 C  
BRANCH  23  24
HETATM   24  C   UNL     1      -6.407  13.989  69.532  1.00  0.00    -0.121 A  
HETATM   25  C   UNL     1      -5.191  12.124  70.522  1.00  0.00    -0.126 A  
HETATM   26  C   UNL     1      -5.959  11.217  69.794  1.00  0.00    -0.103 A  
HETATM   27  C   UNL     1      -7.165  13.071  68.795  1.00  0.00    -0.082 A  
HETATM   28  C   UNL     1      -6.949  11.698  68.936  1.00  0.00    -0.109 A  
HETATM   29  C   UNL     1      -5.413  13.500  70.390  1.00  0.00    -0.136 A  
BRANCH  26  30
HETATM   30  O   UNL     1      -5.876   9.854  69.879  1.00  0.00    -0.039 OA 
HETATM   31  C   UNL     1      -5.786   9.152  68.645  1.00  0.00    -0.041 C  
ENDBRANCH  26  30
ENDBRANCH  23  24
ENDBRANCH  21  23
ENDBRANCH   3  21
ENDBRANCH   2   3
TORSDOF 14
ENDMDL
MODEL      322
REMARK 921   NORMALIZED FREE ENERGY PREDICTED BY IDOCK:   -3.21 KCAL/MOL
REMARK 922        TOTAL FREE ENERGY PREDICTED BY IDOCK:   -8.63 KCAL/MOL
REMARK 923 INTER-LIGAND FREE ENERGY PREDICTED BY IDOCK:   -6.78 KCAL/MOL
REMARK 924 INTRA-LIGAND FREE ENERGY PREDICTED BY IDOCK:   -1.85 KCAL/MOL
REMARK 927      BINDING AFFINITY PREDICTED BY RF-SCORE:    0.00 PKD
ROOT
HETATM    1  C   UNL     1      -8.166   9.178  70.576  1.00  0.00    -0.203 C  
HETATM    2  C   UNL     1      -9.687   9.218  70.667  1.00  0.00    -0.272 C  
ENDROOT
BRANCH   2   3
HETATM    3  N   UNL     1     -10.371   7.988  71.080  1.00  0.00    -0.196 NA 
BRANCH   3   4
HETATM    4  C   UNL     1     -11.210   7.358  70.044  1.00  0.00    -0.180 C  
BRANCH   4   5
HETATM    5  C   UNL     1     -11.128   8.040  68.669  1.00  0.00     0.300 C  
BRANCH   5   6
HETATM    6  C   UNL     1     -10.465   7.136  67.629  1.00  0.00    -0.306 C  
BRANCH   6   7
HETATM    7  C   UNL     1      -9.524   7.949  66.747  1.00  0.00    -0.201 C  
BRANCH   7   8
HETATM    8  O   UNL     1     -10.139   9.197  66.402  1.00  0.00    -0.283 OA 
BRANCH   8   9
HETATM    9  C   UNL     1      -9.743   9.725  65.217  1.00  0.00    -0.300 C  
HETATM   10  O   UNL     1      -8.963   9.228  64.422  1.00  0.00    -0.198 OA 
BRANCH   9  11
HETATM   11  C   UNL     1     -10.370  11.053  65.025  1.00  0.00    -0.360 A  
HETATM   12  C   UNL     1     -10.635  11.908  66.102  1.00  0.00    -0.295 A  
HETATM   13  C   UNL     1     -11.252  13.143  65.884  1.00  0.00    -0.289 A  
HETATM   14  C   UNL     1     -11.319  12.672  63.500  1.00  0.00    -0.527 A  
HETATM   15  C   UNL     1     -11.596  13.530  64.569  1.00  0.00    -0.381 A  
HETATM   16  C   UNL     1     -10.718  11.432  63.726  1.00  0.00    -0.470 A  
BRANCH  13  17
HETATM   17  O   UNL     1     -11.566  14.036  66.879  1.00  0.00    -0.346 OA 
HETATM   18  C   UNL     1     -12.260  13.542  68.016  1.00  0.00    -0.123 C  
ENDBRANCH  13  17
BRANCH  15  19
HETATM   19  O   UNL     1     -12.200  14.755  64.438  1.00  0.00    -0.491 OA 
HETATM   20  C   UNL     1     -11.356  15.895  64.342  1.00  0.00    -0.267 C  
ENDBRANCH  15  19
ENDBRANCH   9  11
ENDBRANCH   8   9
ENDBRANCH   7   8
ENDBRANCH   6   7
ENDBRANCH   5   6
ENDBRANCH   4   5
ENDBRANCH   3   4
BRANCH   3  21
HETATM   21  C   UNL     1      -9.573   6.998  71.847  1.00  0.00    -0.150 C  
HETATM   22  C   UNL     1      -9.656   7.139  73.377  1.00  0.00    -0.249 C  
BRANCH  21  23
HETATM   23  C   UNL     1      -9.845   5.510  71.471  1.00  0.00    -0.221 C  
BRANCH  23  24
HETATM   24  C   UNL     1      -8.983   4.944  70.361  1.00  0.00    -0.151 A  
HETATM   25  C   UNL     1      -6.970   5.043  68.992  1.00  0.00    -0.052 A  
HETATM   26  C   UNL     1      -7.395   3.936  68.260  1.00  0.00    -0.059 A  
HETATM   27  C   UNL     1      -9.407   3.840  69.613  1.00  0.00    -0.245 A  
HETATM   28  C   UNL     1      -8.612   3.335  68.580  1.00  0.00    -0.122 A  
HETATM   29  C   UNL     1      -7.760   5.544  70.034  1.00  0.00    -0.078 A  
BRANCH  26  30
HETATM   30  O   UNL     1      -6.689   3.323  67.261  1.00  0.00    -0.043 OA 
HETATM   31  C   UNL     1      -5.809   4.154  66.512  1.00  0.00    -0.023 C  
ENDBRANCH  26  30
ENDBRANCH  23  24
ENDBRANCH  21  23
ENDBRANCH   3  21
ENDBRANCH   2   3
TORSDOF 14
ENDMDL
MODEL      323
REMARK 921   NORMALIZED FREE ENERGY PREDICTED BY IDOCK:   -3.18 KCAL/MOL
REMARK 922        TOTAL FREE ENERGY PREDICTED BY IDOCK:   -8.58 KCAL/MOL
REMARK 923 INTER-LIGAND FREE ENERGY PREDICTED BY IDOCK:   -7.51 KCAL/MOL
REMARK 924 INTRA-LIGAND FREE ENERGY PREDICTED BY IDOCK:   -1.06 KCAL/MOL
REMARK 927      BINDING AFFINITY PREDICTED BY RF-SCORE:    0.00 PKD
ROOT
HETATM    1  C   UNL     1      -9.420  10.181  69.480  1.00  0.00    -0.235 C  
HETATM    2  C   UNL     1     -10.610   9.616  68.714  1.00  0.00    -0.216 C  
ENDROOT
BRANCH   2   3
HETATM    3  N   UNL     1     -10.811  10.086  67.339  1.00  0.00    -0.277 NA 
BRANCH   3   4
HETATM    4  C   UNL     1     -10.532  11.517  67.118  1.00  0.00    -0.224 C  
BRANCH   4   5
HETATM    5  C   UNL     1     -11.717  12.444  67.430  1.00  0.00    -0.417 C  
BRANCH   5   6
HETATM    6  C   UNL     1     -11.330  13.918  67.306  1.00  0.00    -0.344 C  
BRANCH   6   7
HETATM    7  C   UNL     1      -9.990  14.170  67.990  1.00  0.00    -0.226 C  
BRANCH   7   8
HETATM    8  O   UNL     1      -9.670  15.566  67.931  1.00  0.00    -0.210 OA 
BRANCH   8   9
HETATM    9  C   UNL     1      -8.568  15.934  68.630  1.00  0.00    -0.198 C  
HETATM   10  O   UNL     1      -8.039  15.311  69.535  1.00  0.00    -0.231 OA 
BRANCH   9  11
HETATM   11  C   UNL     1      -8.097  17.259  68.165  1.00  0.00    -0.229 A  
HETATM   12  C   UNL     1      -7.499  18.178  69.036  1.00  0.00    -0.177 A  
HETATM   13  C   UNL     1      -7.091  19.430  68.565  1.00  0.00    -0.315 A  
HETATM   14  C   UNL     1      -7.866  18.830  66.341  1.00  0.00    -0.297 A  
HETATM   15  C   UNL     1      -7.275  19.758  67.204  1.00  0.00    -0.222 A  
HETATM   16  C   UNL     1      -8.287  17.588  66.821  1.00  0.00    -0.277 A  
BRANCH  13  17
HETATM   17  O   UNL     1      -6.514  20.399  69.350  1.00  0.00    -0.282 OA 
HETATM   18  C   UNL     1      -5.815  19.980  70.513  1.00  0.00    -0.332 C  
ENDBRANCH  13  17
BRANCH  15  19
HETATM   19  O   UNL     1      -6.851  21.005  66.820  1.00  0.00    -0.292 OA 
HETATM   20  C   UNL     1      -5.816  21.075  65.849  1.00  0.00    -0.255 C  
ENDBRANCH  15  19
ENDBRANCH   9  11
ENDBRANCH   8   9
ENDBRANCH   7   8
ENDBRANCH   6   7
ENDBRANCH   5   6
ENDBRANCH   4   5
ENDBRANCH   3   4
BRANCH   3  21
HETATM   21  C   UNL     1     -10.284   9.227  66.248  1.00  0.00    -0.203 C  
HETATM   22  C   UNL     1      -9.901   9.974  64.959  1.00  0.00    -0.374 C  
BRANCH  21  23
HETATM   23  C   UNL     1      -9.096   8.307  66.660  1.00  0.00    -0.204 C  
BRANCH  23  24
HETATM   24  C   UNL     1      -9.219   6.853  66.256  1.00  0.00    -0.157 A  
HETATM   25  C   UNL     1     -10.403   4.726  66.359  1.00  0.00    -0.312 A  
HETATM   26  C   UNL     1      -9.431   4.129  65.559  1.00  0.00    -0.176 A  
HETATM   27  C   UNL     1      -8.240   6.241  65.464  1.00  0.00    -0.145 A  
HETATM   28  C   UNL     1      -8.355   4.894  65.109  1.00  0.00    -0.133 A  
HETATM   29  C   UNL     1     -10.296   6.079  66.705  1.00  0.00    -0.296 A  
BRANCH  26  30
HETATM   30  O   UNL     1      -9.454   2.837  65.109  1.00  0.00    -0.140 OA 
HETATM   31  C   UNL     1      -8.721   1.890  65.879  1.00  0.00    -0.116 C  
ENDBRANCH  26  30
ENDBRANCH  23  24
ENDBRANCH  21  23
ENDBRANCH   3  21
ENDBRANCH   2   3
TORSDOF 14
ENDMDL
MODEL      324
REMARK 921   NORMALIZED FREE ENERGY PREDICTED BY IDOCK:   -3.17 KCAL/MOL
REMARK 922        TOTAL FREE ENERGY PREDICTED BY IDOCK:   -8.56 KCAL/MOL
REMARK 923 INTER-LIGAND FREE ENERGY PREDICTED BY IDOCK:   -6.29 KCAL/MOL
REMARK 924 INTRA-LIGAND FREE ENERGY PREDICTED BY IDOCK:   -2.27 KCAL/MOL
REMARK 927      BINDING AFFINITY PREDICTED BY RF-SCORE:    0.00 PKD
ROOT
HETATM    1  C   UNL     1      -7.931   8.636  70.648  1.00  0.00    -0.113 C  
HETATM    2  C   UNL     1      -9.312   9.068  71.129  1.00  0.00    -0.266 C  
ENDROOT
BRANCH   2   3
HETATM    3  N   UNL     1      -9.884   8.347  72.272  1.00  0.00    -0.290 NA 
BRANCH   3   4
HETATM    4  C   UNL     1     -11.205   7.739  72.032  1.00  0.00    -0.278 C  
BRANCH   4   5
HETATM    5  C   UNL     1     -11.661   7.784  70.565  1.00  0.00    -0.173 C  
BRANCH   5   6
HETATM    6  C   UNL     1     -11.483   6.430  69.877  1.00  0.00    -0.483 C  
BRANCH   6   7
HETATM    7  C   UNL     1     -10.575   6.572  68.660  1.00  0.00    -0.245 C  
BRANCH   7   8
HETATM    8  O   UNL     1     -10.463   7.955  68.297  1.00  0.00    -0.202 OA 
BRANCH   8   9
HETATM    9  C   UNL     1      -9.665   8.207  67.230  1.00  0.00    -0.178 C  
HETATM   10  O   UNL     1      -8.879   7.433  66.710  1.00  0.00    -0.126 OA 
BRANCH   9  11
HETATM   11  C   UNL     1      -9.845   9.609  66.788  1.00  0.00    -0.270 A  
HETATM   12  C   UNL     1     -10.001   9.943  65.437  1.00  0.00    -0.349 A  
HETATM   13  C   UNL     1     -10.143  11.281  65.057  1.00  0.00    -0.279 A  
HETATM   14  C   UNL     1      -9.989  11.947  67.389  1.00  0.00    -0.201 A  
HETATM   15  C   UNL     1     -10.138  12.293  66.043  1.00  0.00    -0.248 A  
HETATM   16  C   UNL     1      -9.831  10.610  67.762  1.00  0.00    -0.187 A  
BRANCH  13  17
HETATM   17  O   UNL     1     -10.283  11.703  63.757  1.00  0.00    -0.312 OA 
HETATM   18  C   UNL     1      -9.322  11.259  62.809  1.00  0.00    -0.332 C  
ENDBRANCH  13  17
BRANCH  15  19
HETATM   19  O   UNL     1     -10.280  13.580  65.589  1.00  0.00    -0.287 OA 
HETATM   20  C   UNL     1     -11.152  14.437  66.312  1.00  0.00    -0.331 C  
ENDBRANCH  15  19
ENDBRANCH   9  11
ENDBRANCH   8   9
ENDBRANCH   7   8
ENDBRANCH   6   7
ENDBRANCH   5   6
ENDBRANCH   4   5
ENDBRANCH   3   4
BRANCH   3  21
HETATM   21  C   UNL     1      -8.973   7.452  73.029  1.00  0.00    -0.147 C  
HETATM   22  C   UNL     1      -8.367   8.066  74.304  1.00  0.00    -0.285 C  
BRANCH  21  23
HETATM   23  C   UNL     1      -9.576   6.061  73.388  1.00  0.00    -0.144 C  
BRANCH  23  24
HETATM   24  C   UNL     1      -8.854   4.862  72.810  1.00  0.00    -0.123 A  
HETATM   25  C   UNL     1      -8.050   3.609  70.881  1.00  0.00    -0.070 A  
HETATM   26  C   UNL     1      -7.562   2.606  71.716  1.00  0.00    -0.044 A  
HETATM   27  C   UNL     1      -8.372   3.843  73.641  1.00  0.00    -0.088 A  
HETATM   28  C   UNL     1      -7.721   2.733  73.097  1.00  0.00    -0.051 A  
HETATM   29  C   UNL     1      -8.693   4.728  71.425  1.00  0.00    -0.143 A  
BRANCH  26  30
HETATM   30  O   UNL     1      -6.870   1.498  71.310  1.00  0.00    -0.023 OA 
HETATM   31  C   UNL     1      -6.243   1.580  70.036  1.00  0.00    -0.024 C  
ENDBRANCH  26  30
ENDBRANCH  23  24
ENDBRANCH  21  23
ENDBRANCH   3  21
ENDBRANCH   2   3
TORSDOF 14
ENDMDL
MODEL      325
REMARK 921   NORMALIZED FREE ENERGY PREDICTED BY IDOCK:   -3.17 KCAL/MOL
REMARK 922        TOTAL FREE ENERGY PREDICTED BY IDOCK:   -8.56 KCAL/MOL
REMARK 923 INTER-LIGAND FREE ENERGY PREDICTED BY IDOCK:   -7.33 KCAL/MOL
REMARK 924 INTRA-LIGAND FREE ENERGY PREDICTED BY IDOCK:   -1.22 KCAL/MOL
REMARK 927      BINDING AFFINITY PREDICTED BY RF-SCORE:    0.00 PKD
ROOT
HETATM    1  C   UNL     1      -6.317   8.133  66.946  1.00  0.00    -0.056 C  
HETATM    2  C   UNL     1      -7.709   8.669  66.632  1.00  0.00    -0.096 C  
ENDROOT
BRANCH   2   3
HETATM    3  N   UNL     1      -8.179   9.822  67.410  1.00  0.00    -0.114 NA 
BRANCH   3   4
HETATM    4  C   UNL     1      -7.454  11.082  67.163  1.00  0.00    -0.117 C  
BRANCH   4   5
HETATM    5  C   UNL     1      -6.649  11.590  68.370  1.00  0.00    -0.060 C  
BRANCH   5   6
HETATM    6  C   UNL     1      -5.608  12.631  67.957  1.00  0.00    -0.087 C  
BRANCH   6   7
HETATM    7  C   UNL     1      -6.147  14.038  68.194  1.00  0.00    -0.129 C  
BRANCH   7   8
HETATM    8  O   UNL     1      -7.387  13.967  68.910  1.00  0.00    -0.121 OA 
BRANCH   8   9
HETATM    9  C   UNL     1      -8.163  15.077  68.827  1.00  0.00    -0.168 C  
HETATM   10  O   UNL     1      -8.009  16.121  69.438  1.00  0.00    -0.227 OA 
BRANCH   9  11
HETATM   11  C   UNL     1      -9.290  14.833  67.898  1.00  0.00    -0.193 A  
HETATM   12  C   UNL     1      -9.169  13.972  66.800  1.00  0.00    -0.280 A  
HETATM   13  C   UNL     1     -10.247  13.787  65.930  1.00  0.00    -0.313 A  
HETATM   14  C   UNL     1     -11.576  15.316  67.272  1.00  0.00    -0.164 A  
HETATM   15  C   UNL     1     -11.463  14.465  66.169  1.00  0.00    -0.357 A  
HETATM   16  C   UNL     1     -10.490  15.510  68.129  1.00  0.00    -0.259 A  
BRANCH  13  17
HETATM   17  O   UNL     1     -10.213  12.978  64.820  1.00  0.00    -0.321 OA 
HETATM   18  C   UNL     1     -10.615  11.624  64.975  1.00  0.00    -0.289 C  
ENDBRANCH  13  17
BRANCH  15  19
HETATM   19  O   UNL     1     -12.472  14.233  65.269  1.00  0.00    -0.441 OA 
HETATM   20  C   UNL     1     -12.483  15.013  64.081  1.00  0.00    -0.026 C  
ENDBRANCH  15  19
ENDBRANCH   9  11
ENDBRANCH   8   9
ENDBRANCH   7   8
ENDBRANCH   6   7
ENDBRANCH   5   6
ENDBRANCH   4   5
ENDBRANCH   3   4
BRANCH   3  21
HETATM   21  C   UNL     1      -9.647  10.018  67.504  1.00  0.00    -0.153 C  
HETATM   22  C   UNL     1     -10.485   8.731  67.394  1.00  0.00    -0.349 C  
BRANCH  21  23
HETATM   23  C   UNL     1     -10.120  10.811  68.759  1.00  0.00    -0.202 C  
BRANCH  23  24
HETATM   24  C   UNL     1     -10.341   9.989  70.012  1.00  0.00    -0.323 A  
HETATM   25  C   UNL     1      -9.478   8.515  71.750  1.00  0.00    -0.328 A  
HETATM   26  C   UNL     1     -10.749   8.407  72.311  1.00  0.00    -0.347 A  
HETATM   27  C   UNL     1     -11.617   9.863  70.575  1.00  0.00    -0.386 A  
HETATM   28  C   UNL     1     -11.813   9.089  71.721  1.00  0.00    -0.442 A  
HETATM   29  C   UNL     1      -9.276   9.300  70.608  1.00  0.00    -0.321 A  
BRANCH  26  30
HETATM   30  O   UNL     1     -11.060   7.719  73.452  1.00  0.00    -0.316 OA 
HETATM   31  C   UNL     1     -10.129   6.724  73.860  1.00  0.00    -0.346 C  
ENDBRANCH  26  30
ENDBRANCH  23  24
ENDBRANCH  21  23
ENDBRANCH   3  21
ENDBRANCH   2   3
TORSDOF 14
ENDMDL
MODEL      326
REMARK 921   NORMALIZED FREE ENERGY PREDICTED BY IDOCK:   -3.16 KCAL/MOL
REMARK 922        TOTAL FREE ENERGY PREDICTED BY IDOCK:   -8.54 KCAL/MOL
REMARK 923 INTER-LIGAND FREE ENERGY PREDICTED BY IDOCK:   -6.08 KCAL/MOL
REMARK 924 INTRA-LIGAND FREE ENERGY PREDICTED BY IDOCK:   -2.46 KCAL/MOL
REMARK 927      BINDING AFFINITY PREDICTED BY RF-SCORE:    0.00 PKD
ROOT
HETATM    1  C   UNL     1     -10.527  17.416  68.514  1.00  0.00    -0.370 C  
HETATM    2  C   UNL     1     -10.863  15.937  68.363  1.00  0.00    -0.316 C  
ENDROOT
BRANCH   2   3
HETATM    3  N   UNL     1     -10.721  15.345  67.028  1.00  0.00    -0.317 NA 
BRANCH   3   4
HETATM    4  C   UNL     1      -9.333  15.108  66.592  1.00  0.00    -0.267 C  
BRANCH   4   5
HETATM    5  C   UNL     1      -8.336  14.915  67.745  1.00  0.00    -0.163 C  
BRANCH   5   6
HETATM    6  C   UNL     1      -7.373  13.759  67.472  1.00  0.00    -0.176 C  
BRANCH   6   7
HETATM    7  C   UNL     1      -7.580  12.648  68.495  1.00  0.00    -0.121 C  
BRANCH   7   8
HETATM    8  O   UNL     1      -6.415  11.813  68.547  1.00  0.00    -0.051 OA 
BRANCH   8   9
HETATM    9  C   UNL     1      -6.459  10.714  67.754  1.00  0.00    -0.060 C  
HETATM   10  O   UNL     1      -6.163  10.657  66.572  1.00  0.00    -0.078 OA 
BRANCH   9  11
HETATM   11  C   UNL     1      -6.972   9.558  68.524  1.00  0.00    -0.065 A  
HETATM   12  C   UNL     1      -7.136   9.611  69.914  1.00  0.00    -0.095 A  
HETATM   13  C   UNL     1      -7.599   8.490  70.610  1.00  0.00    -0.076 A  
HETATM   14  C   UNL     1      -7.750   7.268  68.514  1.00  0.00    -0.120 A  
HETATM   15  C   UNL     1      -7.910   7.308  69.903  1.00  0.00    -0.112 A  
HETATM   16  C   UNL     1      -7.272   8.385  67.826  1.00  0.00    -0.088 A  
BRANCH  13  17
HETATM   17  O   UNL     1      -7.772   8.445  71.972  1.00  0.00    -0.118 OA 
HETATM   18  C   UNL     1      -6.612   8.326  72.784  1.00  0.00    -0.091 C  
ENDBRANCH  13  17
BRANCH  15  19
HETATM   19  O   UNL     1      -8.356   6.252  70.657  1.00  0.00    -0.129 OA 
HETATM   20  C   UNL     1      -9.324   5.391  70.072  1.00  0.00    -0.148 C  
ENDBRANCH  15  19
ENDBRANCH   9  11
ENDBRANCH   8   9
ENDBRANCH   7   8
ENDBRANCH   6   7
ENDBRANCH   5   6
ENDBRANCH   4   5
ENDBRANCH   3   4
BRANCH   3  21
HETATM   21  C   UNL     1     -11.626  14.218  66.690  1.00  0.00    -0.383 C  
HETATM   22  C   UNL     1     -12.665  14.521  65.597  1.00  0.00    -0.186 C  
BRANCH  21  23
HETATM   23  C   UNL     1     -10.901  12.886  66.329  1.00  0.00    -0.295 C  
BRANCH  23  24
HETATM   24  C   UNL     1     -11.042  11.766  67.339  1.00  0.00    -0.338 A  
HETATM   25  C   UNL     1     -11.806  10.963  69.509  1.00  0.00    -0.404 A  
HETATM   26  C   UNL     1     -11.261   9.706  69.252  1.00  0.00    -0.047 A  
HETATM   27  C   UNL     1     -10.486  10.504  67.095  1.00  0.00    -0.302 A  
HETATM   28  C   UNL     1     -10.608   9.482  68.040  1.00  0.00    -0.282 A  
HETATM   29  C   UNL     1     -11.695  11.985  68.558  1.00  0.00    -0.387 A  
BRANCH  26  30
HETATM   30  O   UNL     1     -11.353   8.616  70.074  1.00  0.00    -0.164 OA 
HETATM   31  C   UNL     1     -11.377   8.882  71.471  1.00  0.00    -0.325 C  
ENDBRANCH  26  30
ENDBRANCH  23  24
ENDBRANCH  21  23
ENDBRANCH   3  21
ENDBRANCH   2   3
TORSDOF 14
ENDMDL
MODEL      327
REMARK 921   NORMALIZED FREE ENERGY PREDICTED BY IDOCK:   -3.16 KCAL/MOL
REMARK 922        TOTAL FREE ENERGY PREDICTED BY IDOCK:   -8.54 KCAL/MOL
REMARK 923 INTER-LIGAND FREE ENERGY PREDICTED BY IDOCK:   -7.17 KCAL/MOL
REMARK 924 INTRA-LIGAND FREE ENERGY PREDICTED BY IDOCK:   -1.37 KCAL/MOL
REMARK 927      BINDING AFFINITY PREDICTED BY RF-SCORE:    0.00 PKD
ROOT
HETATM    1  C   UNL     1      -6.943   9.807  67.231  1.00  0.00    -0.084 C  
HETATM    2  C   UNL     1      -7.827   9.873  65.991  1.00  0.00    -0.111 C  
ENDROOT
BRANCH   2   3
HETATM    3  N   UNL     1      -9.076   9.102  66.011  1.00  0.00    -0.181 NA 
BRANCH   3   4
HETATM    4  C   UNL     1      -9.088   7.953  66.934  1.00  0.00    -0.143 C  
BRANCH   4   5
HETATM    5  C   UNL     1      -9.600   6.647  66.306  1.00  0.00    -0.092 C  
BRANCH   5   6
HETATM    6  C   UNL     1     -10.412   5.821  67.304  1.00  0.00    -0.330 C  
BRANCH   6   7
HETATM    7  C   UNL     1      -9.870   4.397  67.374  1.00  0.00    -0.143 C  
BRANCH   7   8
HETATM    8  O   UNL     1      -8.845   4.317  68.373  1.00  0.00    -0.098 OA 
BRANCH   8   9
HETATM    9  C   UNL     1      -9.216   3.717  69.531  1.00  0.00    -0.155 C  
HETATM   10  O   UNL     1      -9.471   2.535  69.690  1.00  0.00    -0.123 OA 
BRANCH   9  11
HETATM   11  C   UNL     1      -9.319   4.727  70.609  1.00  0.00    -0.218 A  
HETATM   12  C   UNL     1     -10.547   5.288  70.981  1.00  0.00    -0.240 A  
HETATM   13  C   UNL     1     -10.601   6.258  71.986  1.00  0.00    -0.217 A  
HETATM   14  C   UNL     1      -8.192   6.090  72.258  1.00  0.00    -0.110 A  
HETATM   15  C   UNL     1      -9.412   6.662  72.632  1.00  0.00    -0.142 A  
HETATM   16  C   UNL     1      -8.142   5.133  71.242  1.00  0.00    -0.113 A  
BRANCH  13  17
HETATM   17  O   UNL     1     -11.756   6.875  72.403  1.00  0.00    -0.270 OA 
HETATM   18  C   UNL     1     -12.762   7.123  71.431  1.00  0.00    -0.391 C  
ENDBRANCH  13  17
BRANCH  15  19
HETATM   19  O   UNL     1      -9.547   7.620  73.605  1.00  0.00    -0.277 OA 
HETATM   20  C   UNL     1      -8.393   7.949  74.366  1.00  0.00    -0.218 C  
ENDBRANCH  15  19
ENDBRANCH   9  11
ENDBRANCH   8   9
ENDBRANCH   7   8
ENDBRANCH   6   7
ENDBRANCH   5   6
ENDBRANCH   4   5
ENDBRANCH   3   4
BRANCH   3  21
HETATM   21  C   UNL     1     -10.344   9.873  66.042  1.00  0.00    -0.132 C  
HETATM   22  C   UNL     1     -10.879  10.190  67.449  1.00  0.00    -0.323 C  
BRANCH  21  23
HETATM   23  C   UNL     1     -10.327  11.190  65.209  1.00  0.00    -0.336 C  
BRANCH  23  24
HETATM   24  C   UNL     1     -10.662  12.455  65.973  1.00  0.00    -0.294 A  
HETATM   25  C   UNL     1     -12.280  14.146  66.650  1.00  0.00    -0.450 A  
HETATM   26  C   UNL     1     -11.288  14.840  67.341  1.00  0.00    -0.351 A  
HETATM   27  C   UNL     1      -9.670  13.166  66.658  1.00  0.00    -0.261 A  
HETATM   28  C   UNL     1      -9.985  14.341  67.346  1.00  0.00    -0.242 A  
HETATM   29  C   UNL     1     -11.968  12.962  65.970  1.00  0.00    -0.505 A  
BRANCH  26  30
HETATM   30  O   UNL     1     -11.480  15.971  68.086  1.00  0.00    -0.338 OA 
HETATM   31  C   UNL     1     -10.623  16.136  69.210  1.00  0.00    -0.280 C  
ENDBRANCH  26  30
ENDBRANCH  23  24
ENDBRANCH  21  23
ENDBRANCH   3  21
ENDBRANCH   2   3
TORSDOF 14
ENDMDL
MODEL      328
REMARK 921   NORMALIZED FREE ENERGY PREDICTED BY IDOCK:   -3.15 KCAL/MOL
REMARK 922        TOTAL FREE ENERGY PREDICTED BY IDOCK:   -8.52 KCAL/MOL
REMARK 923 INTER-LIGAND FREE ENERGY PREDICTED BY IDOCK:   -6.39 KCAL/MOL
REMARK 924 INTRA-LIGAND FREE ENERGY PREDICTED BY IDOCK:   -2.13 KCAL/MOL
REMARK 927      BINDING AFFINITY PREDICTED BY RF-SCORE:    0.00 PKD
ROOT
HETATM    1  C   UNL     1      -6.887   8.999  67.372  1.00  0.00    -0.077 C  
HETATM    2  C   UNL     1      -7.446   9.341  65.996  1.00  0.00    -0.095 C  
ENDROOT
BRANCH   2   3
HETATM    3  N   UNL     1      -8.756   8.783  65.643  1.00  0.00    -0.174 NA 
BRANCH   3   4
HETATM    4  C   UNL     1      -9.023   7.430  66.167  1.00  0.00    -0.149 C  
BRANCH   4   5
HETATM    5  C   UNL     1      -8.373   6.301  65.352  1.00  0.00    -0.148 C  
BRANCH   5   6
HETATM    6  C   UNL     1      -9.086   4.966  65.567  1.00  0.00    -0.153 C  
BRANCH   6   7
HETATM    7  C   UNL     1      -8.185   4.004  66.333  1.00  0.00    -0.101 C  
BRANCH   7   8
HETATM    8  O   UNL     1      -7.999   4.476  67.674  1.00  0.00    -0.094 OA 
BRANCH   8   9
HETATM    9  C   UNL     1      -9.018   4.202  68.527  1.00  0.00    -0.118 C  
HETATM   10  O   UNL     1      -9.503   3.106  68.753  1.00  0.00    -0.173 OA 
BRANCH   9  11
HETATM   11  C   UNL     1      -9.513   5.457  69.138  1.00  0.00    -0.177 A  
HETATM   12  C   UNL     1      -8.639   6.439  69.619  1.00  0.00    -0.134 A  
HETATM   13  C   UNL     1      -9.144   7.599  70.212  1.00  0.00    -0.149 A  
HETATM   14  C   UNL     1     -11.405   6.797  69.825  1.00  0.00    -0.350 A  
HETATM   15  C   UNL     1     -10.541   7.781  70.315  1.00  0.00    -0.231 A  
HETATM   16  C   UNL     1     -10.895   5.632  69.247  1.00  0.00    -0.309 A  
BRANCH  13  17
HETATM   17  O   UNL     1      -8.364   8.606  70.728  1.00  0.00    -0.122 OA 
HETATM   18  C   UNL     1      -7.388   8.256  71.699  1.00  0.00    -0.091 C  
ENDBRANCH  13  17
BRANCH  15  19
HETATM   19  O   UNL     1     -10.958   8.943  70.912  1.00  0.00    -0.238 OA 
HETATM   20  C   UNL     1     -12.041   8.858  71.828  1.00  0.00    -0.362 C  
ENDBRANCH  15  19
ENDBRANCH   9  11
ENDBRANCH   8   9
ENDBRANCH   7   8
ENDBRANCH   6   7
ENDBRANCH   5   6
ENDBRANCH   4   5
ENDBRANCH   3   4
BRANCH   3  21
HETATM   21  C   UNL     1      -9.929   9.684  65.767  1.00  0.00    -0.272 C  
HETATM   22  C   UNL     1     -10.521   9.792  67.183  1.00  0.00    -0.316 C  
BRANCH  21  23
HETATM   23  C   UNL     1      -9.707  11.123  65.212  1.00  0.00    -0.285 C  
BRANCH  23  24
HETATM   24  C   UNL     1      -9.899  12.249  66.207  1.00  0.00    -0.254 A  
HETATM   25  C   UNL     1      -9.053  13.613  68.040  1.00  0.00    -0.192 A  
HETATM   26  C   UNL     1     -10.262  14.304  68.104  1.00  0.00    -0.231 A  
HETATM   27  C   UNL     1     -11.114  12.939  66.287  1.00  0.00    -0.317 A  
HETATM   28  C   UNL     1     -11.287  13.966  67.220  1.00  0.00    -0.344 A  
HETATM   29  C   UNL     1      -8.874  12.592  67.099  1.00  0.00    -0.202 A  
BRANCH  26  30
HETATM   30  O   UNL     1     -10.537  15.353  68.938  1.00  0.00    -0.228 OA 
HETATM   31  C   UNL     1     -11.868  15.852  68.902  1.00  0.00    -0.304 C  
ENDBRANCH  26  30
ENDBRANCH  23  24
ENDBRANCH  21  23
ENDBRANCH   3  21
ENDBRANCH   2   3
TORSDOF 14
ENDMDL
MODEL      329
REMARK 921   NORMALIZED FREE ENERGY PREDICTED BY IDOCK:   -3.15 KCAL/MOL
REMARK 922        TOTAL FREE ENERGY PREDICTED BY IDOCK:   -8.52 KCAL/MOL
REMARK 923 INTER-LIGAND FREE ENERGY PREDICTED BY IDOCK:   -7.14 KCAL/MOL
REMARK 924 INTRA-LIGAND FREE ENERGY PREDICTED BY IDOCK:   -1.38 KCAL/MOL
REMARK 927      BINDING AFFINITY PREDICTED BY RF-SCORE:    0.00 PKD
ROOT
HETATM    1  C   UNL     1      -5.617  14.689  71.186  1.00  0.00    -0.131 C  
HETATM    2  C   UNL     1      -6.265  13.563  70.391  1.00  0.00    -0.028 C  
ENDROOT
BRANCH   2   3
HETATM    3  N   UNL     1      -7.043  13.935  69.203  1.00  0.00    -0.099 NA 
BRANCH   3   4
HETATM    4  C   UNL     1      -7.837  15.171  69.336  1.00  0.00    -0.208 C  
BRANCH   4   5
HETATM    5  C   UNL     1      -8.727  15.480  68.122  1.00  0.00    -0.164 C  
BRANCH   5   6
HETATM    6  C   UNL     1     -10.204  15.227  68.426  1.00  0.00    -0.223 C  
BRANCH   6   7
HETATM    7  C   UNL     1     -10.696  16.197  69.494  1.00  0.00    -0.313 C  
BRANCH   7   8
HETATM    8  O   UNL     1     -11.050  15.474  70.680  1.00  0.00    -0.308 OA 
BRANCH   8   9
HETATM    9  C   UNL     1     -12.350  15.094  70.757  1.00  0.00    -0.360 C  
HETATM   10  O   UNL     1     -13.324  15.828  70.752  1.00  0.00    -0.539 OA 
BRANCH   9  11
HETATM   11  C   UNL     1     -12.435  13.622  70.894  1.00  0.00    -0.448 A  
HETATM   12  C   UNL     1     -11.719  12.759  70.056  1.00  0.00    -0.282 A  
HETATM   13  C   UNL     1     -11.845  11.374  70.200  1.00  0.00    -0.355 A  
HETATM   14  C   UNL     1     -13.396  11.721  72.039  1.00  0.00    -0.417 A  
HETATM   15  C   UNL     1     -12.691  10.850  71.203  1.00  0.00    -0.429 A  
HETATM   16  C   UNL     1     -13.279  13.104  71.880  1.00  0.00    -0.526 A  
BRANCH  13  17
HETATM   17  O   UNL     1     -11.197  10.454  69.413  1.00  0.00    -0.233 OA 
HETATM   18  C   UNL     1     -11.234  10.643  68.006  1.00  0.00    -0.307 C  
ENDBRANCH  13  17
BRANCH  15  19
HETATM   19  O   UNL     1     -12.764   9.482  71.279  1.00  0.00    -0.318 OA 
HETATM   20  C   UNL     1     -13.729   8.925  72.161  1.00  0.00    -0.474 C  
ENDBRANCH  15  19
ENDBRANCH   9  11
ENDBRANCH   8   9
ENDBRANCH   7   8
ENDBRANCH   6   7
ENDBRANCH   5   6
ENDBRANCH   4   5
ENDBRANCH   3   4
BRANCH   3  21
HETATM   21  C   UNL     1      -6.357  13.836  67.890  1.00  0.00    -0.157 C  
HETATM   22  C   UNL     1      -5.419  15.009  67.555  1.00  0.00     0.113 C  
BRANCH  21  23
HETATM   23  C   UNL     1      -5.587  12.502  67.656  1.00  0.00    -0.128 C  
BRANCH  23  24
HETATM   24  C   UNL     1      -6.434  11.247  67.640  1.00  0.00    -0.067 A  
HETATM   25  C   UNL     1      -7.521   9.417  68.827  1.00  0.00    -0.075 A  
HETATM   26  C   UNL     1      -7.963   8.877  67.621  1.00  0.00    -0.102 A  
HETATM   27  C   UNL     1      -6.871  10.689  66.432  1.00  0.00    -0.129 A  
HETATM   28  C   UNL     1      -7.639   9.522  66.427  1.00  0.00    -0.097 A  
HETATM   29  C   UNL     1      -6.761  10.594  68.835  1.00  0.00    -0.062 A  
BRANCH  26  30
HETATM   30  O   UNL     1      -8.755   7.769  67.487  1.00  0.00    -0.124 OA 
HETATM   31  C   UNL     1      -8.934   7.281  66.163  1.00  0.00    -0.149 C  
ENDBRANCH  26  30
ENDBRANCH  23  24
ENDBRANCH  21  23
ENDBRANCH   3  21
ENDBRANCH   2   3
TORSDOF 14
ENDMDL
MODEL      330
REMARK 921   NORMALIZED FREE ENERGY PREDICTED BY IDOCK:   -3.15 KCAL/MOL
REMARK 922        TOTAL FREE ENERGY PREDICTED BY IDOCK:   -8.51 KCAL/MOL
REMARK 923 INTER-LIGAND FREE ENERGY PREDICTED BY IDOCK:   -7.26 KCAL/MOL
REMARK 924 INTRA-LIGAND FREE ENERGY PREDICTED BY IDOCK:   -1.25 KCAL/MOL
REMARK 927      BINDING AFFINITY PREDICTED BY RF-SCORE:    0.00 PKD
ROOT
HETATM    1  C   UNL     1     -11.256  10.214  68.717  1.00  0.00    -0.217 C  
HETATM    2  C   UNL     1     -10.577   8.961  69.255  1.00  0.00    -0.207 C  
ENDROOT
BRANCH   2   3
HETATM    3  N   UNL     1      -9.940   8.067  68.281  1.00  0.00    -0.179 NA 
BRANCH   3   4
HETATM    4  C   UNL     1      -8.478   8.214  68.159  1.00  0.00    -0.126 C  
BRANCH   4   5
HETATM    5  C   UNL     1      -8.032   9.147  67.022  1.00  0.00    -0.102 C  
BRANCH   5   6
HETATM    6  C   UNL     1      -7.591  10.512  67.551  1.00  0.00    -0.093 C  
BRANCH   6   7
HETATM    7  C   UNL     1      -8.285  11.627  66.776  1.00  0.00    -0.161 C  
BRANCH   7   8
HETATM    8  O   UNL     1      -8.342  12.813  67.579  1.00  0.00    -0.157 OA 
BRANCH   8   9
HETATM    9  C   UNL     1      -7.350  13.710  67.352  1.00  0.00    -0.111 C  
HETATM   10  O   UNL     1      -6.152  13.484  67.346  1.00  0.00    -0.330 OA 
BRANCH   9  11
HETATM   11  C   UNL     1      -7.930  15.058  67.149  1.00  0.00    -0.238 A  
HETATM   12  C   UNL     1      -8.983  15.281  66.253  1.00  0.00    -0.314 A  
HETATM   13  C   UNL     1      -9.486  16.573  66.068  1.00  0.00    -0.282 A  
HETATM   14  C   UNL     1      -7.888  17.413  67.695  1.00  0.00    -0.199 A  
HETATM   15  C   UNL     1      -8.934  17.649  66.798  1.00  0.00    -0.257 A  
HETATM   16  C   UNL     1      -7.378  16.124  67.863  1.00  0.00    -0.142 A  
BRANCH  13  17
HETATM   17  O   UNL     1     -10.502  16.888  65.199  1.00  0.00    -0.663 OA 
HETATM   18  C   UNL     1     -11.287  15.822  64.683  1.00  0.00    -0.337 C  
ENDBRANCH  13  17
BRANCH  15  19
HETATM   19  O   UNL     1      -9.480  18.884  66.559  1.00  0.00    -0.319 OA 
HETATM   20  C   UNL     1     -10.407  19.387  67.512  1.00  0.00    -0.443 C  
ENDBRANCH  15  19
ENDBRANCH   9  11
ENDBRANCH   8   9
ENDBRANCH   7   8
ENDBRANCH   6   7
ENDBRANCH   5   6
ENDBRANCH   4   5
ENDBRANCH   3   4
BRANCH   3  21
HETATM   21  C   UNL     1     -10.373   6.648  68.284  1.00  0.00    -0.190 C  
HETATM   22  C   UNL     1     -10.911   6.128  66.939  1.00  0.00    -0.384 C  
BRANCH  21  23
HETATM   23  C   UNL     1      -9.307   5.642  68.813  1.00  0.00    -0.145 C  
BRANCH  23  24
HETATM   24  C   UNL     1      -9.597   5.026  70.166  1.00  0.00    -0.257 A  
HETATM   25  C   UNL     1     -10.684   5.132  72.344  1.00  0.00    -0.276 A  
HETATM   26  C   UNL     1     -10.101   3.920  72.711  1.00  0.00    -0.161 A  
HETATM   27  C   UNL     1      -9.005   3.816  70.548  1.00  0.00    -0.158 A  
HETATM   28  C   UNL     1      -9.267   3.264  71.805  1.00  0.00    -0.186 A  
HETATM   29  C   UNL     1     -10.433   5.681  71.080  1.00  0.00    -0.306 A  
BRANCH  26  30
HETATM   30  O   UNL     1     -10.313   3.258  73.889  1.00  0.00    -0.132 OA 
HETATM   31  C   UNL     1     -11.094   2.071  73.811  1.00  0.00    -0.192 C  
ENDBRANCH  26  30
ENDBRANCH  23  24
ENDBRANCH  21  23
ENDBRANCH   3  21
ENDBRANCH   2   3
TORSDOF 14
ENDMDL
MODEL      331
REMARK 921   NORMALIZED FREE ENERGY PREDICTED BY IDOCK:   -3.13 KCAL/MOL
REMARK 922        TOTAL FREE ENERGY PREDICTED BY IDOCK:   -8.49 KCAL/MOL
REMARK 923 INTER-LIGAND FREE ENERGY PREDICTED BY IDOCK:   -7.35 KCAL/MOL
REMARK 924 INTRA-LIGAND FREE ENERGY PREDICTED BY IDOCK:   -1.14 KCAL/MOL
REMARK 927      BINDING AFFINITY PREDICTED BY RF-SCORE:    0.00 PKD
ROOT
HETATM    1  C   UNL     1     -12.011  13.606  68.716  1.00  0.00    -0.394 C  
HETATM    2  C   UNL     1     -12.054  13.762  67.201  1.00  0.00    -0.378 C  
ENDROOT
BRANCH   2   3
HETATM    3  N   UNL     1     -10.784  14.023  66.514  1.00  0.00    -0.280 NA 
BRANCH   3   4
HETATM    4  C   UNL     1     -10.300  12.928  65.653  1.00  0.00    -0.282 C  
BRANCH   4   5
HETATM    5  C   UNL     1     -10.854  11.544  66.025  1.00  0.00    -0.330 C  
BRANCH   5   6
HETATM    6  C   UNL     1     -10.159  10.428  65.244  1.00  0.00    -0.370 C  
BRANCH   6   7
HETATM    7  C   UNL     1      -9.608   9.379  66.203  1.00  0.00    -0.247 C  
BRANCH   7   8
HETATM    8  O   UNL     1     -10.684   8.775  66.933  1.00  0.00    -0.240 OA 
BRANCH   8   9
HETATM    9  C   UNL     1     -10.460   8.614  68.261  1.00  0.00    -0.184 C  
HETATM   10  O   UNL     1     -10.585   9.462  69.129  1.00  0.00    -0.217 OA 
BRANCH   9  11
HETATM   11  C   UNL     1      -9.984   7.237  68.527  1.00  0.00    -0.168 A  
HETATM   12  C   UNL     1      -8.689   6.980  68.992  1.00  0.00    -0.128 A  
HETATM   13  C   UNL     1      -8.267   5.665  69.207  1.00  0.00    -0.096 A  
HETATM   14  C   UNL     1     -10.451   4.865  68.504  1.00  0.00     0.062 A  
HETATM   15  C   UNL     1      -9.158   4.596  68.961  1.00  0.00    -0.118 A  
HETATM   16  C   UNL     1     -10.862   6.180  68.276  1.00  0.00    -0.387 A  
BRANCH  13  17
HETATM   17  O   UNL     1      -7.012   5.318  69.644  1.00  0.00    -0.054 OA 
HETATM   18  C   UNL     1      -5.965   6.262  69.468  1.00  0.00    -0.021 C  
ENDBRANCH  13  17
BRANCH  15  19
HETATM   19  O   UNL     1      -8.669   3.336  69.193  1.00  0.00    -0.070 OA 
HETATM   20  C   UNL     1      -8.401   2.518  68.062  1.00  0.00    -0.071 C  
ENDBRANCH  15  19
ENDBRANCH   9  11
ENDBRANCH   8   9
ENDBRANCH   7   8
ENDBRANCH   6   7
ENDBRANCH   5   6
ENDBRANCH   4   5
ENDBRANCH   3   4
BRANCH   3  21
HETATM   21  C   UNL     1     -10.620  15.358  65.885  1.00  0.00    -0.339 C  
HETATM   22  C   UNL     1     -11.508  15.613  64.655  1.00  0.00    -0.306 C  
BRANCH  21  23
HETATM   23  C   UNL     1     -10.771  16.562  66.863  1.00  0.00    -0.175 C  
BRANCH  23  24
HETATM   24  C   UNL     1      -9.762  17.679  66.693  1.00  0.00    -0.304 A  
HETATM   25  C   UNL     1      -9.260  20.047  66.418  1.00  0.00    -0.453 A  
HETATM   26  C   UNL     1      -7.900  19.763  66.318  1.00  0.00    -0.328 A  
HETATM   27  C   UNL     1      -8.395  17.401  66.578  1.00  0.00    -0.308 A  
HETATM   28  C   UNL     1      -7.473  18.437  66.405  1.00  0.00    -0.278 A  
HETATM   29  C   UNL     1     -10.184  19.011  66.603  1.00  0.00    -0.475 A  
BRANCH  26  30
HETATM   30  O   UNL     1      -6.899  20.688  66.193  1.00  0.00    -0.236 OA 
HETATM   31  C   UNL     1      -5.742  20.474  66.992  1.00  0.00    -0.178 C  
ENDBRANCH  26  30
ENDBRANCH  23  24
ENDBRANCH  21  23
ENDBRANCH   3  21
ENDBRANCH   2   3
TORSDOF 14
ENDMDL
MODEL      332
REMARK 921   NORMALIZED FREE ENERGY PREDICTED BY IDOCK:   -3.12 KCAL/MOL
REMARK 922        TOTAL FREE ENERGY PREDICTED BY IDOCK:   -8.47 KCAL/MOL
REMARK 923 INTER-LIGAND FREE ENERGY PREDICTED BY IDOCK:   -6.66 KCAL/MOL
REMARK 924 INTRA-LIGAND FREE ENERGY PREDICTED BY IDOCK:   -1.81 KCAL/MOL
REMARK 927      BINDING AFFINITY PREDICTED BY RF-SCORE:    0.00 PKD
ROOT
HETATM    1  C   UNL     1      -5.174  13.185  71.133  1.00  0.00    -0.178 C  
HETATM    2  C   UNL     1      -6.158  12.635  70.107  1.00  0.00    -0.093 C  
ENDROOT
BRANCH   2   3
HETATM    3  N   UNL     1      -5.730  12.618  68.704  1.00  0.00    -0.057 NA 
BRANCH   3   4
HETATM    4  C   UNL     1      -5.854  11.314  68.027  1.00  0.00    -0.042 C  
BRANCH   4   5
HETATM    5  C   UNL     1      -5.619  11.370  66.509  1.00  0.00    -0.142 C  
BRANCH   5   6
HETATM    6  C   UNL     1      -6.485  10.352  65.766  1.00  0.00    -0.123 C  
BRANCH   6   7
HETATM    7  C   UNL     1      -7.337   9.563  66.754  1.00  0.00    -0.090 C  
BRANCH   7   8
HETATM    8  O   UNL     1      -8.550   9.139  66.119  1.00  0.00    -0.127 OA 
BRANCH   8   9
HETATM    9  C   UNL     1      -9.658   9.197  66.899  1.00  0.00    -0.178 C  
HETATM   10  O   UNL     1     -10.113   8.297  67.585  1.00  0.00    -0.180 OA 
BRANCH   9  11
HETATM   11  C   UNL     1     -10.294  10.528  66.772  1.00  0.00    -0.301 A  
HETATM   12  C   UNL     1     -10.503  11.131  65.525  1.00  0.00    -0.317 A  
HETATM   13  C   UNL     1     -11.083  12.400  65.447  1.00  0.00    -0.306 A  
HETATM   14  C   UNL     1     -11.258  12.455  67.870  1.00  0.00    -0.316 A  
HETATM   15  C   UNL     1     -11.465  13.068  66.632  1.00  0.00    -0.336 A  
HETATM   16  C   UNL     1     -10.664  11.193  67.944  1.00  0.00    -0.261 A  
BRANCH  13  17
HETATM   17  O   UNL     1     -11.309  13.074  64.272  1.00  0.00    -0.341 OA 
HETATM   18  C   UNL     1     -12.022  12.397  63.246  1.00  0.00    -0.416 C  
ENDBRANCH  13  17
BRANCH  15  19
HETATM   19  O   UNL     1     -12.024  14.311  66.471  1.00  0.00    -0.408 OA 
HETATM   20  C   UNL     1     -11.951  15.209  67.570  1.00  0.00     0.033 C  
ENDBRANCH  15  19
ENDBRANCH   9  11
ENDBRANCH   8   9
ENDBRANCH   7   8
ENDBRANCH   6   7
ENDBRANCH   5   6
ENDBRANCH   4   5
ENDBRANCH   3   4
BRANCH   3  21
HETATM   21  C   UNL     1      -6.174  13.749  67.850  1.00  0.00    -0.155 C  
HETATM   22  C   UNL     1      -7.676  14.072  67.927  1.00  0.00    -0.161 C  
BRANCH  21  23
HETATM   23  C   UNL     1      -5.372  15.070  68.049  1.00  0.00    -0.131 C  
BRANCH  23  24
HETATM   24  C   UNL     1      -6.166  16.351  67.896  1.00  0.00    -0.143 A  
HETATM   25  C   UNL     1      -6.965  18.186  66.507  1.00  0.00    -0.252 A  
HETATM   26  C   UNL     1      -7.592  18.767  67.608  1.00  0.00    -0.230 A  
HETATM   27  C   UNL     1      -6.787  16.948  68.999  1.00  0.00    -0.224 A  
HETATM   28  C   UNL     1      -7.504  18.139  68.851  1.00  0.00    -0.246 A  
HETATM   29  C   UNL     1      -6.256  16.987  66.651  1.00  0.00    -0.240 A  
BRANCH  26  30
HETATM   30  O   UNL     1      -8.356  19.901  67.583  1.00  0.00    -0.307 OA 
HETATM   31  C   UNL     1      -9.712  19.754  67.990  1.00  0.00    -0.394 C  
ENDBRANCH  26  30
ENDBRANCH  23  24
ENDBRANCH  21  23
ENDBRANCH   3  21
ENDBRANCH   2   3
TORSDOF 14
ENDMDL
MODEL      333
REMARK 921   NORMALIZED FREE ENERGY PREDICTED BY IDOCK:   -3.11 KCAL/MOL
REMARK 922        TOTAL FREE ENERGY PREDICTED BY IDOCK:   -8.44 KCAL/MOL
REMARK 923 INTER-LIGAND FREE ENERGY PREDICTED BY IDOCK:   -7.16 KCAL/MOL
REMARK 924 INTRA-LIGAND FREE ENERGY PREDICTED BY IDOCK:   -1.28 KCAL/MOL
REMARK 927      BINDING AFFINITY PREDICTED BY RF-SCORE:    0.00 PKD
ROOT
HETATM    1  C   UNL     1     -11.486  10.674  68.880  1.00  0.00    -0.334 C  
HETATM    2  C   UNL     1     -10.250  11.565  68.849  1.00  0.00    -0.149 C  
ENDROOT
BRANCH   2   3
HETATM    3  N   UNL     1     -10.125  12.506  67.730  1.00  0.00    -0.213 NA 
BRANCH   3   4
HETATM    4  C   UNL     1     -10.584  11.994  66.425  1.00  0.00    -0.243 C  
BRANCH   4   5
HETATM    5  C   UNL     1      -9.477  11.900  65.363  1.00  0.00    -0.123 C  
BRANCH   5   6
HETATM    6  C   UNL     1      -9.423  10.511  64.725  1.00  0.00    -0.312 C  
BRANCH   6   7
HETATM    7  C   UNL     1      -8.406   9.637  65.451  1.00  0.00    -0.141 C  
BRANCH   7   8
HETATM    8  O   UNL     1      -9.085   8.710  66.307  1.00  0.00    -0.161 OA 
BRANCH   8   9
HETATM    9  C   UNL     1      -8.453   7.524  66.489  1.00  0.00    -0.131 C  
HETATM   10  O   UNL     1      -8.232   6.679  65.638  1.00  0.00    -0.125 OA 
BRANCH   9  11
HETATM   11  C   UNL     1      -8.089   7.363  67.916  1.00  0.00    -0.119 A  
HETATM   12  C   UNL     1      -8.895   6.642  68.806  1.00  0.00    -0.126 A  
HETATM   13  C   UNL     1      -8.531   6.534  70.152  1.00  0.00    -0.135 A  
HETATM   14  C   UNL     1      -6.541   7.855  69.707  1.00  0.00    -0.034 A  
HETATM   15  C   UNL     1      -7.341   7.145  70.606  1.00  0.00    -0.075 A  
HETATM   16  C   UNL     1      -6.917   7.975  68.367  1.00  0.00    -0.072 A  
BRANCH  13  17
HETATM   17  O   UNL     1      -9.268   5.864  71.099  1.00  0.00    -0.148 OA 
HETATM   18  C   UNL     1     -10.606   5.516  70.772  1.00  0.00    -0.249 C  
ENDBRANCH  13  17
BRANCH  15  19
HETATM   19  O   UNL     1      -7.056   6.995  71.940  1.00  0.00    -0.068 OA 
HETATM   20  C   UNL     1      -6.032   7.815  72.487  1.00  0.00    -0.041 C  
ENDBRANCH  15  19
ENDBRANCH   9  11
ENDBRANCH   8   9
ENDBRANCH   7   8
ENDBRANCH   6   7
ENDBRANCH   5   6
ENDBRANCH   4   5
ENDBRANCH   3   4
BRANCH   3  21
HETATM   21  C   UNL     1     -10.553  13.906  67.975  1.00  0.00    -0.248 C  
HETATM   22  C   UNL     1     -10.318  14.874  66.802  1.00  0.00    -0.269 C  
BRANCH  21  23
HETATM   23  C   UNL     1     -12.026  14.062  68.459  1.00  0.00    -0.383 C  
BRANCH  23  24
HETATM   24  C   UNL     1     -12.205  14.416  69.921  1.00  0.00    -0.394 A  
HETATM   25  C   UNL     1     -11.817  15.931  71.790  1.00  0.00    -0.579 A  
HETATM   26  C   UNL     1     -12.478  15.059  72.653  1.00  0.00    -0.364 A  
HETATM   27  C   UNL     1     -12.856  13.540  70.798  1.00  0.00    -0.243 A  
HETATM   28  C   UNL     1     -13.001  13.868  72.149  1.00  0.00    -0.441 A  
HETATM   29  C   UNL     1     -11.680  15.609  70.433  1.00  0.00    -0.379 A  
BRANCH  26  30
HETATM   30  O   UNL     1     -12.723  15.286  73.980  1.00  0.00    -0.545 OA 
HETATM   31  C   UNL     1     -12.306  16.547  74.489  1.00  0.00    -0.315 C  
ENDBRANCH  26  30
ENDBRANCH  23  24
ENDBRANCH  21  23
ENDBRANCH   3  21
ENDBRANCH   2   3
TORSDOF 14
ENDMDL
MODEL      334
REMARK 921   NORMALIZED FREE ENERGY PREDICTED BY IDOCK:   -3.11 KCAL/MOL
REMARK 922        TOTAL FREE ENERGY PREDICTED BY IDOCK:   -8.44 KCAL/MOL
REMARK 923 INTER-LIGAND FREE ENERGY PREDICTED BY IDOCK:   -7.20 KCAL/MOL
REMARK 924 INTRA-LIGAND FREE ENERGY PREDICTED BY IDOCK:   -1.24 KCAL/MOL
REMARK 927      BINDING AFFINITY PREDICTED BY RF-SCORE:    0.00 PKD
ROOT
HETATM    1  C   UNL     1      -9.119   9.204  68.173  1.00  0.00    -0.134 C  
HETATM    2  C   UNL     1     -10.259   8.536  68.931  1.00  0.00    -0.207 C  
ENDROOT
BRANCH   2   3
HETATM    3  N   UNL     1     -10.589   9.066  70.259  1.00  0.00    -0.208 NA 
BRANCH   3   4
HETATM    4  C   UNL     1     -10.989  10.485  70.285  1.00  0.00    -0.235 C  
BRANCH   4   5
HETATM    5  C   UNL     1     -12.337  10.746  70.976  1.00  0.00    -0.509 C  
BRANCH   5   6
HETATM    6  C   UNL     1     -12.768  12.206  70.842  1.00  0.00    -0.280 C  
BRANCH   6   7
HETATM    7  C   UNL     1     -11.696  13.007  70.111  1.00  0.00    -0.170 C  
BRANCH   7   8
HETATM    8  O   UNL     1     -12.189  13.423  68.831  1.00  0.00    -0.294 OA 
BRANCH   8   9
HETATM    9  C   UNL     1     -11.480  12.972  67.766  1.00  0.00    -0.316 C  
HETATM   10  O   UNL     1     -11.670  11.937  67.151  1.00  0.00    -0.528 OA 
BRANCH   9  11
HETATM   11  C   UNL     1     -10.377  13.913  67.463  1.00  0.00    -0.245 A  
HETATM   12  C   UNL     1      -9.080  13.713  67.952  1.00  0.00    -0.198 A  
HETATM   13  C   UNL     1      -8.071  14.637  67.665  1.00  0.00    -0.173 A  
HETATM   14  C   UNL     1      -9.660  15.954  66.383  1.00  0.00    -0.313 A  
HETATM   15  C   UNL     1      -8.364  15.768  66.871  1.00  0.00    -0.248 A  
HETATM   16  C   UNL     1     -10.668  15.037  66.685  1.00  0.00    -0.312 A  
BRANCH  13  17
HETATM   17  O   UNL     1      -6.777  14.532  68.116  1.00  0.00    -0.099 OA 
HETATM   18  C   UNL     1      -6.516  13.615  69.169  1.00  0.00    -0.107 C  
ENDBRANCH  13  17
BRANCH  15  19
HETATM   19  O   UNL     1      -7.321  16.628  66.637  1.00  0.00    -0.219 OA 
HETATM   20  C   UNL     1      -7.334  17.875  67.320  1.00  0.00    -0.192 C  
ENDBRANCH  15  19
ENDBRANCH   9  11
ENDBRANCH   8   9
ENDBRANCH   7   8
ENDBRANCH   6   7
ENDBRANCH   5   6
ENDBRANCH   4   5
ENDBRANCH   3   4
BRANCH   3  21
HETATM   21  C   UNL     1     -11.438   8.218  71.132  1.00  0.00    -0.273 C  
HETATM   22  C   UNL     1     -11.909   6.897  70.499  1.00  0.00    -0.385 C  
BRANCH  21  23
HETATM   23  C   UNL     1     -10.827   7.906  72.532  1.00  0.00    -0.403 C  
BRANCH  23  24
HETATM   24  C   UNL     1     -10.142   6.562  72.666  1.00  0.00    -0.190 A  
HETATM   25  C   UNL     1     -10.142   4.263  73.474  1.00  0.00    -0.194 A  
HETATM   26  C   UNL     1      -8.856   4.072  72.974  1.00  0.00    -0.098 A  
HETATM   27  C   UNL     1      -8.844   6.364  72.179  1.00  0.00    -0.136 A  
HETATM   28  C   UNL     1      -8.214   5.125  72.322  1.00  0.00    -0.121 A  
HETATM   29  C   UNL     1     -10.780   5.501  73.321  1.00  0.00    -0.314 A  
BRANCH  26  30
HETATM   30  O   UNL     1      -8.154   2.898  73.012  1.00  0.00    -0.064 OA 
HETATM   31  C   UNL     1      -6.751   3.011  73.217  1.00  0.00    -0.030 C  
ENDBRANCH  26  30
ENDBRANCH  23  24
ENDBRANCH  21  23
ENDBRANCH   3  21
ENDBRANCH   2   3
TORSDOF 14
ENDMDL
MODEL      335
REMARK 921   NORMALIZED FREE ENERGY PREDICTED BY IDOCK:   -3.10 KCAL/MOL
REMARK 922        TOTAL FREE ENERGY PREDICTED BY IDOCK:   -8.43 KCAL/MOL
REMARK 923 INTER-LIGAND FREE ENERGY PREDICTED BY IDOCK:   -6.04 KCAL/MOL
REMARK 924 INTRA-LIGAND FREE ENERGY PREDICTED BY IDOCK:   -2.40 KCAL/MOL
REMARK 927      BINDING AFFINITY PREDICTED BY RF-SCORE:    0.00 PKD
ROOT
HETATM    1  C   UNL     1      -7.036   8.789  65.689  1.00  0.00    -0.079 C  
HETATM    2  C   UNL     1      -7.907  10.025  65.498  1.00  0.00    -0.134 C  
ENDROOT
BRANCH   2   3
HETATM    3  N   UNL     1      -8.207  10.830  66.687  1.00  0.00    -0.134 NA 
BRANCH   3   4
HETATM    4  C   UNL     1      -7.585  12.167  66.712  1.00  0.00     0.055 C  
BRANCH   4   5
HETATM    5  C   UNL     1      -6.925  12.528  68.052  1.00  0.00    -0.095 C  
BRANCH   5   6
HETATM    6  C   UNL     1      -5.683  13.397  67.854  1.00  0.00    -0.129 C  
BRANCH   6   7
HETATM    7  C   UNL     1      -6.082  14.861  67.706  1.00  0.00    -0.130 C  
BRANCH   7   8
HETATM    8  O   UNL     1      -7.158  15.164  68.603  1.00  0.00    -0.108 OA 
BRANCH   8   9
HETATM    9  C   UNL     1      -8.049  16.079  68.146  1.00  0.00    -0.147 C  
HETATM   10  O   UNL     1      -7.989  17.288  68.288  1.00  0.00    -0.224 OA 
BRANCH   9  11
HETATM   11  C   UNL     1      -9.169  15.390  67.462  1.00  0.00    -0.201 A  
HETATM   12  C   UNL     1     -10.130  14.660  68.172  1.00  0.00    -0.224 A  
HETATM   13  C   UNL     1     -11.158  14.003  67.489  1.00  0.00    -0.298 A  
HETATM   14  C   UNL     1     -10.267  14.825  65.383  1.00  0.00    -0.415 A  
HETATM   15  C   UNL     1     -11.228  14.087  66.081  1.00  0.00    -0.318 A  
HETATM   16  C   UNL     1      -9.233  15.466  66.069  1.00  0.00    -0.333 A  
BRANCH  13  17
HETATM   17  O   UNL     1     -12.132  13.250  68.099  1.00  0.00    -0.330 OA 
HETATM   18  C   UNL     1     -12.155  13.222  69.520  1.00  0.00    -0.258 C  
ENDBRANCH  13  17
BRANCH  15  19
HETATM   19  O   UNL     1     -12.263  13.413  65.485  1.00  0.00    -0.400 OA 
HETATM   20  C   UNL     1     -12.033  12.868  64.193  1.00  0.00    -0.423 C  
ENDBRANCH  15  19
ENDBRANCH   9  11
ENDBRANCH   8   9
ENDBRANCH   7   8
ENDBRANCH   6   7
ENDBRANCH   5   6
ENDBRANCH   4   5
ENDBRANCH   3   4
BRANCH   3  21
HETATM   21  C   UNL     1      -9.617  10.849  67.151  1.00  0.00    -0.165 C  
HETATM   22  C   UNL     1     -10.597  10.035  66.288  1.00  0.00    -0.115 C  
BRANCH  21  23
HETATM   23  C   UNL     1      -9.817  10.445  68.643  1.00  0.00    -0.183 C  
BRANCH  23  24
HETATM   24  C   UNL     1      -9.598   8.981  68.963  1.00  0.00    -0.160 A  
HETATM   25  C   UNL     1     -10.464   6.714  69.179  1.00  0.00    -0.250 A  
HETATM   26  C   UNL     1      -9.219   6.263  69.613  1.00  0.00    -0.141 A  
HETATM   27  C   UNL     1      -8.354   8.522  69.413  1.00  0.00    -0.119 A  
HETATM   28  C   UNL     1      -8.166   7.172  69.722  1.00  0.00    -0.131 A  
HETATM   29  C   UNL     1     -10.651   8.064  68.858  1.00  0.00    -0.160 A  
BRANCH  26  30
HETATM   30  O   UNL     1      -8.898   4.965  69.901  1.00  0.00    -0.091 OA 
HETATM   31  C   UNL     1      -9.825   4.254  70.713  1.00  0.00    -0.195 C  
ENDBRANCH  26  30
ENDBRANCH  23  24
ENDBRANCH  21  23
ENDBRANCH   3  21
ENDBRANCH   2   3
TORSDOF 14
ENDMDL
MODEL      336
REMARK 921   NORMALIZED FREE ENERGY PREDICTED BY IDOCK:   -3.10 KCAL/MOL
REMARK 922        TOTAL FREE ENERGY PREDICTED BY IDOCK:   -8.43 KCAL/MOL
REMARK 923 INTER-LIGAND FREE ENERGY PREDICTED BY IDOCK:   -7.12 KCAL/MOL
REMARK 924 INTRA-LIGAND FREE ENERGY PREDICTED BY IDOCK:   -1.31 KCAL/MOL
REMARK 927      BINDING AFFINITY PREDICTED BY RF-SCORE:    0.00 PKD
ROOT
HETATM    1  C   UNL     1      -6.576  11.117  66.117  1.00  0.00    -0.022 C  
HETATM    2  C   UNL     1      -7.923  11.047  66.824  1.00  0.00    -0.152 C  
ENDROOT
BRANCH   2   3
HETATM    3  N   UNL     1      -9.107  11.463  66.064  1.00  0.00    -0.209 NA 
BRANCH   3   4
HETATM    4  C   UNL     1      -9.796  10.383  65.335  1.00  0.00    -0.283 C  
BRANCH   4   5
HETATM    5  C   UNL     1      -9.400   8.968  65.786  1.00  0.00    -0.302 C  
BRANCH   5   6
HETATM    6  C   UNL     1     -10.237   8.499  66.976  1.00  0.00    -0.371 C  
BRANCH   6   7
HETATM    7  C   UNL     1     -10.273   6.976  67.028  1.00  0.00    -0.260 C  
BRANCH   7   8
HETATM    8  O   UNL     1      -9.369   6.502  68.035  1.00  0.00    -0.113 OA 
BRANCH   8   9
HETATM    9  C   UNL     1      -9.957   6.052  69.171  1.00  0.00    -0.162 C  
HETATM   10  O   UNL     1     -11.067   5.558  69.269  1.00  0.00    -0.183 OA 
BRANCH   9  11
HETATM   11  C   UNL     1      -9.061   6.287  70.327  1.00  0.00    -0.156 A  
HETATM   12  C   UNL     1      -9.512   6.170  71.647  1.00  0.00    -0.160 A  
HETATM   13  C   UNL     1      -8.643   6.424  72.712  1.00  0.00    -0.125 A  
HETATM   14  C   UNL     1      -6.862   6.896  71.128  1.00  0.00    -0.058 A  
HETATM   15  C   UNL     1      -7.304   6.789  72.449  1.00  0.00    -0.087 A  
HETATM   16  C   UNL     1      -7.739   6.656  70.067  1.00  0.00    -0.102 A  
BRANCH  13  17
HETATM   17  O   UNL     1      -9.003   6.352  74.036  1.00  0.00    -0.133 OA 
HETATM   18  C   UNL     1      -9.460   5.102  74.531  1.00  0.00    -0.138 C  
ENDBRANCH  13  17
BRANCH  15  19
HETATM   19  O   UNL     1      -6.515   7.025  73.547  1.00  0.00    -0.066 OA 
HETATM   20  C   UNL     1      -6.006   8.341  73.718  1.00  0.00    -0.103 C  
ENDBRANCH  15  19
ENDBRANCH   9  11
ENDBRANCH   8   9
ENDBRANCH   7   8
ENDBRANCH   6   7
ENDBRANCH   5   6
ENDBRANCH   4   5
ENDBRANCH   3   4
BRANCH   3  21
HETATM   21  C   UNL     1     -10.052  12.388  66.740  1.00  0.00    -0.214 C  
HETATM   22  C   UNL     1     -11.457  12.455  66.115  1.00  0.00    -0.430 C  
BRANCH  21  23
HETATM   23  C   UNL     1     -10.203  12.159  68.274  1.00  0.00    -0.209 C  
BRANCH  23  24
HETATM   24  C   UNL     1     -11.102  13.138  69.000  1.00  0.00    -0.282 A  
HETATM   25  C   UNL     1     -11.856  15.422  69.391  1.00  0.00    -0.372 A  
HETATM   26  C   UNL     1     -12.728  14.981  70.383  1.00  0.00    -0.325 A  
HETATM   27  C   UNL     1     -11.971  12.706  70.008  1.00  0.00    -0.377 A  
HETATM   28  C   UNL     1     -12.785  13.619  70.683  1.00  0.00    -0.303 A  
HETATM   29  C   UNL     1     -11.047  14.507  68.705  1.00  0.00    -0.272 A  
BRANCH  26  30
HETATM   30  O   UNL     1     -13.604  15.767  71.081  1.00  0.00    -0.576 OA 
HETATM   31  C   UNL     1     -13.703  15.510  72.477  1.00  0.00    -0.574 C  
ENDBRANCH  26  30
ENDBRANCH  23  24
ENDBRANCH  21  23
ENDBRANCH   3  21
ENDBRANCH   2   3
TORSDOF 14
ENDMDL
MODEL      337
REMARK 921   NORMALIZED FREE ENERGY PREDICTED BY IDOCK:   -3.09 KCAL/MOL
REMARK 922        TOTAL FREE ENERGY PREDICTED BY IDOCK:   -8.40 KCAL/MOL
REMARK 923 INTER-LIGAND FREE ENERGY PREDICTED BY IDOCK:   -6.59 KCAL/MOL
REMARK 924 INTRA-LIGAND FREE ENERGY PREDICTED BY IDOCK:   -1.81 KCAL/MOL
REMARK 927      BINDING AFFINITY PREDICTED BY RF-SCORE:    0.00 PKD
ROOT
HETATM    1  C   UNL     1      -5.401   8.958  64.052  1.00  0.00    -0.060 C  
HETATM    2  C   UNL     1      -6.011   8.555  65.389  1.00  0.00    -0.048 C  
ENDROOT
BRANCH   2   3
HETATM    3  N   UNL     1      -7.466   8.685  65.534  1.00  0.00    -0.084 NA 
BRANCH   3   4
HETATM    4  C   UNL     1      -8.241   7.479  65.186  1.00  0.00    -0.120 C  
BRANCH   4   5
HETATM    5  C   UNL     1      -7.428   6.175  65.231  1.00  0.00    -0.084 C  
BRANCH   5   6
HETATM    6  C   UNL     1      -8.040   5.162  66.199  1.00  0.00    -0.108 C  
BRANCH   6   7
HETATM    7  C   UNL     1      -9.524   4.978  65.902  1.00  0.00    -0.162 C  
BRANCH   7   8
HETATM    8  O   UNL     1     -10.250   4.828  67.129  1.00  0.00    -0.188 OA 
BRANCH   8   9
HETATM    9  C   UNL     1     -10.754   5.978  67.643  1.00  0.00    -0.296 C  
HETATM   10  O   UNL     1     -11.058   6.982  67.020  1.00  0.00    -0.373 OA 
BRANCH   9  11
HETATM   11  C   UNL     1     -10.852   5.868  69.116  1.00  0.00    -0.406 A  
HETATM   12  C   UNL     1     -11.738   6.659  69.859  1.00  0.00    -0.333 A  
HETATM   13  C   UNL     1     -11.783   6.545  71.252  1.00  0.00    -0.331 A  
HETATM   14  C   UNL     1     -10.062   4.832  71.153  1.00  0.00    -0.261 A  
HETATM   15  C   UNL     1     -10.937   5.621  71.905  1.00  0.00    -0.235 A  
HETATM   16  C   UNL     1     -10.009   4.961  69.764  1.00  0.00    -0.314 A  
BRANCH  13  17
HETATM   17  O   UNL     1     -12.605   7.291  72.061  1.00  0.00    -0.288 OA 
HETATM   18  C   UNL     1     -13.893   7.628  71.566  1.00  0.00    -0.375 C  
ENDBRANCH  13  17
BRANCH  15  19
HETATM   19  O   UNL     1     -11.039   5.571  73.272  1.00  0.00    -0.283 OA 
HETATM   20  C   UNL     1     -10.701   4.347  73.910  1.00  0.00    -0.272 C  
ENDBRANCH  15  19
ENDBRANCH   9  11
ENDBRANCH   8   9
ENDBRANCH   7   8
ENDBRANCH   6   7
ENDBRANCH   5   6
ENDBRANCH   4   5
ENDBRANCH   3   4
BRANCH   3  21
HETATM   21  C   UNL     1      -7.964   9.349  66.764  1.00  0.00    -0.108 C  
HETATM   22  C   UNL     1      -8.072   8.436  67.999  1.00  0.00    -0.123 C  
BRANCH  21  23
HETATM   23  C   UNL     1      -7.190  10.639  67.169  1.00  0.00    -0.097 C  
BRANCH  23  24
HETATM   24  C   UNL     1      -8.016  11.907  67.238  1.00  0.00    -0.171 A  
HETATM   25  C   UNL     1     -10.182  13.022  67.180  1.00  0.00    -0.243 A  
HETATM   26  C   UNL     1      -9.563  14.264  67.308  1.00  0.00    -0.232 A  
HETATM   27  C   UNL     1      -7.402  13.160  67.354  1.00  0.00    -0.119 A  
HETATM   28  C   UNL     1      -8.172  14.325  67.401  1.00  0.00    -0.217 A  
HETATM   29  C   UNL     1      -9.413  11.852  67.144  1.00  0.00    -0.180 A  
BRANCH  26  30
HETATM   30  O   UNL     1     -10.206  15.467  67.411  1.00  0.00    -0.248 OA 
HETATM   31  C   UNL     1     -11.582  15.416  67.769  1.00  0.00    -0.228 C  
ENDBRANCH  26  30
ENDBRANCH  23  24
ENDBRANCH  21  23
ENDBRANCH   3  21
ENDBRANCH   2   3
TORSDOF 14
ENDMDL
MODEL      338
REMARK 921   NORMALIZED FREE ENERGY PREDICTED BY IDOCK:   -3.08 KCAL/MOL
REMARK 922        TOTAL FREE ENERGY PREDICTED BY IDOCK:   -8.38 KCAL/MOL
REMARK 923 INTER-LIGAND FREE ENERGY PREDICTED BY IDOCK:   -6.94 KCAL/MOL
REMARK 924 INTRA-LIGAND FREE ENERGY PREDICTED BY IDOCK:   -1.44 KCAL/MOL
REMARK 927      BINDING AFFINITY PREDICTED BY RF-SCORE:    0.00 PKD
ROOT
HETATM    1  C   UNL     1      -8.393   9.915  67.985  1.00  0.00    -0.113 C  
HETATM    2  C   UNL     1      -9.307   8.732  68.281  1.00  0.00    -0.137 C  
ENDROOT
BRANCH   2   3
HETATM    3  N   UNL     1      -9.556   8.408  69.690  1.00  0.00    -0.163 NA 
BRANCH   3   4
HETATM    4  C   UNL     1      -9.897   9.559  70.547  1.00  0.00    -0.269 C  
BRANCH   4   5
HETATM    5  C   UNL     1     -11.112   9.326  71.458  1.00  0.00    -0.443 C  
BRANCH   5   6
HETATM    6  C   UNL     1     -12.174  10.411  71.272  1.00  0.00    -0.491 C  
BRANCH   6   7
HETATM    7  C   UNL     1     -12.276  10.801  69.801  1.00  0.00    -0.288 C  
BRANCH   7   8
HETATM    8  O   UNL     1     -11.805  12.143  69.621  1.00  0.00    -0.305 OA 
BRANCH   8   9
HETATM    9  C   UNL     1     -11.638  12.526  68.331  1.00  0.00    -0.322 C  
HETATM   10  O   UNL     1     -11.953  11.893  67.337  1.00  0.00    -0.603 OA 
BRANCH   9  11
HETATM   11  C   UNL     1     -10.959  13.841  68.281  1.00  0.00    -0.269 A  
HETATM   12  C   UNL     1      -9.565  13.956  68.350  1.00  0.00    -0.215 A  
HETATM   13  C   UNL     1      -8.962  15.217  68.327  1.00  0.00    -0.176 A  
HETATM   14  C   UNL     1     -11.156  16.247  68.145  1.00  0.00    -0.329 A  
HETATM   15  C   UNL     1      -9.766  16.374  68.221  1.00  0.00    -0.224 A  
HETATM   16  C   UNL     1     -11.754  14.986  68.186  1.00  0.00    -0.335 A  
BRANCH  13  17
HETATM   17  O   UNL     1      -7.607  15.426  68.408  1.00  0.00    -0.111 OA 
HETATM   18  C   UNL     1      -6.837  15.248  67.228  1.00  0.00    -0.073 C  
ENDBRANCH  13  17
BRANCH  15  19
HETATM   19  O   UNL     1      -9.099  17.573  68.207  1.00  0.00    -0.258 OA 
HETATM   20  C   UNL     1      -9.186  18.357  67.024  1.00  0.00    -0.274 C  
ENDBRANCH  15  19
ENDBRANCH   9  11
ENDBRANCH   8   9
ENDBRANCH   7   8
ENDBRANCH   6   7
ENDBRANCH   5   6
ENDBRANCH   4   5
ENDBRANCH   3   4
BRANCH   3  21
HETATM   21  C   UNL     1     -10.401   7.220  69.969  1.00  0.00    -0.213 C  
HETATM   22  C   UNL     1     -11.184   6.678  68.760  1.00  0.00    -0.256 C  
BRANCH  21  23
HETATM   23  C   UNL     1      -9.652   6.033  70.646  1.00  0.00    -0.201 C  
BRANCH  23  24
HETATM   24  C   UNL     1      -8.987   5.051  69.704  1.00  0.00    -0.133 A  
HETATM   25  C   UNL     1      -8.945   2.877  68.605  1.00  0.00    -0.191 A  
HETATM   26  C   UNL     1      -7.731   3.190  67.998  1.00  0.00    -0.059 A  
HETATM   27  C   UNL     1      -7.760   5.352  69.100  1.00  0.00    -0.089 A  
HETATM   28  C   UNL     1      -7.146   4.432  68.245  1.00  0.00    -0.060 A  
HETATM   29  C   UNL     1      -9.568   3.801  69.453  1.00  0.00    -0.219 A  
BRANCH  26  30
HETATM   30  O   UNL     1      -7.056   2.397  67.110  1.00  0.00    -0.047 OA 
HETATM   31  C   UNL     1      -7.857   1.596  66.249  1.00  0.00    -0.071 C  
ENDBRANCH  26  30
ENDBRANCH  23  24
ENDBRANCH  21  23
ENDBRANCH   3  21
ENDBRANCH   2   3
TORSDOF 14
ENDMDL
MODEL      339
REMARK 921   NORMALIZED FREE ENERGY PREDICTED BY IDOCK:   -3.08 KCAL/MOL
REMARK 922        TOTAL FREE ENERGY PREDICTED BY IDOCK:   -8.38 KCAL/MOL
REMARK 923 INTER-LIGAND FREE ENERGY PREDICTED BY IDOCK:   -6.99 KCAL/MOL
REMARK 924 INTRA-LIGAND FREE ENERGY PREDICTED BY IDOCK:   -1.40 KCAL/MOL
REMARK 927      BINDING AFFINITY PREDICTED BY RF-SCORE:    0.00 PKD
ROOT
HETATM    1  C   UNL     1     -11.537  10.484  69.701  1.00  0.00    -0.342 C  
HETATM    2  C   UNL     1     -10.259   9.824  69.194  1.00  0.00    -0.199 C  
ENDROOT
BRANCH   2   3
HETATM    3  N   UNL     1      -9.893  10.052  67.792  1.00  0.00    -0.153 NA 
BRANCH   3   4
HETATM    4  C   UNL     1      -8.731  10.936  67.584  1.00  0.00    -0.127 C  
BRANCH   4   5
HETATM    5  C   UNL     1      -8.936  12.372  68.090  1.00  0.00    -0.196 C  
BRANCH   5   6
HETATM    6  C   UNL     1      -9.425  13.299  66.976  1.00  0.00    -0.243 C  
BRANCH   6   7
HETATM    7  C   UNL     1     -10.931  13.508  67.088  1.00  0.00    -0.291 C  
BRANCH   7   8
HETATM    8  O   UNL     1     -11.244  14.894  66.895  1.00  0.00    -0.335 OA 
BRANCH   8   9
HETATM    9  C   UNL     1     -11.096  15.676  67.994  1.00  0.00    -0.335 C  
HETATM   10  O   UNL     1     -11.827  15.706  68.970  1.00  0.00    -0.376 OA 
BRANCH   9  11
HETATM   11  C   UNL     1      -9.914  16.553  67.831  1.00  0.00    -0.245 A  
HETATM   12  C   UNL     1      -8.802  16.459  68.676  1.00  0.00    -0.234 A  
HETATM   13  C   UNL     1      -7.715  17.321  68.507  1.00  0.00    -0.261 A  
HETATM   14  C   UNL     1      -8.852  18.362  66.628  1.00  0.00    -0.297 A  
HETATM   15  C   UNL     1      -7.740  18.282  67.471  1.00  0.00    -0.223 A  
HETATM   16  C   UNL     1      -9.942  17.509  66.812  1.00  0.00    -0.313 A  
BRANCH  13  17
HETATM   17  O   UNL     1      -6.593  17.314  69.299  1.00  0.00    -0.229 OA 
HETATM   18  C   UNL     1      -6.044  16.054  69.657  1.00  0.00    -0.172 C  
ENDBRANCH  13  17
BRANCH  15  19
HETATM   19  O   UNL     1      -6.638  19.092  67.372  1.00  0.00    -0.194 OA 
HETATM   20  C   UNL     1      -6.846  20.495  67.462  1.00  0.00    -0.315 C  
ENDBRANCH  15  19
ENDBRANCH   9  11
ENDBRANCH   8   9
ENDBRANCH   7   8
ENDBRANCH   6   7
ENDBRANCH   5   6
ENDBRANCH   4   5
ENDBRANCH   3   4
BRANCH   3  21
HETATM   21  C   UNL     1      -9.875   8.866  66.899  1.00  0.00    -0.223 C  
HETATM   22  C   UNL     1      -9.300   9.119  65.493  1.00  0.00    -0.287 C  
BRANCH  21  23
HETATM   23  C   UNL     1      -9.180   7.608  67.499  1.00  0.00    -0.145 C  
BRANCH  23  24
HETATM   24  C   UNL     1      -9.270   6.346  66.666  1.00  0.00    -0.167 A  
HETATM   25  C   UNL     1      -8.185   4.575  65.392  1.00  0.00    -0.111 A  
HETATM   26  C   UNL     1      -9.425   4.029  65.066  1.00  0.00    -0.172 A  
HETATM   27  C   UNL     1     -10.512   5.798  66.323  1.00  0.00    -0.131 A  
HETATM   28  C   UNL     1     -10.585   4.643  65.540  1.00  0.00    -0.208 A  
HETATM   29  C   UNL     1      -8.109   5.726  66.185  1.00  0.00    -0.108 A  
BRANCH  26  30
HETATM   30  O   UNL     1      -9.627   2.882  64.348  1.00  0.00    -0.148 OA 
HETATM   31  C   UNL     1     -10.498   2.986  63.228  1.00  0.00    -0.208 C  
ENDBRANCH  26  30
ENDBRANCH  23  24
ENDBRANCH  21  23
ENDBRANCH   3  21
ENDBRANCH   2   3
TORSDOF 14
ENDMDL
MODEL      340
REMARK 921   NORMALIZED FREE ENERGY PREDICTED BY IDOCK:   -3.06 KCAL/MOL
REMARK 922        TOTAL FREE ENERGY PREDICTED BY IDOCK:   -8.36 KCAL/MOL
REMARK 923 INTER-LIGAND FREE ENERGY PREDICTED BY IDOCK:   -6.29 KCAL/MOL
REMARK 924 INTRA-LIGAND FREE ENERGY PREDICTED BY IDOCK:   -2.08 KCAL/MOL
REMARK 927      BINDING AFFINITY PREDICTED BY RF-SCORE:    0.00 PKD
ROOT
HETATM    1  C   UNL     1      -6.168   6.043  68.818  1.00  0.00    -0.036 C  
HETATM    2  C   UNL     1      -6.459   4.586  68.476  1.00  0.00    -0.037 C  
ENDROOT
BRANCH   2   3
HETATM    3  N   UNL     1      -7.846   4.233  68.153  1.00  0.00    -0.078 NA 
BRANCH   3   4
HETATM    4  C   UNL     1      -8.311   4.667  66.823  1.00  0.00    -0.106 C  
BRANCH   4   5
HETATM    5  C   UNL     1      -9.838   4.779  66.696  1.00  0.00    -0.233 C  
BRANCH   5   6
HETATM    6  C   UNL     1     -10.316   6.219  66.888  1.00  0.00    -0.306 C  
BRANCH   6   7
HETATM    7  C   UNL     1      -9.226   7.197  66.464  1.00  0.00    -0.162 C  
BRANCH   7   8
HETATM    8  O   UNL     1      -9.685   8.543  66.646  1.00  0.00    -0.206 OA 
BRANCH   8   9
HETATM    9  C   UNL     1      -9.371   9.102  67.842  1.00  0.00    -0.137 C  
HETATM   10  O   UNL     1      -8.589   8.662  68.668  1.00  0.00    -0.129 OA 
BRANCH   9  11
HETATM   11  C   UNL     1     -10.162  10.338  68.041  1.00  0.00    -0.200 A  
HETATM   12  C   UNL     1     -10.733  11.031  66.967  1.00  0.00    -0.319 A  
HETATM   13  C   UNL     1     -11.452  12.209  67.193  1.00  0.00    -0.346 A  
HETATM   14  C   UNL     1     -11.040  11.986  69.577  1.00  0.00    -0.140 A  
HETATM   15  C   UNL     1     -11.608  12.690  68.512  1.00  0.00    -0.323 A  
HETATM   16  C   UNL     1     -10.309  10.819  69.344  1.00  0.00    -0.207 A  
BRANCH  13  17
HETATM   17  O   UNL     1     -12.030  12.963  66.200  1.00  0.00    -0.404 OA 
HETATM   18  C   UNL     1     -12.066  12.416  64.889  1.00  0.00    -0.407 C  
ENDBRANCH  13  17
BRANCH  15  19
HETATM   19  O   UNL     1     -12.323  13.853  68.650  1.00  0.00    -0.278 OA 
HETATM   20  C   UNL     1     -12.479  14.374  69.963  1.00  0.00    -0.301 C  
ENDBRANCH  15  19
ENDBRANCH   9  11
ENDBRANCH   8   9
ENDBRANCH   7   8
ENDBRANCH   6   7
ENDBRANCH   5   6
ENDBRANCH   4   5
ENDBRANCH   3   4
BRANCH   3  21
HETATM   21  C   UNL     1      -8.287   2.856  68.491  1.00  0.00    -0.065 C  
HETATM   22  C   UNL     1      -7.153   1.876  68.840  1.00  0.00    -0.039 C  
BRANCH  21  23
HETATM   23  C   UNL     1      -9.374   2.774  69.605  1.00  0.00    -0.198 C  
BRANCH  23  24
HETATM   24  C   UNL     1      -9.440   3.957  70.547  1.00  0.00    -0.251 A  
HETATM   25  C   UNL     1      -8.671   5.103  72.556  1.00  0.00    -0.120 A  
HETATM   26  C   UNL     1      -9.593   6.126  72.343  1.00  0.00    -0.151 A  
HETATM   27  C   UNL     1     -10.372   4.984  70.349  1.00  0.00    -0.297 A  
HETATM   28  C   UNL     1     -10.437   6.063  71.234  1.00  0.00    -0.283 A  
HETATM   29  C   UNL     1      -8.597   4.026  71.664  1.00  0.00    -0.122 A  
BRANCH  26  30
HETATM   30  O   UNL     1      -9.722   7.253  73.108  1.00  0.00    -0.171 OA 
HETATM   31  C   UNL     1      -8.664   7.518  74.022  1.00  0.00    -0.236 C  
ENDBRANCH  26  30
ENDBRANCH  23  24
ENDBRANCH  21  23
ENDBRANCH   3  21
ENDBRANCH   2   3
TORSDOF 14
ENDMDL
MODEL      341
REMARK 921   NORMALIZED FREE ENERGY PREDICTED BY IDOCK:   -3.06 KCAL/MOL
REMARK 922        TOTAL FREE ENERGY PREDICTED BY IDOCK:   -8.36 KCAL/MOL
REMARK 923 INTER-LIGAND FREE ENERGY PREDICTED BY IDOCK:   -7.74 KCAL/MOL
REMARK 924 INTRA-LIGAND FREE ENERGY PREDICTED BY IDOCK:   -0.61 KCAL/MOL
REMARK 927      BINDING AFFINITY PREDICTED BY RF-SCORE:    0.00 PKD
ROOT
HETATM    1  C   UNL     1      -9.041   6.291  66.773  1.00  0.00    -0.141 C  
HETATM    2  C   UNL     1      -9.317   7.768  66.519  1.00  0.00    -0.189 C  
ENDROOT
BRANCH   2   3
HETATM    3  N   UNL     1      -8.242   8.718  66.828  1.00  0.00    -0.107 NA 
BRANCH   3   4
HETATM    4  C   UNL     1      -8.421  10.071  66.270  1.00  0.00    -0.130 C  
BRANCH   4   5
HETATM    5  C   UNL     1      -9.852  10.371  65.795  1.00  0.00    -0.300 C  
BRANCH   5   6
HETATM    6  C   UNL     1      -9.946  10.402  64.269  1.00  0.00    -0.368 C  
BRANCH   6   7
HETATM    7  C   UNL     1     -11.008  11.402  63.827  1.00  0.00    -0.370 C  
BRANCH   7   8
HETATM    8  O   UNL     1     -10.492  12.736  63.932  1.00  0.00    -0.418 OA 
BRANCH   8   9
HETATM    9  C   UNL     1     -11.404  13.681  64.273  1.00  0.00    -0.350 C  
HETATM   10  O   UNL     1     -12.599  13.661  64.028  1.00  0.00    -0.672 OA 
BRANCH   9  11
HETATM   11  C   UNL     1     -10.730  14.801  64.969  1.00  0.00    -0.452 A  
HETATM   12  C   UNL     1      -9.630  14.593  65.810  1.00  0.00    -0.266 A  
HETATM   13  C   UNL     1      -9.036  15.673  66.470  1.00  0.00    -0.303 A  
HETATM   14  C   UNL     1     -10.640  17.173  65.429  1.00  0.00    -0.116 A  
HETATM   15  C   UNL     1      -9.546  16.976  66.277  1.00  0.00    -0.267 A  
HETATM   16  C   UNL     1     -11.240  16.089  64.785  1.00  0.00    -0.348 A  
BRANCH  13  17
HETATM   17  O   UNL     1      -7.967  15.562  67.326  1.00  0.00    -0.167 OA 
HETATM   18  C   UNL     1      -8.053  16.219  68.582  1.00  0.00    -0.213 C  
ENDBRANCH  13  17
BRANCH  15  19
HETATM   19  O   UNL     1      -8.911  17.982  66.961  1.00  0.00    -0.247 OA 
HETATM   20  C   UNL     1      -8.576  19.158  66.237  1.00  0.00    -0.296 C  
ENDBRANCH  15  19
ENDBRANCH   9  11
ENDBRANCH   8   9
ENDBRANCH   7   8
ENDBRANCH   6   7
ENDBRANCH   5   6
ENDBRANCH   4   5
ENDBRANCH   3   4
BRANCH   3  21
HETATM   21  C   UNL     1      -7.743   8.739  68.226  1.00  0.00    -0.100 C  
HETATM   22  C   UNL     1      -6.566   9.697  68.483  1.00  0.00    -0.052 C  
BRANCH  21  23
HETATM   23  C   UNL     1      -8.837   8.999  69.305  1.00  0.00    -0.139 C  
BRANCH  23  24
HETATM   24  C   UNL     1      -9.334   7.775  70.046  1.00  0.00    -0.157 A  
HETATM   25  C   UNL     1     -11.175   6.440  70.922  1.00  0.00    -0.384 A  
HETATM   26  C   UNL     1     -10.274   5.531  71.472  1.00  0.00    -0.212 A  
HETATM   27  C   UNL     1      -8.436   6.863  70.613  1.00  0.00    -0.136 A  
HETATM   28  C   UNL     1      -8.905   5.745  71.308  1.00  0.00    -0.139 A  
HETATM   29  C   UNL     1     -10.707   7.555  70.215  1.00  0.00    -0.247 A  
BRANCH  26  30
HETATM   30  O   UNL     1     -10.607   4.380  72.133  1.00  0.00    -0.143 OA 
HETATM   31  C   UNL     1     -11.076   4.535  73.467  1.00  0.00    -0.314 C  
ENDBRANCH  26  30
ENDBRANCH  23  24
ENDBRANCH  21  23
ENDBRANCH   3  21
ENDBRANCH   2   3
TORSDOF 14
ENDMDL
MODEL      342
REMARK 921   NORMALIZED FREE ENERGY PREDICTED BY IDOCK:   -3.05 KCAL/MOL
REMARK 922        TOTAL FREE ENERGY PREDICTED BY IDOCK:   -8.34 KCAL/MOL
REMARK 923 INTER-LIGAND FREE ENERGY PREDICTED BY IDOCK:   -7.25 KCAL/MOL
REMARK 924 INTRA-LIGAND FREE ENERGY PREDICTED BY IDOCK:   -1.09 KCAL/MOL
REMARK 927      BINDING AFFINITY PREDICTED BY RF-SCORE:    0.00 PKD
ROOT
HETATM    1  C   UNL     1     -11.860  12.374  68.681  1.00  0.00    -0.348 C  
HETATM    2  C   UNL     1     -11.439  11.552  67.468  1.00  0.00    -0.282 C  
ENDROOT
BRANCH   2   3
HETATM    3  N   UNL     1     -10.085  10.987  67.473  1.00  0.00    -0.177 NA 
BRANCH   3   4
HETATM    4  C   UNL     1      -9.000  11.960  67.698  1.00  0.00    -0.169 C  
BRANCH   4   5
HETATM    5  C   UNL     1      -8.891  13.042  66.612  1.00  0.00    -0.083 C  
BRANCH   5   6
HETATM    6  C   UNL     1      -8.800  14.443  67.219  1.00  0.00    -0.225 C  
BRANCH   6   7
HETATM    7  C   UNL     1     -10.195  15.028  67.408  1.00  0.00    -0.234 C  
BRANCH   7   8
HETATM    8  O   UNL     1     -10.182  15.975  68.484  1.00  0.00    -0.225 OA 
BRANCH   8   9
HETATM    9  C   UNL     1     -10.214  17.277  68.104  1.00  0.00    -0.343 C  
HETATM   10  O   UNL     1     -11.163  17.871  67.619  1.00  0.00    -0.074 OA 
BRANCH   9  11
HETATM   11  C   UNL     1      -8.887  17.897  68.322  1.00  0.00    -0.277 A  
HETATM   12  C   UNL     1      -7.807  17.168  68.834  1.00  0.00    -0.217 A  
HETATM   13  C   UNL     1      -6.576  17.795  69.050  1.00  0.00    -0.244 A  
HETATM   14  C   UNL     1      -7.508  19.881  68.222  1.00  0.00    -0.319 A  
HETATM   15  C   UNL     1      -6.425  19.165  68.740  1.00  0.00    -0.257 A  
HETATM   16  C   UNL     1      -8.740  19.254  68.024  1.00  0.00    -0.357 A  
BRANCH  13  17
HETATM   17  O   UNL     1      -5.469  17.165  69.565  1.00  0.00    -0.163 OA 
HETATM   18  C   UNL     1      -5.365  15.759  69.389  1.00  0.00    -0.108 C  
ENDBRANCH  13  17
BRANCH  15  19
HETATM   19  O   UNL     1      -5.188  19.707  68.983  1.00  0.00    -0.185 OA 
HETATM   20  C   UNL     1      -5.127  20.847  69.828  1.00  0.00    -0.375 C  
ENDBRANCH  15  19
ENDBRANCH   9  11
ENDBRANCH   8   9
ENDBRANCH   7   8
ENDBRANCH   6   7
ENDBRANCH   5   6
ENDBRANCH   4   5
ENDBRANCH   3   4
BRANCH   3  21
HETATM   21  C   UNL     1      -9.884   9.724  68.228  1.00  0.00    -0.148 C  
HETATM   22  C   UNL     1      -9.965   8.440  67.383  1.00  0.00    -0.274 C  
BRANCH  21  23
HETATM   23  C   UNL     1      -8.580   9.674  69.080  1.00  0.00    -0.146 C  
BRANCH  23  24
HETATM   24  C   UNL     1      -8.721   9.072  70.463  1.00  0.00    -0.238 A  
HETATM   25  C   UNL     1     -10.111   8.462  72.369  1.00  0.00    -0.386 A  
HETATM   26  C   UNL     1      -8.990   8.006  73.060  1.00  0.00    -0.248 A  
HETATM   27  C   UNL     1      -7.599   8.623  71.170  1.00  0.00    -0.120 A  
HETATM   28  C   UNL     1      -7.737   8.083  72.451  1.00  0.00    -0.146 A  
HETATM   29  C   UNL     1      -9.976   8.993  71.080  1.00  0.00    -0.349 A  
BRANCH  26  30
HETATM   30  O   UNL     1      -9.001   7.418  74.295  1.00  0.00    -0.223 OA 
HETATM   31  C   UNL     1     -10.080   6.529  74.560  1.00  0.00    -0.308 C  
ENDBRANCH  26  30
ENDBRANCH  23  24
ENDBRANCH  21  23
ENDBRANCH   3  21
ENDBRANCH   2   3
TORSDOF 14
ENDMDL
MODEL      343
REMARK 921   NORMALIZED FREE ENERGY PREDICTED BY IDOCK:   -3.05 KCAL/MOL
REMARK 922        TOTAL FREE ENERGY PREDICTED BY IDOCK:   -8.33 KCAL/MOL
REMARK 923 INTER-LIGAND FREE ENERGY PREDICTED BY IDOCK:   -7.00 KCAL/MOL
REMARK 924 INTRA-LIGAND FREE ENERGY PREDICTED BY IDOCK:   -1.33 KCAL/MOL
REMARK 927      BINDING AFFINITY PREDICTED BY RF-SCORE:    0.00 PKD
ROOT
HETATM    1  C   UNL     1     -12.518   9.013  72.422  1.00  0.00    -0.375 C  
HETATM    2  C   UNL     1     -11.454   9.439  71.418  1.00  0.00    -0.379 C  
ENDROOT
BRANCH   2   3
HETATM    3  N   UNL     1     -11.392   8.705  70.148  1.00  0.00    -0.148 NA 
BRANCH   3   4
HETATM    4  C   UNL     1     -11.108   9.531  68.960  1.00  0.00    -0.027 C  
BRANCH   4   5
HETATM    5  C   UNL     1      -9.797  10.327  69.047  1.00  0.00    -0.215 C  
BRANCH   5   6
HETATM    6  C   UNL     1      -9.092  10.405  67.692  1.00  0.00    -0.143 C  
BRANCH   6   7
HETATM    7  C   UNL     1     -10.050  10.932  66.629  1.00  0.00    -0.219 C  
BRANCH   7   8
HETATM    8  O   UNL     1     -10.159  12.357  66.738  1.00  0.00    -0.211 OA 
BRANCH   8   9
HETATM    9  C   UNL     1     -11.420  12.827  66.908  1.00  0.00    -0.340 C  
HETATM   10  O   UNL     1     -12.381  12.609  66.189  1.00  0.00    -0.570 OA 
BRANCH   9  11
HETATM   11  C   UNL     1     -11.472  13.705  68.099  1.00  0.00    -0.348 A  
HETATM   12  C   UNL     1     -10.742  14.898  68.170  1.00  0.00    -0.251 A  
HETATM   13  C   UNL     1     -10.797  15.688  69.322  1.00  0.00    -0.250 A  
HETATM   14  C   UNL     1     -12.331  14.093  70.326  1.00  0.00    -0.421 A  
HETATM   15  C   UNL     1     -11.601  15.282  70.410  1.00  0.00    -0.308 A  
HETATM   16  C   UNL     1     -12.260  13.299  69.179  1.00  0.00    -0.168 A  
BRANCH  13  17
HETATM   17  O   UNL     1     -10.102  16.862  69.487  1.00  0.00    -0.200 OA 
HETATM   18  C   UNL     1      -9.800  17.621  68.325  1.00  0.00    -0.324 C  
ENDBRANCH  13  17
BRANCH  15  19
HETATM   19  O   UNL     1     -11.599  16.109  71.505  1.00  0.00    -0.450 OA 
HETATM   20  C   UNL     1     -11.991  15.549  72.751  1.00  0.00    -0.466 C  
ENDBRANCH  15  19
ENDBRANCH   9  11
ENDBRANCH   8   9
ENDBRANCH   7   8
ENDBRANCH   6   7
ENDBRANCH   5   6
ENDBRANCH   4   5
ENDBRANCH   3   4
BRANCH   3  21
HETATM   21  C   UNL     1     -10.642   7.424  70.145  1.00  0.00    -0.230 C  
HETATM   22  C   UNL     1     -10.553   6.725  68.777  1.00  0.00    -0.258 C  
BRANCH  21  23
HETATM   23  C   UNL     1      -9.209   7.507  70.753  1.00  0.00    -0.158 C  
BRANCH  23  24
HETATM   24  C   UNL     1      -8.364   6.258  70.616  1.00  0.00    -0.133 A  
HETATM   25  C   UNL     1      -7.511   4.173  71.545  1.00  0.00    -0.059 A  
HETATM   26  C   UNL     1      -6.749   3.956  70.399  1.00  0.00    -0.033 A  
HETATM   27  C   UNL     1      -7.584   6.038  69.474  1.00  0.00    -0.093 A  
HETATM   28  C   UNL     1      -6.795   4.890  69.364  1.00  0.00    -0.053 A  
HETATM   29  C   UNL     1      -8.311   5.317  71.652  1.00  0.00    -0.118 A  
BRANCH  26  30
HETATM   30  O   UNL     1      -5.974   2.855  70.154  1.00  0.00    -0.021 OA 
HETATM   31  C   UNL     1      -6.639   1.734  69.583  1.00  0.00    -0.029 C  
ENDBRANCH  26  30
ENDBRANCH  23  24
ENDBRANCH  21  23
ENDBRANCH   3  21
ENDBRANCH   2   3
TORSDOF 14
ENDMDL
MODEL      344
REMARK 921   NORMALIZED FREE ENERGY PREDICTED BY IDOCK:   -3.04 KCAL/MOL
REMARK 922        TOTAL FREE ENERGY PREDICTED BY IDOCK:   -8.31 KCAL/MOL
REMARK 923 INTER-LIGAND FREE ENERGY PREDICTED BY IDOCK:   -6.58 KCAL/MOL
REMARK 924 INTRA-LIGAND FREE ENERGY PREDICTED BY IDOCK:   -1.73 KCAL/MOL
REMARK 927      BINDING AFFINITY PREDICTED BY RF-SCORE:    0.00 PKD
ROOT
HETATM    1  C   UNL     1     -14.314   7.738  71.696  1.00  0.00    -0.607 C  
HETATM    2  C   UNL     1     -13.556   9.053  71.834  1.00  0.00    -0.431 C  
ENDROOT
BRANCH   2   3
HETATM    3  N   UNL     1     -12.091   8.997  71.777  1.00  0.00    -0.343 NA 
BRANCH   3   4
HETATM    4  C   UNL     1     -11.502   7.680  72.083  1.00  0.00    -0.298 C  
BRANCH   4   5
HETATM    5  C   UNL     1     -10.699   7.639  73.393  1.00  0.00    -0.330 C  
BRANCH   5   6
HETATM    6  C   UNL     1      -9.264   7.165  73.162  1.00  0.00    -0.179 C  
BRANCH   6   7
HETATM    7  C   UNL     1      -9.098   5.730  73.649  1.00  0.00    -0.127 C  
BRANCH   7   8
HETATM    8  O   UNL     1      -8.130   5.051  72.838  1.00  0.00    -0.103 OA 
BRANCH   8   9
HETATM    9  C   UNL     1      -8.584   3.939  72.208  1.00  0.00    -0.104 C  
HETATM   10  O   UNL     1      -8.881   2.877  72.729  1.00  0.00    -0.081 OA 
BRANCH   9  11
HETATM   11  C   UNL     1      -8.635   4.175  70.747  1.00  0.00    -0.107 A  
HETATM   12  C   UNL     1      -7.481   4.146  69.954  1.00  0.00    -0.049 A  
HETATM   13  C   UNL     1      -7.565   4.399  68.581  1.00  0.00    -0.063 A  
HETATM   14  C   UNL     1      -9.968   4.695  68.797  1.00  0.00    -0.153 A  
HETATM   15  C   UNL     1      -8.822   4.675  67.997  1.00  0.00    -0.106 A  
HETATM   16  C   UNL     1      -9.876   4.457  70.170  1.00  0.00    -0.288 A  
BRANCH  13  17
HETATM   17  O   UNL     1      -6.487   4.410  67.731  1.00  0.00    -0.036 OA 
HETATM   18  C   UNL     1      -5.189   4.434  68.307  1.00  0.00    -0.007 C  
ENDBRANCH  13  17
BRANCH  15  19
HETATM   19  O   UNL     1      -8.821   4.916  66.647  1.00  0.00    -0.111 OA 
HETATM   20  C   UNL     1     -10.081   5.065  66.007  1.00  0.00    -0.209 C  
ENDBRANCH  15  19
ENDBRANCH   9  11
ENDBRANCH   8   9
ENDBRANCH   7   8
ENDBRANCH   6   7
ENDBRANCH   5   6
ENDBRANCH   4   5
ENDBRANCH   3   4
BRANCH   3  21
HETATM   21  C   UNL     1     -11.435   9.661  70.623  1.00  0.00    -0.306 C  
HETATM   22  C   UNL     1     -10.778   8.707  69.610  1.00  0.00    -0.204 C  
BRANCH  21  23
HETATM   23  C   UNL     1     -12.341  10.662  69.846  1.00  0.00    -0.304 C  
BRANCH  23  24
HETATM   24  C   UNL     1     -11.634  11.539  68.833  1.00  0.00    -0.384 A  
HETATM   25  C   UNL     1     -10.164  13.415  68.325  1.00  0.00    -0.250 A  
HETATM   26  C   UNL     1     -10.358  13.217  66.960  1.00  0.00    -0.249 A  
HETATM   27  C   UNL     1     -11.833  11.356  67.459  1.00  0.00    -0.105 A  
HETATM   28  C   UNL     1     -11.189  12.181  66.533  1.00  0.00    -0.378 A  
HETATM   29  C   UNL     1     -10.799  12.582  69.255  1.00  0.00    -0.054 A  
BRANCH  26  30
HETATM   30  O   UNL     1      -9.751  13.925  65.959  1.00  0.00    -0.293 OA 
HETATM   31  C   UNL     1      -9.655  15.332  66.153  1.00  0.00    -0.321 C  
ENDBRANCH  26  30
ENDBRANCH  23  24
ENDBRANCH  21  23
ENDBRANCH   3  21
ENDBRANCH   2   3
TORSDOF 14
ENDMDL
MODEL      345
REMARK 921   NORMALIZED FREE ENERGY PREDICTED BY IDOCK:   -3.03 KCAL/MOL
REMARK 922        TOTAL FREE ENERGY PREDICTED BY IDOCK:   -8.31 KCAL/MOL
REMARK 923 INTER-LIGAND FREE ENERGY PREDICTED BY IDOCK:   -7.84 KCAL/MOL
REMARK 924 INTRA-LIGAND FREE ENERGY PREDICTED BY IDOCK:   -0.46 KCAL/MOL
REMARK 927      BINDING AFFINITY PREDICTED BY RF-SCORE:    0.00 PKD
ROOT
HETATM    1  C   UNL     1     -10.206   6.274  66.345  1.00  0.00    -0.081 C  
HETATM    2  C   UNL     1      -8.911   5.728  66.933  1.00  0.00    -0.114 C  
ENDROOT
BRANCH   2   3
HETATM    3  N   UNL     1      -8.019   6.681  67.604  1.00  0.00    -0.114 NA 
BRANCH   3   4
HETATM    4  C   UNL     1      -7.764   7.929  66.863  1.00  0.00    -0.099 C  
BRANCH   4   5
HETATM    5  C   UNL     1      -8.913   8.947  66.930  1.00  0.00    -0.150 C  
BRANCH   5   6
HETATM    6  C   UNL     1      -8.412  10.378  66.730  1.00  0.00    -0.125 C  
BRANCH   6   7
HETATM    7  C   UNL     1      -9.467  11.209  66.008  1.00  0.00    -0.208 C  
BRANCH   7   8
HETATM    8  O   UNL     1     -10.759  10.954  66.576  1.00  0.00    -0.251 OA 
BRANCH   8   9
HETATM    9  C   UNL     1     -11.628  11.994  66.520  1.00  0.00    -0.314 C  
HETATM   10  O   UNL     1     -12.148  12.455  65.518  1.00  0.00    -0.495 OA 
BRANCH   9  11
HETATM   11  C   UNL     1     -11.838  12.546  67.878  1.00  0.00    -0.383 A  
HETATM   12  C   UNL     1     -11.823  13.924  68.126  1.00  0.00    -0.407 A  
HETATM   13  C   UNL     1     -12.000  14.406  69.426  1.00  0.00    -0.328 A  
HETATM   14  C   UNL     1     -12.225  12.123  70.227  1.00  0.00    -0.344 A  
HETATM   15  C   UNL     1     -12.205  13.496  70.487  1.00  0.00    -0.361 A  
HETATM   16  C   UNL     1     -12.032  11.646  68.929  1.00  0.00    -0.355 A  
BRANCH  13  17
HETATM   17  O   UNL     1     -11.982  15.737  69.765  1.00  0.00    -0.352 OA 
HETATM   18  C   UNL     1     -10.771  16.454  69.568  1.00  0.00    -0.325 C  
ENDBRANCH  13  17
BRANCH  15  19
HETATM   19  O   UNL     1     -12.368  14.047  71.733  1.00  0.00    -0.292 OA 
HETATM   20  C   UNL     1     -13.580  13.768  72.420  1.00  0.00    -0.588 C  
ENDBRANCH  15  19
ENDBRANCH   9  11
ENDBRANCH   8   9
ENDBRANCH   7   8
ENDBRANCH   6   7
ENDBRANCH   5   6
ENDBRANCH   4   5
ENDBRANCH   3   4
BRANCH   3  21
HETATM   21  C   UNL     1      -8.250   6.914  69.052  1.00  0.00    -0.125 C  
HETATM   22  C   UNL     1      -7.406   8.042  69.672  1.00  0.00    -0.085 C  
BRANCH  21  23
HETATM   23  C   UNL     1      -9.741   7.136  69.448  1.00  0.00    -0.160 C  
BRANCH  23  24
HETATM   24  C   UNL     1     -10.197   6.437  70.711  1.00  0.00    -0.228 A  
HETATM   25  C   UNL     1     -11.292   6.510  72.887  1.00  0.00    -0.172 A  
HETATM   26  C   UNL     1     -11.002   5.163  73.095  1.00  0.00    -0.307 A  
HETATM   27  C   UNL     1      -9.898   5.088  70.935  1.00  0.00    -0.274 A  
HETATM   28  C   UNL     1     -10.309   4.456  72.112  1.00  0.00    -0.213 A  
HETATM   29  C   UNL     1     -10.891   7.142  71.703  1.00  0.00    -0.250 A  
BRANCH  26  30
HETATM   30  O   UNL     1     -11.387   4.424  74.180  1.00  0.00    -0.177 OA 
HETATM   31  C   UNL     1     -10.622   3.254  74.447  1.00  0.00    -0.164 C  
ENDBRANCH  26  30
ENDBRANCH  23  24
ENDBRANCH  21  23
ENDBRANCH   3  21
ENDBRANCH   2   3
TORSDOF 14
ENDMDL
MODEL      346
REMARK 921   NORMALIZED FREE ENERGY PREDICTED BY IDOCK:   -3.01 KCAL/MOL
REMARK 922        TOTAL FREE ENERGY PREDICTED BY IDOCK:   -8.27 KCAL/MOL
REMARK 923 INTER-LIGAND FREE ENERGY PREDICTED BY IDOCK:   -5.79 KCAL/MOL
REMARK 924 INTRA-LIGAND FREE ENERGY PREDICTED BY IDOCK:   -2.49 KCAL/MOL
REMARK 927      BINDING AFFINITY PREDICTED BY RF-SCORE:    0.00 PKD
ROOT
HETATM    1  C   UNL     1     -11.375  14.902  69.676  1.00  0.00    -0.311 C  
HETATM    2  C   UNL     1     -11.812  13.779  68.742  1.00  0.00    -0.363 C  
ENDROOT
BRANCH   2   3
HETATM    3  N   UNL     1     -10.763  12.915  68.189  1.00  0.00    -0.233 NA 
BRANCH   3   4
HETATM    4  C   UNL     1      -9.425  13.529  68.105  1.00  0.00    -0.214 C  
BRANCH   4   5
HETATM    5  C   UNL     1      -8.292  12.529  67.826  1.00  0.00    -0.170 C  
BRANCH   5   6
HETATM    6  C   UNL     1      -7.173  12.640  68.862  1.00  0.00    -0.045 C  
BRANCH   6   7
HETATM    7  C   UNL     1      -6.281  11.404  68.808  1.00  0.00    -0.050 C  
BRANCH   7   8
HETATM    8  O   UNL     1      -6.964  10.286  69.390  1.00  0.00    -0.062 OA 
BRANCH   8   9
HETATM    9  C   UNL     1      -6.837   9.118  68.711  1.00  0.00    -0.061 C  
HETATM   10  O   UNL     1      -6.239   8.946  67.663  1.00  0.00    -0.054 OA 
BRANCH   9  11
HETATM   11  C   UNL     1      -7.584   8.048  69.411  1.00  0.00    -0.102 A  
HETATM   12  C   UNL     1      -8.948   8.167  69.702  1.00  0.00    -0.154 A  
HETATM   13  C   UNL     1      -9.613   7.146  70.388  1.00  0.00    -0.169 A  
HETATM   14  C   UNL     1      -7.543   5.876  70.474  1.00  0.00    -0.091 A  
HETATM   15  C   UNL     1      -8.903   5.988  70.776  1.00  0.00    -0.139 A  
HETATM   16  C   UNL     1      -6.880   6.906  69.804  1.00  0.00    -0.051 A  
BRANCH  13  17
HETATM   17  O   UNL     1     -10.942   7.185  70.731  1.00  0.00    -0.239 OA 
HETATM   18  C   UNL     1     -11.320   8.009  71.825  1.00  0.00    -0.270 C  
ENDBRANCH  13  17
BRANCH  15  19
HETATM   19  O   UNL     1      -9.625   5.033  71.447  1.00  0.00    -0.151 OA 
HETATM   20  C   UNL     1      -9.574   3.703  70.948  1.00  0.00    -0.179 C  
ENDBRANCH  15  19
ENDBRANCH   9  11
ENDBRANCH   8   9
ENDBRANCH   7   8
ENDBRANCH   6   7
ENDBRANCH   5   6
ENDBRANCH   4   5
ENDBRANCH   3   4
BRANCH   3  21
HETATM   21  C   UNL     1     -10.718  11.513  68.676  1.00  0.00    -0.207 C  
HETATM   22  C   UNL     1     -11.367  11.280  70.052  1.00  0.00    -0.292 C  
BRANCH  21  23
HETATM   23  C   UNL     1     -11.283  10.458  67.677  1.00  0.00    -0.287 C  
BRANCH  23  24
HETATM   24  C   UNL     1     -10.465  10.238  66.421  1.00  0.00    -0.233 A  
HETATM   25  C   UNL     1      -9.943  10.818  64.113  1.00  0.00    -0.405 A  
HETATM   26  C   UNL     1      -8.992   9.802  64.057  1.00  0.00    -0.240 A  
HETATM   27  C   UNL     1      -9.517   9.211  66.351  1.00  0.00    -0.288 A  
HETATM   28  C   UNL     1      -8.779   9.005  65.182  1.00  0.00    -0.223 A  
HETATM   29  C   UNL     1     -10.675  11.033  65.287  1.00  0.00    -0.234 A  
BRANCH  26  30
HETATM   30  O   UNL     1      -8.178   9.531  62.991  1.00  0.00    -0.140 OA 
HETATM   31  C   UNL     1      -7.010  10.334  62.872  1.00  0.00    -0.129 C  
ENDBRANCH  26  30
ENDBRANCH  23  24
ENDBRANCH  21  23
ENDBRANCH   3  21
ENDBRANCH   2   3
TORSDOF 14
ENDMDL
MODEL      347
REMARK 921   NORMALIZED FREE ENERGY PREDICTED BY IDOCK:   -3.01 KCAL/MOL
REMARK 922        TOTAL FREE ENERGY PREDICTED BY IDOCK:   -8.27 KCAL/MOL
REMARK 923 INTER-LIGAND FREE ENERGY PREDICTED BY IDOCK:   -6.96 KCAL/MOL
REMARK 924 INTRA-LIGAND FREE ENERGY PREDICTED BY IDOCK:   -1.31 KCAL/MOL
REMARK 927      BINDING AFFINITY PREDICTED BY RF-SCORE:    0.00 PKD
ROOT
HETATM    1  C   UNL     1      -6.167   9.520  71.271  1.00  0.00    -0.042 C  
HETATM    2  C   UNL     1      -7.357   8.880  70.567  1.00  0.00    -0.078 C  
ENDROOT
BRANCH   2   3
HETATM    3  N   UNL     1      -8.696   9.219  71.063  1.00  0.00    -0.278 NA 
BRANCH   3   4
HETATM    4  C   UNL     1      -9.630   9.735  70.045  1.00  0.00    -0.241 C  
BRANCH   4   5
HETATM    5  C   UNL     1      -9.115   9.616  68.602  1.00  0.00    -0.132 C  
BRANCH   5   6
HETATM    6  C   UNL     1     -10.202   9.963  67.584  1.00  0.00    -0.255 C  
BRANCH   6   7
HETATM    7  C   UNL     1      -9.748  11.123  66.704  1.00  0.00    -0.196 C  
BRANCH   7   8
HETATM    8  O   UNL     1      -9.526  12.287  67.511  1.00  0.00    -0.175 OA 
BRANCH   8   9
HETATM    9  C   UNL     1      -8.372  12.953  67.254  1.00  0.00    -0.185 C  
HETATM   10  O   UNL     1      -7.258  12.469  67.155  1.00  0.00    -0.136 OA 
BRANCH   9  11
HETATM   11  C   UNL     1      -8.645  14.405  67.148  1.00  0.00    -0.237 A  
HETATM   12  C   UNL     1      -9.545  14.921  66.208  1.00  0.00    -0.334 A  
HETATM   13  C   UNL     1      -9.756  16.301  66.121  1.00  0.00    -0.329 A  
HETATM   14  C   UNL     1      -8.175  16.644  67.934  1.00  0.00    -0.183 A  
HETATM   15  C   UNL     1      -9.066  17.170  66.994  1.00  0.00    -0.230 A  
HETATM   16  C   UNL     1      -7.955  15.266  68.006  1.00  0.00    -0.135 A  
BRANCH  13  17
HETATM   17  O   UNL     1     -10.604  16.896  65.219  1.00  0.00    -0.633 OA 
HETATM   18  C   UNL     1     -11.459  16.054  64.458  1.00  0.00    -0.271 C  
ENDBRANCH  13  17
BRANCH  15  19
HETATM   19  O   UNL     1      -9.325  18.509  66.845  1.00  0.00    -0.277 OA 
HETATM   20  C   UNL     1      -8.284  19.324  66.324  1.00  0.00    -0.318 C  
ENDBRANCH  15  19
ENDBRANCH   9  11
ENDBRANCH   8   9
ENDBRANCH   7   8
ENDBRANCH   6   7
ENDBRANCH   5   6
ENDBRANCH   4   5
ENDBRANCH   3   4
BRANCH   3  21
HETATM   21  C   UNL     1      -9.338   8.251  71.988  1.00  0.00    -0.230 C  
HETATM   22  C   UNL     1     -10.841   8.478  72.228  1.00  0.00    -0.418 C  
BRANCH  21  23
HETATM   23  C   UNL     1      -9.115   6.753  71.621  1.00  0.00    -0.144 C  
BRANCH  23  24
HETATM   24  C   UNL     1      -9.561   6.342  70.234  1.00  0.00    -0.177 A  
HETATM   25  C   UNL     1     -11.339   6.006  68.601  1.00  0.00     0.016 A  
HETATM   26  C   UNL     1     -10.417   5.525  67.674  1.00  0.00    -0.191 A  
HETATM   27  C   UNL     1      -8.644   5.845  69.300  1.00  0.00    -0.112 A  
HETATM   28  C   UNL     1      -9.069   5.453  68.028  1.00  0.00    -0.114 A  
HETATM   29  C   UNL     1     -10.913   6.411  69.872  1.00  0.00    -0.410 A  
BRANCH  26  30
HETATM   30  O   UNL     1     -10.700   5.154  66.387  1.00  0.00    -0.308 OA 
HETATM   31  C   UNL     1      -9.779   4.259  65.774  1.00  0.00    -0.207 C  
ENDBRANCH  26  30
ENDBRANCH  23  24
ENDBRANCH  21  23
ENDBRANCH   3  21
ENDBRANCH   2   3
TORSDOF 14
ENDMDL
MODEL      348
REMARK 921   NORMALIZED FREE ENERGY PREDICTED BY IDOCK:   -3.00 KCAL/MOL
REMARK 922        TOTAL FREE ENERGY PREDICTED BY IDOCK:   -8.25 KCAL/MOL
REMARK 923 INTER-LIGAND FREE ENERGY PREDICTED BY IDOCK:   -6.64 KCAL/MOL
REMARK 924 INTRA-LIGAND FREE ENERGY PREDICTED BY IDOCK:   -1.61 KCAL/MOL
REMARK 927      BINDING AFFINITY PREDICTED BY RF-SCORE:    0.00 PKD
ROOT
HETATM    1  C   UNL     1      -7.299  11.494  68.480  1.00  0.00    -0.104 C  
HETATM    2  C   UNL     1      -8.038  10.429  69.281  1.00  0.00    -0.157 C  
ENDROOT
BRANCH   2   3
HETATM    3  N   UNL     1      -9.299   9.923  68.727  1.00  0.00    -0.151 NA 
BRANCH   3   4
HETATM    4  C   UNL     1      -9.985  10.835  67.794  1.00  0.00    -0.171 C  
BRANCH   4   5
HETATM    5  C   UNL     1     -10.260  10.227  66.409  1.00  0.00    -0.290 C  
BRANCH   5   6
HETATM    6  C   UNL     1     -10.090  11.260  65.295  1.00  0.00    -0.318 C  
BRANCH   6   7
HETATM    7  C   UNL     1     -11.325  12.149  65.207  1.00  0.00    -0.336 C  
BRANCH   7   8
HETATM    8  O   UNL     1     -10.928  13.523  65.111  1.00  0.00    -0.299 OA 
BRANCH   8   9
HETATM    9  C   UNL     1     -11.321  14.309  66.145  1.00  0.00    -0.342 C  
HETATM   10  O   UNL     1     -12.458  14.449  66.562  1.00  0.00    -0.376 OA 
BRANCH   9  11
HETATM   11  C   UNL     1     -10.153  15.036  66.694  1.00  0.00    -0.267 A  
HETATM   12  C   UNL     1     -10.247  16.364  67.128  1.00  0.00    -0.282 A  
HETATM   13  C   UNL     1      -9.117  17.026  67.616  1.00  0.00    -0.229 A  
HETATM   14  C   UNL     1      -7.800  15.016  67.251  1.00  0.00    -0.241 A  
HETATM   15  C   UNL     1      -7.881  16.344  67.680  1.00  0.00    -0.143 A  
HETATM   16  C   UNL     1      -8.929  14.365  66.749  1.00  0.00    -0.256 A  
BRANCH  13  17
HETATM   17  O   UNL     1      -9.111  18.331  68.045  1.00  0.00    -0.277 OA 
HETATM   18  C   UNL     1      -9.325  19.347  67.076  1.00  0.00    -0.326 C  
ENDBRANCH  13  17
BRANCH  15  19
HETATM   19  O   UNL     1      -6.819  17.062  68.168  1.00  0.00    -0.152 OA 
HETATM   20  C   UNL     1      -5.745  17.332  67.277  1.00  0.00    -0.142 C  
ENDBRANCH  15  19
ENDBRANCH   9  11
ENDBRANCH   8   9
ENDBRANCH   7   8
ENDBRANCH   6   7
ENDBRANCH   5   6
ENDBRANCH   4   5
ENDBRANCH   3   4
BRANCH   3  21
HETATM   21  C   UNL     1      -9.313   8.513  68.261  1.00  0.00    -0.137 C  
HETATM   22  C   UNL     1      -7.928   7.851  68.148  1.00  0.00    -0.125 C  
BRANCH  21  23
HETATM   23  C   UNL     1     -10.250   7.568  69.071  1.00  0.00    -0.208 C  
BRANCH  23  24
HETATM   24  C   UNL     1      -9.779   7.212  70.466  1.00  0.00    -0.176 A  
HETATM   25  C   UNL     1      -8.536   5.748  71.965  1.00  0.00    -0.130 A  
HETATM   26  C   UNL     1      -8.942   6.503  73.064  1.00  0.00    -0.128 A  
HETATM   27  C   UNL     1     -10.193   7.957  71.577  1.00  0.00    -0.232 A  
HETATM   28  C   UNL     1      -9.766   7.611  72.862  1.00  0.00    -0.282 A  
HETATM   29  C   UNL     1      -8.953   6.100  70.676  1.00  0.00    -0.148 A  
BRANCH  26  30
HETATM   30  O   UNL     1      -8.558   6.293  74.360  1.00  0.00    -0.123 OA 
HETATM   31  C   UNL     1      -7.311   5.632  74.547  1.00  0.00    -0.088 C  
ENDBRANCH  26  30
ENDBRANCH  23  24
ENDBRANCH  21  23
ENDBRANCH   3  21
ENDBRANCH   2   3
TORSDOF 14
ENDMDL
MODEL      349
REMARK 921   NORMALIZED FREE ENERGY PREDICTED BY IDOCK:   -3.00 KCAL/MOL
REMARK 922        TOTAL FREE ENERGY PREDICTED BY IDOCK:   -8.24 KCAL/MOL
REMARK 923 INTER-LIGAND FREE ENERGY PREDICTED BY IDOCK:   -8.43 KCAL/MOL
REMARK 924 INTRA-LIGAND FREE ENERGY PREDICTED BY IDOCK:    0.19 KCAL/MOL
REMARK 927      BINDING AFFINITY PREDICTED BY RF-SCORE:    0.00 PKD
ROOT
HETATM    1  C   UNL     1     -11.083   9.575  70.401  1.00  0.00    -0.330 C  
HETATM    2  C   UNL     1     -10.925  10.249  69.043  1.00  0.00    -0.232 C  
ENDROOT
BRANCH   2   3
HETATM    3  N   UNL     1     -10.660   9.384  67.887  1.00  0.00    -0.245 NA 
BRANCH   3   4
HETATM    4  C   UNL     1      -9.597   9.855  66.981  1.00  0.00    -0.175 C  
BRANCH   4   5
HETATM    5  C   UNL     1     -10.077  10.848  65.912  1.00  0.00    -0.307 C  
BRANCH   5   6
HETATM    6  C   UNL     1     -10.658  12.116  66.538  1.00  0.00    -0.269 C  
BRANCH   6   7
HETATM    7  C   UNL     1      -9.534  13.038  67.000  1.00  0.00    -0.237 C  
BRANCH   7   8
HETATM    8  O   UNL     1     -10.086  14.174  67.678  1.00  0.00    -0.233 OA 
BRANCH   8   9
HETATM    9  C   UNL     1     -11.437  14.170  67.802  1.00  0.00    -0.325 C  
HETATM   10  O   UNL     1     -12.250  14.035  66.902  1.00  0.00    -0.436 OA 
BRANCH   9  11
HETATM   11  C   UNL     1     -11.813  14.403  69.215  1.00  0.00    -0.365 A  
HETATM   12  C   UNL     1     -12.469  13.427  69.975  1.00  0.00    -0.202 A  
HETATM   13  C   UNL     1     -12.830  13.693  71.299  1.00  0.00    -0.344 A  
HETATM   14  C   UNL     1     -11.859  15.912  71.104  1.00  0.00    -0.483 A  
HETATM   15  C   UNL     1     -12.521  14.947  71.870  1.00  0.00    -0.333 A  
HETATM   16  C   UNL     1     -11.515  15.647  69.777  1.00  0.00    -0.346 A  
BRANCH  13  17
HETATM   17  O   UNL     1     -13.491  12.804  72.113  1.00  0.00    -0.530 OA 
HETATM   18  C   UNL     1     -13.135  11.432  72.021  1.00  0.00    -0.318 C  
ENDBRANCH  13  17
BRANCH  15  19
HETATM   19  O   UNL     1     -12.911  15.132  73.172  1.00  0.00    -0.440 OA 
HETATM   20  C   UNL     1     -12.520  16.342  73.808  1.00  0.00    -0.551 C  
ENDBRANCH  15  19
ENDBRANCH   9  11
ENDBRANCH   8   9
ENDBRANCH   7   8
ENDBRANCH   6   7
ENDBRANCH   5   6
ENDBRANCH   4   5
ENDBRANCH   3   4
BRANCH   3  21
HETATM   21  C   UNL     1     -10.587   7.923  68.142  1.00  0.00    -0.120 C  
HETATM   22  C   UNL     1     -10.858   7.034  66.915  1.00  0.00    -0.350 C  
BRANCH  21  23
HETATM   23  C   UNL     1      -9.268   7.444  68.819  1.00  0.00    -0.144 C  
BRANCH  23  24
HETATM   24  C   UNL     1      -9.414   6.320  69.822  1.00  0.00    -0.163 A  
HETATM   25  C   UNL     1     -10.808   4.985  71.310  1.00  0.00     0.011 A  
HETATM   26  C   UNL     1      -9.693   4.267  71.736  1.00  0.00    -0.169 A  
HETATM   27  C   UNL     1      -8.297   5.601  70.266  1.00  0.00    -0.112 A  
HETATM   28  C   UNL     1      -8.440   4.576  71.205  1.00  0.00    -0.117 A  
HETATM   29  C   UNL     1     -10.669   6.005  70.361  1.00  0.00    -0.358 A  
BRANCH  26  30
HETATM   30  O   UNL     1      -9.709   3.216  72.612  1.00  0.00    -0.119 OA 
HETATM   31  C   UNL     1      -9.274   3.496  73.937  1.00  0.00    -0.089 C  
ENDBRANCH  26  30
ENDBRANCH  23  24
ENDBRANCH  21  23
ENDBRANCH   3  21
ENDBRANCH   2   3
TORSDOF 14
ENDMDL
MODEL      350
REMARK 921   NORMALIZED FREE ENERGY PREDICTED BY IDOCK:   -3.00 KCAL/MOL
REMARK 922        TOTAL FREE ENERGY PREDICTED BY IDOCK:   -8.24 KCAL/MOL
REMARK 923 INTER-LIGAND FREE ENERGY PREDICTED BY IDOCK:   -6.95 KCAL/MOL
REMARK 924 INTRA-LIGAND FREE ENERGY PREDICTED BY IDOCK:   -1.30 KCAL/MOL
REMARK 927      BINDING AFFINITY PREDICTED BY RF-SCORE:    0.00 PKD
ROOT
HETATM    1  C   UNL     1     -10.619  10.603  69.461  1.00  0.00    -0.265 C  
HETATM    2  C   UNL     1     -11.155  10.100  68.126  1.00  0.00    -0.230 C  
ENDROOT
BRANCH   2   3
HETATM    3  N   UNL     1     -10.938  10.950  66.950  1.00  0.00    -0.256 NA 
BRANCH   3   4
HETATM    4  C   UNL     1     -10.713  12.378  67.240  1.00  0.00    -0.230 C  
BRANCH   4   5
HETATM    5  C   UNL     1     -11.888  13.291  66.855  1.00  0.00    -0.446 C  
BRANCH   5   6
HETATM    6  C   UNL     1     -11.472  14.762  66.820  1.00  0.00    -0.343 C  
BRANCH   6   7
HETATM    7  C   UNL     1     -10.328  15.010  67.797  1.00  0.00    -0.245 C  
BRANCH   7   8
HETATM    8  O   UNL     1      -9.752  16.299  67.552  1.00  0.00    -0.230 OA 
BRANCH   8   9
HETATM    9  C   UNL     1      -8.737  16.643  68.384  1.00  0.00    -0.225 C  
HETATM   10  O   UNL     1      -8.466  16.126  69.455  1.00  0.00    -0.227 OA 
BRANCH   9  11
HETATM   11  C   UNL     1      -8.000  17.800  67.826  1.00  0.00    -0.225 A  
HETATM   12  C   UNL     1      -7.412  18.769  68.648  1.00  0.00    -0.343 A  
HETATM   13  C   UNL     1      -6.746  19.860  68.083  1.00  0.00    -0.278 A  
HETATM   14  C   UNL     1      -7.244  18.998  65.866  1.00  0.00    -0.287 A  
HETATM   15  C   UNL     1      -6.660  19.975  66.678  1.00  0.00    -0.207 A  
HETATM   16  C   UNL     1      -7.922  17.919  66.436  1.00  0.00    -0.302 A  
BRANCH  13  17
HETATM   17  O   UNL     1      -6.158  20.866  68.810  1.00  0.00    -0.337 OA 
HETATM   18  C   UNL     1      -5.492  20.511  70.014  1.00  0.00    -0.337 C  
ENDBRANCH  13  17
BRANCH  15  19
HETATM   19  O   UNL     1      -5.993  21.075  66.201  1.00  0.00    -0.229 OA 
HETATM   20  C   UNL     1      -5.615  21.070  64.831  1.00  0.00    -0.221 C  
ENDBRANCH  15  19
ENDBRANCH   9  11
ENDBRANCH   8   9
ENDBRANCH   7   8
ENDBRANCH   6   7
ENDBRANCH   5   6
ENDBRANCH   4   5
ENDBRANCH   3   4
BRANCH   3  21
HETATM   21  C   UNL     1     -10.025  10.431  65.901  1.00  0.00    -0.255 C  
HETATM   22  C   UNL     1     -10.112  11.153  64.545  1.00  0.00    -0.364 C  
BRANCH  21  23
HETATM   23  C   UNL     1      -8.527  10.349  66.324  1.00  0.00    -0.145 C  
BRANCH  23  24
HETATM   24  C   UNL     1      -8.122   9.096  67.072  1.00  0.00    -0.109 A  
HETATM   25  C   UNL     1      -8.166   6.671  67.309  1.00  0.00    -0.121 A  
HETATM   26  C   UNL     1      -7.424   6.758  68.486  1.00  0.00    -0.092 A  
HETATM   27  C   UNL     1      -7.389   9.174  68.262  1.00  0.00    -0.079 A  
HETATM   28  C   UNL     1      -7.034   8.013  68.954  1.00  0.00    -0.062 A  
HETATM   29  C   UNL     1      -8.513   7.833  66.608  1.00  0.00    -0.129 A  
BRANCH  26  30
HETATM   30  O   UNL     1      -6.979   5.697  69.226  1.00  0.00    -0.059 OA 
HETATM   31  C   UNL     1      -7.972   4.780  69.672  1.00  0.00    -0.066 C  
ENDBRANCH  26  30
ENDBRANCH  23  24
ENDBRANCH  21  23
ENDBRANCH   3  21
ENDBRANCH   2   3
TORSDOF 14
ENDMDL
MODEL      351
REMARK 921   NORMALIZED FREE ENERGY PREDICTED BY IDOCK:   -2.99 KCAL/MOL
REMARK 922        TOTAL FREE ENERGY PREDICTED BY IDOCK:   -8.23 KCAL/MOL
REMARK 923 INTER-LIGAND FREE ENERGY PREDICTED BY IDOCK:   -6.46 KCAL/MOL
REMARK 924 INTRA-LIGAND FREE ENERGY PREDICTED BY IDOCK:   -1.78 KCAL/MOL
REMARK 927      BINDING AFFINITY PREDICTED BY RF-SCORE:    0.00 PKD
ROOT
HETATM    1  C   UNL     1     -13.478   7.306  71.635  1.00  0.00    -0.428 C  
HETATM    2  C   UNL     1     -12.943   8.723  71.469  1.00  0.00    -0.319 C  
ENDROOT
BRANCH   2   3
HETATM    3  N   UNL     1     -11.525   8.872  71.120  1.00  0.00    -0.284 NA 
BRANCH   3   4
HETATM    4  C   UNL     1     -10.954   7.763  70.334  1.00  0.00    -0.249 C  
BRANCH   4   5
HETATM    5  C   UNL     1     -10.636   6.506  71.160  1.00  0.00    -0.271 C  
BRANCH   5   6
HETATM    6  C   UNL     1      -9.682   5.569  70.419  1.00  0.00    -0.242 C  
BRANCH   6   7
HETATM    7  C   UNL     1     -10.051   5.503  68.941  1.00  0.00    -0.198 C  
BRANCH   7   8
HETATM    8  O   UNL     1      -8.891   5.762  68.139  1.00  0.00    -0.107 OA 
BRANCH   8   9
HETATM    9  C   UNL     1      -9.114   6.506  67.027  1.00  0.00    -0.128 C  
HETATM   10  O   UNL     1      -9.807   6.198  66.072  1.00  0.00    -0.023 OA 
BRANCH   9  11
HETATM   11  C   UNL     1      -8.344   7.769  67.106  1.00  0.00    -0.118 A  
HETATM   12  C   UNL     1      -7.146   7.860  67.825  1.00  0.00    -0.086 A  
HETATM   13  C   UNL     1      -6.461   9.076  67.897  1.00  0.00    -0.057 A  
HETATM   14  C   UNL     1      -8.170  10.106  66.510  1.00  0.00    -0.124 A  
HETATM   15  C   UNL     1      -6.977  10.210  67.232  1.00  0.00    -0.083 A  
HETATM   16  C   UNL     1      -8.859   8.893  66.455  1.00  0.00    -0.160 A  
BRANCH  13  17
HETATM   17  O   UNL     1      -5.291   9.263  68.593  1.00  0.00    -0.034 OA 
HETATM   18  C   UNL     1      -5.341   9.169  70.010  1.00  0.00    -0.028 C  
ENDBRANCH  13  17
BRANCH  15  19
HETATM   19  O   UNL     1      -6.248  11.366  67.353  1.00  0.00    -0.062 OA 
HETATM   20  C   UNL     1      -6.914  12.509  67.872  1.00  0.00    -0.105 C  
ENDBRANCH  15  19
ENDBRANCH   9  11
ENDBRANCH   8   9
ENDBRANCH   7   8
ENDBRANCH   6   7
ENDBRANCH   5   6
ENDBRANCH   4   5
ENDBRANCH   3   4
BRANCH   3  21
HETATM   21  C   UNL     1     -11.088  10.203  70.629  1.00  0.00    -0.322 C  
HETATM   22  C   UNL     1      -9.800  10.196  69.786  1.00  0.00    -0.245 C  
BRANCH  21  23
HETATM   23  C   UNL     1     -12.180  11.005  69.858  1.00  0.00    -0.408 C  
BRANCH  23  24
HETATM   24  C   UNL     1     -11.703  11.749  68.628  1.00  0.00    -0.389 A  
HETATM   25  C   UNL     1     -11.306  11.821  66.225  1.00  0.00    -0.350 A  
HETATM   26  C   UNL     1     -10.766  13.101  66.337  1.00  0.00    -0.284 A  
HETATM   27  C   UNL     1     -11.148  13.030  68.733  1.00  0.00    -0.311 A  
HETATM   28  C   UNL     1     -10.696  13.703  67.594  1.00  0.00    -0.253 A  
HETATM   29  C   UNL     1     -11.769  11.150  67.363  1.00  0.00    -0.030 A  
BRANCH  26  30
HETATM   30  O   UNL     1     -10.334  13.877  65.296  1.00  0.00    -0.341 OA 
HETATM   31  C   UNL     1     -10.970  15.141  65.148  1.00  0.00    -0.417 C  
ENDBRANCH  26  30
ENDBRANCH  23  24
ENDBRANCH  21  23
ENDBRANCH   3  21
ENDBRANCH   2   3
TORSDOF 14
ENDMDL
MODEL      352
REMARK 921   NORMALIZED FREE ENERGY PREDICTED BY IDOCK:   -2.96 KCAL/MOL
REMARK 922        TOTAL FREE ENERGY PREDICTED BY IDOCK:   -8.18 KCAL/MOL
REMARK 923 INTER-LIGAND FREE ENERGY PREDICTED BY IDOCK:   -6.90 KCAL/MOL
REMARK 924 INTRA-LIGAND FREE ENERGY PREDICTED BY IDOCK:   -1.28 KCAL/MOL
REMARK 927      BINDING AFFINITY PREDICTED BY RF-SCORE:    0.00 PKD
ROOT
HETATM    1  C   UNL     1     -10.099  10.694  65.147  1.00  0.00    -0.374 C  
HETATM    2  C   UNL     1      -9.231  11.800  65.737  1.00  0.00    -0.139 C  
ENDROOT
BRANCH   2   3
HETATM    3  N   UNL     1      -9.623  12.340  67.043  1.00  0.00    -0.203 NA 
BRANCH   3   4
HETATM    4  C   UNL     1     -10.745  11.643  67.699  1.00  0.00    -0.207 C  
BRANCH   4   5
HETATM    5  C   UNL     1     -11.794  12.581  68.315  1.00  0.00    -0.361 C  
BRANCH   5   6
HETATM    6  C   UNL     1     -11.945  12.350  69.819  1.00  0.00    -0.359 C  
BRANCH   6   7
HETATM    7  C   UNL     1     -12.903  11.192  70.081  1.00  0.00    -0.004 C  
BRANCH   7   8
HETATM    8  O   UNL     1     -12.618  10.607  71.358  1.00  0.00    -0.369 OA 
BRANCH   8   9
HETATM    9  C   UNL     1     -13.032   9.324  71.508  1.00  0.00    -0.359 C  
HETATM   10  O   UNL     1     -14.179   8.943  71.673  1.00  0.00    -0.361 OA 
BRANCH   9  11
HETATM   11  C   UNL     1     -11.863   8.414  71.489  1.00  0.00    -0.345 A  
HETATM   12  C   UNL     1     -11.830   7.272  70.679  1.00  0.00    -0.290 A  
HETATM   13  C   UNL     1     -10.719   6.423  70.708  1.00  0.00    -0.250 A  
HETATM   14  C   UNL     1      -9.668   7.875  72.349  1.00  0.00    -0.275 A  
HETATM   15  C   UNL     1      -9.627   6.729  71.550  1.00  0.00    -0.163 A  
HETATM   16  C   UNL     1     -10.787   8.711  72.328  1.00  0.00    -0.392 A  
BRANCH  13  17
HETATM   17  O   UNL     1     -10.607   5.273  69.964  1.00  0.00    -0.302 OA 
HETATM   18  C   UNL     1     -10.670   5.392  68.549  1.00  0.00    -0.005 C  
ENDBRANCH  13  17
BRANCH  15  19
HETATM   19  O   UNL     1      -8.577   5.846  71.523  1.00  0.00    -0.130 OA 
HETATM   20  C   UNL     1      -7.478   6.160  70.679  1.00  0.00    -0.087 C  
ENDBRANCH  15  19
ENDBRANCH   9  11
ENDBRANCH   8   9
ENDBRANCH   7   8
ENDBRANCH   6   7
ENDBRANCH   5   6
ENDBRANCH   4   5
ENDBRANCH   3   4
BRANCH   3  21
HETATM   21  C   UNL     1      -8.530  12.677  67.989  1.00  0.00    -0.177 C  
HETATM   22  C   UNL     1      -7.111  12.604  67.397  1.00  0.00    -0.138 C  
BRANCH  21  23
HETATM   23  C   UNL     1      -8.694  14.046  68.715  1.00  0.00    -0.028 C  
BRANCH  23  24
HETATM   24  C   UNL     1      -7.940  15.209  68.104  1.00  0.00    -0.125 A  
HETATM   25  C   UNL     1      -6.276  16.979  68.292  1.00  0.00    -0.135 A  
HETATM   26  C   UNL     1      -6.569  17.413  67.001  1.00  0.00    -0.178 A  
HETATM   27  C   UNL     1      -8.237  15.661  66.812  1.00  0.00    -0.300 A  
HETATM   28  C   UNL     1      -7.547  16.745  66.264  1.00  0.00    -0.275 A  
HETATM   29  C   UNL     1      -6.958  15.885  68.840  1.00  0.00    -0.143 A  
BRANCH  26  30
HETATM   30  O   UNL     1      -5.935  18.429  66.339  1.00  0.00    -0.148 OA 
HETATM   31  C   UNL     1      -6.772  19.333  65.627  1.00  0.00    -0.278 C  
ENDBRANCH  26  30
ENDBRANCH  23  24
ENDBRANCH  21  23
ENDBRANCH   3  21
ENDBRANCH   2   3
TORSDOF 14
ENDMDL
MODEL      353
REMARK 921   NORMALIZED FREE ENERGY PREDICTED BY IDOCK:   -2.96 KCAL/MOL
REMARK 922        TOTAL FREE ENERGY PREDICTED BY IDOCK:   -8.17 KCAL/MOL
REMARK 923 INTER-LIGAND FREE ENERGY PREDICTED BY IDOCK:   -6.24 KCAL/MOL
REMARK 924 INTRA-LIGAND FREE ENERGY PREDICTED BY IDOCK:   -1.92 KCAL/MOL
REMARK 927      BINDING AFFINITY PREDICTED BY RF-SCORE:    0.00 PKD
ROOT
HETATM    1  C   UNL     1      -5.897   2.435  65.983  1.00  0.00    -0.022 C  
HETATM    2  C   UNL     1      -6.459   3.432  66.989  1.00  0.00    -0.037 C  
ENDROOT
BRANCH   2   3
HETATM    3  N   UNL     1      -7.350   4.479  66.476  1.00  0.00    -0.080 NA 
BRANCH   3   4
HETATM    4  C   UNL     1      -6.985   5.020  65.154  1.00  0.00    -0.061 C  
BRANCH   4   5
HETATM    5  C   UNL     1      -6.696   6.529  65.150  1.00  0.00    -0.043 C  
BRANCH   5   6
HETATM    6  C   UNL     1      -7.107   7.186  66.468  1.00  0.00    -0.078 C  
BRANCH   6   7
HETATM    7  C   UNL     1      -8.438   7.912  66.302  1.00  0.00    -0.135 C  
BRANCH   7   8
HETATM    8  O   UNL     1      -8.349   8.848  65.220  1.00  0.00    -0.141 OA 
BRANCH   8   9
HETATM    9  C   UNL     1      -7.930  10.091  65.566  1.00  0.00    -0.139 C  
HETATM   10  O   UNL     1      -6.837  10.581  65.336  1.00  0.00    -0.134 OA 
BRANCH   9  11
HETATM   11  C   UNL     1      -8.995  10.786  66.325  1.00  0.00    -0.184 A  
HETATM   12  C   UNL     1     -10.172  11.229  65.709  1.00  0.00    -0.301 A  
HETATM   13  C   UNL     1     -11.143  11.905  66.454  1.00  0.00    -0.309 A  
HETATM   14  C   UNL     1      -9.761  11.675  68.439  1.00  0.00    -0.199 A  
HETATM   15  C   UNL     1     -10.936  12.128  67.833  1.00  0.00    -0.229 A  
HETATM   16  C   UNL     1      -8.787  11.015  67.687  1.00  0.00    -0.131 A  
BRANCH  13  17
HETATM   17  O   UNL     1     -12.317  12.391  65.931  1.00  0.00    -0.638 OA 
HETATM   18  C   UNL     1     -12.324  12.775  64.563  1.00  0.00    -0.445 C  
ENDBRANCH  13  17
BRANCH  15  19
HETATM   19  O   UNL     1     -11.934  12.800  68.493  1.00  0.00    -0.308 OA 
HETATM   20  C   UNL     1     -11.931  12.747  69.913  1.00  0.00    -0.298 C  
ENDBRANCH  15  19
ENDBRANCH   9  11
ENDBRANCH   8   9
ENDBRANCH   7   8
ENDBRANCH   6   7
ENDBRANCH   5   6
ENDBRANCH   4   5
ENDBRANCH   3   4
BRANCH   3  21
HETATM   21  C   UNL     1      -8.810   4.251  66.615  1.00  0.00    -0.116 C  
HETATM   22  C   UNL     1      -9.394   3.180  65.677  1.00  0.00    -0.112 C  
BRANCH  21  23
HETATM   23  C   UNL     1      -9.287   3.950  68.068  1.00  0.00    -0.226 C  
BRANCH  23  24
HETATM   24  C   UNL     1      -9.543   5.161  68.941  1.00  0.00    -0.201 A  
HETATM   25  C   UNL     1      -8.719   6.885  70.453  1.00  0.00    -0.147 A  
HETATM   26  C   UNL     1     -10.011   7.381  70.615  1.00  0.00    -0.186 A  
HETATM   27  C   UNL     1     -10.839   5.658  69.120  1.00  0.00    -0.281 A  
HETATM   28  C   UNL     1     -11.066   6.766  69.940  1.00  0.00    -0.374 A  
HETATM   29  C   UNL     1      -8.488   5.782  69.623  1.00  0.00    -0.112 A  
BRANCH  26  30
HETATM   30  O   UNL     1     -10.355   8.482  71.352  1.00  0.00    -0.206 OA 
HETATM   31  C   UNL     1     -11.120   8.238  72.527  1.00  0.00    -0.368 C  
ENDBRANCH  26  30
ENDBRANCH  23  24
ENDBRANCH  21  23
ENDBRANCH   3  21
ENDBRANCH   2   3
TORSDOF 14
ENDMDL
MODEL      354
REMARK 921   NORMALIZED FREE ENERGY PREDICTED BY IDOCK:   -2.88 KCAL/MOL
REMARK 922        TOTAL FREE ENERGY PREDICTED BY IDOCK:   -8.04 KCAL/MOL
REMARK 923 INTER-LIGAND FREE ENERGY PREDICTED BY IDOCK:   -7.48 KCAL/MOL
REMARK 924 INTRA-LIGAND FREE ENERGY PREDICTED BY IDOCK:   -0.55 KCAL/MOL
REMARK 927      BINDING AFFINITY PREDICTED BY RF-SCORE:    0.00 PKD
ROOT
HETATM    1  C   UNL     1     -10.436   6.994  67.756  1.00  0.00    -0.282 C  
HETATM    2  C   UNL     1      -9.088   6.426  67.330  1.00  0.00    -0.111 C  
ENDROOT
BRANCH   2   3
HETATM    3  N   UNL     1      -7.891   6.961  67.990  1.00  0.00    -0.112 NA 
BRANCH   3   4
HETATM    4  C   UNL     1      -7.466   8.296  67.531  1.00  0.00    -0.094 C  
BRANCH   4   5
HETATM    5  C   UNL     1      -8.626   9.271  67.273  1.00  0.00    -0.125 C  
BRANCH   5   6
HETATM    6  C   UNL     1      -8.430  10.592  68.016  1.00  0.00    -0.120 C  
BRANCH   6   7
HETATM    7  C   UNL     1      -9.181  11.713  67.306  1.00  0.00    -0.170 C  
BRANCH   7   8
HETATM    8  O   UNL     1     -10.560  11.355  67.157  1.00  0.00    -0.220 OA 
BRANCH   8   9
HETATM    9  C   UNL     1     -11.429  12.397  67.155  1.00  0.00    -0.357 C  
HETATM   10  O   UNL     1     -11.764  13.064  66.191  1.00  0.00    -0.354 OA 
BRANCH   9  11
HETATM   11  C   UNL     1     -11.903  12.657  68.534  1.00  0.00    -0.342 A  
HETATM   12  C   UNL     1     -12.178  11.616  69.429  1.00  0.00    -0.246 A  
HETATM   13  C   UNL     1     -12.649  11.900  70.715  1.00  0.00    -0.234 A  
HETATM   14  C   UNL     1     -12.550  14.275  70.210  1.00  0.00    -0.378 A  
HETATM   15  C   UNL     1     -12.835  13.243  71.109  1.00  0.00    -0.280 A  
HETATM   16  C   UNL     1     -12.096  13.985  68.922  1.00  0.00    -0.351 A  
BRANCH  13  17
HETATM   17  O   UNL     1     -12.962  10.945  71.651  1.00  0.00    -0.433 OA 
HETATM   18  C   UNL     1     -13.003   9.590  71.226  1.00  0.00    -0.328 C  
ENDBRANCH  13  17
BRANCH  15  19
HETATM   19  O   UNL     1     -13.302  13.440  72.384  1.00  0.00    -0.508 OA 
HETATM   20  C   UNL     1     -13.603  14.773  72.774  1.00  0.00    -0.440 C  
ENDBRANCH  15  19
ENDBRANCH   9  11
ENDBRANCH   8   9
ENDBRANCH   7   8
ENDBRANCH   6   7
ENDBRANCH   5   6
ENDBRANCH   4   5
ENDBRANCH   3   4
BRANCH   3  21
HETATM   21  C   UNL     1      -7.811   6.812  69.465  1.00  0.00    -0.113 C  
HETATM   22  C   UNL     1      -6.573   7.452  70.117  1.00  0.00    -0.043 C  
BRANCH  21  23
HETATM   23  C   UNL     1      -9.079   7.287  70.237  1.00  0.00    -0.152 C  
BRANCH  23  24
HETATM   24  C   UNL     1      -9.705   6.265  71.164  1.00  0.00    -0.194 A  
HETATM   25  C   UNL     1     -11.351   5.686  72.865  1.00  0.00    -0.325 A  
HETATM   26  C   UNL     1     -10.843   4.391  72.937  1.00  0.00    -0.176 A  
HETATM   27  C   UNL     1      -9.193   4.966  71.254  1.00  0.00    -0.190 A  
HETATM   28  C   UNL     1      -9.767   4.035  72.124  1.00  0.00    -0.221 A  
HETATM   29  C   UNL     1     -10.784   6.617  71.985  1.00  0.00    -0.247 A  
BRANCH  26  30
HETATM   30  O   UNL     1     -11.344   3.381  73.713  1.00  0.00    -0.198 OA 
HETATM   31  C   UNL     1     -10.630   2.151  73.681  1.00  0.00    -0.141 C  
ENDBRANCH  26  30
ENDBRANCH  23  24
ENDBRANCH  21  23
ENDBRANCH   3  21
ENDBRANCH   2   3
TORSDOF 14
ENDMDL
MODEL      355
REMARK 921   NORMALIZED FREE ENERGY PREDICTED BY IDOCK:   -2.88 KCAL/MOL
REMARK 922        TOTAL FREE ENERGY PREDICTED BY IDOCK:   -8.02 KCAL/MOL
REMARK 923 INTER-LIGAND FREE ENERGY PREDICTED BY IDOCK:   -7.44 KCAL/MOL
REMARK 924 INTRA-LIGAND FREE ENERGY PREDICTED BY IDOCK:   -0.59 KCAL/MOL
REMARK 927      BINDING AFFINITY PREDICTED BY RF-SCORE:    0.00 PKD
ROOT
HETATM    1  C   UNL     1      -5.722  10.031  69.420  1.00  0.00    -0.037 C  
HETATM    2  C   UNL     1      -7.206  10.308  69.211  1.00  0.00    -0.093 C  
ENDROOT
BRANCH   2   3
HETATM    3  N   UNL     1      -8.152   9.268  69.630  1.00  0.00    -0.106 NA 
BRANCH   3   4
HETATM    4  C   UNL     1      -9.565   9.687  69.676  1.00  0.00    -0.208 C  
BRANCH   4   5
HETATM    5  C   UNL     1      -9.860  10.988  68.913  1.00  0.00    -0.189 C  
BRANCH   5   6
HETATM    6  C   UNL     1     -11.272  11.501  69.197  1.00  0.00    -0.337 C  
BRANCH   6   7
HETATM    7  C   UNL     1     -12.141  11.371  67.950  1.00  0.00     0.143 C  
BRANCH   7   8
HETATM    8  O   UNL     1     -11.412  11.823  66.801  1.00  0.00    -0.401 OA 
BRANCH   8   9
HETATM    9  C   UNL     1     -12.045  12.758  66.050  1.00  0.00    -0.395 C  
HETATM   10  O   UNL     1     -12.935  12.560  65.239  1.00  0.00    -0.588 OA 
BRANCH   9  11
HETATM   11  C   UNL     1     -11.467  14.095  66.319  1.00  0.00    -0.358 A  
HETATM   12  C   UNL     1     -11.533  14.687  67.586  1.00  0.00    -0.364 A  
HETATM   13  C   UNL     1     -10.998  15.962  67.795  1.00  0.00    -0.315 A  
HETATM   14  C   UNL     1     -10.314  16.041  65.464  1.00  0.00    -0.415 A  
HETATM   15  C   UNL     1     -10.381  16.645  66.724  1.00  0.00    -0.295 A  
HETATM   16  C   UNL     1     -10.864  14.775  65.257  1.00  0.00    -0.395 A  
BRANCH  13  17
HETATM   17  O   UNL     1     -11.034  16.626  68.997  1.00  0.00    -0.312 OA 
HETATM   18  C   UNL     1     -10.825  15.868  70.179  1.00  0.00    -0.353 C  
ENDBRANCH  13  17
BRANCH  15  19
HETATM   19  O   UNL     1      -9.883  17.891  67.008  1.00  0.00    -0.290 OA 
HETATM   20  C   UNL     1      -8.514  17.981  67.377  1.00  0.00    -0.240 C  
ENDBRANCH  15  19
ENDBRANCH   9  11
ENDBRANCH   8   9
ENDBRANCH   7   8
ENDBRANCH   6   7
ENDBRANCH   5   6
ENDBRANCH   4   5
ENDBRANCH   3   4
BRANCH   3  21
HETATM   21  C   UNL     1      -7.977   7.919  69.036  1.00  0.00    -0.122 C  
HETATM   22  C   UNL     1      -9.280   7.134  68.804  1.00  0.00    -0.136 C  
BRANCH  21  23
HETATM   23  C   UNL     1      -7.141   7.889  67.721  1.00  0.00    -0.086 C  
BRANCH  23  24
HETATM   24  C   UNL     1      -7.760   8.593  66.531  1.00  0.00    -0.095 A  
HETATM   25  C   UNL     1      -9.729   9.223  65.241  1.00  0.00    -0.088 A  
HETATM   26  C   UNL     1      -8.925   9.849  64.291  1.00  0.00    -0.243 A  
HETATM   27  C   UNL     1      -6.960   9.213  65.565  1.00  0.00    -0.081 A  
HETATM   28  C   UNL     1      -7.540   9.846  64.463  1.00  0.00    -0.139 A  
HETATM   29  C   UNL     1      -9.150   8.598  66.352  1.00  0.00    -0.218 A  
BRANCH  26  30
HETATM   30  O   UNL     1      -9.373  10.538  63.197  1.00  0.00    -0.258 OA 
HETATM   31  C   UNL     1      -9.923  11.827  63.448  1.00  0.00    -0.423 C  
ENDBRANCH  26  30
ENDBRANCH  23  24
ENDBRANCH  21  23
ENDBRANCH   3  21
ENDBRANCH   2   3
TORSDOF 14
ENDMDL
MODEL      356
REMARK 921   NORMALIZED FREE ENERGY PREDICTED BY IDOCK:   -2.85 KCAL/MOL
REMARK 922        TOTAL FREE ENERGY PREDICTED BY IDOCK:   -7.97 KCAL/MOL
REMARK 923 INTER-LIGAND FREE ENERGY PREDICTED BY IDOCK:   -7.92 KCAL/MOL
REMARK 924 INTRA-LIGAND FREE ENERGY PREDICTED BY IDOCK:   -0.05 KCAL/MOL
REMARK 927      BINDING AFFINITY PREDICTED BY RF-SCORE:    0.00 PKD
ROOT
HETATM    1  C   UNL     1      -8.303  10.274  63.829  1.00  0.00    -0.165 C  
HETATM    2  C   UNL     1      -7.741  10.406  65.239  1.00  0.00    -0.124 C  
ENDROOT
BRANCH   2   3
HETATM    3  N   UNL     1      -8.043   9.331  66.190  1.00  0.00    -0.109 NA 
BRANCH   3   4
HETATM    4  C   UNL     1      -8.687   9.765  67.443  1.00  0.00    -0.132 C  
BRANCH   4   5
HETATM    5  C   UNL     1      -8.886  11.285  67.554  1.00  0.00    -0.140 C  
BRANCH   5   6
HETATM    6  C   UNL     1     -10.112  11.753  66.768  1.00  0.00    -0.235 C  
BRANCH   6   7
HETATM    7  C   UNL     1     -11.378  11.540  67.590  1.00  0.00    -0.291 C  
BRANCH   7   8
HETATM    8  O   UNL     1     -12.241  12.677  67.456  1.00  0.00    -0.389 OA 
BRANCH   8   9
HETATM    9  C   UNL     1     -11.716  13.852  67.885  1.00  0.00    -0.361 C  
HETATM   10  O   UNL     1     -11.007  14.610  67.245  1.00  0.00    -0.300 OA 
BRANCH   9  11
HETATM   11  C   UNL     1     -12.092  14.083  69.299  1.00  0.00    -0.380 A  
HETATM   12  C   UNL     1     -12.591  13.055  70.108  1.00  0.00    -0.047 A  
HETATM   13  C   UNL     1     -12.960  13.318  71.431  1.00  0.00    -0.311 A  
HETATM   14  C   UNL     1     -12.311  15.641  71.135  1.00  0.00    -0.482 A  
HETATM   15  C   UNL     1     -12.817  14.624  71.950  1.00  0.00    -0.328 A  
HETATM   16  C   UNL     1     -11.959  15.377  69.810  1.00  0.00    -0.381 A  
BRANCH  13  17
HETATM   17  O   UNL     1     -13.475  12.378  72.290  1.00  0.00    -0.541 OA 
HETATM   18  C   UNL     1     -13.369  11.011  71.917  1.00  0.00    -0.318 C  
ENDBRANCH  13  17
BRANCH  15  19
HETATM   19  O   UNL     1     -13.204  14.802  73.254  1.00  0.00    -0.531 OA 
HETATM   20  C   UNL     1     -12.324  15.525  74.105  1.00  0.00    -0.669 C  
ENDBRANCH  15  19
ENDBRANCH   9  11
ENDBRANCH   8   9
ENDBRANCH   7   8
ENDBRANCH   6   7
ENDBRANCH   5   6
ENDBRANCH   4   5
ENDBRANCH   3   4
BRANCH   3  21
HETATM   21  C   UNL     1      -8.647   8.092  65.638  1.00  0.00    -0.158 C  
HETATM   22  C   UNL     1      -7.679   6.905  65.492  1.00  0.00    -0.101 C  
BRANCH  21  23
HETATM   23  C   UNL     1      -9.924   7.601  66.383  1.00  0.00    -0.142 C  
BRANCH  23  24
HETATM   24  C   UNL     1      -9.811   6.254  67.066  1.00  0.00    -0.185 A  
HETATM   25  C   UNL     1      -9.554   4.932  69.097  1.00  0.00    -0.231 A  
HETATM   26  C   UNL     1      -9.540   3.757  68.348  1.00  0.00    -0.105 A  
HETATM   27  C   UNL     1      -9.782   5.069  66.321  1.00  0.00    -0.195 A  
HETATM   28  C   UNL     1      -9.661   3.832  66.960  1.00  0.00    -0.213 A  
HETATM   29  C   UNL     1      -9.687   6.172  68.459  1.00  0.00    -0.141 A  
BRANCH  26  30
HETATM   30  O   UNL     1      -9.472   2.489  68.857  1.00  0.00    -0.162 OA 
HETATM   31  C   UNL     1      -8.230   1.813  68.696  1.00  0.00    -0.055 C  
ENDBRANCH  26  30
ENDBRANCH  23  24
ENDBRANCH  21  23
ENDBRANCH   3  21
ENDBRANCH   2   3
TORSDOF 14
ENDMDL
MODEL      357
REMARK 921   NORMALIZED FREE ENERGY PREDICTED BY IDOCK:   -2.84 KCAL/MOL
REMARK 922        TOTAL FREE ENERGY PREDICTED BY IDOCK:   -7.95 KCAL/MOL
REMARK 923 INTER-LIGAND FREE ENERGY PREDICTED BY IDOCK:   -7.58 KCAL/MOL
REMARK 924 INTRA-LIGAND FREE ENERGY PREDICTED BY IDOCK:   -0.37 KCAL/MOL
REMARK 927      BINDING AFFINITY PREDICTED BY RF-SCORE:    0.00 PKD
ROOT
HETATM    1  C   UNL     1      -6.902  11.786  67.404  1.00  0.00    -0.122 C  
HETATM    2  C   UNL     1      -7.768  10.879  66.538  1.00  0.00    -0.149 C  
ENDROOT
BRANCH   2   3
HETATM    3  N   UNL     1      -8.656   9.935  67.226  1.00  0.00    -0.125 NA 
BRANCH   3   4
HETATM    4  C   UNL     1      -8.026   9.159  68.310  1.00  0.00    -0.103 C  
BRANCH   4   5
HETATM    5  C   UNL     1      -7.539   7.765  67.883  1.00  0.00    -0.116 C  
BRANCH   5   6
HETATM    6  C   UNL     1      -8.406   7.180  66.768  1.00  0.00    -0.116 C  
BRANCH   6   7
HETATM    7  C   UNL     1      -8.204   5.671  66.680  1.00  0.00    -0.105 C  
BRANCH   7   8
HETATM    8  O   UNL     1      -9.420   4.998  67.033  1.00  0.00    -0.128 OA 
BRANCH   8   9
HETATM    9  C   UNL     1     -10.441   5.810  67.404  1.00  0.00    -0.254 C  
HETATM   10  O   UNL     1     -11.122   6.506  66.670  1.00  0.00    -0.283 OA 
BRANCH   9  11
HETATM   11  C   UNL     1     -10.599   5.777  68.877  1.00  0.00    -0.337 A  
HETATM   12  C   UNL     1     -11.339   6.748  69.562  1.00  0.00    -0.292 A  
HETATM   13  C   UNL     1     -11.444   6.697  70.956  1.00  0.00    -0.330 A  
HETATM   14  C   UNL     1     -10.080   4.686  70.971  1.00  0.00    -0.246 A  
HETATM   15  C   UNL     1     -10.810   5.655  71.667  1.00  0.00    -0.237 A  
HETATM   16  C   UNL     1      -9.964   4.751  69.581  1.00  0.00    -0.297 A  
BRANCH  13  17
HETATM   17  O   UNL     1     -12.132   7.615  71.712  1.00  0.00    -0.285 OA 
HETATM   18  C   UNL     1     -11.547   8.897  71.890  1.00  0.00    -0.371 C  
ENDBRANCH  13  17
BRANCH  15  19
HETATM   19  O   UNL     1     -10.958   5.676  73.031  1.00  0.00    -0.248 OA 
HETATM   20  C   UNL     1     -11.397   4.480  73.661  1.00  0.00    -0.204 C  
ENDBRANCH  15  19
ENDBRANCH   9  11
ENDBRANCH   8   9
ENDBRANCH   7   8
ENDBRANCH   6   7
ENDBRANCH   5   6
ENDBRANCH   4   5
ENDBRANCH   3   4
BRANCH   3  21
HETATM   21  C   UNL     1     -10.010  10.423  67.586  1.00  0.00    -0.174 C  
HETATM   22  C   UNL     1     -10.094  11.185  68.921  1.00  0.00    -0.199 C  
BRANCH  21  23
HETATM   23  C   UNL     1     -10.711  11.275  66.486  1.00  0.00    -0.323 C  
BRANCH  23  24
HETATM   24  C   UNL     1     -10.691  12.774  66.702  1.00  0.00    -0.279 A  
HETATM   25  C   UNL     1      -9.469  14.881  66.776  1.00  0.00    -0.269 A  
HETATM   26  C   UNL     1     -10.627  15.556  67.157  1.00  0.00    -0.300 A  
HETATM   27  C   UNL     1     -11.846  13.459  67.098  1.00  0.00    -0.429 A  
HETATM   28  C   UNL     1     -11.814  14.840  67.311  1.00  0.00    -0.316 A  
HETATM   29  C   UNL     1      -9.502  13.499  66.551  1.00  0.00    -0.265 A  
BRANCH  26  30
HETATM   30  O   UNL     1     -10.734  16.906  67.351  1.00  0.00    -0.316 OA 
HETATM   31  C   UNL     1     -10.403  17.729  66.238  1.00  0.00    -0.358 C  
ENDBRANCH  26  30
ENDBRANCH  23  24
ENDBRANCH  21  23
ENDBRANCH   3  21
ENDBRANCH   2   3
TORSDOF 14
ENDMDL
MODEL      358
REMARK 921   NORMALIZED FREE ENERGY PREDICTED BY IDOCK:   -2.81 KCAL/MOL
REMARK 922        TOTAL FREE ENERGY PREDICTED BY IDOCK:   -7.91 KCAL/MOL
REMARK 923 INTER-LIGAND FREE ENERGY PREDICTED BY IDOCK:   -8.00 KCAL/MOL
REMARK 924 INTRA-LIGAND FREE ENERGY PREDICTED BY IDOCK:    0.09 KCAL/MOL
REMARK 927      BINDING AFFINITY PREDICTED BY RF-SCORE:    0.00 PKD
ROOT
HETATM    1  C   UNL     1      -6.319  19.389  64.751  1.00  0.00    -0.233 C  
HETATM    2  C   UNL     1      -5.482  19.846  65.940  1.00  0.00    -0.155 C  
ENDROOT
BRANCH   2   3
HETATM    3  N   UNL     1      -6.077  19.713  67.274  1.00  0.00    -0.185 NA 
BRANCH   3   4
HETATM    4  C   UNL     1      -7.355  20.423  67.465  1.00  0.00    -0.318 C  
BRANCH   4   5
HETATM    5  C   UNL     1      -8.448  20.032  66.458  1.00  0.00    -0.359 C  
BRANCH   5   6
HETATM    6  C   UNL     1      -9.718  19.552  67.160  1.00  0.00    -0.447 C  
BRANCH   6   7
HETATM    7  C   UNL     1     -10.321  18.370  66.410  1.00  0.00    -0.405 C  
BRANCH   7   8
HETATM    8  O   UNL     1     -10.294  17.203  67.242  1.00  0.00    -0.310 OA 
BRANCH   8   9
HETATM    9  C   UNL     1     -10.555  17.426  68.554  1.00  0.00    -0.340 C  
HETATM   10  O   UNL     1     -10.324  18.447  69.179  1.00  0.00    -0.257 OA 
BRANCH   9  11
HETATM   11  C   UNL     1     -11.137  16.208  69.164  1.00  0.00    -0.329 A  
HETATM   12  C   UNL     1     -11.583  16.188  70.491  1.00  0.00    -0.322 A  
HETATM   13  C   UNL     1     -12.103  15.012  71.040  1.00  0.00    -0.324 A  
HETATM   14  C   UNL     1     -11.744  13.880  68.920  1.00  0.00    -0.373 A  
HETATM   15  C   UNL     1     -12.186  13.847  70.246  1.00  0.00    -0.358 A  
HETATM   16  C   UNL     1     -11.210  15.053  68.382  1.00  0.00    -0.303 A  
BRANCH  13  17
HETATM   17  O   UNL     1     -12.547  14.894  72.335  1.00  0.00    -0.318 OA 
HETATM   18  C   UNL     1     -12.043  15.814  73.294  1.00  0.00    -0.495 C  
ENDBRANCH  13  17
BRANCH  15  19
HETATM   19  O   UNL     1     -12.705  12.734  70.857  1.00  0.00    -0.288 OA 
HETATM   20  C   UNL     1     -12.256  11.465  70.398  1.00  0.00    -0.362 C  
ENDBRANCH  15  19
ENDBRANCH   9  11
ENDBRANCH   8   9
ENDBRANCH   7   8
ENDBRANCH   6   7
ENDBRANCH   5   6
ENDBRANCH   4   5
ENDBRANCH   3   4
BRANCH   3  21
HETATM   21  C   UNL     1      -6.083  18.357  67.878  1.00  0.00    -0.180 C  
HETATM   22  C   UNL     1      -6.740  18.264  69.266  1.00  0.00    -0.228 C  
BRANCH  21  23
HETATM   23  C   UNL     1      -6.684  17.242  66.970  1.00  0.00    -0.220 C  
BRANCH  23  24
HETATM   24  C   UNL     1      -6.547  15.826  67.490  1.00  0.00    -0.213 A  
HETATM   25  C   UNL     1      -7.568  13.757  68.275  1.00  0.00    -0.129 A  
HETATM   26  C   UNL     1      -6.309  13.208  68.513  1.00  0.00    -0.082 A  
HETATM   27  C   UNL     1      -5.287  15.271  67.744  1.00  0.00    -0.087 A  
HETATM   28  C   UNL     1      -5.172  13.969  68.239  1.00  0.00    -0.111 A  
HETATM   29  C   UNL     1      -7.685  15.057  67.769  1.00  0.00    -0.168 A  
BRANCH  26  30
HETATM   30  O   UNL     1      -6.065  11.935  68.951  1.00  0.00    -0.055 OA 
HETATM   31  C   UNL     1      -5.965  10.933  67.946  1.00  0.00    -0.046 C  
ENDBRANCH  26  30
ENDBRANCH  23  24
ENDBRANCH  21  23
ENDBRANCH   3  21
ENDBRANCH   2   3
TORSDOF 14
ENDMDL
MODEL      359
REMARK 921   NORMALIZED FREE ENERGY PREDICTED BY IDOCK:   -2.81 KCAL/MOL
REMARK 922        TOTAL FREE ENERGY PREDICTED BY IDOCK:   -7.90 KCAL/MOL
REMARK 923 INTER-LIGAND FREE ENERGY PREDICTED BY IDOCK:   -6.40 KCAL/MOL
REMARK 924 INTRA-LIGAND FREE ENERGY PREDICTED BY IDOCK:   -1.51 KCAL/MOL
REMARK 927      BINDING AFFINITY PREDICTED BY RF-SCORE:    0.00 PKD
ROOT
HETATM    1  C   UNL     1      -5.637   8.857  64.125  1.00  0.00    -0.068 C  
HETATM    2  C   UNL     1      -6.123   8.218  65.420  1.00  0.00    -0.045 C  
ENDROOT
BRANCH   2   3
HETATM    3  N   UNL     1      -7.560   7.949  65.542  1.00  0.00    -0.079 NA 
BRANCH   3   4
HETATM    4  C   UNL     1      -7.910   6.560  65.891  1.00  0.00    -0.106 C  
BRANCH   4   5
HETATM    5  C   UNL     1      -6.716   5.706  66.346  1.00  0.00    -0.057 C  
BRANCH   5   6
HETATM    6  C   UNL     1      -6.861   5.261  67.801  1.00  0.00    -0.060 C  
BRANCH   6   7
HETATM    7  C   UNL     1      -6.970   3.742  67.879  1.00  0.00    -0.051 C  
BRANCH   7   8
HETATM    8  O   UNL     1      -8.141   3.376  68.620  1.00  0.00    -0.061 OA 
BRANCH   8   9
HETATM    9  C   UNL     1      -9.313   3.820  68.100  1.00  0.00    -0.173 C  
HETATM   10  O   UNL     1      -9.760   3.568  66.994  1.00  0.00    -0.176 OA 
BRANCH   9  11
HETATM   11  C   UNL     1      -9.983   4.720  69.068  1.00  0.00    -0.213 A  
HETATM   12  C   UNL     1      -9.824   4.566  70.450  1.00  0.00    -0.302 A  
HETATM   13  C   UNL     1     -10.494   5.419  71.333  1.00  0.00    -0.226 A  
HETATM   14  C   UNL     1     -11.468   6.591  69.440  1.00  0.00    -0.346 A  
HETATM   15  C   UNL     1     -11.323   6.443  70.823  1.00  0.00    -0.350 A  
HETATM   16  C   UNL     1     -10.810   5.726  68.563  1.00  0.00    -0.257 A  
BRANCH  13  17
HETATM   17  O   UNL     1     -10.413   5.331  72.702  1.00  0.00    -0.199 OA 
HETATM   18  C   UNL     1     -11.229   4.368  73.353  1.00  0.00    -0.295 C  
ENDBRANCH  13  17
BRANCH  15  19
HETATM   19  O   UNL     1     -11.947   7.235  71.753  1.00  0.00    -0.283 OA 
HETATM   20  C   UNL     1     -11.160   8.223  72.405  1.00  0.00    -0.377 C  
ENDBRANCH  15  19
ENDBRANCH   9  11
ENDBRANCH   8   9
ENDBRANCH   7   8
ENDBRANCH   6   7
ENDBRANCH   5   6
ENDBRANCH   4   5
ENDBRANCH   3   4
BRANCH   3  21
HETATM   21  C   UNL     1      -8.372   8.946  66.285  1.00  0.00    -0.117 C  
HETATM   22  C   UNL     1      -8.672   8.581  67.749  1.00  0.00    -0.137 C  
BRANCH  21  23
HETATM   23  C   UNL     1      -7.817  10.402  66.241  1.00  0.00    -0.132 C  
BRANCH  23  24
HETATM   24  C   UNL     1      -8.858  11.502  66.239  1.00  0.00    -0.186 A  
HETATM   25  C   UNL     1      -9.637  13.673  67.026  1.00  0.00    -0.251 A  
HETATM   26  C   UNL     1     -10.812  13.534  66.291  1.00  0.00    -0.289 A  
HETATM   27  C   UNL     1     -10.048  11.366  65.514  1.00  0.00    -0.293 A  
HETATM   28  C   UNL     1     -11.009  12.380  65.532  1.00  0.00    -0.328 A  
HETATM   29  C   UNL     1      -8.667  12.663  67.000  1.00  0.00    -0.198 A  
BRANCH  26  30
HETATM   30  O   UNL     1     -11.804  14.471  66.191  1.00  0.00    -0.374 OA 
HETATM   31  C   UNL     1     -12.910  14.130  65.363  1.00  0.00    -0.368 C  
ENDBRANCH  26  30
ENDBRANCH  23  24
ENDBRANCH  21  23
ENDBRANCH   3  21
ENDBRANCH   2   3
TORSDOF 14
ENDMDL
MODEL      360
REMARK 921   NORMALIZED FREE ENERGY PREDICTED BY IDOCK:   -2.81 KCAL/MOL
REMARK 922        TOTAL FREE ENERGY PREDICTED BY IDOCK:   -7.89 KCAL/MOL
REMARK 923 INTER-LIGAND FREE ENERGY PREDICTED BY IDOCK:   -7.38 KCAL/MOL
REMARK 924 INTRA-LIGAND FREE ENERGY PREDICTED BY IDOCK:   -0.52 KCAL/MOL
REMARK 927      BINDING AFFINITY PREDICTED BY RF-SCORE:    0.00 PKD
ROOT
HETATM    1  C   UNL     1     -10.879   7.737  69.895  1.00  0.00    -0.228 C  
HETATM    2  C   UNL     1     -10.254   6.894  68.791  1.00  0.00    -0.174 C  
ENDROOT
BRANCH   2   3
HETATM    3  N   UNL     1      -9.661   7.604  67.652  1.00  0.00    -0.147 NA 
BRANCH   3   4
HETATM    4  C   UNL     1     -10.507   8.659  67.062  1.00  0.00    -0.284 C  
BRANCH   4   5
HETATM    5  C   UNL     1      -9.977  10.085  67.280  1.00  0.00    -0.245 C  
BRANCH   5   6
HETATM    6  C   UNL     1      -9.936  10.878  65.974  1.00  0.00    -0.290 C  
BRANCH   6   7
HETATM    7  C   UNL     1      -9.909  12.374  66.267  1.00  0.00    -0.247 C  
BRANCH   7   8
HETATM    8  O   UNL     1     -10.593  13.085  65.227  1.00  0.00    -0.290 OA 
BRANCH   8   9
HETATM    9  C   UNL     1     -11.656  13.822  65.637  1.00  0.00    -0.330 C  
HETATM   10  O   UNL     1     -12.834  13.556  65.468  1.00  0.00    -0.549 OA 
BRANCH   9  11
HETATM   11  C   UNL     1     -11.184  15.058  66.302  1.00  0.00    -0.309 A  
HETATM   12  C   UNL     1     -10.688  16.146  65.573  1.00  0.00    -0.355 A  
HETATM   13  C   UNL     1     -10.227  17.286  66.237  1.00  0.00    -0.342 A  
HETATM   14  C   UNL     1     -10.779  16.251  68.366  1.00  0.00    -0.311 A  
HETATM   15  C   UNL     1     -10.274  17.340  67.648  1.00  0.00    -0.333 A  
HETATM   16  C   UNL     1     -11.222  15.108  67.697  1.00  0.00    -0.329 A  
BRANCH  13  17
HETATM   17  O   UNL     1      -9.708  18.390  65.607  1.00  0.00    -0.408 OA 
HETATM   18  C   UNL     1     -10.489  19.576  65.597  1.00  0.00    -0.322 C  
ENDBRANCH  13  17
BRANCH  15  19
HETATM   19  O   UNL     1      -9.802  18.491  68.226  1.00  0.00    -0.324 OA 
HETATM   20  C   UNL     1      -8.424  18.532  68.572  1.00  0.00    -0.329 C  
ENDBRANCH  15  19
ENDBRANCH   9  11
ENDBRANCH   8   9
ENDBRANCH   7   8
ENDBRANCH   6   7
ENDBRANCH   5   6
ENDBRANCH   4   5
ENDBRANCH   3   4
BRANCH   3  21
HETATM   21  C   UNL     1      -8.241   8.017  67.780  1.00  0.00    -0.129 C  
HETATM   22  C   UNL     1      -7.614   7.773  69.164  1.00  0.00    -0.099 C  
BRANCH  21  23
HETATM   23  C   UNL     1      -7.290   7.429  66.695  1.00  0.00    -0.084 C  
BRANCH  23  24
HETATM   24  C   UNL     1      -7.751   6.141  66.046  1.00  0.00    -0.092 A  
HETATM   25  C   UNL     1      -8.637   4.949  64.114  1.00  0.00    -0.135 A  
HETATM   26  C   UNL     1      -8.665   3.760  64.841  1.00  0.00    -0.115 A  
HETATM   27  C   UNL     1      -7.795   4.945  66.772  1.00  0.00    -0.099 A  
HETATM   28  C   UNL     1      -8.237   3.764  66.169  1.00  0.00    -0.101 A  
HETATM   29  C   UNL     1      -8.184   6.130  64.713  1.00  0.00    -0.112 A  
BRANCH  26  30
HETATM   30  O   UNL     1      -9.032   2.536  64.352  1.00  0.00    -0.106 OA 
HETATM   31  C   UNL     1     -10.260   2.488  63.634  1.00  0.00    -0.158 C  
ENDBRANCH  26  30
ENDBRANCH  23  24
ENDBRANCH  21  23
ENDBRANCH   3  21
ENDBRANCH   2   3
TORSDOF 14
ENDMDL
MODEL      361
REMARK 921   NORMALIZED FREE ENERGY PREDICTED BY IDOCK:   -2.79 KCAL/MOL
REMARK 922        TOTAL FREE ENERGY PREDICTED BY IDOCK:   -7.85 KCAL/MOL
REMARK 923 INTER-LIGAND FREE ENERGY PREDICTED BY IDOCK:   -6.98 KCAL/MOL
REMARK 924 INTRA-LIGAND FREE ENERGY PREDICTED BY IDOCK:   -0.87 KCAL/MOL
REMARK 927      BINDING AFFINITY PREDICTED BY RF-SCORE:    0.00 PKD
ROOT
HETATM    1  C   UNL     1      -9.698  11.637  65.320  1.00  0.00    -0.255 C  
HETATM    2  C   UNL     1      -9.644  13.041  65.911  1.00  0.00    -0.114 C  
ENDROOT
BRANCH   2   3
HETATM    3  N   UNL     1     -10.681  13.404  66.883  1.00  0.00    -0.272 NA 
BRANCH   3   4
HETATM    4  C   UNL     1     -11.617  12.321  67.236  1.00  0.00    -0.357 C  
BRANCH   4   5
HETATM    5  C   UNL     1     -11.875  12.179  68.744  1.00  0.00    -0.356 C  
BRANCH   5   6
HETATM    6  C   UNL     1     -10.974  11.116  69.374  1.00  0.00    -0.298 C  
BRANCH   6   7
HETATM    7  C   UNL     1     -10.442  10.173  68.301  1.00  0.00    -0.211 C  
BRANCH   7   8
HETATM    8  O   UNL     1     -10.841   8.828  68.596  1.00  0.00    -0.115 OA 
BRANCH   8   9
HETATM    9  C   UNL     1     -10.354   7.884  67.752  1.00  0.00    -0.226 C  
HETATM   10  O   UNL     1     -10.162   8.008  66.554  1.00  0.00    -0.264 OA 
BRANCH   9  11
HETATM   11  C   UNL     1     -10.116   6.624  68.492  1.00  0.00    -0.166 A  
HETATM   12  C   UNL     1      -9.222   5.652  68.026  1.00  0.00    -0.110 A  
HETATM   13  C   UNL     1      -9.043   4.463  68.740  1.00  0.00    -0.124 A  
HETATM   14  C   UNL     1     -10.645   5.232  70.397  1.00  0.00    -0.278 A  
HETATM   15  C   UNL     1      -9.760   4.252  69.938  1.00  0.00    -0.221 A  
HETATM   16  C   UNL     1     -10.832   6.411  69.672  1.00  0.00    -0.380 A  
BRANCH  13  17
HETATM   17  O   UNL     1      -8.203   3.448  68.350  1.00  0.00    -0.072 OA 
HETATM   18  C   UNL     1      -7.173   3.759  67.423  1.00  0.00    -0.063 C  
ENDBRANCH  13  17
BRANCH  15  19
HETATM   19  O   UNL     1      -9.532   3.060  70.578  1.00  0.00    -0.150 OA 
HETATM   20  C   UNL     1      -9.161   3.112  71.949  1.00  0.00    -0.101 C  
ENDBRANCH  15  19
ENDBRANCH   9  11
ENDBRANCH   8   9
ENDBRANCH   7   8
ENDBRANCH   6   7
ENDBRANCH   5   6
ENDBRANCH   4   5
ENDBRANCH   3   4
BRANCH   3  21
HETATM   21  C   UNL     1     -10.251  14.194  68.064  1.00  0.00    -0.232 C  
HETATM   22  C   UNL     1      -8.757  14.083  68.413  1.00  0.00    -0.179 C  
BRANCH  21  23
HETATM   23  C   UNL     1     -10.638  15.703  68.015  1.00  0.00    -0.271 C  
BRANCH  23  24
HETATM   24  C   UNL     1      -9.508  16.661  67.700  1.00  0.00    -0.226 A  
HETATM   25  C   UNL     1      -8.222  18.660  68.239  1.00  0.00    -0.349 A  
HETATM   26  C   UNL     1      -7.445  18.487  67.095  1.00  0.00    -0.222 A  
HETATM   27  C   UNL     1      -8.731  16.503  66.546  1.00  0.00    -0.317 A  
HETATM   28  C   UNL     1      -7.701  17.402  66.255  1.00  0.00    -0.340 A  
HETATM   29  C   UNL     1      -9.247  17.753  68.538  1.00  0.00    -0.281 A  
BRANCH  26  30
HETATM   30  O   UNL     1      -6.385  19.269  66.727  1.00  0.00    -0.185 OA 
HETATM   31  C   UNL     1      -6.682  20.625  66.416  1.00  0.00    -0.249 C  
ENDBRANCH  26  30
ENDBRANCH  23  24
ENDBRANCH  21  23
ENDBRANCH   3  21
ENDBRANCH   2   3
TORSDOF 14
ENDMDL
MODEL      362
REMARK 921   NORMALIZED FREE ENERGY PREDICTED BY IDOCK:   -2.78 KCAL/MOL
REMARK 922        TOTAL FREE ENERGY PREDICTED BY IDOCK:   -7.84 KCAL/MOL
REMARK 923 INTER-LIGAND FREE ENERGY PREDICTED BY IDOCK:   -6.48 KCAL/MOL
REMARK 924 INTRA-LIGAND FREE ENERGY PREDICTED BY IDOCK:   -1.36 KCAL/MOL
REMARK 927      BINDING AFFINITY PREDICTED BY RF-SCORE:    0.00 PKD
ROOT
HETATM    1  C   UNL     1     -11.385   9.229  71.515  1.00  0.00    -0.455 C  
HETATM    2  C   UNL     1     -10.629   9.678  70.270  1.00  0.00    -0.278 C  
ENDROOT
BRANCH   2   3
HETATM    3  N   UNL     1     -10.796   8.877  69.053  1.00  0.00    -0.114 NA 
BRANCH   3   4
HETATM    4  C   UNL     1     -10.289   9.501  67.817  1.00  0.00    -0.239 C  
BRANCH   4   5
HETATM    5  C   UNL     1      -9.106  10.457  68.035  1.00  0.00    -0.136 C  
BRANCH   5   6
HETATM    6  C   UNL     1      -8.701  11.160  66.739  1.00  0.00    -0.157 C  
BRANCH   6   7
HETATM    7  C   UNL     1      -9.522  12.431  66.550  1.00  0.00    -0.242 C  
BRANCH   7   8
HETATM    8  O   UNL     1      -9.015  13.466  67.402  1.00  0.00    -0.194 OA 
BRANCH   8   9
HETATM    9  C   UNL     1      -9.943  14.073  68.184  1.00  0.00    -0.242 C  
HETATM   10  O   UNL     1     -10.865  13.534  68.772  1.00  0.00    -0.248 OA 
BRANCH   9  11
HETATM   11  C   UNL     1      -9.709  15.536  68.196  1.00  0.00    -0.208 A  
HETATM   12  C   UNL     1      -8.476  16.084  68.571  1.00  0.00    -0.189 A  
HETATM   13  C   UNL     1      -8.302  17.471  68.595  1.00  0.00    -0.258 A  
HETATM   14  C   UNL     1     -10.597  17.758  67.850  1.00  0.00    -0.389 A  
HETATM   15  C   UNL     1      -9.373  18.316  68.229  1.00  0.00    -0.308 A  
HETATM   16  C   UNL     1     -10.771  16.373  67.843  1.00  0.00    -0.332 A  
BRANCH  13  17
HETATM   17  O   UNL     1      -7.136  18.096  68.967  1.00  0.00    -0.271 OA 
HETATM   18  C   UNL     1      -5.910  17.450  68.654  1.00  0.00    -0.163 C  
ENDBRANCH  13  17
BRANCH  15  19
HETATM   19  O   UNL     1      -9.124  19.664  68.282  1.00  0.00    -0.336 OA 
HETATM   20  C   UNL     1      -9.016  20.359  67.046  1.00  0.00    -0.305 C  
ENDBRANCH  15  19
ENDBRANCH   9  11
ENDBRANCH   8   9
ENDBRANCH   7   8
ENDBRANCH   6   7
ENDBRANCH   5   6
ENDBRANCH   4   5
ENDBRANCH   3   4
BRANCH   3  21
HETATM   21  C   UNL     1     -10.458   7.434  69.144  1.00  0.00    -0.213 C  
HETATM   22  C   UNL     1     -11.063   6.552  68.037  1.00  0.00    -0.332 C  
BRANCH  21  23
HETATM   23  C   UNL     1      -8.933   7.127  69.243  1.00  0.00    -0.138 C  
BRANCH  23  24
HETATM   24  C   UNL     1      -8.494   6.371  70.480  1.00  0.00    -0.138 A  
HETATM   25  C   UNL     1      -8.835   5.763  72.815  1.00  0.00    -0.121 A  
HETATM   26  C   UNL     1      -7.658   5.016  72.808  1.00  0.00    -0.096 A  
HETATM   27  C   UNL     1      -7.307   5.630  70.486  1.00  0.00    -0.079 A  
HETATM   28  C   UNL     1      -6.901   4.949  71.637  1.00  0.00    -0.048 A  
HETATM   29  C   UNL     1      -9.248   6.436  71.659  1.00  0.00    -0.144 A  
BRANCH  26  30
HETATM   30  O   UNL     1      -7.180   4.272  73.852  1.00  0.00    -0.064 OA 
HETATM   31  C   UNL     1      -5.993   4.751  74.473  1.00  0.00    -0.046 C  
ENDBRANCH  26  30
ENDBRANCH  23  24
ENDBRANCH  21  23
ENDBRANCH   3  21
ENDBRANCH   2   3
TORSDOF 14
ENDMDL
MODEL      363
REMARK 921   NORMALIZED FREE ENERGY PREDICTED BY IDOCK:   -2.76 KCAL/MOL
REMARK 922        TOTAL FREE ENERGY PREDICTED BY IDOCK:   -7.81 KCAL/MOL
REMARK 923 INTER-LIGAND FREE ENERGY PREDICTED BY IDOCK:   -7.01 KCAL/MOL
REMARK 924 INTRA-LIGAND FREE ENERGY PREDICTED BY IDOCK:   -0.80 KCAL/MOL
REMARK 927      BINDING AFFINITY PREDICTED BY RF-SCORE:    0.00 PKD
ROOT
HETATM    1  C   UNL     1     -11.769   9.771  71.353  1.00  0.00    -0.475 C  
HETATM    2  C   UNL     1     -11.171   9.822  69.952  1.00  0.00    -0.229 C  
ENDROOT
BRANCH   2   3
HETATM    3  N   UNL     1     -10.356   8.679  69.525  1.00  0.00    -0.211 NA 
BRANCH   3   4
HETATM    4  C   UNL     1      -8.928   8.975  69.305  1.00  0.00    -0.144 C  
BRANCH   4   5
HETATM    5  C   UNL     1      -8.476   8.839  67.842  1.00  0.00    -0.126 C  
BRANCH   5   6
HETATM    6  C   UNL     1      -9.447   9.529  66.884  1.00  0.00    -0.204 C  
BRANCH   6   7
HETATM    7  C   UNL     1      -9.516  11.021  67.188  1.00  0.00    -0.164 C  
BRANCH   7   8
HETATM    8  O   UNL     1     -10.775  11.548  66.749  1.00  0.00    -0.245 OA 
BRANCH   8   9
HETATM    9  C   UNL     1     -11.329  12.476  67.569  1.00  0.00    -0.312 C  
HETATM   10  O   UNL     1     -12.192  12.283  68.409  1.00  0.00    -0.282 OA 
BRANCH   9  11
HETATM   11  C   UNL     1     -10.759  13.811  67.274  1.00  0.00    -0.286 A  
HETATM   12  C   UNL     1      -9.934  14.480  68.187  1.00  0.00    -0.220 A  
HETATM   13  C   UNL     1      -9.436  15.751  67.883  1.00  0.00    -0.212 A  
HETATM   14  C   UNL     1     -10.580  15.671  65.740  1.00  0.00    -0.374 A  
HETATM   15  C   UNL     1      -9.761  16.352  66.646  1.00  0.00    -0.257 A  
HETATM   16  C   UNL     1     -11.087  14.409  66.055  1.00  0.00    -0.324 A  
BRANCH  13  17
HETATM   17  O   UNL     1      -8.637  16.488  68.723  1.00  0.00    -0.241 OA 
HETATM   18  C   UNL     1      -7.312  16.029  68.948  1.00  0.00    -0.176 C  
ENDBRANCH  13  17
BRANCH  15  19
HETATM   19  O   UNL     1      -9.237  17.600  66.424  1.00  0.00    -0.287 OA 
HETATM   20  C   UNL     1     -10.151  18.663  66.192  1.00  0.00    -0.369 C  
ENDBRANCH  15  19
ENDBRANCH   9  11
ENDBRANCH   8   9
ENDBRANCH   7   8
ENDBRANCH   6   7
ENDBRANCH   5   6
ENDBRANCH   4   5
ENDBRANCH   3   4
BRANCH   3  21
HETATM   21  C   UNL     1     -10.569   7.395  70.237  1.00  0.00    -0.231 C  
HETATM   22  C   UNL     1     -11.871   6.658  69.877  1.00  0.00    -0.238 C  
BRANCH  21  23
HETATM   23  C   UNL     1      -9.385   6.387  70.134  1.00  0.00    -0.164 C  
BRANCH  23  24
HETATM   24  C   UNL     1      -9.463   5.183  71.049  1.00  0.00    -0.214 A  
HETATM   25  C   UNL     1      -9.635   2.772  71.357  1.00  0.00    -0.223 A  
HETATM   26  C   UNL     1      -9.668   2.936  72.741  1.00  0.00    -0.122 A  
HETATM   27  C   UNL     1      -9.511   5.339  72.440  1.00  0.00    -0.160 A  
HETATM   28  C   UNL     1      -9.600   4.223  73.276  1.00  0.00    -0.139 A  
HETATM   29  C   UNL     1      -9.534   3.889  70.518  1.00  0.00    -0.251 A  
BRANCH  26  30
HETATM   30  O   UNL     1      -9.708   1.925  73.662  1.00  0.00    -0.074 OA 
HETATM   31  C   UNL     1      -8.529   1.732  74.434  1.00  0.00    -0.057 C  
ENDBRANCH  26  30
ENDBRANCH  23  24
ENDBRANCH  21  23
ENDBRANCH   3  21
ENDBRANCH   2   3
TORSDOF 14
ENDMDL
MODEL      364
REMARK 921   NORMALIZED FREE ENERGY PREDICTED BY IDOCK:   -2.75 KCAL/MOL
REMARK 922        TOTAL FREE ENERGY PREDICTED BY IDOCK:   -7.80 KCAL/MOL
REMARK 923 INTER-LIGAND FREE ENERGY PREDICTED BY IDOCK:   -5.87 KCAL/MOL
REMARK 924 INTRA-LIGAND FREE ENERGY PREDICTED BY IDOCK:   -1.93 KCAL/MOL
REMARK 927      BINDING AFFINITY PREDICTED BY RF-SCORE:    0.00 PKD
ROOT
HETATM    1  C   UNL     1     -14.331   7.828  71.620  1.00  0.00    -0.607 C  
HETATM    2  C   UNL     1     -13.377   9.003  71.796  1.00  0.00    -0.397 C  
ENDROOT
BRANCH   2   3
HETATM    3  N   UNL     1     -11.940   8.709  71.809  1.00  0.00    -0.313 NA 
BRANCH   3   4
HETATM    4  C   UNL     1     -11.584   7.339  72.224  1.00  0.00    -0.277 C  
BRANCH   4   5
HETATM    5  C   UNL     1     -10.835   7.263  73.564  1.00  0.00    -0.290 C  
BRANCH   5   6
HETATM    6  C   UNL     1      -9.603   6.362  73.472  1.00  0.00    -0.166 C  
BRANCH   6   7
HETATM    7  C   UNL     1     -10.017   4.936  73.126  1.00  0.00    -0.156 C  
BRANCH   7   8
HETATM    8  O   UNL     1      -9.097   4.380  72.177  1.00  0.00    -0.118 OA 
BRANCH   8   9
HETATM    9  C   UNL     1      -9.563   3.312  71.482  1.00  0.00    -0.164 C  
HETATM   10  O   UNL     1     -10.071   2.306  71.948  1.00  0.00    -0.164 OA 
BRANCH   9  11
HETATM   11  C   UNL     1      -9.327   3.514  70.034  1.00  0.00    -0.246 A  
HETATM   12  C   UNL     1      -8.457   2.693  69.306  1.00  0.00    -0.099 A  
HETATM   13  C   UNL     1      -8.240   2.931  67.946  1.00  0.00    -0.078 A  
HETATM   14  C   UNL     1      -9.784   4.806  68.042  1.00  0.00    -0.202 A  
HETATM   15  C   UNL     1      -8.912   3.998  67.307  1.00  0.00    -0.133 A  
HETATM   16  C   UNL     1      -9.984   4.574  69.404  1.00  0.00    -0.212 A  
BRANCH  13  17
HETATM   17  O   UNL     1      -7.392   2.191  67.158  1.00  0.00    -0.058 OA 
HETATM   18  C   UNL     1      -6.351   1.471  67.801  1.00  0.00    -0.024 C  
ENDBRANCH  13  17
BRANCH  15  19
HETATM   19  O   UNL     1      -8.644   4.168  65.972  1.00  0.00    -0.112 OA 
HETATM   20  C   UNL     1      -8.680   5.493  65.460  1.00  0.00    -0.154 C  
ENDBRANCH  15  19
ENDBRANCH   9  11
ENDBRANCH   8   9
ENDBRANCH   7   8
ENDBRANCH   6   7
ENDBRANCH   5   6
ENDBRANCH   4   5
ENDBRANCH   3   4
BRANCH   3  21
HETATM   21  C   UNL     1     -11.145   9.177  70.646  1.00  0.00    -0.265 C  
HETATM   22  C   UNL     1     -11.549  10.555  70.093  1.00  0.00    -0.408 C  
BRANCH  21  23
HETATM   23  C   UNL     1      -9.602   9.164  70.863  1.00  0.00    -0.347 C  
BRANCH  23  24
HETATM   24  C   UNL     1      -8.760   9.180  69.605  1.00  0.00    -0.145 A  
HETATM   25  C   UNL     1      -8.063   8.135  67.516  1.00  0.00    -0.123 A  
HETATM   26  C   UNL     1      -7.157   9.167  67.284  1.00  0.00    -0.079 A  
HETATM   27  C   UNL     1      -7.837  10.206  69.369  1.00  0.00    -0.150 A  
HETATM   28  C   UNL     1      -7.053  10.204  68.213  1.00  0.00    -0.075 A  
HETATM   29  C   UNL     1      -8.858   8.141  68.670  1.00  0.00    -0.134 A  
BRANCH  26  30
HETATM   30  O   UNL     1      -6.369   9.301  66.173  1.00  0.00    -0.063 OA 
HETATM   31  C   UNL     1      -6.400  10.570  65.531  1.00  0.00    -0.112 C  
ENDBRANCH  26  30
ENDBRANCH  23  24
ENDBRANCH  21  23
ENDBRANCH   3  21
ENDBRANCH   2   3
TORSDOF 14
ENDMDL
MODEL      365
REMARK 921   NORMALIZED FREE ENERGY PREDICTED BY IDOCK:   -2.71 KCAL/MOL
REMARK 922        TOTAL FREE ENERGY PREDICTED BY IDOCK:   -7.71 KCAL/MOL
REMARK 923 INTER-LIGAND FREE ENERGY PREDICTED BY IDOCK:   -7.92 KCAL/MOL
REMARK 924 INTRA-LIGAND FREE ENERGY PREDICTED BY IDOCK:    0.22 KCAL/MOL
REMARK 927      BINDING AFFINITY PREDICTED BY RF-SCORE:    0.00 PKD
ROOT
HETATM    1  C   UNL     1      -5.341  10.230  69.743  1.00  0.00    -0.038 C  
HETATM    2  C   UNL     1      -6.820  10.416  69.426  1.00  0.00    -0.083 C  
ENDROOT
BRANCH   2   3
HETATM    3  N   UNL     1      -7.786   9.729  70.291  1.00  0.00    -0.176 NA 
BRANCH   3   4
HETATM    4  C   UNL     1      -9.187   9.785  69.833  1.00  0.00    -0.234 C  
BRANCH   4   5
HETATM    5  C   UNL     1      -9.475  10.910  68.827  1.00  0.00    -0.196 C  
BRANCH   5   6
HETATM    6  C   UNL     1     -10.811  11.596  69.114  1.00  0.00    -0.231 C  
BRANCH   6   7
HETATM    7  C   UNL     1     -11.753  11.433  67.926  1.00  0.00    -0.228 C  
BRANCH   7   8
HETATM    8  O   UNL     1     -11.136  11.955  66.742  1.00  0.00    -0.276 OA 
BRANCH   8   9
HETATM    9  C   UNL     1     -11.842  12.922  66.104  1.00  0.00    -0.429 C  
HETATM   10  O   UNL     1     -12.779  12.755  65.342  1.00  0.00    -0.621 OA 
BRANCH   9  11
HETATM   11  C   UNL     1     -11.279  14.252  66.429  1.00  0.00    -0.337 A  
HETATM   12  C   UNL     1     -11.429  14.828  67.697  1.00  0.00    -0.363 A  
HETATM   13  C   UNL     1     -10.905  16.097  67.959  1.00  0.00    -0.333 A  
HETATM   14  C   UNL     1     -10.064  16.205  65.681  1.00  0.00    -0.366 A  
HETATM   15  C   UNL     1     -10.215  16.792  66.941  1.00  0.00    -0.290 A  
HETATM   16  C   UNL     1     -10.604  14.943  65.420  1.00  0.00    -0.391 A  
BRANCH  13  17
HETATM   17  O   UNL     1     -11.020  16.746  69.164  1.00  0.00    -0.301 OA 
HETATM   18  C   UNL     1     -11.194  15.953  70.329  1.00  0.00    -0.380 C  
ENDBRANCH  13  17
BRANCH  15  19
HETATM   19  O   UNL     1      -9.733  18.033  67.275  1.00  0.00    -0.283 OA 
HETATM   20  C   UNL     1      -8.833  18.653  66.367  1.00  0.00    -0.275 C  
ENDBRANCH  15  19
ENDBRANCH   9  11
ENDBRANCH   8   9
ENDBRANCH   7   8
ENDBRANCH   6   7
ENDBRANCH   5   6
ENDBRANCH   4   5
ENDBRANCH   3   4
BRANCH   3  21
HETATM   21  C   UNL     1      -7.404   8.386  70.795  1.00  0.00    -0.060 C  
HETATM   22  C   UNL     1      -7.452   8.227  72.325  1.00  0.00    -0.149 C  
BRANCH  21  23
HETATM   23  C   UNL     1      -8.183   7.201  70.149  1.00  0.00    -0.135 C  
BRANCH  23  24
HETATM   24  C   UNL     1      -9.607   7.011  70.629  1.00  0.00    -0.165 A  
HETATM   25  C   UNL     1     -11.183   6.507  72.418  1.00  0.00    -0.310 A  
HETATM   26  C   UNL     1     -12.249   6.596  71.525  1.00  0.00    -0.340 A  
HETATM   27  C   UNL     1     -10.683   7.086  69.737  1.00  0.00    -0.265 A  
HETATM   28  C   UNL     1     -11.992   6.892  70.186  1.00  0.00    -0.200 A  
HETATM   29  C   UNL     1      -9.871   6.712  71.972  1.00  0.00    -0.166 A  
BRANCH  26  30
HETATM   30  O   UNL     1     -13.572   6.473  71.850  1.00  0.00    -0.120 OA 
HETATM   31  C   UNL     1     -14.262   7.682  72.146  1.00  0.00    -0.185 C  
ENDBRANCH  26  30
ENDBRANCH  23  24
ENDBRANCH  21  23
ENDBRANCH   3  21
ENDBRANCH   2   3
TORSDOF 14
ENDMDL
MODEL      366
REMARK 921   NORMALIZED FREE ENERGY PREDICTED BY IDOCK:   -2.71 KCAL/MOL
REMARK 922        TOTAL FREE ENERGY PREDICTED BY IDOCK:   -7.71 KCAL/MOL
REMARK 923 INTER-LIGAND FREE ENERGY PREDICTED BY IDOCK:   -5.90 KCAL/MOL
REMARK 924 INTRA-LIGAND FREE ENERGY PREDICTED BY IDOCK:   -1.81 KCAL/MOL
REMARK 927      BINDING AFFINITY PREDICTED BY RF-SCORE:    0.00 PKD
ROOT
HETATM    1  C   UNL     1     -10.406  19.436  68.079  1.00  0.00    -0.536 C  
HETATM    2  C   UNL     1      -9.302  18.473  68.499  1.00  0.00    -0.338 C  
ENDROOT
BRANCH   2   3
HETATM    3  N   UNL     1      -9.349  17.112  67.952  1.00  0.00    -0.245 NA 
BRANCH   3   4
HETATM    4  C   UNL     1      -8.819  16.061  68.839  1.00  0.00    -0.233 C  
BRANCH   4   5
HETATM    5  C   UNL     1      -7.568  15.352  68.296  1.00  0.00    -0.115 C  
BRANCH   5   6
HETATM    6  C   UNL     1      -6.683  14.823  69.425  1.00  0.00    -0.149 C  
BRANCH   6   7
HETATM    7  C   UNL     1      -5.439  14.153  68.850  1.00  0.00    -0.083 C  
BRANCH   7   8
HETATM    8  O   UNL     1      -5.583  12.728  68.914  1.00  0.00    -0.068 OA 
BRANCH   8   9
HETATM    9  C   UNL     1      -5.998  12.140  67.764  1.00  0.00    -0.090 C  
HETATM   10  O   UNL     1      -5.660  12.438  66.631  1.00  0.00    -0.263 OA 
BRANCH   9  11
HETATM   11  C   UNL     1      -6.982  11.077  68.071  1.00  0.00    -0.068 A  
HETATM   12  C   UNL     1      -7.219  10.013  67.192  1.00  0.00    -0.090 A  
HETATM   13  C   UNL     1      -8.175   9.042  67.505  1.00  0.00    -0.109 A  
HETATM   14  C   UNL     1      -8.645  10.198  69.591  1.00  0.00    -0.170 A  
HETATM   15  C   UNL     1      -8.894   9.135  68.717  1.00  0.00    -0.132 A  
HETATM   16  C   UNL     1      -7.700  11.173  69.266  1.00  0.00    -0.027 A  
BRANCH  13  17
HETATM   17  O   UNL     1      -8.486   7.976  66.696  1.00  0.00    -0.124 OA 
HETATM   18  C   UNL     1      -7.640   6.836  66.749  1.00  0.00    -0.090 C  
ENDBRANCH  13  17
BRANCH  15  19
HETATM   19  O   UNL     1      -9.817   8.146  68.950  1.00  0.00    -0.168 OA 
HETATM   20  C   UNL     1     -10.327   8.025  70.271  1.00  0.00    -0.212 C  
ENDBRANCH  15  19
ENDBRANCH   9  11
ENDBRANCH   8   9
ENDBRANCH   7   8
ENDBRANCH   6   7
ENDBRANCH   5   6
ENDBRANCH   4   5
ENDBRANCH   3   4
BRANCH   3  21
HETATM   21  C   UNL     1     -10.603  16.703  67.269  1.00  0.00    -0.281 C  
HETATM   22  C   UNL     1     -10.556  16.760  65.732  1.00  0.00    -0.259 C  
BRANCH  21  23
HETATM   23  C   UNL     1     -11.153  15.309  67.697  1.00  0.00    -0.323 C  
BRANCH  23  24
HETATM   24  C   UNL     1     -11.223  14.266  66.601  1.00  0.00    -0.337 A  
HETATM   25  C   UNL     1     -10.257  12.352  65.443  1.00  0.00    -0.302 A  
HETATM   26  C   UNL     1     -11.310  12.352  64.531  1.00  0.00    -0.328 A  
HETATM   27  C   UNL     1     -12.271  14.266  65.673  1.00  0.00    -0.409 A  
HETATM   28  C   UNL     1     -12.318  13.309  64.656  1.00  0.00    -0.447 A  
HETATM   29  C   UNL     1     -10.213  13.303  66.470  1.00  0.00    -0.283 A  
BRANCH  26  30
HETATM   30  O   UNL     1     -11.492  11.444  63.524  1.00  0.00    -0.355 OA 
HETATM   31  C   UNL     1     -12.751  11.484  62.862  1.00  0.00     0.737 C  
ENDBRANCH  26  30
ENDBRANCH  23  24
ENDBRANCH  21  23
ENDBRANCH   3  21
ENDBRANCH   2   3
TORSDOF 14
ENDMDL
MODEL      367
REMARK 921   NORMALIZED FREE ENERGY PREDICTED BY IDOCK:   -2.69 KCAL/MOL
REMARK 922        TOTAL FREE ENERGY PREDICTED BY IDOCK:   -7.69 KCAL/MOL
REMARK 923 INTER-LIGAND FREE ENERGY PREDICTED BY IDOCK:   -6.15 KCAL/MOL
REMARK 924 INTRA-LIGAND FREE ENERGY PREDICTED BY IDOCK:   -1.54 KCAL/MOL
REMARK 927      BINDING AFFINITY PREDICTED BY RF-SCORE:    0.00 PKD
ROOT
HETATM    1  C   UNL     1     -11.370  11.723  68.758  1.00  0.00    -0.325 C  
HETATM    2  C   UNL     1     -10.114  10.930  69.101  1.00  0.00    -0.177 C  
ENDROOT
BRANCH   2   3
HETATM    3  N   UNL     1      -9.489  10.158  68.021  1.00  0.00    -0.144 NA 
BRANCH   3   4
HETATM    4  C   UNL     1      -8.052  10.418  67.815  1.00  0.00    -0.103 C  
BRANCH   4   5
HETATM    5  C   UNL     1      -7.305  10.861  69.083  1.00  0.00    -0.126 C  
BRANCH   5   6
HETATM    6  C   UNL     1      -6.320  11.993  68.792  1.00  0.00    -0.071 C  
BRANCH   6   7
HETATM    7  C   UNL     1      -6.546  12.540  67.387  1.00  0.00    -0.152 C  
BRANCH   7   8
HETATM    8  O   UNL     1      -6.736  13.960  67.444  1.00  0.00    -0.233 OA 
BRANCH   8   9
HETATM    9  C   UNL     1      -7.777  14.371  68.210  1.00  0.00    -0.129 C  
HETATM   10  O   UNL     1      -7.733  14.695  69.385  1.00  0.00    -0.131 OA 
BRANCH   9  11
HETATM   11  C   UNL     1      -9.028  14.333  67.419  1.00  0.00    -0.205 A  
HETATM   12  C   UNL     1      -9.163  13.517  66.288  1.00  0.00    -0.070 A  
HETATM   13  C   UNL     1     -10.351  13.528  65.552  1.00  0.00    -0.300 A  
HETATM   14  C   UNL     1     -11.277  15.161  67.095  1.00  0.00    -0.320 A  
HETATM   15  C   UNL     1     -11.419  14.357  65.960  1.00  0.00    -0.349 A  
HETATM   16  C   UNL     1     -10.082  15.159  67.817  1.00  0.00    -0.230 A  
BRANCH  13  17
HETATM   17  O   UNL     1     -10.565  12.777  64.421  1.00  0.00    -0.333 OA 
HETATM   18  C   UNL     1     -10.515  11.363  64.546  1.00  0.00    -0.322 C  
ENDBRANCH  13  17
BRANCH  15  19
HETATM   19  O   UNL     1     -12.550  14.312  65.184  1.00  0.00    -0.513 OA 
HETATM   20  C   UNL     1     -12.607  15.180  64.059  1.00  0.00     0.330 C  
ENDBRANCH  15  19
ENDBRANCH   9  11
ENDBRANCH   8   9
ENDBRANCH   7   8
ENDBRANCH   6   7
ENDBRANCH   5   6
ENDBRANCH   4   5
ENDBRANCH   3   4
BRANCH   3  21
HETATM   21  C   UNL     1      -9.824   8.714  67.943  1.00  0.00    -0.173 C  
HETATM   22  C   UNL     1     -10.072   8.178  66.522  1.00  0.00    -0.286 C  
BRANCH  21  23
HETATM   23  C   UNL     1      -8.810   7.770  68.658  1.00  0.00    -0.131 C  
BRANCH  23  24
HETATM   24  C   UNL     1      -9.275   7.178  69.972  1.00  0.00    -0.144 A  
HETATM   25  C   UNL     1      -9.814   7.443  72.334  1.00  0.00    -0.207 A  
HETATM   26  C   UNL     1     -10.085   6.080  72.440  1.00  0.00    -0.175 A  
HETATM   27  C   UNL     1      -9.538   5.808  70.091  1.00  0.00    -0.208 A  
HETATM   28  C   UNL     1      -9.951   5.269  71.312  1.00  0.00    -0.256 A  
HETATM   29  C   UNL     1      -9.410   7.987  71.108  1.00  0.00    -0.176 A  
BRANCH  26  30
HETATM   30  O   UNL     1     -10.538   5.443  73.563  1.00  0.00    -0.227 OA 
HETATM   31  C   UNL     1     -10.994   4.107  73.387  1.00  0.00    -0.259 C  
ENDBRANCH  26  30
ENDBRANCH  23  24
ENDBRANCH  21  23
ENDBRANCH   3  21
ENDBRANCH   2   3
TORSDOF 14
ENDMDL
MODEL      368
REMARK 921   NORMALIZED FREE ENERGY PREDICTED BY IDOCK:   -2.67 KCAL/MOL
REMARK 922        TOTAL FREE ENERGY PREDICTED BY IDOCK:   -7.64 KCAL/MOL
REMARK 923 INTER-LIGAND FREE ENERGY PREDICTED BY IDOCK:   -5.91 KCAL/MOL
REMARK 924 INTRA-LIGAND FREE ENERGY PREDICTED BY IDOCK:   -1.74 KCAL/MOL
REMARK 927      BINDING AFFINITY PREDICTED BY RF-SCORE:    0.00 PKD
ROOT
HETATM    1  C   UNL     1     -11.538   7.990  70.773  1.00  0.00    -0.251 C  
HETATM    2  C   UNL     1     -10.895   7.085  69.729  1.00  0.00    -0.248 C  
ENDROOT
BRANCH   2   3
HETATM    3  N   UNL     1     -10.234   7.733  68.591  1.00  0.00    -0.197 NA 
BRANCH   3   4
HETATM    4  C   UNL     1     -10.906   8.943  68.082  1.00  0.00    -0.002 C  
BRANCH   4   5
HETATM    5  C   UNL     1     -10.057  10.220  68.178  1.00  0.00    -0.175 C  
BRANCH   5   6
HETATM    6  C   UNL     1      -9.900  10.898  66.816  1.00  0.00    -0.231 C  
BRANCH   6   7
HETATM    7  C   UNL     1      -9.639  12.390  66.997  1.00  0.00    -0.211 C  
BRANCH   7   8
HETATM    8  O   UNL     1     -10.235  13.121  65.917  1.00  0.00    -0.282 OA 
BRANCH   8   9
HETATM    9  C   UNL     1     -11.188  14.014  66.285  1.00  0.00    -0.320 C  
HETATM   10  O   UNL     1     -12.391  13.908  66.109  1.00  0.00    -0.452 OA 
BRANCH   9  11
HETATM   11  C   UNL     1     -10.554  15.197  66.911  1.00  0.00    -0.297 A  
HETATM   12  C   UNL     1      -9.399  15.783  66.379  1.00  0.00    -0.333 A  
HETATM   13  C   UNL     1      -8.814  16.884  67.013  1.00  0.00    -0.212 A  
HETATM   14  C   UNL     1     -10.558  16.818  68.704  1.00  0.00    -0.353 A  
HETATM   15  C   UNL     1      -9.401  17.407  68.187  1.00  0.00    -0.277 A  
HETATM   16  C   UNL     1     -11.129  15.709  68.076  1.00  0.00    -0.335 A  
BRANCH  13  17
HETATM   17  O   UNL     1      -7.673  17.511  66.575  1.00  0.00    -0.227 OA 
HETATM   18  C   UNL     1      -7.784  18.381  65.457  1.00  0.00     0.422 C  
ENDBRANCH  13  17
BRANCH  15  19
HETATM   19  O   UNL     1      -8.767  18.485  68.750  1.00  0.00    -0.313 OA 
HETATM   20  C   UNL     1      -9.530  19.669  68.939  1.00  0.00    -0.314 C  
ENDBRANCH  15  19
ENDBRANCH   9  11
ENDBRANCH   8   9
ENDBRANCH   7   8
ENDBRANCH   6   7
ENDBRANCH   5   6
ENDBRANCH   4   5
ENDBRANCH   3   4
BRANCH   3  21
HETATM   21  C   UNL     1      -8.760   7.888  68.665  1.00  0.00    -0.128 C  
HETATM   22  C   UNL     1      -8.138   7.555  70.033  1.00  0.00    -0.127 C  
BRANCH  21  23
HETATM   23  C   UNL     1      -7.967   7.123  67.562  1.00  0.00    -0.113 C  
BRANCH  23  24
HETATM   24  C   UNL     1      -7.595   7.934  66.338  1.00  0.00    -0.091 A  
HETATM   25  C   UNL     1      -7.556   8.207  63.917  1.00  0.00    -0.127 A  
HETATM   26  C   UNL     1      -6.857   9.405  64.048  1.00  0.00    -0.096 A  
HETATM   27  C   UNL     1      -6.881   9.133  66.459  1.00  0.00    -0.080 A  
HETATM   28  C   UNL     1      -6.527   9.865  65.323  1.00  0.00    -0.101 A  
HETATM   29  C   UNL     1      -7.921   7.476  65.055  1.00  0.00    -0.132 A  
BRANCH  26  30
HETATM   30  O   UNL     1      -6.495  10.232  63.020  1.00  0.00    -0.133 OA 
HETATM   31  C   UNL     1      -5.165  10.736  63.057  1.00  0.00    -0.170 C  
ENDBRANCH  26  30
ENDBRANCH  23  24
ENDBRANCH  21  23
ENDBRANCH   3  21
ENDBRANCH   2   3
TORSDOF 14
ENDMDL
MODEL      369
REMARK 921   NORMALIZED FREE ENERGY PREDICTED BY IDOCK:   -2.66 KCAL/MOL
REMARK 922        TOTAL FREE ENERGY PREDICTED BY IDOCK:   -7.63 KCAL/MOL
REMARK 923 INTER-LIGAND FREE ENERGY PREDICTED BY IDOCK:   -6.78 KCAL/MOL
REMARK 924 INTRA-LIGAND FREE ENERGY PREDICTED BY IDOCK:   -0.85 KCAL/MOL
REMARK 927      BINDING AFFINITY PREDICTED BY RF-SCORE:    0.00 PKD
ROOT
HETATM    1  C   UNL     1     -11.336  10.206  69.917  1.00  0.00    -0.335 C  
HETATM    2  C   UNL     1     -10.664   8.841  69.831  1.00  0.00    -0.223 C  
ENDROOT
BRANCH   2   3
HETATM    3  N   UNL     1      -9.676   8.642  68.765  1.00  0.00    -0.163 NA 
BRANCH   3   4
HETATM    4  C   UNL     1      -8.285   8.468  69.223  1.00  0.00    -0.115 C  
BRANCH   4   5
HETATM    5  C   UNL     1      -7.774   9.603  70.124  1.00  0.00    -0.179 C  
BRANCH   5   6
HETATM    6  C   UNL     1      -6.770  10.495  69.395  1.00  0.00    -0.076 C  
BRANCH   6   7
HETATM    7  C   UNL     1      -7.031  10.464  67.893  1.00  0.00    -0.082 C  
BRANCH   7   8
HETATM    8  O   UNL     1      -6.912  11.787  67.352  1.00  0.00    -0.099 OA 
BRANCH   8   9
HETATM    9  C   UNL     1      -7.786  12.695  67.853  1.00  0.00    -0.154 C  
HETATM   10  O   UNL     1      -7.601  13.435  68.805  1.00  0.00    -0.113 OA 
BRANCH   9  11
HETATM   11  C   UNL     1      -9.058  12.639  67.096  1.00  0.00    -0.210 A  
HETATM   12  C   UNL     1      -9.778  13.796  66.775  1.00  0.00    -0.277 A  
HETATM   13  C   UNL     1     -10.988  13.701  66.081  1.00  0.00    -0.284 A  
HETATM   14  C   UNL     1     -10.744  11.284  66.015  1.00  0.00    -0.301 A  
HETATM   15  C   UNL     1     -11.475  12.432  65.696  1.00  0.00    -0.367 A  
HETATM   16  C   UNL     1      -9.545  11.383  66.723  1.00  0.00    -0.207 A  
BRANCH  13  17
HETATM   17  O   UNL     1     -11.769  14.779  65.740  1.00  0.00    -0.336 OA 
HETATM   18  C   UNL     1     -11.258  15.688  64.775  1.00  0.00    -0.382 C  
ENDBRANCH  13  17
BRANCH  15  19
HETATM   19  O   UNL     1     -12.669  12.423  65.021  1.00  0.00    -0.631 OA 
HETATM   20  C   UNL     1     -12.653  11.994  63.666  1.00  0.00    -0.490 C  
ENDBRANCH  15  19
ENDBRANCH   9  11
ENDBRANCH   8   9
ENDBRANCH   7   8
ENDBRANCH   6   7
ENDBRANCH   5   6
ENDBRANCH   4   5
ENDBRANCH   3   4
BRANCH   3  21
HETATM   21  C   UNL     1     -10.040   7.700  67.676  1.00  0.00    -0.192 C  
HETATM   22  C   UNL     1      -9.293   7.920  66.348  1.00  0.00    -0.247 C  
BRANCH  21  23
HETATM   23  C   UNL     1      -9.939   6.193  68.057  1.00  0.00    -0.156 C  
BRANCH  23  24
HETATM   24  C   UNL     1      -9.796   5.229  66.898  1.00  0.00    -0.191 A  
HETATM   25  C   UNL     1      -8.431   3.706  65.574  1.00  0.00    -0.110 A  
HETATM   26  C   UNL     1      -9.498   3.477  64.708  1.00  0.00    -0.157 A  
HETATM   27  C   UNL     1     -10.859   5.003  66.015  1.00  0.00    -0.152 A  
HETATM   28  C   UNL     1     -10.713   4.124  64.938  1.00  0.00    -0.139 A  
HETATM   29  C   UNL     1      -8.579   4.577  66.660  1.00  0.00    -0.111 A  
BRANCH  26  30
HETATM   30  O   UNL     1      -9.494   2.610  63.650  1.00  0.00    -0.102 OA 
HETATM   31  C   UNL     1     -10.731   2.444  62.968  1.00  0.00    -0.205 C  
ENDBRANCH  26  30
ENDBRANCH  23  24
ENDBRANCH  21  23
ENDBRANCH   3  21
ENDBRANCH   2   3
TORSDOF 14
ENDMDL
MODEL      370
REMARK 921   NORMALIZED FREE ENERGY PREDICTED BY IDOCK:   -2.65 KCAL/MOL
REMARK 922        TOTAL FREE ENERGY PREDICTED BY IDOCK:   -7.61 KCAL/MOL
REMARK 923 INTER-LIGAND FREE ENERGY PREDICTED BY IDOCK:   -5.50 KCAL/MOL
REMARK 924 INTRA-LIGAND FREE ENERGY PREDICTED BY IDOCK:   -2.10 KCAL/MOL
REMARK 927      BINDING AFFINITY PREDICTED BY RF-SCORE:    0.00 PKD
ROOT
HETATM    1  C   UNL     1      -6.648  10.598  69.940  1.00  0.00    -0.137 C  
HETATM    2  C   UNL     1      -6.704  10.498  68.420  1.00  0.00    -0.060 C  
ENDROOT
BRANCH   2   3
HETATM    3  N   UNL     1      -6.917   9.168  67.839  1.00  0.00    -0.076 NA 
BRANCH   3   4
HETATM    4  C   UNL     1      -8.223   8.554  68.142  1.00  0.00    -0.120 C  
BRANCH   4   5
HETATM    5  C   UNL     1      -9.335   9.566  68.460  1.00  0.00    -0.138 C  
BRANCH   5   6
HETATM    6  C   UNL     1     -10.665   9.164  67.820  1.00  0.00    -0.243 C  
BRANCH   6   7
HETATM    7  C   UNL     1     -10.450   8.022  66.832  1.00  0.00    -0.317 C  
BRANCH   7   8
HETATM    8  O   UNL     1     -11.333   6.937  67.145  1.00  0.00    -0.290 OA 
BRANCH   8   9
HETATM    9  C   UNL     1     -10.805   5.979  67.947  1.00  0.00    -0.290 C  
HETATM   10  O   UNL     1     -11.075   5.782  69.120  1.00  0.00    -0.316 OA 
BRANCH   9  11
HETATM   11  C   UNL     1      -9.791   5.201  67.199  1.00  0.00    -0.191 A  
HETATM   12  C   UNL     1      -8.483   5.043  67.674  1.00  0.00    -0.104 A  
HETATM   13  C   UNL     1      -7.546   4.323  66.927  1.00  0.00    -0.081 A  
HETATM   14  C   UNL     1      -9.238   3.904  65.234  1.00  0.00    -0.150 A  
HETATM   15  C   UNL     1      -7.928   3.747  65.696  1.00  0.00    -0.093 A  
HETATM   16  C   UNL     1     -10.166   4.638  65.976  1.00  0.00    -0.306 A  
BRANCH  13  17
HETATM   17  O   UNL     1      -6.239   4.133  67.306  1.00  0.00    -0.033 OA 
HETATM   18  C   UNL     1      -5.672   5.063  68.218  1.00  0.00    -0.017 C  
ENDBRANCH  13  17
BRANCH  15  19
HETATM   19  O   UNL     1      -6.951   3.059  65.021  1.00  0.00    -0.050 OA 
HETATM   20  C   UNL     1      -6.530   3.578  63.767  1.00  0.00    -0.033 C  
ENDBRANCH  15  19
ENDBRANCH   9  11
ENDBRANCH   8   9
ENDBRANCH   7   8
ENDBRANCH   6   7
ENDBRANCH   5   6
ENDBRANCH   4   5
ENDBRANCH   3   4
BRANCH   3  21
HETATM   21  C   UNL     1      -6.513   8.978  66.423  1.00  0.00    -0.066 C  
HETATM   22  C   UNL     1      -7.234   7.835  65.687  1.00  0.00    -0.068 C  
BRANCH  21  23
HETATM   23  C   UNL     1      -6.594  10.262  65.544  1.00  0.00    -0.128 C  
BRANCH  23  24
HETATM   24  C   UNL     1      -7.954  10.570  64.953  1.00  0.00    -0.063 A  
HETATM   25  C   UNL     1      -9.533  10.431  63.102  1.00  0.00    -0.362 A  
HETATM   26  C   UNL     1     -10.461  11.184  63.817  1.00  0.00    -0.381 A  
HETATM   27  C   UNL     1      -8.888  11.337  65.659  1.00  0.00    -0.124 A  
HETATM   28  C   UNL     1     -10.134  11.630  65.098  1.00  0.00    -0.304 A  
HETATM   29  C   UNL     1      -8.287  10.127  63.666  1.00  0.00    -0.170 A  
BRANCH  26  30
HETATM   30  O   UNL     1     -11.725  11.497  63.398  1.00  0.00    -0.355 OA 
HETATM   31  C   UNL     1     -12.450  12.409  64.215  1.00  0.00    -0.437 C  
ENDBRANCH  26  30
ENDBRANCH  23  24
ENDBRANCH  21  23
ENDBRANCH   3  21
ENDBRANCH   2   3
TORSDOF 14
ENDMDL
MODEL      371
REMARK 921   NORMALIZED FREE ENERGY PREDICTED BY IDOCK:   -2.64 KCAL/MOL
REMARK 922        TOTAL FREE ENERGY PREDICTED BY IDOCK:   -7.59 KCAL/MOL
REMARK 923 INTER-LIGAND FREE ENERGY PREDICTED BY IDOCK:   -7.09 KCAL/MOL
REMARK 924 INTRA-LIGAND FREE ENERGY PREDICTED BY IDOCK:   -0.50 KCAL/MOL
REMARK 927      BINDING AFFINITY PREDICTED BY RF-SCORE:    0.00 PKD
ROOT
HETATM    1  C   UNL     1      -9.421  15.176  70.828  1.00  0.00     1.428 C  
HETATM    2  C   UNL     1      -9.704  15.867  69.499  1.00  0.00    -0.255 C  
ENDROOT
BRANCH   2   3
HETATM    3  N   UNL     1     -10.982  16.575  69.366  1.00  0.00    -0.309 NA 
BRANCH   3   4
HETATM    4  C   UNL     1     -10.979  17.700  68.412  1.00  0.00     0.016 C  
BRANCH   4   5
HETATM    5  C   UNL     1      -9.605  18.362  68.225  1.00  0.00    -0.355 C  
BRANCH   5   6
HETATM    6  C   UNL     1      -9.331  18.688  66.756  1.00  0.00    -0.312 C  
BRANCH   6   7
HETATM    7  C   UNL     1      -8.255  17.761  66.202  1.00  0.00    -0.158 C  
BRANCH   7   8
HETATM    8  O   UNL     1      -8.767  16.425  66.107  1.00  0.00    -0.312 OA 
BRANCH   8   9
HETATM    9  C   UNL     1      -7.994  15.470  66.682  1.00  0.00    -0.099 C  
HETATM   10  O   UNL     1      -6.867  15.615  67.125  1.00  0.00    -0.205 OA 
BRANCH   9  11
HETATM   11  C   UNL     1      -8.704  14.171  66.663  1.00  0.00    -0.073 A  
HETATM   12  C   UNL     1      -9.812  13.946  65.836  1.00  0.00    -0.287 A  
HETATM   13  C   UNL     1     -10.472  12.715  65.865  1.00  0.00    -0.274 A  
HETATM   14  C   UNL     1      -8.899  11.926  67.541  1.00  0.00    -0.169 A  
HETATM   15  C   UNL     1     -10.010  11.694  66.725  1.00  0.00    -0.204 A  
HETATM   16  C   UNL     1      -8.253  13.164  67.520  1.00  0.00    -0.183 A  
BRANCH  13  17
HETATM   17  O   UNL     1     -11.576  12.412  65.104  1.00  0.00    -0.336 OA 
HETATM   18  C   UNL     1     -11.393  12.263  63.703  1.00  0.00    -0.470 C  
ENDBRANCH  13  17
BRANCH  15  19
HETATM   19  O   UNL     1     -10.713  10.516  66.697  1.00  0.00    -0.224 OA 
HETATM   20  C   UNL     1     -10.070   9.382  66.128  1.00  0.00    -0.254 C  
ENDBRANCH  15  19
ENDBRANCH   9  11
ENDBRANCH   8   9
ENDBRANCH   7   8
ENDBRANCH   6   7
ENDBRANCH   5   6
ENDBRANCH   4   5
ENDBRANCH   3   4
BRANCH   3  21
HETATM   21  C   UNL     1     -12.207  15.743  69.264  1.00  0.00    -0.098 C  
HETATM   22  C   UNL     1     -12.128  14.591  68.246  1.00  0.00    -0.234 C  
BRANCH  21  23
HETATM   23  C   UNL     1     -12.723  15.172  70.619  1.00  0.00    -0.451 C  
BRANCH  23  24
HETATM   24  C   UNL     1     -12.653  13.667  70.768  1.00  0.00    -0.397 A  
HETATM   25  C   UNL     1     -13.207  11.639  72.000  1.00  0.00    -0.443 A  
HETATM   26  C   UNL     1     -12.482  10.871  71.092  1.00  0.00    -0.405 A  
HETATM   27  C   UNL     1     -11.916  12.888  69.868  1.00  0.00    -0.377 A  
HETATM   28  C   UNL     1     -11.843  11.501  70.023  1.00  0.00    -0.435 A  
HETATM   29  C   UNL     1     -13.290  13.028  71.839  1.00  0.00    -0.539 A  
BRANCH  26  30
HETATM   30  O   UNL     1     -12.374   9.507  71.110  1.00  0.00    -0.308 OA 
HETATM   31  C   UNL     1     -11.321   8.971  71.903  1.00  0.00    -0.368 C  
ENDBRANCH  26  30
ENDBRANCH  23  24
ENDBRANCH  21  23
ENDBRANCH   3  21
ENDBRANCH   2   3
TORSDOF 14
ENDMDL
MODEL      372
REMARK 921   NORMALIZED FREE ENERGY PREDICTED BY IDOCK:   -2.63 KCAL/MOL
REMARK 922        TOTAL FREE ENERGY PREDICTED BY IDOCK:   -7.56 KCAL/MOL
REMARK 923 INTER-LIGAND FREE ENERGY PREDICTED BY IDOCK:   -6.48 KCAL/MOL
REMARK 924 INTRA-LIGAND FREE ENERGY PREDICTED BY IDOCK:   -1.08 KCAL/MOL
REMARK 927      BINDING AFFINITY PREDICTED BY RF-SCORE:    0.00 PKD
ROOT
HETATM    1  C   UNL     1     -11.786  12.068  69.787  1.00  0.00    -0.401 C  
HETATM    2  C   UNL     1     -11.793  12.344  68.288  1.00  0.00    -0.309 C  
ENDROOT
BRANCH   2   3
HETATM    3  N   UNL     1     -10.731  11.730  67.484  1.00  0.00    -0.213 NA 
BRANCH   3   4
HETATM    4  C   UNL     1      -9.362  11.932  67.993  1.00  0.00    -0.193 C  
BRANCH   4   5
HETATM    5  C   UNL     1      -8.367  12.438  66.937  1.00  0.00    -0.117 C  
BRANCH   5   6
HETATM    6  C   UNL     1      -7.935  13.879  67.212  1.00  0.00    -0.147 C  
BRANCH   6   7
HETATM    7  C   UNL     1      -9.091  14.836  66.940  1.00  0.00    -0.248 C  
BRANCH   7   8
HETATM    8  O   UNL     1      -9.517  15.443  68.167  1.00  0.00    -0.199 OA 
BRANCH   8   9
HETATM    9  C   UNL     1     -10.089  16.666  68.035  1.00  0.00    -0.262 C  
HETATM   10  O   UNL     1     -11.283  16.914  68.027  1.00  0.00    -0.271 OA 
BRANCH   9  11
HETATM   11  C   UNL     1      -9.039  17.695  67.853  1.00  0.00    -0.260 A  
HETATM   12  C   UNL     1      -7.936  17.785  68.711  1.00  0.00    -0.240 A  
HETATM   13  C   UNL     1      -6.979  18.786  68.522  1.00  0.00    -0.265 A  
HETATM   14  C   UNL     1      -8.225  19.595  66.599  1.00  0.00    -0.342 A  
HETATM   15  C   UNL     1      -7.124  19.699  67.454  1.00  0.00    -0.212 A  
HETATM   16  C   UNL     1      -9.187  18.604  66.802  1.00  0.00    -0.308 A  
BRANCH  13  17
HETATM   17  O   UNL     1      -5.877  18.961  69.323  1.00  0.00    -0.213 OA 
HETATM   18  C   UNL     1      -5.643  18.005  70.347  1.00  0.00    -0.221 C  
ENDBRANCH  13  17
BRANCH  15  19
HETATM   19  O   UNL     1      -6.145  20.653  67.337  1.00  0.00    -0.197 OA 
HETATM   20  C   UNL     1      -5.920  21.206  66.047  1.00  0.00    -0.263 C  
ENDBRANCH  15  19
ENDBRANCH   9  11
ENDBRANCH   8   9
ENDBRANCH   7   8
ENDBRANCH   6   7
ENDBRANCH   5   6
ENDBRANCH   4   5
ENDBRANCH   3   4
BRANCH   3  21
HETATM   21  C   UNL     1     -10.963  10.343  67.007  1.00  0.00    -0.154 C  
HETATM   22  C   UNL     1     -10.473  10.056  65.576  1.00  0.00    -0.008 C  
BRANCH  21  23
HETATM   23  C   UNL     1     -10.417   9.229  67.950  1.00  0.00    -0.290 C  
BRANCH  23  24
HETATM   24  C   UNL     1      -9.640   8.118  67.275  1.00  0.00    -0.211 A  
HETATM   25  C   UNL     1      -9.566   5.892  66.286  1.00  0.00    -0.148 A  
HETATM   26  C   UNL     1      -8.195   6.017  66.071  1.00  0.00    -0.125 A  
HETATM   27  C   UNL     1      -8.260   8.229  67.067  1.00  0.00    -0.104 A  
HETATM   28  C   UNL     1      -7.549   7.191  66.459  1.00  0.00    -0.092 A  
HETATM   29  C   UNL     1     -10.283   6.936  66.885  1.00  0.00    -0.310 A  
BRANCH  26  30
HETATM   30  O   UNL     1      -7.400   5.095  65.447  1.00  0.00    -0.070 OA 
HETATM   31  C   UNL     1      -7.959   4.450  64.309  1.00  0.00    -0.091 C  
ENDBRANCH  26  30
ENDBRANCH  23  24
ENDBRANCH  21  23
ENDBRANCH   3  21
ENDBRANCH   2   3
TORSDOF 14
ENDMDL
MODEL      373
REMARK 921   NORMALIZED FREE ENERGY PREDICTED BY IDOCK:   -2.60 KCAL/MOL
REMARK 922        TOTAL FREE ENERGY PREDICTED BY IDOCK:   -7.51 KCAL/MOL
REMARK 923 INTER-LIGAND FREE ENERGY PREDICTED BY IDOCK:   -6.39 KCAL/MOL
REMARK 924 INTRA-LIGAND FREE ENERGY PREDICTED BY IDOCK:   -1.12 KCAL/MOL
REMARK 927      BINDING AFFINITY PREDICTED BY RF-SCORE:    0.00 PKD
ROOT
HETATM    1  C   UNL     1     -10.977  11.118  67.840  1.00  0.00    -0.307 C  
HETATM    2  C   UNL     1     -10.284   9.927  68.492  1.00  0.00    -0.177 C  
ENDROOT
BRANCH   2   3
HETATM    3  N   UNL     1      -9.115   9.367  67.806  1.00  0.00    -0.126 NA 
BRANCH   3   4
HETATM    4  C   UNL     1      -7.827   9.570  68.495  1.00  0.00    -0.085 C  
BRANCH   4   5
HETATM    5  C   UNL     1      -7.049  10.809  68.023  1.00  0.00    -0.081 C  
BRANCH   5   6
HETATM    6  C   UNL     1      -7.179  11.968  69.012  1.00  0.00    -0.053 C  
BRANCH   6   7
HETATM    7  C   UNL     1      -8.026  13.083  68.409  1.00  0.00    -0.135 C  
BRANCH   7   8
HETATM    8  O   UNL     1      -7.499  14.358  68.799  1.00  0.00    -0.122 OA 
BRANCH   8   9
HETATM    9  C   UNL     1      -6.646  14.925  67.910  1.00  0.00    -0.158 C  
HETATM   10  O   UNL     1      -5.824  14.346  67.219  1.00  0.00    -0.293 OA 
BRANCH   9  11
HETATM   11  C   UNL     1      -6.817  16.396  67.917  1.00  0.00    -0.152 A  
HETATM   12  C   UNL     1      -8.010  16.998  68.336  1.00  0.00    -0.239 A  
HETATM   13  C   UNL     1      -8.143  18.390  68.304  1.00  0.00    -0.298 A  
HETATM   14  C   UNL     1      -5.876  18.573  67.448  1.00  0.00    -0.157 A  
HETATM   15  C   UNL     1      -7.064  19.185  67.857  1.00  0.00    -0.231 A  
HETATM   16  C   UNL     1      -5.754  17.182  67.466  1.00  0.00    -0.154 A  
BRANCH  13  17
HETATM   17  O   UNL     1      -9.279  19.065  68.677  1.00  0.00    -0.347 OA 
HETATM   18  C   UNL     1     -10.298  19.238  67.702  1.00  0.00    -0.429 C  
ENDBRANCH  13  17
BRANCH  15  19
HETATM   19  O   UNL     1      -7.274  20.541  67.853  1.00  0.00    -0.296 OA 
HETATM   20  C   UNL     1      -6.386  21.339  67.082  1.00  0.00    -0.341 C  
ENDBRANCH  15  19
ENDBRANCH   9  11
ENDBRANCH   8   9
ENDBRANCH   7   8
ENDBRANCH   6   7
ENDBRANCH   5   6
ENDBRANCH   4   5
ENDBRANCH   3   4
BRANCH   3  21
HETATM   21  C   UNL     1      -9.252   8.000  67.245  1.00  0.00    -0.139 C  
HETATM   22  C   UNL     1      -8.803   7.848  65.781  1.00  0.00    -0.155 C  
BRANCH  21  23
HETATM   23  C   UNL     1      -8.576   6.878  68.089  1.00  0.00    -0.123 C  
BRANCH  23  24
HETATM   24  C   UNL     1      -9.231   6.570  69.419  1.00  0.00    -0.144 A  
HETATM   25  C   UNL     1      -9.087   6.343  71.841  1.00  0.00    -0.145 A  
HETATM   26  C   UNL     1     -10.421   5.944  71.898  1.00  0.00    -0.220 A  
HETATM   27  C   UNL     1     -10.567   6.156  69.485  1.00  0.00    -0.350 A  
HETATM   28  C   UNL     1     -11.158   5.859  70.716  1.00  0.00    -0.324 A  
HETATM   29  C   UNL     1      -8.497   6.652  70.610  1.00  0.00    -0.138 A  
BRANCH  26  30
HETATM   30  O   UNL     1     -11.123   5.671  73.040  1.00  0.00    -0.262 OA 
HETATM   31  C   UNL     1     -10.460   5.953  74.268  1.00  0.00    -0.208 C  
ENDBRANCH  26  30
ENDBRANCH  23  24
ENDBRANCH  21  23
ENDBRANCH   3  21
ENDBRANCH   2   3
TORSDOF 14
ENDMDL
MODEL      374
REMARK 921   NORMALIZED FREE ENERGY PREDICTED BY IDOCK:   -2.58 KCAL/MOL
REMARK 922        TOTAL FREE ENERGY PREDICTED BY IDOCK:   -7.48 KCAL/MOL
REMARK 923 INTER-LIGAND FREE ENERGY PREDICTED BY IDOCK:   -7.99 KCAL/MOL
REMARK 924 INTRA-LIGAND FREE ENERGY PREDICTED BY IDOCK:    0.51 KCAL/MOL
REMARK 927      BINDING AFFINITY PREDICTED BY RF-SCORE:    0.00 PKD
ROOT
HETATM    1  C   UNL     1     -11.039  15.386  70.143  1.00  0.00    -0.324 C  
HETATM    2  C   UNL     1     -10.724  16.555  69.218  1.00  0.00    -0.331 C  
ENDROOT
BRANCH   2   3
HETATM    3  N   UNL     1      -9.399  16.578  68.587  1.00  0.00    -0.232 NA 
BRANCH   3   4
HETATM    4  C   UNL     1      -8.518  15.449  68.938  1.00  0.00    -0.205 C  
BRANCH   4   5
HETATM    5  C   UNL     1      -9.144  14.066  68.701  1.00  0.00    -0.107 C  
BRANCH   5   6
HETATM    6  C   UNL     1      -8.078  13.000  68.441  1.00  0.00    -0.131 C  
BRANCH   6   7
HETATM    7  C   UNL     1      -8.734  11.642  68.219  1.00  0.00    -0.163 C  
BRANCH   7   8
HETATM    8  O   UNL     1      -9.960  11.568  68.959  1.00  0.00    -0.142 OA 
BRANCH   8   9
HETATM    9  C   UNL     1     -10.968  10.905  68.338  1.00  0.00    -0.237 C  
HETATM   10  O   UNL     1     -11.855  11.397  67.662  1.00  0.00    -0.609 OA 
BRANCH   9  11
HETATM   11  C   UNL     1     -10.873   9.457  68.634  1.00  0.00    -0.149 A  
HETATM   12  C   UNL     1     -10.661   8.509  67.625  1.00  0.00    -0.268 A  
HETATM   13  C   UNL     1     -10.603   7.148  67.940  1.00  0.00    -0.208 A  
HETATM   14  C   UNL     1     -10.954   7.690  70.283  1.00  0.00    -0.261 A  
HETATM   15  C   UNL     1     -10.750   6.735  69.283  1.00  0.00    -0.253 A  
HETATM   16  C   UNL     1     -11.027   9.047  69.960  1.00  0.00    -0.230 A  
BRANCH  13  17
HETATM   17  O   UNL     1     -10.417   6.149  67.016  1.00  0.00    -0.209 OA 
HETATM   18  C   UNL     1      -9.347   6.292  66.092  1.00  0.00    -0.087 C  
ENDBRANCH  13  17
BRANCH  15  19
HETATM   19  O   UNL     1     -10.684   5.384  69.510  1.00  0.00    -0.295 OA 
HETATM   20  C   UNL     1     -10.287   4.956  70.806  1.00  0.00    -0.158 C  
ENDBRANCH  15  19
ENDBRANCH   9  11
ENDBRANCH   8   9
ENDBRANCH   7   8
ENDBRANCH   6   7
ENDBRANCH   5   6
ENDBRANCH   4   5
ENDBRANCH   3   4
BRANCH   3  21
HETATM   21  C   UNL     1      -9.346  16.914  67.142  1.00  0.00    -0.234 C  
HETATM   22  C   UNL     1      -8.271  16.164  66.337  1.00  0.00    -0.336 C  
BRANCH  21  23
HETATM   23  C   UNL     1     -10.706  16.785  66.392  1.00  0.00    -0.105 C  
BRANCH  23  24
HETATM   24  C   UNL     1     -10.904  15.506  65.604  1.00  0.00    -0.354 A  
HETATM   25  C   UNL     1     -12.044  14.266  63.844  1.00  0.00    -0.247 A  
HETATM   26  C   UNL     1     -11.325  13.117  64.167  1.00  0.00    -0.398 A  
HETATM   27  C   UNL     1     -10.196  14.343  65.931  1.00  0.00    -0.341 A  
HETATM   28  C   UNL     1     -10.397  13.164  65.208  1.00  0.00    -0.319 A  
HETATM   29  C   UNL     1     -11.835  15.452  64.559  1.00  0.00    -0.257 A  
BRANCH  26  30
HETATM   30  O   UNL     1     -11.399  11.919  63.509  1.00  0.00    -0.417 OA 
HETATM   31  C   UNL     1     -10.186  11.184  63.405  1.00  0.00    -0.380 C  
ENDBRANCH  26  30
ENDBRANCH  23  24
ENDBRANCH  21  23
ENDBRANCH   3  21
ENDBRANCH   2   3
TORSDOF 14
ENDMDL
MODEL      375
REMARK 921   NORMALIZED FREE ENERGY PREDICTED BY IDOCK:   -2.56 KCAL/MOL
REMARK 922        TOTAL FREE ENERGY PREDICTED BY IDOCK:   -7.44 KCAL/MOL
REMARK 923 INTER-LIGAND FREE ENERGY PREDICTED BY IDOCK:   -6.91 KCAL/MOL
REMARK 924 INTRA-LIGAND FREE ENERGY PREDICTED BY IDOCK:   -0.53 KCAL/MOL
REMARK 927      BINDING AFFINITY PREDICTED BY RF-SCORE:    0.00 PKD
ROOT
HETATM    1  C   UNL     1     -10.870   5.754  67.430  1.00  0.00    -0.279 C  
HETATM    2  C   UNL     1      -9.967   4.554  67.172  1.00  0.00    -0.159 C  
ENDROOT
BRANCH   2   3
HETATM    3  N   UNL     1      -8.517   4.779  67.213  1.00  0.00    -0.105 NA 
BRANCH   3   4
HETATM    4  C   UNL     1      -8.005   5.750  66.229  1.00  0.00    -0.102 C  
BRANCH   4   5
HETATM    5  C   UNL     1      -8.548   7.176  66.411  1.00  0.00    -0.137 C  
BRANCH   5   6
HETATM    6  C   UNL     1      -7.663   8.210  65.713  1.00  0.00    -0.092 C  
BRANCH   6   7
HETATM    7  C   UNL     1      -8.525   9.290  65.067  1.00  0.00    -0.163 C  
BRANCH   7   8
HETATM    8  O   UNL     1      -9.757   9.423  65.787  1.00  0.00    -0.267 OA 
BRANCH   8   9
HETATM    9  C   UNL     1     -10.304  10.665  65.767  1.00  0.00    -0.219 C  
HETATM   10  O   UNL     1     -10.339  11.429  64.818  1.00  0.00    -0.259 OA 
BRANCH   9  11
HETATM   11  C   UNL     1     -10.833  11.001  67.109  1.00  0.00    -0.336 A  
HETATM   12  C   UNL     1     -10.858  10.065  68.150  1.00  0.00    -0.303 A  
HETATM   13  C   UNL     1     -11.390  10.413  69.395  1.00  0.00    -0.250 A  
HETATM   14  C   UNL     1     -11.856  12.646  68.557  1.00  0.00    -0.342 A  
HETATM   15  C   UNL     1     -11.892  11.717  69.601  1.00  0.00    -0.352 A  
HETATM   16  C   UNL     1     -11.339  12.288  67.310  1.00  0.00    -0.392 A  
BRANCH  13  17
HETATM   17  O   UNL     1     -11.472   9.556  70.466  1.00  0.00    -0.262 OA 
HETATM   18  C   UNL     1     -10.310   9.381  71.265  1.00  0.00    -0.292 C  
ENDBRANCH  13  17
BRANCH  15  19
HETATM   19  O   UNL     1     -12.400  11.979  70.848  1.00  0.00    -0.373 OA 
HETATM   20  C   UNL     1     -12.699  13.332  71.163  1.00  0.00    -0.320 C  
ENDBRANCH  15  19
ENDBRANCH   9  11
ENDBRANCH   8   9
ENDBRANCH   7   8
ENDBRANCH   6   7
ENDBRANCH   5   6
ENDBRANCH   4   5
ENDBRANCH   3   4
BRANCH   3  21
HETATM   21  C   UNL     1      -7.899   4.946  68.553  1.00  0.00    -0.081 C  
HETATM   22  C   UNL     1      -6.473   5.524  68.545  1.00  0.00    -0.043 C  
BRANCH  21  23
HETATM   23  C   UNL     1      -8.757   5.757  69.570  1.00  0.00    -0.111 C  
BRANCH  23  24
HETATM   24  C   UNL     1      -9.348   4.960  70.715  1.00  0.00    -0.211 A  
HETATM   25  C   UNL     1     -10.448   4.884  72.888  1.00  0.00    -0.257 A  
HETATM   26  C   UNL     1     -10.400   3.492  72.880  1.00  0.00    -0.166 A  
HETATM   27  C   UNL     1      -9.292   3.562  70.722  1.00  0.00    -0.227 A  
HETATM   28  C   UNL     1      -9.825   2.836  71.791  1.00  0.00    -0.220 A  
HETATM   29  C   UNL     1      -9.924   5.613  71.813  1.00  0.00    -0.222 A  
BRANCH  26  30
HETATM   30  O   UNL     1     -10.925   2.671  73.841  1.00  0.00    -0.182 OA 
HETATM   31  C   UNL     1     -11.682   1.560  73.373  1.00  0.00    -0.182 C  
ENDBRANCH  26  30
ENDBRANCH  23  24
ENDBRANCH  21  23
ENDBRANCH   3  21
ENDBRANCH   2   3
TORSDOF 14
ENDMDL
MODEL      376
REMARK 921   NORMALIZED FREE ENERGY PREDICTED BY IDOCK:   -2.55 KCAL/MOL
REMARK 922        TOTAL FREE ENERGY PREDICTED BY IDOCK:   -7.42 KCAL/MOL
REMARK 923 INTER-LIGAND FREE ENERGY PREDICTED BY IDOCK:   -6.21 KCAL/MOL
REMARK 924 INTRA-LIGAND FREE ENERGY PREDICTED BY IDOCK:   -1.22 KCAL/MOL
REMARK 927      BINDING AFFINITY PREDICTED BY RF-SCORE:    0.00 PKD
ROOT
HETATM    1  C   UNL     1     -10.628   5.931  66.892  1.00  0.00    -0.384 C  
HETATM    2  C   UNL     1      -9.720   4.708  66.846  1.00  0.00    -0.197 C  
ENDROOT
BRANCH   2   3
HETATM    3  N   UNL     1      -8.272   4.940  66.896  1.00  0.00    -0.107 NA 
BRANCH   3   4
HETATM    4  C   UNL     1      -7.779   6.017  66.018  1.00  0.00    -0.095 C  
BRANCH   4   5
HETATM    5  C   UNL     1      -8.142   7.433  66.495  1.00  0.00    -0.117 C  
BRANCH   5   6
HETATM    6  C   UNL     1      -6.960   8.394  66.361  1.00  0.00    -0.074 C  
BRANCH   6   7
HETATM    7  C   UNL     1      -7.437   9.836  66.492  1.00  0.00    -0.095 C  
BRANCH   7   8
HETATM    8  O   UNL     1      -8.670   9.876  67.222  1.00  0.00    -0.128 OA 
BRANCH   8   9
HETATM    9  C   UNL     1      -8.880  11.010  67.936  1.00  0.00    -0.134 C  
HETATM   10  O   UNL     1      -8.270  12.061  67.829  1.00  0.00    -0.133 OA 
BRANCH   9  11
HETATM   11  C   UNL     1      -9.956  10.787  68.929  1.00  0.00    -0.213 A  
HETATM   12  C   UNL     1     -10.825  11.813  69.320  1.00  0.00    -0.185 A  
HETATM   13  C   UNL     1     -11.812  11.570  70.279  1.00  0.00    -0.342 A  
HETATM   14  C   UNL     1     -11.068   9.262  70.441  1.00  0.00    -0.300 A  
HETATM   15  C   UNL     1     -11.936  10.281  70.844  1.00  0.00    -0.375 A  
HETATM   16  C   UNL     1     -10.073   9.514  69.494  1.00  0.00    -0.218 A  
BRANCH  13  17
HETATM   17  O   UNL     1     -12.695  12.518  70.736  1.00  0.00    -0.239 OA 
HETATM   18  C   UNL     1     -12.203  13.835  70.944  1.00  0.00    -0.349 C  
ENDBRANCH  13  17
BRANCH  15  19
HETATM   19  O   UNL     1     -12.927  10.123  71.780  1.00  0.00    -0.400 OA 
HETATM   20  C   UNL     1     -13.213   8.801  72.215  1.00  0.00    -0.412 C  
ENDBRANCH  15  19
ENDBRANCH   9  11
ENDBRANCH   8   9
ENDBRANCH   7   8
ENDBRANCH   6   7
ENDBRANCH   5   6
ENDBRANCH   4   5
ENDBRANCH   3   4
BRANCH   3  21
HETATM   21  C   UNL     1      -7.639   4.964  68.239  1.00  0.00    -0.078 C  
HETATM   22  C   UNL     1      -6.101   4.947  68.234  1.00  0.00    -0.030 C  
BRANCH  21  23
HETATM   23  C   UNL     1      -8.119   6.122  69.165  1.00  0.00    -0.109 C  
BRANCH  23  24
HETATM   24  C   UNL     1      -8.898   5.702  70.394  1.00  0.00    -0.143 A  
HETATM   25  C   UNL     1      -9.736   6.186  72.630  1.00  0.00    -0.164 A  
HETATM   26  C   UNL     1     -10.296   4.913  72.712  1.00  0.00    -0.190 A  
HETATM   27  C   UNL     1      -9.453   4.420  70.491  1.00  0.00    -0.241 A  
HETATM   28  C   UNL     1     -10.156   4.037  71.636  1.00  0.00    -0.183 A  
HETATM   29  C   UNL     1      -9.041   6.577  71.479  1.00  0.00    -0.144 A  
BRANCH  26  30
HETATM   30  O   UNL     1     -11.043   4.437  73.755  1.00  0.00    -0.274 OA 
HETATM   31  C   UNL     1     -11.245   3.029  73.792  1.00  0.00    -0.156 C  
ENDBRANCH  26  30
ENDBRANCH  23  24
ENDBRANCH  21  23
ENDBRANCH   3  21
ENDBRANCH   2   3
TORSDOF 14
ENDMDL
MODEL      377
REMARK 921   NORMALIZED FREE ENERGY PREDICTED BY IDOCK:   -2.54 KCAL/MOL
REMARK 922        TOTAL FREE ENERGY PREDICTED BY IDOCK:   -7.41 KCAL/MOL
REMARK 923 INTER-LIGAND FREE ENERGY PREDICTED BY IDOCK:   -6.72 KCAL/MOL
REMARK 924 INTRA-LIGAND FREE ENERGY PREDICTED BY IDOCK:   -0.69 KCAL/MOL
REMARK 927      BINDING AFFINITY PREDICTED BY RF-SCORE:    0.00 PKD
ROOT
HETATM    1  C   UNL     1     -10.329  20.002  68.161  1.00  0.00    -0.503 C  
HETATM    2  C   UNL     1      -9.181  19.039  68.442  1.00  0.00    -0.352 C  
ENDROOT
BRANCH   2   3
HETATM    3  N   UNL     1      -9.385  17.627  68.101  1.00  0.00    -0.271 NA 
BRANCH   3   4
HETATM    4  C   UNL     1      -9.062  16.669  69.174  1.00  0.00    -0.157 C  
BRANCH   4   5
HETATM    5  C   UNL     1      -7.942  15.679  68.817  1.00  0.00    -0.172 C  
BRANCH   5   6
HETATM    6  C   UNL     1      -6.919  15.552  69.946  1.00  0.00    -0.073 C  
BRANCH   6   7
HETATM    7  C   UNL     1      -5.789  14.616  69.531  1.00  0.00    -0.101 C  
BRANCH   7   8
HETATM    8  O   UNL     1      -6.150  13.260  69.826  1.00  0.00    -0.118 OA 
BRANCH   8   9
HETATM    9  C   UNL     1      -6.581  12.535  68.763  1.00  0.00    -0.089 C  
HETATM   10  O   UNL     1      -6.410  12.799  67.585  1.00  0.00    -0.123 OA 
BRANCH   9  11
HETATM   11  C   UNL     1      -7.351  11.362  69.235  1.00  0.00    -0.042 A  
HETATM   12  C   UNL     1      -6.808  10.433  70.131  1.00  0.00    -0.155 A  
HETATM   13  C   UNL     1      -7.557   9.323  70.533  1.00  0.00    -0.139 A  
HETATM   14  C   UNL     1      -9.405  10.088  69.153  1.00  0.00    -0.200 A  
HETATM   15  C   UNL     1      -8.870   9.150  70.041  1.00  0.00    -0.182 A  
HETATM   16  C   UNL     1      -8.646  11.186  68.742  1.00  0.00    -0.133 A  
BRANCH  13  17
HETATM   17  O   UNL     1      -7.100   8.353  71.392  1.00  0.00    -0.060 OA 
HETATM   18  C   UNL     1      -7.885   8.059  72.538  1.00  0.00    -0.123 C  
ENDBRANCH  13  17
BRANCH  15  19
HETATM   19  O   UNL     1      -9.539   8.036  70.481  1.00  0.00    -0.169 OA 
HETATM   20  C   UNL     1     -10.934   8.162  70.721  1.00  0.00    -0.244 C  
ENDBRANCH  15  19
ENDBRANCH   9  11
ENDBRANCH   8   9
ENDBRANCH   7   8
ENDBRANCH   6   7
ENDBRANCH   5   6
ENDBRANCH   4   5
ENDBRANCH   3   4
BRANCH   3  21
HETATM   21  C   UNL     1     -10.639  17.281  67.386  1.00  0.00    -0.303 C  
HETATM   22  C   UNL     1     -10.523  17.238  65.852  1.00  0.00    -0.267 C  
BRANCH  21  23
HETATM   23  C   UNL     1     -11.322  15.966  67.868  1.00  0.00    -0.252 C  
BRANCH  23  24
HETATM   24  C   UNL     1     -11.150  14.765  66.962  1.00  0.00    -0.333 A  
HETATM   25  C   UNL     1     -12.110  13.068  65.499  1.00  0.00    -0.501 A  
HETATM   26  C   UNL     1     -10.854  12.492  65.318  1.00  0.00    -0.286 A  
HETATM   27  C   UNL     1      -9.895  14.171  66.784  1.00  0.00    -0.275 A  
HETATM   28  C   UNL     1      -9.749  13.053  65.959  1.00  0.00    -0.223 A  
HETATM   29  C   UNL     1     -12.256  14.196  66.317  1.00  0.00    -0.474 A  
BRANCH  26  30
HETATM   30  O   UNL     1     -10.576  11.428  64.504  1.00  0.00    -0.294 OA 
HETATM   31  C   UNL     1      -9.199  11.176  64.248  1.00  0.00    -0.106 C  
ENDBRANCH  26  30
ENDBRANCH  23  24
ENDBRANCH  21  23
ENDBRANCH   3  21
ENDBRANCH   2   3
TORSDOF 14
ENDMDL
MODEL      378
REMARK 921   NORMALIZED FREE ENERGY PREDICTED BY IDOCK:   -2.52 KCAL/MOL
REMARK 922        TOTAL FREE ENERGY PREDICTED BY IDOCK:   -7.37 KCAL/MOL
REMARK 923 INTER-LIGAND FREE ENERGY PREDICTED BY IDOCK:   -7.38 KCAL/MOL
REMARK 924 INTRA-LIGAND FREE ENERGY PREDICTED BY IDOCK:    0.01 KCAL/MOL
REMARK 927      BINDING AFFINITY PREDICTED BY RF-SCORE:    0.00 PKD
ROOT
HETATM    1  C   UNL     1      -6.770  16.928  66.511  1.00  0.00    -0.236 C  
HETATM    2  C   UNL     1      -5.651  16.948  67.546  1.00  0.00    -0.147 C  
ENDROOT
BRANCH   2   3
HETATM    3  N   UNL     1      -5.923  16.322  68.845  1.00  0.00    -0.125 NA 
BRANCH   3   4
HETATM    4  C   UNL     1      -7.154  16.779  69.516  1.00  0.00    -0.043 C  
BRANCH   4   5
HETATM    5  C   UNL     1      -8.404  16.748  68.624  1.00  0.00    -0.252 C  
BRANCH   5   6
HETATM    6  C   UNL     1      -9.458  15.779  69.161  1.00  0.00    -0.255 C  
BRANCH   6   7
HETATM    7  C   UNL     1     -10.792  16.496  69.339  1.00  0.00    -0.311 C  
BRANCH   7   8
HETATM    8  O   UNL     1     -11.813  15.812  68.601  1.00  0.00    -0.385 OA 
BRANCH   8   9
HETATM    9  C   UNL     1     -11.450  14.605  68.099  1.00  0.00    -0.323 C  
HETATM   10  O   UNL     1     -10.947  14.391  67.009  1.00  0.00    -0.292 OA 
BRANCH   9  11
HETATM   11  C   UNL     1     -11.795  13.536  69.064  1.00  0.00    -0.385 A  
HETATM   12  C   UNL     1     -12.380  13.821  70.304  1.00  0.00    -0.407 A  
HETATM   13  C   UNL     1     -12.668  12.787  71.200  1.00  0.00    -0.263 A  
HETATM   14  C   UNL     1     -11.798  11.178  69.599  1.00  0.00    -0.419 A  
HETATM   15  C   UNL     1     -12.376  11.451  70.843  1.00  0.00    -0.381 A  
HETATM   16  C   UNL     1     -11.497  12.216  68.716  1.00  0.00    -0.359 A  
BRANCH  13  17
HETATM   17  O   UNL     1     -13.224  12.973  72.442  1.00  0.00    -0.480 OA 
HETATM   18  C   UNL     1     -13.630  14.288  72.795  1.00  0.00    -0.435 C  
ENDBRANCH  13  17
BRANCH  15  19
HETATM   19  O   UNL     1     -12.685  10.494  71.776  1.00  0.00    -0.420 OA 
HETATM   20  C   UNL     1     -12.128   9.199  71.596  1.00  0.00    -0.362 C  
ENDBRANCH  15  19
ENDBRANCH   9  11
ENDBRANCH   8   9
ENDBRANCH   7   8
ENDBRANCH   6   7
ENDBRANCH   5   6
ENDBRANCH   4   5
ENDBRANCH   3   4
BRANCH   3  21
HETATM   21  C   UNL     1      -5.734  14.853  68.938  1.00  0.00    -0.086 C  
HETATM   22  C   UNL     1      -6.283  14.206  70.222  1.00  0.00    -0.146 C  
BRANCH  21  23
HETATM   23  C   UNL     1      -6.264  14.049  67.712  1.00  0.00    -0.152 C  
BRANCH  23  24
HETATM   24  C   UNL     1      -6.533  12.578  67.957  1.00  0.00    -0.087 A  
HETATM   25  C   UNL     1      -8.104  10.734  68.217  1.00  0.00    -0.121 A  
HETATM   26  C   UNL     1      -7.053   9.854  68.468  1.00  0.00    -0.071 A  
HETATM   27  C   UNL     1      -5.485  11.690  68.223  1.00  0.00    -0.042 A  
HETATM   28  C   UNL     1      -5.744  10.338  68.464  1.00  0.00    -0.037 A  
HETATM   29  C   UNL     1      -7.845  12.087  67.964  1.00  0.00    -0.145 A  
BRANCH  26  30
HETATM   30  O   UNL     1      -7.174   8.507  68.672  1.00  0.00    -0.077 OA 
HETATM   31  C   UNL     1      -8.500   7.992  68.701  1.00  0.00    -0.128 C  
ENDBRANCH  26  30
ENDBRANCH  23  24
ENDBRANCH  21  23
ENDBRANCH   3  21
ENDBRANCH   2   3
TORSDOF 14
ENDMDL
MODEL      379
REMARK 921   NORMALIZED FREE ENERGY PREDICTED BY IDOCK:   -2.50 KCAL/MOL
REMARK 922        TOTAL FREE ENERGY PREDICTED BY IDOCK:   -7.34 KCAL/MOL
REMARK 923 INTER-LIGAND FREE ENERGY PREDICTED BY IDOCK:   -6.30 KCAL/MOL
REMARK 924 INTRA-LIGAND FREE ENERGY PREDICTED BY IDOCK:   -1.03 KCAL/MOL
REMARK 927      BINDING AFFINITY PREDICTED BY RF-SCORE:    0.00 PKD
ROOT
HETATM    1  C   UNL     1     -10.911   5.714  69.650  1.00  0.00    -0.365 C  
HETATM    2  C   UNL     1     -11.195   6.553  70.891  1.00  0.00    -0.311 C  
ENDROOT
BRANCH   2   3
HETATM    3  N   UNL     1     -10.739   7.947  70.882  1.00  0.00    -0.218 NA 
BRANCH   3   4
HETATM    4  C   UNL     1     -11.789   8.952  71.131  1.00  0.00    -0.298 C  
BRANCH   4   5
HETATM    5  C   UNL     1     -11.286  10.404  71.116  1.00  0.00    -0.102 C  
BRANCH   5   6
HETATM    6  C   UNL     1     -12.384  11.377  70.684  1.00  0.00    -0.466 C  
BRANCH   6   7
HETATM    7  C   UNL     1     -11.980  12.091  69.398  1.00  0.00    -0.275 C  
BRANCH   7   8
HETATM    8  O   UNL     1     -12.230  11.240  68.272  1.00  0.00    -0.611 OA 
BRANCH   8   9
HETATM    9  C   UNL     1     -11.500  11.523  67.164  1.00  0.00    -0.237 C  
HETATM   10  O   UNL     1     -11.499  12.571  66.541  1.00  0.00    -0.320 OA 
BRANCH   9  11
HETATM   11  C   UNL     1     -10.707  10.336  66.769  1.00  0.00    -0.216 A  
HETATM   12  C   UNL     1     -10.006  10.285  65.558  1.00  0.00    -0.364 A  
HETATM   13  C   UNL     1      -9.290   9.137  65.208  1.00  0.00    -0.156 A  
HETATM   14  C   UNL     1      -9.964   8.096  67.298  1.00  0.00    -0.283 A  
HETATM   15  C   UNL     1      -9.267   8.032  66.088  1.00  0.00    -0.163 A  
HETATM   16  C   UNL     1     -10.692   9.239  67.635  1.00  0.00    -0.276 A  
BRANCH  13  17
HETATM   17  O   UNL     1      -8.590   8.992  64.034  1.00  0.00    -0.194 OA 
HETATM   18  C   UNL     1      -7.432   9.794  63.850  1.00  0.00    -0.130 C  
ENDBRANCH  13  17
BRANCH  15  19
HETATM   19  O   UNL     1      -8.544   6.943  65.671  1.00  0.00    -0.149 OA 
HETATM   20  C   UNL     1      -9.219   5.693  65.609  1.00  0.00    -0.055 C  
ENDBRANCH  15  19
ENDBRANCH   9  11
ENDBRANCH   8   9
ENDBRANCH   7   8
ENDBRANCH   6   7
ENDBRANCH   5   6
ENDBRANCH   4   5
ENDBRANCH   3   4
BRANCH   3  21
HETATM   21  C   UNL     1      -9.478   8.249  71.605  1.00  0.00    -0.195 C  
HETATM   22  C   UNL     1      -9.421   7.740  73.056  1.00  0.00    -0.311 C  
BRANCH  21  23
HETATM   23  C   UNL     1      -8.181   7.796  70.870  1.00  0.00    -0.107 C  
BRANCH  23  24
HETATM   24  C   UNL     1      -7.797   6.342  71.049  1.00  0.00    -0.110 A  
HETATM   25  C   UNL     1      -6.956   4.251  70.123  1.00  0.00    -0.041 A  
HETATM   26  C   UNL     1      -7.133   3.618  71.352  1.00  0.00    -0.032 A  
HETATM   27  C   UNL     1      -7.983   5.695  72.276  1.00  0.00    -0.107 A  
HETATM   28  C   UNL     1      -7.641   4.348  72.427  1.00  0.00    -0.079 A  
HETATM   29  C   UNL     1      -7.288   5.603  69.973  1.00  0.00    -0.069 A  
BRANCH  26  30
HETATM   30  O   UNL     1      -6.795   2.323  71.636  1.00  0.00    -0.025 OA 
HETATM   31  C   UNL     1      -7.589   1.669  72.620  1.00  0.00    -0.035 C  
ENDBRANCH  26  30
ENDBRANCH  23  24
ENDBRANCH  21  23
ENDBRANCH   3  21
ENDBRANCH   2   3
TORSDOF 14
ENDMDL
MODEL      380
REMARK 921   NORMALIZED FREE ENERGY PREDICTED BY IDOCK:   -2.50 KCAL/MOL
REMARK 922        TOTAL FREE ENERGY PREDICTED BY IDOCK:   -7.33 KCAL/MOL
REMARK 923 INTER-LIGAND FREE ENERGY PREDICTED BY IDOCK:   -6.01 KCAL/MOL
REMARK 924 INTRA-LIGAND FREE ENERGY PREDICTED BY IDOCK:   -1.33 KCAL/MOL
REMARK 927      BINDING AFFINITY PREDICTED BY RF-SCORE:    0.00 PKD
ROOT
HETATM    1  C   UNL     1     -12.171  12.878  66.039  1.00  0.00    -0.431 C  
HETATM    2  C   UNL     1     -10.851  12.148  65.826  1.00  0.00    -0.281 C  
ENDROOT
BRANCH   2   3
HETATM    3  N   UNL     1     -10.654  10.885  66.547  1.00  0.00    -0.250 NA 
BRANCH   3   4
HETATM    4  C   UNL     1     -10.097   9.783  65.741  1.00  0.00    -0.238 C  
BRANCH   4   5
HETATM    5  C   UNL     1      -9.598  10.210  64.351  1.00  0.00    -0.366 C  
BRANCH   5   6
HETATM    6  C   UNL     1      -8.218   9.629  64.043  1.00  0.00    -0.159 C  
BRANCH   6   7
HETATM    7  C   UNL     1      -8.038   8.293  64.755  1.00  0.00    -0.151 C  
BRANCH   7   8
HETATM    8  O   UNL     1      -6.759   8.256  65.402  1.00  0.00    -0.052 OA 
BRANCH   8   9
HETATM    9  C   UNL     1      -6.767   8.604  66.713  1.00  0.00    -0.069 C  
HETATM   10  O   UNL     1      -6.496   9.699  67.177  1.00  0.00    -0.068 OA 
BRANCH   9  11
HETATM   11  C   UNL     1      -7.116   7.428  67.542  1.00  0.00    -0.088 A  
HETATM   12  C   UNL     1      -6.776   7.353  68.899  1.00  0.00    -0.049 A  
HETATM   13  C   UNL     1      -7.101   6.215  69.643  1.00  0.00    -0.073 A  
HETATM   14  C   UNL     1      -8.125   5.234  67.670  1.00  0.00    -0.100 A  
HETATM   15  C   UNL     1      -7.784   5.146  69.022  1.00  0.00    -0.081 A  
HETATM   16  C   UNL     1      -7.784   6.366  66.927  1.00  0.00    -0.100 A  
BRANCH  13  17
HETATM   17  O   UNL     1      -6.791   6.047  70.971  1.00  0.00    -0.061 OA 
HETATM   18  C   UNL     1      -5.530   6.522  71.422  1.00  0.00    -0.027 C  
ENDBRANCH  13  17
BRANCH  15  19
HETATM   19  O   UNL     1      -8.064   4.064  69.819  1.00  0.00    -0.055 OA 
HETATM   20  C   UNL     1      -9.222   3.302  69.506  1.00  0.00    -0.155 C  
ENDBRANCH  15  19
ENDBRANCH   9  11
ENDBRANCH   8   9
ENDBRANCH   7   8
ENDBRANCH   6   7
ENDBRANCH   5   6
ENDBRANCH   4   5
ENDBRANCH   3   4
BRANCH   3  21
HETATM   21  C   UNL     1     -10.044  10.969  67.898  1.00  0.00    -0.178 C  
HETATM   22  C   UNL     1      -9.187  12.222  68.149  1.00  0.00    -0.197 C  
BRANCH  21  23
HETATM   23  C   UNL     1     -11.049  10.810  69.078  1.00  0.00    -0.308 C  
BRANCH  23  24
HETATM   24  C   UNL     1     -10.630   9.853  70.174  1.00  0.00    -0.350 A  
HETATM   25  C   UNL     1     -11.148   8.618  72.211  1.00  0.00    -0.395 A  
HETATM   26  C   UNL     1      -9.848   8.118  72.255  1.00  0.00    -0.260 A  
HETATM   27  C   UNL     1      -9.323   9.356  70.235  1.00  0.00    -0.294 A  
HETATM   28  C   UNL     1      -8.942   8.486  71.260  1.00  0.00    -0.244 A  
HETATM   29  C   UNL     1     -11.535   9.481  71.177  1.00  0.00    -0.430 A  
BRANCH  26  30
HETATM   30  O   UNL     1      -9.369   7.228  73.177  1.00  0.00    -0.147 OA 
HETATM   31  C   UNL     1     -10.335   6.625  74.030  1.00  0.00    -0.351 C  
ENDBRANCH  26  30
ENDBRANCH  23  24
ENDBRANCH  21  23
ENDBRANCH   3  21
ENDBRANCH   2   3
TORSDOF 14
ENDMDL
MODEL      381
REMARK 921   NORMALIZED FREE ENERGY PREDICTED BY IDOCK:   -2.47 KCAL/MOL
REMARK 922        TOTAL FREE ENERGY PREDICTED BY IDOCK:   -7.28 KCAL/MOL
REMARK 923 INTER-LIGAND FREE ENERGY PREDICTED BY IDOCK:   -4.40 KCAL/MOL
REMARK 924 INTRA-LIGAND FREE ENERGY PREDICTED BY IDOCK:   -2.88 KCAL/MOL
REMARK 927      BINDING AFFINITY PREDICTED BY RF-SCORE:    0.00 PKD
ROOT
HETATM    1  C   UNL     1     -10.977   5.923  69.159  1.00  0.00    -0.382 C  
HETATM    2  C   UNL     1     -11.482   6.880  70.233  1.00  0.00    -0.323 C  
ENDROOT
BRANCH   2   3
HETATM    3  N   UNL     1     -10.652   8.051  70.538  1.00  0.00    -0.216 NA 
BRANCH   3   4
HETATM    4  C   UNL     1     -11.040   9.292  69.843  1.00  0.00    -0.181 C  
BRANCH   4   5
HETATM    5  C   UNL     1      -9.856  10.195  69.461  1.00  0.00    -0.255 C  
BRANCH   5   6
HETATM    6  C   UNL     1     -10.077  10.875  68.110  1.00  0.00    -0.190 C  
BRANCH   6   7
HETATM    7  C   UNL     1      -8.872  10.650  67.203  1.00  0.00    -0.137 C  
BRANCH   7   8
HETATM    8  O   UNL     1      -8.969   9.364  66.577  1.00  0.00    -0.141 OA 
BRANCH   8   9
HETATM    9  C   UNL     1      -7.821   8.910  66.016  1.00  0.00    -0.102 C  
HETATM   10  O   UNL     1      -6.964   9.581  65.466  1.00  0.00    -0.084 OA 
BRANCH   9  11
HETATM   11  C   UNL     1      -7.760   7.434  66.121  1.00  0.00    -0.094 A  
HETATM   12  C   UNL     1      -8.913   6.641  66.067  1.00  0.00    -0.131 A  
HETATM   13  C   UNL     1      -8.818   5.252  66.197  1.00  0.00    -0.135 A  
HETATM   14  C   UNL     1      -6.406   5.452  66.416  1.00  0.00    -0.039 A  
HETATM   15  C   UNL     1      -7.552   4.652  66.371  1.00  0.00    -0.090 A  
HETATM   16  C   UNL     1      -6.508   6.840  66.303  1.00  0.00    -0.047 A  
BRANCH  13  17
HETATM   17  O   UNL     1      -9.895   4.400  66.175  1.00  0.00    -0.192 OA 
HETATM   18  C   UNL     1     -10.739   4.427  65.032  1.00  0.00    -0.096 C  
ENDBRANCH  13  17
BRANCH  15  19
HETATM   19  O   UNL     1      -7.542   3.285  66.493  1.00  0.00    -0.075 OA 
HETATM   20  C   UNL     1      -6.999   2.535  65.415  1.00  0.00    -0.052 C  
ENDBRANCH  15  19
ENDBRANCH   9  11
ENDBRANCH   8   9
ENDBRANCH   7   8
ENDBRANCH   6   7
ENDBRANCH   5   6
ENDBRANCH   4   5
ENDBRANCH   3   4
BRANCH   3  21
HETATM   21  C   UNL     1     -10.306   8.279  71.963  1.00  0.00    -0.279 C  
HETATM   22  C   UNL     1     -11.220   7.570  72.977  1.00  0.00    -0.373 C  
BRANCH  21  23
HETATM   23  C   UNL     1      -8.824   7.969  72.332  1.00  0.00    -0.232 C  
BRANCH  23  24
HETATM   24  C   UNL     1      -8.232   6.729  71.693  1.00  0.00    -0.110 A  
HETATM   25  C   UNL     1      -6.871   5.693  69.958  1.00  0.00    -0.060 A  
HETATM   26  C   UNL     1      -7.171   4.427  70.458  1.00  0.00    -0.048 A  
HETATM   27  C   UNL     1      -8.539   5.453  72.179  1.00  0.00    -0.126 A  
HETATM   28  C   UNL     1      -8.002   4.314  71.573  1.00  0.00    -0.082 A  
HETATM   29  C   UNL     1      -7.399   6.835  70.572  1.00  0.00    -0.081 A  
BRANCH  26  30
HETATM   30  O   UNL     1      -6.674   3.245  69.982  1.00  0.00    -0.033 OA 
HETATM   31  C   UNL     1      -5.445   3.322  69.268  1.00  0.00    -0.017 C  
ENDBRANCH  26  30
ENDBRANCH  23  24
ENDBRANCH  21  23
ENDBRANCH   3  21
ENDBRANCH   2   3
TORSDOF 14
ENDMDL
MODEL      382
REMARK 921   NORMALIZED FREE ENERGY PREDICTED BY IDOCK:   -2.45 KCAL/MOL
REMARK 922        TOTAL FREE ENERGY PREDICTED BY IDOCK:   -7.25 KCAL/MOL
REMARK 923 INTER-LIGAND FREE ENERGY PREDICTED BY IDOCK:   -6.23 KCAL/MOL
REMARK 924 INTRA-LIGAND FREE ENERGY PREDICTED BY IDOCK:   -1.02 KCAL/MOL
REMARK 927      BINDING AFFINITY PREDICTED BY RF-SCORE:    0.00 PKD
ROOT
HETATM    1  C   UNL     1     -14.411   7.662  71.651  1.00  0.00    -0.613 C  
HETATM    2  C   UNL     1     -13.812   8.958  72.184  1.00  0.00    -0.473 C  
ENDROOT
BRANCH   2   3
HETATM    3  N   UNL     1     -12.358   9.123  72.081  1.00  0.00    -0.368 NA 
BRANCH   3   4
HETATM    4  C   UNL     1     -11.629   7.946  71.573  1.00  0.00    -0.270 C  
BRANCH   4   5
HETATM    5  C   UNL     1     -10.590   7.379  72.553  1.00  0.00    -0.304 C  
BRANCH   5   6
HETATM    6  C   UNL     1      -9.164   7.752  72.144  1.00  0.00    -0.198 C  
BRANCH   6   7
HETATM    7  C   UNL     1      -8.618   6.735  71.149  1.00  0.00    -0.132 C  
BRANCH   7   8
HETATM    8  O   UNL     1      -7.598   7.342  70.345  1.00  0.00    -0.085 OA 
BRANCH   8   9
HETATM    9  C   UNL     1      -6.813   6.473  69.659  1.00  0.00    -0.065 C  
HETATM   10  O   UNL     1      -6.156   5.560  70.129  1.00  0.00    -0.023 OA 
BRANCH   9  11
HETATM   11  C   UNL     1      -6.823   6.818  68.219  1.00  0.00    -0.077 A  
HETATM   12  C   UNL     1      -6.726   5.837  67.224  1.00  0.00    -0.062 A  
HETATM   13  C   UNL     1      -6.712   6.203  65.875  1.00  0.00    -0.048 A  
HETATM   14  C   UNL     1      -6.912   8.537  66.521  1.00  0.00    -0.075 A  
HETATM   15  C   UNL     1      -6.808   7.567  65.520  1.00  0.00    -0.052 A  
HETATM   16  C   UNL     1      -6.908   8.167  67.867  1.00  0.00    -0.073 A  
BRANCH  13  17
HETATM   17  O   UNL     1      -6.602   5.312  64.835  1.00  0.00    -0.041 OA 
HETATM   18  C   UNL     1      -5.565   4.343  64.900  1.00  0.00    -0.014 C  
ENDBRANCH  13  17
BRANCH  15  19
HETATM   19  O   UNL     1      -6.785   7.845  64.177  1.00  0.00    -0.060 OA 
HETATM   20  C   UNL     1      -6.978   9.197  63.784  1.00  0.00    -0.089 C  
ENDBRANCH  15  19
ENDBRANCH   9  11
ENDBRANCH   8   9
ENDBRANCH   7   8
ENDBRANCH   6   7
ENDBRANCH   5   6
ENDBRANCH   4   5
ENDBRANCH   3   4
BRANCH   3  21
HETATM   21  C   UNL     1     -11.863  10.396  71.500  1.00  0.00    -0.120 C  
HETATM   22  C   UNL     1     -10.965  10.240  70.260  1.00  0.00    -0.375 C  
BRANCH  21  23
HETATM   23  C   UNL     1     -12.973  11.441  71.179  1.00  0.00    -0.349 C  
BRANCH  23  24
HETATM   24  C   UNL     1     -12.484  12.822  70.794  1.00  0.00    -0.357 A  
HETATM   25  C   UNL     1     -11.725  14.396  69.095  1.00  0.00    -0.354 A  
HETATM   26  C   UNL     1     -11.519  15.371  70.069  1.00  0.00    -0.316 A  
HETATM   27  C   UNL     1     -12.262  13.804  71.766  1.00  0.00    -0.010 A  
HETATM   28  C   UNL     1     -11.795  15.070  71.403  1.00  0.00    -0.413 A  
HETATM   29  C   UNL     1     -12.203  13.130  69.456  1.00  0.00    -0.214 A  
BRANCH  26  30
HETATM   30  O   UNL     1     -11.110  16.656  69.835  1.00  0.00    -0.305 OA 
HETATM   31  C   UNL     1     -10.164  16.833  68.788  1.00  0.00    -0.299 C  
ENDBRANCH  26  30
ENDBRANCH  23  24
ENDBRANCH  21  23
ENDBRANCH   3  21
ENDBRANCH   2   3
TORSDOF 14
ENDMDL
MODEL      383
REMARK 921   NORMALIZED FREE ENERGY PREDICTED BY IDOCK:   -2.42 KCAL/MOL
REMARK 922        TOTAL FREE ENERGY PREDICTED BY IDOCK:   -7.19 KCAL/MOL
REMARK 923 INTER-LIGAND FREE ENERGY PREDICTED BY IDOCK:   -5.60 KCAL/MOL
REMARK 924 INTRA-LIGAND FREE ENERGY PREDICTED BY IDOCK:   -1.58 KCAL/MOL
REMARK 927      BINDING AFFINITY PREDICTED BY RF-SCORE:    0.00 PKD
ROOT
HETATM    1  C   UNL     1      -6.548   5.976  68.537  1.00  0.00    -0.058 C  
HETATM    2  C   UNL     1      -7.600   4.875  68.587  1.00  0.00    -0.077 C  
ENDROOT
BRANCH   2   3
HETATM    3  N   UNL     1      -9.008   5.284  68.535  1.00  0.00    -0.107 NA 
BRANCH   3   4
HETATM    4  C   UNL     1      -9.526   5.578  67.186  1.00  0.00    -0.122 C  
BRANCH   4   5
HETATM    5  C   UNL     1     -10.599   6.678  67.151  1.00  0.00    -0.401 C  
BRANCH   5   6
HETATM    6  C   UNL     1     -10.019   8.019  66.702  1.00  0.00    -0.326 C  
BRANCH   6   7
HETATM    7  C   UNL     1      -8.670   7.809  66.023  1.00  0.00    -0.161 C  
BRANCH   7   8
HETATM    8  O   UNL     1      -8.093   9.077  65.686  1.00  0.00    -0.107 OA 
BRANCH   8   9
HETATM    9  C   UNL     1      -7.816   9.882  66.743  1.00  0.00    -0.109 C  
HETATM   10  O   UNL     1      -7.125   9.604  67.708  1.00  0.00    -0.079 OA 
BRANCH   9  11
HETATM   11  C   UNL     1      -8.522  11.175  66.587  1.00  0.00    -0.164 A  
HETATM   12  C   UNL     1      -9.152  11.533  65.389  1.00  0.00    -0.063 A  
HETATM   13  C   UNL     1      -9.787  12.773  65.273  1.00  0.00    -0.101 A  
HETATM   14  C   UNL     1      -9.173  13.287  67.567  1.00  0.00    -0.213 A  
HETATM   15  C   UNL     1      -9.799  13.658  66.374  1.00  0.00    -0.296 A  
HETATM   16  C   UNL     1      -8.526  12.054  67.673  1.00  0.00    -0.160 A  
BRANCH  13  17
HETATM   17  O   UNL     1     -10.413  13.216  64.133  1.00  0.00    -0.421 OA 
HETATM   18  C   UNL     1     -11.505  12.452  63.638  1.00  0.00    -0.489 C  
ENDBRANCH  13  17
BRANCH  15  19
HETATM   19  O   UNL     1     -10.439  14.856  66.179  1.00  0.00    -0.285 OA 
HETATM   20  C   UNL     1     -11.860  14.843  66.155  1.00  0.00    -0.112 C  
ENDBRANCH  15  19
ENDBRANCH   9  11
ENDBRANCH   8   9
ENDBRANCH   7   8
ENDBRANCH   6   7
ENDBRANCH   5   6
ENDBRANCH   4   5
ENDBRANCH   3   4
BRANCH   3  21
HETATM   21  C   UNL     1      -9.967   4.504  69.357  1.00  0.00    -0.142 C  
HETATM   22  C   UNL     1      -9.649   3.003  69.481  1.00  0.00    -0.083 C  
BRANCH  21  23
HETATM   23  C   UNL     1     -10.219   5.077  70.784  1.00  0.00    -0.299 C  
BRANCH  23  24
HETATM   24  C   UNL     1      -9.283   6.182  71.224  1.00  0.00    -0.157 A  
HETATM   25  C   UNL     1      -7.416   6.950  72.590  1.00  0.00    -0.089 A  
HETATM   26  C   UNL     1      -7.567   8.244  72.097  1.00  0.00    -0.121 A  
HETATM   27  C   UNL     1      -9.435   7.488  70.744  1.00  0.00    -0.163 A  
HETATM   28  C   UNL     1      -8.576   8.505  71.169  1.00  0.00    -0.207 A  
HETATM   29  C   UNL     1      -8.269   5.927  72.157  1.00  0.00    -0.108 A  
BRANCH  26  30
HETATM   30  O   UNL     1      -6.765   9.310  72.399  1.00  0.00    -0.303 OA 
HETATM   31  C   UNL     1      -5.501   9.002  72.974  1.00  0.00    -0.082 C  
ENDBRANCH  26  30
ENDBRANCH  23  24
ENDBRANCH  21  23
ENDBRANCH   3  21
ENDBRANCH   2   3
TORSDOF 14
ENDMDL
MODEL      384
REMARK 921   NORMALIZED FREE ENERGY PREDICTED BY IDOCK:   -2.40 KCAL/MOL
REMARK 922        TOTAL FREE ENERGY PREDICTED BY IDOCK:   -7.15 KCAL/MOL
REMARK 923 INTER-LIGAND FREE ENERGY PREDICTED BY IDOCK:   -7.75 KCAL/MOL
REMARK 924 INTRA-LIGAND FREE ENERGY PREDICTED BY IDOCK:    0.60 KCAL/MOL
REMARK 927      BINDING AFFINITY PREDICTED BY RF-SCORE:    0.00 PKD
ROOT
HETATM    1  C   UNL     1      -5.126   8.436  65.512  1.00  0.00    -0.031 C  
HETATM    2  C   UNL     1      -5.895   7.302  64.845  1.00  0.00    -0.037 C  
ENDROOT
BRANCH   2   3
HETATM    3  N   UNL     1      -7.341   7.481  64.667  1.00  0.00    -0.072 NA 
BRANCH   3   4
HETATM    4  C   UNL     1      -8.131   6.236  64.667  1.00  0.00    -0.115 C  
BRANCH   4   5
HETATM    5  C   UNL     1      -7.580   5.142  65.595  1.00  0.00    -0.086 C  
BRANCH   5   6
HETATM    6  C   UNL     1      -7.981   5.381  67.051  1.00  0.00    -0.101 C  
BRANCH   6   7
HETATM    7  C   UNL     1      -8.807   4.209  67.570  1.00  0.00    -0.113 C  
BRANCH   7   8
HETATM    8  O   UNL     1     -10.203   4.527  67.494  1.00  0.00    -0.091 OA 
BRANCH   8   9
HETATM    9  C   UNL     1     -10.535   5.766  67.936  1.00  0.00    -0.228 C  
HETATM   10  O   UNL     1     -10.618   6.780  67.264  1.00  0.00    -0.238 OA 
BRANCH   9  11
HETATM   11  C   UNL     1     -10.752   5.735  69.400  1.00  0.00    -0.397 A  
HETATM   12  C   UNL     1     -11.655   6.600  70.032  1.00  0.00    -0.423 A  
HETATM   13  C   UNL     1     -11.813   6.559  71.420  1.00  0.00    -0.329 A  
HETATM   14  C   UNL     1     -10.173   4.769  71.540  1.00  0.00    -0.246 A  
HETATM   15  C   UNL     1     -11.066   5.633  72.182  1.00  0.00    -0.241 A  
HETATM   16  C   UNL     1     -10.007   4.826  70.155  1.00  0.00    -0.321 A  
BRANCH  13  17
HETATM   17  O   UNL     1     -12.660   7.380  72.125  1.00  0.00    -0.247 OA 
HETATM   18  C   UNL     1     -14.008   7.475  71.687  1.00  0.00    -0.412 C  
ENDBRANCH  13  17
BRANCH  15  19
HETATM   19  O   UNL     1     -11.276   5.656  73.537  1.00  0.00    -0.209 OA 
HETATM   20  C   UNL     1     -10.512   4.761  74.334  1.00  0.00    -0.285 C  
ENDBRANCH  15  19
ENDBRANCH   9  11
ENDBRANCH   8   9
ENDBRANCH   7   8
ENDBRANCH   6   7
ENDBRANCH   5   6
ENDBRANCH   4   5
ENDBRANCH   3   4
BRANCH   3  21
HETATM   21  C   UNL     1      -7.987   8.566  65.447  1.00  0.00    -0.113 C  
HETATM   22  C   UNL     1      -7.526   8.680  66.910  1.00  0.00    -0.083 C  
BRANCH  21  23
HETATM   23  C   UNL     1      -7.906   9.977  64.791  1.00  0.00    -0.145 C  
BRANCH  23  24
HETATM   24  C   UNL     1      -9.203  10.758  64.748  1.00  0.00    -0.245 A  
HETATM   25  C   UNL     1     -11.046  11.724  63.480  1.00  0.00    -0.503 A  
HETATM   26  C   UNL     1     -11.588  12.260  64.646  1.00  0.00    -0.344 A  
HETATM   27  C   UNL     1      -9.748  11.313  65.913  1.00  0.00    -0.258 A  
HETATM   28  C   UNL     1     -10.936  12.046  65.861  1.00  0.00    -0.342 A  
HETATM   29  C   UNL     1      -9.861  10.979  63.531  1.00  0.00    -0.403 A  
BRANCH  26  30
HETATM   30  O   UNL     1     -12.763  12.955  64.732  1.00  0.00    -0.647 OA 
HETATM   31  C   UNL     1     -12.751  14.112  65.559  1.00  0.00    -0.443 C  
ENDBRANCH  26  30
ENDBRANCH  23  24
ENDBRANCH  21  23
ENDBRANCH   3  21
ENDBRANCH   2   3
TORSDOF 14
ENDMDL
MODEL      385
REMARK 921   NORMALIZED FREE ENERGY PREDICTED BY IDOCK:   -2.40 KCAL/MOL
REMARK 922        TOTAL FREE ENERGY PREDICTED BY IDOCK:   -7.15 KCAL/MOL
REMARK 923 INTER-LIGAND FREE ENERGY PREDICTED BY IDOCK:   -6.03 KCAL/MOL
REMARK 924 INTRA-LIGAND FREE ENERGY PREDICTED BY IDOCK:   -1.12 KCAL/MOL
REMARK 927      BINDING AFFINITY PREDICTED BY RF-SCORE:    0.00 PKD
ROOT
HETATM    1  C   UNL     1      -6.924   9.284  71.168  1.00  0.00    -0.064 C  
HETATM    2  C   UNL     1      -7.761   8.813  69.985  1.00  0.00    -0.082 C  
ENDROOT
BRANCH   2   3
HETATM    3  N   UNL     1      -9.203   8.649  70.203  1.00  0.00    -0.155 NA 
BRANCH   3   4
HETATM    4  C   UNL     1     -10.065   9.514  69.376  1.00  0.00    -0.198 C  
BRANCH   4   5
HETATM    5  C   UNL     1      -9.394  10.026  68.092  1.00  0.00    -0.137 C  
BRANCH   5   6
HETATM    6  C   UNL     1     -10.418  10.594  67.108  1.00  0.00    -0.295 C  
BRANCH   6   7
HETATM    7  C   UNL     1      -9.810  11.751  66.323  1.00  0.00    -0.221 C  
BRANCH   7   8
HETATM    8  O   UNL     1      -9.774  12.927  67.142  1.00  0.00    -0.212 OA 
BRANCH   8   9
HETATM    9  C   UNL     1      -8.563  13.531  67.229  1.00  0.00    -0.213 C  
HETATM   10  O   UNL     1      -7.483  12.981  67.366  1.00  0.00    -0.155 OA 
BRANCH   9  11
HETATM   11  C   UNL     1      -8.731  15.002  67.179  1.00  0.00    -0.242 A  
HETATM   12  C   UNL     1      -8.169  15.843  68.147  1.00  0.00    -0.149 A  
HETATM   13  C   UNL     1      -8.371  17.225  68.081  1.00  0.00    -0.233 A  
HETATM   14  C   UNL     1      -9.686  16.921  66.060  1.00  0.00    -0.260 A  
HETATM   15  C   UNL     1      -9.136  17.769  67.025  1.00  0.00    -0.252 A  
HETATM   16  C   UNL     1      -9.495  15.540  66.141  1.00  0.00    -0.376 A  
BRANCH  13  17
HETATM   17  O   UNL     1      -7.875  18.123  68.994  1.00  0.00    -0.218 OA 
HETATM   18  C   UNL     1      -6.473  18.350  69.005  1.00  0.00    -0.245 C  
ENDBRANCH  13  17
BRANCH  15  19
HETATM   19  O   UNL     1      -9.291  19.132  67.031  1.00  0.00    -0.295 OA 
HETATM   20  C   UNL     1     -10.138  19.700  66.040  1.00  0.00    -0.461 C  
ENDBRANCH  15  19
ENDBRANCH   9  11
ENDBRANCH   8   9
ENDBRANCH   7   8
ENDBRANCH   6   7
ENDBRANCH   5   6
ENDBRANCH   4   5
ENDBRANCH   3   4
BRANCH   3  21
HETATM   21  C   UNL     1      -9.716   7.259  70.300  1.00  0.00    -0.175 C  
HETATM   22  C   UNL     1     -11.085   7.022  69.639  1.00  0.00    -0.254 C  
BRANCH  21  23
HETATM   23  C   UNL     1      -8.728   6.163  69.798  1.00  0.00    -0.135 C  
BRANCH  23  24
HETATM   24  C   UNL     1      -8.707   5.931  68.302  1.00  0.00    -0.112 A  
HETATM   25  C   UNL     1      -9.603   4.826  66.323  1.00  0.00    -0.183 A  
HETATM   26  C   UNL     1      -8.644   5.445  65.525  1.00  0.00    -0.148 A  
HETATM   27  C   UNL     1      -7.739   6.538  67.493  1.00  0.00    -0.106 A  
HETATM   28  C   UNL     1      -7.718   6.305  66.115  1.00  0.00    -0.096 A  
HETATM   29  C   UNL     1      -9.633   5.067  67.703  1.00  0.00    -0.173 A  
BRANCH  26  30
HETATM   30  O   UNL     1      -8.548   5.333  64.164  1.00  0.00    -0.134 OA 
HETATM   31  C   UNL     1      -7.278   5.632  63.597  1.00  0.00    -0.054 C  
ENDBRANCH  26  30
ENDBRANCH  23  24
ENDBRANCH  21  23
ENDBRANCH   3  21
ENDBRANCH   2   3
TORSDOF 14
ENDMDL
MODEL      386
REMARK 921   NORMALIZED FREE ENERGY PREDICTED BY IDOCK:   -2.38 KCAL/MOL
REMARK 922        TOTAL FREE ENERGY PREDICTED BY IDOCK:   -7.11 KCAL/MOL
REMARK 923 INTER-LIGAND FREE ENERGY PREDICTED BY IDOCK:   -6.27 KCAL/MOL
REMARK 924 INTRA-LIGAND FREE ENERGY PREDICTED BY IDOCK:   -0.85 KCAL/MOL
REMARK 927      BINDING AFFINITY PREDICTED BY RF-SCORE:    0.00 PKD
ROOT
HETATM    1  C   UNL     1     -10.065  19.092  68.174  1.00  0.00    -0.467 C  
HETATM    2  C   UNL     1      -9.124  18.027  68.724  1.00  0.00    -0.214 C  
ENDROOT
BRANCH   2   3
HETATM    3  N   UNL     1      -9.287  16.658  68.221  1.00  0.00    -0.218 NA 
BRANCH   3   4
HETATM    4  C   UNL     1      -8.717  15.603  69.080  1.00  0.00    -0.251 C  
BRANCH   4   5
HETATM    5  C   UNL     1      -7.665  14.726  68.385  1.00  0.00    -0.122 C  
BRANCH   5   6
HETATM    6  C   UNL     1      -6.893  13.868  69.387  1.00  0.00    -0.065 C  
BRANCH   6   7
HETATM    7  C   UNL     1      -5.886  12.984  68.659  1.00  0.00    -0.070 C  
BRANCH   7   8
HETATM    8  O   UNL     1      -6.276  11.610  68.771  1.00  0.00    -0.048 OA 
BRANCH   8   9
HETATM    9  C   UNL     1      -6.873  11.090  67.669  1.00  0.00    -0.081 C  
HETATM   10  O   UNL     1      -6.590  11.328  66.507  1.00  0.00    -0.134 OA 
BRANCH   9  11
HETATM   11  C   UNL     1      -7.981  10.194  68.074  1.00  0.00    -0.101 A  
HETATM   12  C   UNL     1      -8.749   9.497  67.133  1.00  0.00    -0.137 A  
HETATM   13  C   UNL     1      -9.804   8.681  67.552  1.00  0.00    -0.180 A  
HETATM   14  C   UNL     1      -9.307   9.250  69.862  1.00  0.00    -0.214 A  
HETATM   15  C   UNL     1     -10.084   8.555  68.931  1.00  0.00    -0.203 A  
HETATM   16  C   UNL     1      -8.265  10.077  69.437  1.00  0.00    -0.158 A  
BRANCH  13  17
HETATM   17  O   UNL     1     -10.620   7.976  66.701  1.00  0.00    -0.277 OA 
HETATM   18  C   UNL     1     -10.094   6.800  66.102  1.00  0.00     0.294 C  
ENDBRANCH  13  17
BRANCH  15  19
HETATM   19  O   UNL     1     -11.136   7.739  69.262  1.00  0.00    -0.064 OA 
HETATM   20  C   UNL     1     -11.190   7.247  70.594  1.00  0.00    -0.274 C  
ENDBRANCH  15  19
ENDBRANCH   9  11
ENDBRANCH   8   9
ENDBRANCH   7   8
ENDBRANCH   6   7
ENDBRANCH   5   6
ENDBRANCH   4   5
ENDBRANCH   3   4
BRANCH   3  21
HETATM   21  C   UNL     1     -10.619  16.293  67.677  1.00  0.00    -0.311 C  
HETATM   22  C   UNL     1     -10.689  16.186  66.144  1.00  0.00    -0.222 C  
BRANCH  21  23
HETATM   23  C   UNL     1     -11.244  15.006  68.293  1.00  0.00    -0.309 C  
BRANCH  23  24
HETATM   24  C   UNL     1     -11.857  15.165  69.668  1.00  0.00    -0.362 A  
HETATM   25  C   UNL     1     -13.815  15.490  71.083  1.00  0.00    -0.348 A  
HETATM   26  C   UNL     1     -13.008  15.520  72.218  1.00  0.00    -0.416 A  
HETATM   27  C   UNL     1     -11.054  15.209  70.814  1.00  0.00    -0.293 A  
HETATM   28  C   UNL     1     -11.628  15.373  72.077  1.00  0.00    -0.544 A  
HETATM   29  C   UNL     1     -13.242  15.315  69.817  1.00  0.00     0.529 A  
BRANCH  26  30
HETATM   30  O   UNL     1     -13.452  15.629  73.508  1.00  0.00    -0.423 OA 
HETATM   31  C   UNL     1     -12.468  15.941  74.487  1.00  0.00    -0.581 C  
ENDBRANCH  26  30
ENDBRANCH  23  24
ENDBRANCH  21  23
ENDBRANCH   3  21
ENDBRANCH   2   3
TORSDOF 14
ENDMDL
MODEL      387
REMARK 921   NORMALIZED FREE ENERGY PREDICTED BY IDOCK:   -2.31 KCAL/MOL
REMARK 922        TOTAL FREE ENERGY PREDICTED BY IDOCK:   -6.99 KCAL/MOL
REMARK 923 INTER-LIGAND FREE ENERGY PREDICTED BY IDOCK:   -6.17 KCAL/MOL
REMARK 924 INTRA-LIGAND FREE ENERGY PREDICTED BY IDOCK:   -0.81 KCAL/MOL
REMARK 927      BINDING AFFINITY PREDICTED BY RF-SCORE:    0.00 PKD
ROOT
HETATM    1  C   UNL     1     -12.361   8.826  72.333  1.00  0.00    -0.414 C  
HETATM    2  C   UNL     1     -11.233   9.008  71.325  1.00  0.00    -0.315 C  
ENDROOT
BRANCH   2   3
HETATM    3  N   UNL     1     -11.126   8.020  70.246  1.00  0.00    -0.250 NA 
BRANCH   3   4
HETATM    4  C   UNL     1     -10.804   8.574  68.918  1.00  0.00     0.023 C  
BRANCH   4   5
HETATM    5  C   UNL     1      -9.377   9.132  68.799  1.00  0.00    -0.139 C  
BRANCH   5   6
HETATM    6  C   UNL     1      -9.028   9.487  67.353  1.00  0.00    -0.141 C  
BRANCH   6   7
HETATM    7  C   UNL     1     -10.172  10.263  66.710  1.00  0.00    -0.228 C  
BRANCH   7   8
HETATM    8  O   UNL     1     -10.063  11.653  67.044  1.00  0.00    -0.205 OA 
BRANCH   8   9
HETATM    9  C   UNL     1     -11.182  12.207  67.574  1.00  0.00    -0.297 C  
HETATM   10  O   UNL     1     -12.157  11.612  68.001  1.00  0.00    -0.597 OA 
BRANCH   9  11
HETATM   11  C   UNL     1     -11.081  13.684  67.528  1.00  0.00    -0.296 A  
HETATM   12  C   UNL     1     -11.121  14.389  66.318  1.00  0.00    -0.331 A  
HETATM   13  C   UNL     1     -10.997  15.782  66.312  1.00  0.00    -0.163 A  
HETATM   14  C   UNL     1     -10.811  15.762  68.735  1.00  0.00    -0.274 A  
HETATM   15  C   UNL     1     -10.842  16.475  67.534  1.00  0.00    -0.237 A  
HETATM   16  C   UNL     1     -10.919  14.369  68.734  1.00  0.00    -0.264 A  
BRANCH  13  17
HETATM   17  O   UNL     1     -11.006  16.553  65.175  1.00  0.00    -0.446 OA 
HETATM   18  C   UNL     1     -11.810  16.118  64.087  1.00  0.00     0.224 C  
ENDBRANCH  13  17
BRANCH  15  19
HETATM   19  O   UNL     1     -10.724  17.839  67.444  1.00  0.00    -0.357 OA 
HETATM   20  C   UNL     1     -10.206  18.528  68.574  1.00  0.00    -0.351 C  
ENDBRANCH  15  19
ENDBRANCH   9  11
ENDBRANCH   8   9
ENDBRANCH   7   8
ENDBRANCH   6   7
ENDBRANCH   5   6
ENDBRANCH   4   5
ENDBRANCH   3   4
BRANCH   3  21
HETATM   21  C   UNL     1     -10.371   6.776  70.543  1.00  0.00    -0.201 C  
HETATM   22  C   UNL     1     -10.456   5.688  69.459  1.00  0.00    -0.372 C  
BRANCH  21  23
HETATM   23  C   UNL     1      -8.872   6.994  70.910  1.00  0.00    -0.148 C  
BRANCH  23  24
HETATM   24  C   UNL     1      -7.986   5.771  70.810  1.00  0.00    -0.113 A  
HETATM   25  C   UNL     1      -7.166   3.675  71.746  1.00  0.00    -0.046 A  
HETATM   26  C   UNL     1      -6.298   3.515  70.667  1.00  0.00    -0.027 A  
HETATM   27  C   UNL     1      -7.102   5.608  69.737  1.00  0.00    -0.064 A  
HETATM   28  C   UNL     1      -6.276   4.483  69.662  1.00  0.00    -0.027 A  
HETATM   29  C   UNL     1      -8.002   4.796  71.817  1.00  0.00    -0.100 A  
BRANCH  26  30
HETATM   30  O   UNL     1      -5.477   2.441  70.458  1.00  0.00    -0.011 OA 
HETATM   31  C   UNL     1      -5.433   1.472  71.499  1.00  0.00    -0.004 C  
ENDBRANCH  26  30
ENDBRANCH  23  24
ENDBRANCH  21  23
ENDBRANCH   3  21
ENDBRANCH   2   3
TORSDOF 14
ENDMDL
MODEL      388
REMARK 921   NORMALIZED FREE ENERGY PREDICTED BY IDOCK:   -2.29 KCAL/MOL
REMARK 922        TOTAL FREE ENERGY PREDICTED BY IDOCK:   -6.96 KCAL/MOL
REMARK 923 INTER-LIGAND FREE ENERGY PREDICTED BY IDOCK:   -6.33 KCAL/MOL
REMARK 924 INTRA-LIGAND FREE ENERGY PREDICTED BY IDOCK:   -0.63 KCAL/MOL
REMARK 927      BINDING AFFINITY PREDICTED BY RF-SCORE:    0.00 PKD
ROOT
HETATM    1  C   UNL     1      -7.721   9.055  68.731  1.00  0.00    -0.095 C  
HETATM    2  C   UNL     1      -8.795   8.006  68.468  1.00  0.00    -0.134 C  
ENDROOT
BRANCH   2   3
HETATM    3  N   UNL     1      -8.694   7.235  67.223  1.00  0.00    -0.120 NA 
BRANCH   3   4
HETATM    4  C   UNL     1      -8.971   7.996  65.991  1.00  0.00    -0.163 C  
BRANCH   4   5
HETATM    5  C   UNL     1      -7.780   8.822  65.481  1.00  0.00    -0.092 C  
BRANCH   5   6
HETATM    6  C   UNL     1      -8.089  10.320  65.482  1.00  0.00    -0.156 C  
BRANCH   6   7
HETATM    7  C   UNL     1      -9.590  10.548  65.620  1.00  0.00    -0.226 C  
BRANCH   7   8
HETATM    8  O   UNL     1      -9.860  11.298  66.812  1.00  0.00    -0.193 OA 
BRANCH   8   9
HETATM    9  C   UNL     1     -10.989  12.049  66.776  1.00  0.00    -0.285 C  
HETATM   10  O   UNL     1     -11.515  12.526  65.784  1.00  0.00    -0.328 OA 
BRANCH   9  11
HETATM   11  C   UNL     1     -11.495  12.261  68.152  1.00  0.00    -0.371 A  
HETATM   12  C   UNL     1     -11.656  11.199  69.051  1.00  0.00    -0.392 A  
HETATM   13  C   UNL     1     -12.161  11.435  70.333  1.00  0.00    -0.362 A  
HETATM   14  C   UNL     1     -12.328  13.804  69.817  1.00  0.00    -0.311 A  
HETATM   15  C   UNL     1     -12.499  12.751  70.720  1.00  0.00    -0.271 A  
HETATM   16  C   UNL     1     -11.838  13.561  68.532  1.00  0.00    -0.398 A  
BRANCH  13  17
HETATM   17  O   UNL     1     -12.369  10.455  71.273  1.00  0.00    -0.345 OA 
HETATM   18  C   UNL     1     -13.492   9.602  71.103  1.00  0.00    -0.226 C  
ENDBRANCH  13  17
BRANCH  15  19
HETATM   19  O   UNL     1     -12.991  12.899  71.992  1.00  0.00    -0.335 OA 
HETATM   20  C   UNL     1     -13.919  13.952  72.217  1.00  0.00    -0.565 C  
ENDBRANCH  15  19
ENDBRANCH   9  11
ENDBRANCH   8   9
ENDBRANCH   7   8
ENDBRANCH   6   7
ENDBRANCH   5   6
ENDBRANCH   4   5
ENDBRANCH   3   4
BRANCH   3  21
HETATM   21  C   UNL     1      -7.527   6.329  67.084  1.00  0.00    -0.084 C  
HETATM   22  C   UNL     1      -6.537   6.356  68.261  1.00  0.00    -0.066 C  
BRANCH  21  23
HETATM   23  C   UNL     1      -7.888   4.844  66.775  1.00  0.00    -0.099 C  
BRANCH  23  24
HETATM   24  C   UNL     1      -8.331   4.014  67.962  1.00  0.00    -0.099 A  
HETATM   25  C   UNL     1      -9.861   3.636  69.821  1.00  0.00    -0.008 A  
HETATM   26  C   UNL     1      -9.135   2.512  70.209  1.00  0.00    -0.110 A  
HETATM   27  C   UNL     1      -7.601   2.891  68.367  1.00  0.00    -0.052 A  
HETATM   28  C   UNL     1      -8.009   2.141  69.474  1.00  0.00    -0.053 A  
HETATM   29  C   UNL     1      -9.460   4.383  68.705  1.00  0.00    -0.227 A  
BRANCH  26  30
HETATM   30  O   UNL     1      -9.457   1.674  71.241  1.00  0.00    -0.103 OA 
HETATM   31  C   UNL     1      -8.680   1.809  72.426  1.00  0.00    -0.061 C  
ENDBRANCH  26  30
ENDBRANCH  23  24
ENDBRANCH  21  23
ENDBRANCH   3  21
ENDBRANCH   2   3
TORSDOF 14
ENDMDL
MODEL      389
REMARK 921   NORMALIZED FREE ENERGY PREDICTED BY IDOCK:   -2.29 KCAL/MOL
REMARK 922        TOTAL FREE ENERGY PREDICTED BY IDOCK:   -6.96 KCAL/MOL
REMARK 923 INTER-LIGAND FREE ENERGY PREDICTED BY IDOCK:   -6.44 KCAL/MOL
REMARK 924 INTRA-LIGAND FREE ENERGY PREDICTED BY IDOCK:   -0.52 KCAL/MOL
REMARK 927      BINDING AFFINITY PREDICTED BY RF-SCORE:    0.00 PKD
ROOT
HETATM    1  C   UNL     1      -8.029   8.441  68.950  1.00  0.00    -0.115 C  
HETATM    2  C   UNL     1      -8.933   7.735  67.946  1.00  0.00    -0.125 C  
ENDROOT
BRANCH   2   3
HETATM    3  N   UNL     1      -8.392   7.495  66.604  1.00  0.00    -0.123 NA 
BRANCH   3   4
HETATM    4  C   UNL     1      -8.857   8.430  65.563  1.00  0.00    -0.130 C  
BRANCH   4   5
HETATM    5  C   UNL     1      -7.879   9.578  65.268  1.00  0.00    -0.111 C  
BRANCH   5   6
HETATM    6  C   UNL     1      -8.435  10.926  65.728  1.00  0.00    -0.155 C  
BRANCH   6   7
HETATM    7  C   UNL     1      -9.925  10.806  66.033  1.00  0.00    -0.242 C  
BRANCH   7   8
HETATM    8  O   UNL     1     -10.251  11.598  67.182  1.00  0.00    -0.207 OA 
BRANCH   8   9
HETATM    9  C   UNL     1     -11.411  12.294  67.091  1.00  0.00    -0.352 C  
HETATM   10  O   UNL     1     -12.019  12.565  66.069  1.00  0.00    -0.481 OA 
BRANCH   9  11
HETATM   11  C   UNL     1     -11.839  12.735  68.439  1.00  0.00    -0.353 A  
HETATM   12  C   UNL     1     -12.081  11.822  69.473  1.00  0.00    -0.314 A  
HETATM   13  C   UNL     1     -12.509  12.275  70.724  1.00  0.00    -0.265 A  
HETATM   14  C   UNL     1     -12.433  14.562  69.907  1.00  0.00    -0.300 A  
HETATM   15  C   UNL     1     -12.685  13.659  70.944  1.00  0.00    -0.310 A  
HETATM   16  C   UNL     1     -12.022  14.103  68.654  1.00  0.00    -0.373 A  
BRANCH  13  17
HETATM   17  O   UNL     1     -12.787  11.453  71.789  1.00  0.00    -0.405 OA 
HETATM   18  C   UNL     1     -12.538  10.063  71.635  1.00  0.00    -0.427 C  
ENDBRANCH  13  17
BRANCH  15  19
HETATM   19  O   UNL     1     -13.109  14.024  72.197  1.00  0.00    -0.362 OA 
HETATM   20  C   UNL     1     -13.986  15.138  72.294  1.00  0.00    -0.530 C  
ENDBRANCH  15  19
ENDBRANCH   9  11
ENDBRANCH   8   9
ENDBRANCH   7   8
ENDBRANCH   6   7
ENDBRANCH   5   6
ENDBRANCH   4   5
ENDBRANCH   3   4
BRANCH   3  21
HETATM   21  C   UNL     1      -6.939   7.207  66.504  1.00  0.00    -0.076 C  
HETATM   22  C   UNL     1      -6.385   6.268  67.590  1.00  0.00    -0.033 C  
BRANCH  21  23
HETATM   23  C   UNL     1      -6.471   6.685  65.112  1.00  0.00    -0.042 C  
BRANCH  23  24
HETATM   24  C   UNL     1      -7.209   5.472  64.583  1.00  0.00    -0.062 A  
HETATM   25  C   UNL     1      -7.588   3.065  64.583  1.00  0.00    -0.076 A  
HETATM   26  C   UNL     1      -8.533   3.199  63.567  1.00  0.00    -0.089 A  
HETATM   27  C   UNL     1      -8.150   5.595  63.554  1.00  0.00    -0.112 A  
HETATM   28  C   UNL     1      -8.813   4.468  63.061  1.00  0.00    -0.121 A  
HETATM   29  C   UNL     1      -6.931   4.195  65.086  1.00  0.00    -0.058 A  
BRANCH  26  30
HETATM   30  O   UNL     1      -9.278   2.183  63.034  1.00  0.00    -0.090 OA 
HETATM   31  C   UNL     1     -10.315   1.665  63.860  1.00  0.00     0.002 C  
ENDBRANCH  26  30
ENDBRANCH  23  24
ENDBRANCH  21  23
ENDBRANCH   3  21
ENDBRANCH   2   3
TORSDOF 14
ENDMDL
MODEL      390
REMARK 921   NORMALIZED FREE ENERGY PREDICTED BY IDOCK:   -2.28 KCAL/MOL
REMARK 922        TOTAL FREE ENERGY PREDICTED BY IDOCK:   -6.93 KCAL/MOL
REMARK 923 INTER-LIGAND FREE ENERGY PREDICTED BY IDOCK:   -5.92 KCAL/MOL
REMARK 924 INTRA-LIGAND FREE ENERGY PREDICTED BY IDOCK:   -1.01 KCAL/MOL
REMARK 927      BINDING AFFINITY PREDICTED BY RF-SCORE:    0.00 PKD
ROOT
HETATM    1  C   UNL     1     -10.610  16.152  69.733  1.00  0.00    -0.312 C  
HETATM    2  C   UNL     1     -11.278  15.346  68.625  1.00  0.00    -0.308 C  
ENDROOT
BRANCH   2   3
HETATM    3  N   UNL     1     -10.555  14.178  68.111  1.00  0.00    -0.241 NA 
BRANCH   3   4
HETATM    4  C   UNL     1      -9.187  14.008  68.634  1.00  0.00    -0.119 C  
BRANCH   4   5
HETATM    5  C   UNL     1      -8.123  13.777  67.549  1.00  0.00    -0.192 C  
BRANCH   5   6
HETATM    6  C   UNL     1      -7.027  12.823  68.026  1.00  0.00    -0.107 C  
BRANCH   6   7
HETATM    7  C   UNL     1      -6.896  11.648  67.064  1.00  0.00    -0.144 C  
BRANCH   7   8
HETATM    8  O   UNL     1      -6.961  10.415  67.792  1.00  0.00    -0.080 OA 
BRANCH   8   9
HETATM    9  C   UNL     1      -8.189  10.093  68.271  1.00  0.00    -0.110 C  
HETATM   10  O   UNL     1      -9.228  10.701  68.077  1.00  0.00    -0.143 OA 
BRANCH   9  11
HETATM   11  C   UNL     1      -8.094   8.889  69.128  1.00  0.00    -0.117 A  
HETATM   12  C   UNL     1      -8.973   7.808  68.983  1.00  0.00    -0.145 A  
HETATM   13  C   UNL     1      -8.868   6.699  69.828  1.00  0.00    -0.144 A  
HETATM   14  C   UNL     1      -6.988   7.751  70.953  1.00  0.00    -0.049 A  
HETATM   15  C   UNL     1      -7.864   6.670  70.822  1.00  0.00    -0.105 A  
HETATM   16  C   UNL     1      -7.107   8.863  70.117  1.00  0.00    -0.048 A  
BRANCH  13  17
HETATM   17  O   UNL     1      -9.696   5.604  69.771  1.00  0.00    -0.151 OA 
HETATM   18  C   UNL     1      -9.726   4.859  68.562  1.00  0.00    -0.155 C  
ENDBRANCH  13  17
BRANCH  15  19
HETATM   19  O   UNL     1      -7.828   5.549  71.612  1.00  0.00    -0.107 OA 
HETATM   20  C   UNL     1      -6.651   5.323  72.375  1.00  0.00    -0.060 C  
ENDBRANCH  15  19
ENDBRANCH   9  11
ENDBRANCH   8   9
ENDBRANCH   7   8
ENDBRANCH   6   7
ENDBRANCH   5   6
ENDBRANCH   4   5
ENDBRANCH   3   4
BRANCH   3  21
HETATM   21  C   UNL     1     -11.303  12.898  68.044  1.00  0.00    -0.292 C  
HETATM   22  C   UNL     1     -12.243  12.629  69.233  1.00  0.00    -0.089 C  
BRANCH  21  23
HETATM   23  C   UNL     1     -12.100  12.677  66.723  1.00  0.00    -0.236 C  
BRANCH  23  24
HETATM   24  C   UNL     1     -11.312  12.093  65.569  1.00  0.00    -0.393 A  
HETATM   25  C   UNL     1     -10.012  10.269  64.608  1.00  0.00    -0.377 A  
HETATM   26  C   UNL     1      -9.792  11.015  63.452  1.00  0.00    -0.363 A  
HETATM   27  C   UNL     1     -11.074  12.840  64.409  1.00  0.00    -0.386 A  
HETATM   28  C   UNL     1     -10.332  12.298  63.356  1.00  0.00    -0.395 A  
HETATM   29  C   UNL     1     -10.766  10.806  65.660  1.00  0.00    -0.142 A  
BRANCH  26  30
HETATM   30  O   UNL     1      -9.124  10.581  62.340  1.00  0.00    -0.237 OA 
HETATM   31  C   UNL     1      -8.303   9.431  62.509  1.00  0.00    -0.174 C  
ENDBRANCH  26  30
ENDBRANCH  23  24
ENDBRANCH  21  23
ENDBRANCH   3  21
ENDBRANCH   2   3
TORSDOF 14
ENDMDL
MODEL      391
REMARK 921   NORMALIZED FREE ENERGY PREDICTED BY IDOCK:   -2.26 KCAL/MOL
REMARK 922        TOTAL FREE ENERGY PREDICTED BY IDOCK:   -6.90 KCAL/MOL
REMARK 923 INTER-LIGAND FREE ENERGY PREDICTED BY IDOCK:   -5.19 KCAL/MOL
REMARK 924 INTRA-LIGAND FREE ENERGY PREDICTED BY IDOCK:   -1.71 KCAL/MOL
REMARK 927      BINDING AFFINITY PREDICTED BY RF-SCORE:    0.00 PKD
ROOT
HETATM    1  C   UNL     1     -10.756   5.600  69.558  1.00  0.00    -0.380 C  
HETATM    2  C   UNL     1     -11.174   6.423  70.770  1.00  0.00    -0.327 C  
ENDROOT
BRANCH   2   3
HETATM    3  N   UNL     1     -10.625   7.779  70.887  1.00  0.00    -0.212 NA 
BRANCH   3   4
HETATM    4  C   UNL     1     -11.350   8.817  70.131  1.00  0.00    -0.090 C  
BRANCH   4   5
HETATM    5  C   UNL     1     -10.690  10.203  70.174  1.00  0.00    -0.355 C  
BRANCH   5   6
HETATM    6  C   UNL     1     -11.218  11.115  69.067  1.00  0.00    -0.318 C  
BRANCH   6   7
HETATM    7  C   UNL     1     -10.138  11.347  68.015  1.00  0.00    -0.180 C  
BRANCH   7   8
HETATM    8  O   UNL     1     -10.314  10.429  66.928  1.00  0.00    -0.221 OA 
BRANCH   8   9
HETATM    9  C   UNL     1      -9.180  10.106  66.258  1.00  0.00    -0.157 C  
HETATM   10  O   UNL     1      -8.330  10.881  65.850  1.00  0.00    -0.163 OA 
BRANCH   9  11
HETATM   11  C   UNL     1      -9.124   8.643  66.039  1.00  0.00    -0.255 A  
HETATM   12  C   UNL     1      -8.156   8.055  65.216  1.00  0.00    -0.138 A  
HETATM   13  C   UNL     1      -8.152   6.671  65.014  1.00  0.00    -0.124 A  
HETATM   14  C   UNL     1     -10.081   6.465  66.478  1.00  0.00    -0.155 A  
HETATM   15  C   UNL     1      -9.124   5.869  65.652  1.00  0.00    -0.042 A  
HETATM   16  C   UNL     1     -10.091   7.849  66.663  1.00  0.00    -0.310 A  
BRANCH  13  17
HETATM   17  O   UNL     1      -7.254   6.011  64.211  1.00  0.00    -0.051 OA 
HETATM   18  C   UNL     1      -5.903   5.945  64.643  1.00  0.00    -0.025 C  
ENDBRANCH  13  17
BRANCH  15  19
HETATM   19  O   UNL     1      -9.055   4.522  65.401  1.00  0.00    -0.134 OA 
HETATM   20  C   UNL     1     -10.210   3.896  64.859  1.00  0.00    -0.164 C  
ENDBRANCH  15  19
ENDBRANCH   9  11
ENDBRANCH   8   9
ENDBRANCH   7   8
ENDBRANCH   6   7
ENDBRANCH   5   6
ENDBRANCH   4   5
ENDBRANCH   3   4
BRANCH   3  21
HETATM   21  C   UNL     1     -10.232   8.233  72.245  1.00  0.00    -0.305 C  
HETATM   22  C   UNL     1     -10.892   7.465  73.404  1.00  0.00    -0.362 C  
BRANCH  21  23
HETATM   23  C   UNL     1      -8.695   8.284  72.496  1.00  0.00    -0.284 C  
BRANCH  23  24
HETATM   24  C   UNL     1      -7.956   6.974  72.320  1.00  0.00    -0.092 A  
HETATM   25  C   UNL     1      -6.839   5.034  73.283  1.00  0.00    -0.074 A  
HETATM   26  C   UNL     1      -6.527   4.563  72.009  1.00  0.00    -0.022 A  
HETATM   27  C   UNL     1      -7.627   6.499  71.045  1.00  0.00    -0.089 A  
HETATM   28  C   UNL     1      -6.930   5.298  70.893  1.00  0.00    -0.056 A  
HETATM   29  C   UNL     1      -7.547   6.232  73.436  1.00  0.00    -0.095 A  
BRANCH  26  30
HETATM   30  O   UNL     1      -5.892   3.383  71.730  1.00  0.00    -0.012 OA 
HETATM   31  C   UNL     1      -5.132   3.349  70.527  1.00  0.00    -0.004 C  
ENDBRANCH  26  30
ENDBRANCH  23  24
ENDBRANCH  21  23
ENDBRANCH   3  21
ENDBRANCH   2   3
TORSDOF 14
ENDMDL
MODEL      392
REMARK 921   NORMALIZED FREE ENERGY PREDICTED BY IDOCK:   -2.25 KCAL/MOL
REMARK 922        TOTAL FREE ENERGY PREDICTED BY IDOCK:   -6.88 KCAL/MOL
REMARK 923 INTER-LIGAND FREE ENERGY PREDICTED BY IDOCK:   -6.67 KCAL/MOL
REMARK 924 INTRA-LIGAND FREE ENERGY PREDICTED BY IDOCK:   -0.22 KCAL/MOL
REMARK 927      BINDING AFFINITY PREDICTED BY RF-SCORE:    0.00 PKD
ROOT
HETATM    1  C   UNL     1     -11.535  11.275  67.369  1.00  0.00    -0.300 C  
HETATM    2  C   UNL     1     -10.248  10.711  66.780  1.00  0.00    -0.233 C  
ENDROOT
BRANCH   2   3
HETATM    3  N   UNL     1      -9.464   9.799  67.622  1.00  0.00    -0.143 NA 
BRANCH   3   4
HETATM    4  C   UNL     1      -8.035   9.698  67.275  1.00  0.00    -0.106 C  
BRANCH   4   5
HETATM    5  C   UNL     1      -7.540  10.796  66.321  1.00  0.00    -0.142 C  
BRANCH   5   6
HETATM    6  C   UNL     1      -6.528  11.720  66.999  1.00  0.00    -0.147 C  
BRANCH   6   7
HETATM    7  C   UNL     1      -7.210  13.005  67.456  1.00  0.00    -0.151 C  
BRANCH   7   8
HETATM    8  O   UNL     1      -6.321  14.115  67.278  1.00  0.00    -0.295 OA 
BRANCH   8   9
HETATM    9  C   UNL     1      -6.906  15.337  67.347  1.00  0.00    -0.154 C  
HETATM   10  O   UNL     1      -6.377  16.412  67.116  1.00  0.00    -0.167 OA 
BRANCH   9  11
HETATM   11  C   UNL     1      -8.310  15.197  67.797  1.00  0.00    -0.159 A  
HETATM   12  C   UNL     1      -9.356  14.976  66.894  1.00  0.00    -0.258 A  
HETATM   13  C   UNL     1     -10.673  14.875  67.354  1.00  0.00    -0.292 A  
HETATM   14  C   UNL     1      -9.886  15.199  69.631  1.00  0.00    -0.162 A  
HETATM   15  C   UNL     1     -10.940  14.986  68.737  1.00  0.00    -0.255 A  
HETATM   16  C   UNL     1      -8.575  15.316  69.164  1.00  0.00    -0.235 A  
BRANCH  13  17
HETATM   17  O   UNL     1     -11.762  14.678  66.541  1.00  0.00    -0.369 OA 
HETATM   18  C   UNL     1     -11.522  14.405  65.168  1.00  0.00    -0.362 C  
ENDBRANCH  13  17
BRANCH  15  19
HETATM   19  O   UNL     1     -12.256  14.879  69.109  1.00  0.00    -0.250 OA 
HETATM   20  C   UNL     1     -12.587  15.212  70.451  1.00  0.00    -0.359 C  
ENDBRANCH  15  19
ENDBRANCH   9  11
ENDBRANCH   8   9
ENDBRANCH   7   8
ENDBRANCH   6   7
ENDBRANCH   5   6
ENDBRANCH   4   5
ENDBRANCH   3   4
BRANCH   3  21
HETATM   21  C   UNL     1      -9.692   9.871  69.087  1.00  0.00    -0.198 C  
HETATM   22  C   UNL     1      -9.575  11.279  69.696  1.00  0.00     0.675 C  
BRANCH  21  23
HETATM   23  C   UNL     1     -11.027   9.231  69.572  1.00  0.00    -0.169 C  
BRANCH  23  24
HETATM   24  C   UNL     1     -10.915   8.288  70.752  1.00  0.00    -0.266 A  
HETATM   25  C   UNL     1     -11.542   6.211  71.863  1.00  0.00    -0.352 A  
HETATM   26  C   UNL     1     -10.761   6.549  72.967  1.00  0.00    -0.263 A  
HETATM   27  C   UNL     1     -10.143   8.624  71.871  1.00  0.00    -0.398 A  
HETATM   28  C   UNL     1     -10.059   7.755  72.962  1.00  0.00    -0.382 A  
HETATM   29  C   UNL     1     -11.618   7.076  70.764  1.00  0.00    -0.381 A  
BRANCH  26  30
HETATM   30  O   UNL     1     -10.562   5.766  74.071  1.00  0.00    -0.271 OA 
HETATM   31  C   UNL     1      -9.209   5.549  74.452  1.00  0.00    -0.124 C  
ENDBRANCH  26  30
ENDBRANCH  23  24
ENDBRANCH  21  23
ENDBRANCH   3  21
ENDBRANCH   2   3
TORSDOF 14
ENDMDL
MODEL      393
REMARK 921   NORMALIZED FREE ENERGY PREDICTED BY IDOCK:   -2.22 KCAL/MOL
REMARK 922        TOTAL FREE ENERGY PREDICTED BY IDOCK:   -6.83 KCAL/MOL
REMARK 923 INTER-LIGAND FREE ENERGY PREDICTED BY IDOCK:   -5.72 KCAL/MOL
REMARK 924 INTRA-LIGAND FREE ENERGY PREDICTED BY IDOCK:   -1.11 KCAL/MOL
REMARK 927      BINDING AFFINITY PREDICTED BY RF-SCORE:    0.00 PKD
ROOT
HETATM    1  C   UNL     1     -10.907   5.493  66.264  1.00  0.00    -0.127 C  
HETATM    2  C   UNL     1     -10.119   4.220  66.547  1.00  0.00    -0.129 C  
ENDROOT
BRANCH   2   3
HETATM    3  N   UNL     1      -8.663   4.274  66.369  1.00  0.00    -0.112 NA 
BRANCH   3   4
HETATM    4  C   UNL     1      -8.204   4.995  65.168  1.00  0.00    -0.131 C  
BRANCH   4   5
HETATM    5  C   UNL     1      -7.697   6.419  65.445  1.00  0.00    -0.098 C  
BRANCH   5   6
HETATM    6  C   UNL     1      -6.556   6.805  64.502  1.00  0.00    -0.042 C  
BRANCH   6   7
HETATM    7  C   UNL     1      -6.553   8.311  64.267  1.00  0.00    -0.066 C  
BRANCH   7   8
HETATM    8  O   UNL     1      -7.793   8.874  64.715  1.00  0.00    -0.109 OA 
BRANCH   8   9
HETATM    9  C   UNL     1      -7.706  10.129  65.223  1.00  0.00    -0.144 C  
HETATM   10  O   UNL     1      -6.776  10.906  65.087  1.00  0.00     0.076 OA 
BRANCH   9  11
HETATM   11  C   UNL     1      -8.910  10.429  66.030  1.00  0.00    -0.175 A  
HETATM   12  C   UNL     1      -9.476  11.709  66.066  1.00  0.00    -0.246 A  
HETATM   13  C   UNL     1     -10.598  11.960  66.860  1.00  0.00    -0.230 A  
HETATM   14  C   UNL     1     -10.597   9.636  67.571  1.00  0.00    -0.339 A  
HETATM   15  C   UNL     1     -11.166  10.912  67.619  1.00  0.00    -0.309 A  
HETATM   16  C   UNL     1      -9.466   9.395  66.788  1.00  0.00    -0.217 A  
BRANCH  13  17
HETATM   17  O   UNL     1     -11.208  13.186  66.971  1.00  0.00    -0.275 OA 
HETATM   18  C   UNL     1     -10.383  14.315  67.225  1.00  0.00    -0.260 C  
ENDBRANCH  13  17
BRANCH  15  19
HETATM   19  O   UNL     1     -12.263  11.238  68.375  1.00  0.00    -0.604 OA 
HETATM   20  C   UNL     1     -12.165  11.066  69.782  1.00  0.00    -0.318 C  
ENDBRANCH  15  19
ENDBRANCH   9  11
ENDBRANCH   8   9
ENDBRANCH   7   8
ENDBRANCH   6   7
ENDBRANCH   5   6
ENDBRANCH   4   5
ENDBRANCH   3   4
BRANCH   3  21
HETATM   21  C   UNL     1      -7.849   4.590  67.570  1.00  0.00    -0.089 C  
HETATM   22  C   UNL     1      -6.338   4.345  67.415  1.00  0.00    -0.041 C  
BRANCH  21  23
HETATM   23  C   UNL     1      -8.062   6.024  68.143  1.00  0.00    -0.110 C  
BRANCH  23  24
HETATM   24  C   UNL     1      -8.750   6.098  69.490  1.00  0.00    -0.130 A  
HETATM   25  C   UNL     1      -9.260   7.319  71.536  1.00  0.00    -0.150 A  
HETATM   26  C   UNL     1      -9.977   6.230  72.026  1.00  0.00    -0.168 A  
HETATM   27  C   UNL     1      -9.462   5.004  69.996  1.00  0.00    -0.231 A  
HETATM   28  C   UNL     1     -10.080   5.076  71.248  1.00  0.00    -0.276 A  
HETATM   29  C   UNL     1      -8.650   7.252  70.277  1.00  0.00    -0.142 A  
BRANCH  26  30
HETATM   30  O   UNL     1     -10.661   6.194  73.211  1.00  0.00    -0.230 OA 
HETATM   31  C   UNL     1     -11.286   4.958  73.538  1.00  0.00    -0.298 C  
ENDBRANCH  26  30
ENDBRANCH  23  24
ENDBRANCH  21  23
ENDBRANCH   3  21
ENDBRANCH   2   3
TORSDOF 14
ENDMDL
MODEL      394
REMARK 921   NORMALIZED FREE ENERGY PREDICTED BY IDOCK:   -2.21 KCAL/MOL
REMARK 922        TOTAL FREE ENERGY PREDICTED BY IDOCK:   -6.81 KCAL/MOL
REMARK 923 INTER-LIGAND FREE ENERGY PREDICTED BY IDOCK:   -5.50 KCAL/MOL
REMARK 924 INTRA-LIGAND FREE ENERGY PREDICTED BY IDOCK:   -1.31 KCAL/MOL
REMARK 927      BINDING AFFINITY PREDICTED BY RF-SCORE:    0.00 PKD
ROOT
HETATM    1  C   UNL     1     -11.242   6.337  67.083  1.00  0.00    -0.260 C  
HETATM    2  C   UNL     1      -9.876   6.490  67.742  1.00  0.00    -0.123 C  
ENDROOT
BRANCH   2   3
HETATM    3  N   UNL     1      -9.819   7.213  69.017  1.00  0.00    -0.154 NA 
BRANCH   3   4
HETATM    4  C   UNL     1     -10.233   8.627  68.956  1.00  0.00    -0.207 C  
BRANCH   4   5
HETATM    5  C   UNL     1      -9.582   9.519  70.023  1.00  0.00    -0.272 C  
BRANCH   5   6
HETATM    6  C   UNL     1      -8.387  10.292  69.462  1.00  0.00    -0.162 C  
BRANCH   6   7
HETATM    7  C   UNL     1      -7.871   9.616  68.196  1.00  0.00    -0.086 C  
BRANCH   7   8
HETATM    8  O   UNL     1      -7.419  10.609  67.266  1.00  0.00    -0.095 OA 
BRANCH   8   9
HETATM    9  C   UNL     1      -8.224  10.799  66.191  1.00  0.00    -0.163 C  
HETATM   10  O   UNL     1      -8.141  10.239  65.111  1.00  0.00    -0.145 OA 
BRANCH   9  11
HETATM   11  C   UNL     1      -9.228  11.845  66.495  1.00  0.00    -0.216 A  
HETATM   12  C   UNL     1      -8.854  13.145  66.855  1.00  0.00    -0.184 A  
HETATM   13  C   UNL     1      -9.830  14.099  67.160  1.00  0.00    -0.253 A  
HETATM   14  C   UNL     1     -11.559  12.447  66.723  1.00  0.00    -0.444 A  
HETATM   15  C   UNL     1     -11.196  13.746  67.092  1.00  0.00    -0.311 A  
HETATM   16  C   UNL     1     -10.579  11.494  66.436  1.00  0.00    -0.304 A  
BRANCH  13  17
HETATM   17  O   UNL     1      -9.556  15.390  67.540  1.00  0.00    -0.206 OA 
HETATM   18  C   UNL     1      -8.732  16.171  66.687  1.00  0.00    -0.265 C  
ENDBRANCH  13  17
BRANCH  15  19
HETATM   19  O   UNL     1     -12.092  14.736  67.408  1.00  0.00    -0.303 OA 
HETATM   20  C   UNL     1     -12.592  14.767  68.738  1.00  0.00     0.342 C  
ENDBRANCH  15  19
ENDBRANCH   9  11
ENDBRANCH   8   9
ENDBRANCH   7   8
ENDBRANCH   6   7
ENDBRANCH   5   6
ENDBRANCH   4   5
ENDBRANCH   3   4
BRANCH   3  21
HETATM   21  C   UNL     1     -10.354   6.514  70.213  1.00  0.00    -0.201 C  
HETATM   22  C   UNL     1     -11.855   6.729  70.477  1.00  0.00    -0.418 C  
BRANCH  21  23
HETATM   23  C   UNL     1     -10.057   4.985  70.261  1.00  0.00    -0.339 C  
BRANCH  23  24
HETATM   24  C   UNL     1      -9.137   4.528  71.374  1.00  0.00    -0.177 A  
HETATM   25  C   UNL     1      -7.292   4.970  72.904  1.00  0.00    -0.090 A  
HETATM   26  C   UNL     1      -7.378   3.674  73.406  1.00  0.00    -0.060 A  
HETATM   27  C   UNL     1      -9.207   3.223  71.877  1.00  0.00    -0.180 A  
HETATM   28  C   UNL     1      -8.343   2.807  72.893  1.00  0.00    -0.071 A  
HETATM   29  C   UNL     1      -8.165   5.393  71.893  1.00  0.00    -0.119 A  
BRANCH  26  30
HETATM   30  O   UNL     1      -6.622   3.163  74.427  1.00  0.00    -0.027 OA 
HETATM   31  C   UNL     1      -6.100   1.855  74.228  1.00  0.00    -0.004 C  
ENDBRANCH  26  30
ENDBRANCH  23  24
ENDBRANCH  21  23
ENDBRANCH   3  21
ENDBRANCH   2   3
TORSDOF 14
ENDMDL
MODEL      395
REMARK 921   NORMALIZED FREE ENERGY PREDICTED BY IDOCK:   -2.20 KCAL/MOL
REMARK 922        TOTAL FREE ENERGY PREDICTED BY IDOCK:   -6.80 KCAL/MOL
REMARK 923 INTER-LIGAND FREE ENERGY PREDICTED BY IDOCK:   -6.63 KCAL/MOL
REMARK 924 INTRA-LIGAND FREE ENERGY PREDICTED BY IDOCK:   -0.17 KCAL/MOL
REMARK 927      BINDING AFFINITY PREDICTED BY RF-SCORE:    0.00 PKD
ROOT
HETATM    1  C   UNL     1      -6.223   9.217  69.523  1.00  0.00    -0.040 C  
HETATM    2  C   UNL     1      -7.617   9.469  68.963  1.00  0.00    -0.075 C  
ENDROOT
BRANCH   2   3
HETATM    3  N   UNL     1      -8.208   8.419  68.126  1.00  0.00    -0.123 NA 
BRANCH   3   4
HETATM    4  C   UNL     1      -9.558   7.982  68.527  1.00  0.00    -0.155 C  
BRANCH   4   5
HETATM    5  C   UNL     1      -9.632   7.389  69.943  1.00  0.00    -0.163 C  
BRANCH   5   6
HETATM    6  C   UNL     1     -10.837   7.924  70.717  1.00  0.00    -0.238 C  
BRANCH   6   7
HETATM    7  C   UNL     1     -10.616   9.386  71.091  1.00  0.00    -0.333 C  
BRANCH   7   8
HETATM    8  O   UNL     1     -11.879  10.057  71.191  1.00  0.00    -0.339 OA 
BRANCH   8   9
HETATM    9  C   UNL     1     -12.058  11.079  70.317  1.00  0.00    -0.362 C  
HETATM   10  O   UNL     1     -11.916  11.034  69.106  1.00  0.00    -0.329 OA 
BRANCH   9  11
HETATM   11  C   UNL     1     -12.420  12.312  71.053  1.00  0.00    -0.361 A  
HETATM   12  C   UNL     1     -11.817  13.544  70.772  1.00  0.00    -0.118 A  
HETATM   13  C   UNL     1     -12.167  14.681  71.507  1.00  0.00    -0.352 A  
HETATM   14  C   UNL     1     -13.741  13.349  72.793  1.00  0.00    -0.286 A  
HETATM   15  C   UNL     1     -13.140  14.583  72.526  1.00  0.00    -0.431 A  
HETATM   16  C   UNL     1     -13.376  12.213  72.067  1.00  0.00    -0.470 A  
BRANCH  13  17
HETATM   17  O   UNL     1     -11.615  15.924  71.314  1.00  0.00    -0.387 OA 
HETATM   18  C   UNL     1     -10.797  16.115  70.168  1.00  0.00    -0.328 C  
ENDBRANCH  13  17
BRANCH  15  19
HETATM   19  O   UNL     1     -13.426  15.742  73.202  1.00  0.00    -0.559 OA 
HETATM   20  C   UNL     1     -12.330  16.501  73.695  1.00  0.00    -0.401 C  
ENDBRANCH  15  19
ENDBRANCH   9  11
ENDBRANCH   8   9
ENDBRANCH   7   8
ENDBRANCH   6   7
ENDBRANCH   5   6
ENDBRANCH   4   5
ENDBRANCH   3   4
BRANCH   3  21
HETATM   21  C   UNL     1      -8.072   8.572  66.655  1.00  0.00    -0.104 C  
HETATM   22  C   UNL     1      -6.624   8.638  66.139  1.00  0.00    -0.061 C  
BRANCH  21  23
HETATM   23  C   UNL     1      -8.849   7.515  65.815  1.00  0.00    -0.122 C  
BRANCH  23  24
HETATM   24  C   UNL     1      -8.052   6.303  65.381  1.00  0.00    -0.131 A  
HETATM   25  C   UNL     1      -6.756   5.124  63.687  1.00  0.00    -0.041 A  
HETATM   26  C   UNL     1      -6.613   4.030  64.537  1.00  0.00    -0.043 A  
HETATM   27  C   UNL     1      -7.913   5.194  66.223  1.00  0.00    -0.104 A  
HETATM   28  C   UNL     1      -7.189   4.073  65.807  1.00  0.00    -0.072 A  
HETATM   29  C   UNL     1      -7.472   6.253  64.106  1.00  0.00    -0.083 A  
BRANCH  26  30
HETATM   30  O   UNL     1      -5.893   2.898  64.264  1.00  0.00    -0.013 OA 
HETATM   31  C   UNL     1      -5.582   2.666  62.895  1.00  0.00    -0.008 C  
ENDBRANCH  26  30
ENDBRANCH  23  24
ENDBRANCH  21  23
ENDBRANCH   3  21
ENDBRANCH   2   3
TORSDOF 14
ENDMDL
MODEL      396
REMARK 921   NORMALIZED FREE ENERGY PREDICTED BY IDOCK:   -2.17 KCAL/MOL
REMARK 922        TOTAL FREE ENERGY PREDICTED BY IDOCK:   -6.73 KCAL/MOL
REMARK 923 INTER-LIGAND FREE ENERGY PREDICTED BY IDOCK:   -5.68 KCAL/MOL
REMARK 924 INTRA-LIGAND FREE ENERGY PREDICTED BY IDOCK:   -1.05 KCAL/MOL
REMARK 927      BINDING AFFINITY PREDICTED BY RF-SCORE:    0.00 PKD
ROOT
HETATM    1  C   UNL     1      -5.563  10.178  67.456  1.00  0.00    -0.045 C  
HETATM    2  C   UNL     1      -5.972   8.725  67.663  1.00  0.00    -0.047 C  
ENDROOT
BRANCH   2   3
HETATM    3  N   UNL     1      -6.978   8.447  68.694  1.00  0.00    -0.067 NA 
BRANCH   3   4
HETATM    4  C   UNL     1      -6.476   8.459  70.080  1.00  0.00    -0.038 C  
BRANCH   4   5
HETATM    5  C   UNL     1      -5.740   7.175  70.492  1.00  0.00    -0.024 C  
BRANCH   5   6
HETATM    6  C   UNL     1      -6.181   5.976  69.652  1.00  0.00    -0.030 C  
BRANCH   6   7
HETATM    7  C   UNL     1      -7.181   5.127  70.430  1.00  0.00    -0.061 C  
BRANCH   7   8
HETATM    8  O   UNL     1      -8.462   5.770  70.438  1.00  0.00    -0.124 OA 
BRANCH   8   9
HETATM    9  C   UNL     1      -9.507   4.975  70.100  1.00  0.00    -0.169 C  
HETATM   10  O   UNL     1     -10.498   4.748  70.774  1.00  0.00    -0.160 OA 
BRANCH   9  11
HETATM   11  C   UNL     1      -9.262   4.360  68.775  1.00  0.00    -0.193 A  
HETATM   12  C   UNL     1      -9.156   5.130  67.611  1.00  0.00    -0.117 A  
HETATM   13  C   UNL     1      -8.950   4.511  66.375  1.00  0.00    -0.115 A  
HETATM   14  C   UNL     1      -8.939   2.345  67.477  1.00  0.00    -0.187 A  
HETATM   15  C   UNL     1      -8.839   3.105  66.307  1.00  0.00    -0.142 A  
HETATM   16  C   UNL     1      -9.161   2.968  68.707  1.00  0.00    -0.229 A  
BRANCH  13  17
HETATM   17  O   UNL     1      -8.852   5.184  65.181  1.00  0.00    -0.153 OA 
HETATM   18  C   UNL     1      -8.000   6.320  65.129  1.00  0.00    -0.115 C  
ENDBRANCH  13  17
BRANCH  15  19
HETATM   19  O   UNL     1      -8.640   2.573  65.058  1.00  0.00    -0.094 OA 
HETATM   20  C   UNL     1      -9.761   2.511  64.186  1.00  0.00    -0.138 C  
ENDBRANCH  15  19
ENDBRANCH   9  11
ENDBRANCH   8   9
ENDBRANCH   7   8
ENDBRANCH   6   7
ENDBRANCH   5   6
ENDBRANCH   4   5
ENDBRANCH   3   4
BRANCH   3  21
HETATM   21  C   UNL     1      -8.290   9.129  68.557  1.00  0.00    -0.123 C  
HETATM   22  C   UNL     1      -9.469   8.208  68.196  1.00  0.00    -0.150 C  
BRANCH  21  23
HETATM   23  C   UNL     1      -8.701  10.004  69.779  1.00  0.00    -0.198 C  
BRANCH  23  24
HETATM   24  C   UNL     1      -9.994   9.613  70.463  1.00  0.00    -0.318 A  
HETATM   25  C   UNL     1     -12.347  10.040  70.933  1.00  0.00    -0.438 A  
HETATM   26  C   UNL     1     -12.396   8.931  71.775  1.00  0.00    -0.357 A  
HETATM   27  C   UNL     1     -10.050   8.508  71.320  1.00  0.00    -0.286 A  
HETATM   28  C   UNL     1     -11.244   8.165  71.959  1.00  0.00    -0.372 A  
HETATM   29  C   UNL     1     -11.154  10.379  70.283  1.00  0.00    -0.379 A  
BRANCH  26  30
HETATM   30  O   UNL     1     -13.511   8.468  72.418  1.00  0.00    -0.331 OA 
HETATM   31  C   UNL     1     -14.370   7.625  71.660  1.00  0.00    -0.477 C  
ENDBRANCH  26  30
ENDBRANCH  23  24
ENDBRANCH  21  23
ENDBRANCH   3  21
ENDBRANCH   2   3
TORSDOF 14
ENDMDL
MODEL      397
REMARK 921   NORMALIZED FREE ENERGY PREDICTED BY IDOCK:   -2.11 KCAL/MOL
REMARK 922        TOTAL FREE ENERGY PREDICTED BY IDOCK:   -6.63 KCAL/MOL
REMARK 923 INTER-LIGAND FREE ENERGY PREDICTED BY IDOCK:   -6.27 KCAL/MOL
REMARK 924 INTRA-LIGAND FREE ENERGY PREDICTED BY IDOCK:   -0.36 KCAL/MOL
REMARK 927      BINDING AFFINITY PREDICTED BY RF-SCORE:    0.00 PKD
ROOT
HETATM    1  C   UNL     1     -12.578  11.992  63.457  1.00  0.00    -0.625 C  
HETATM    2  C   UNL     1     -11.172  11.790  64.011  1.00  0.00    -0.385 C  
ENDROOT
BRANCH   2   3
HETATM    3  N   UNL     1     -10.662  12.801  64.944  1.00  0.00    -0.292 NA 
BRANCH   3   4
HETATM    4  C   UNL     1     -10.618  14.177  64.414  1.00  0.00    -0.095 C  
BRANCH   4   5
HETATM    5  C   UNL     1      -9.991  15.200  65.374  1.00  0.00    -0.365 C  
BRANCH   5   6
HETATM    6  C   UNL     1     -11.022  16.213  65.871  1.00  0.00    -0.072 C  
BRANCH   6   7
HETATM    7  C   UNL     1     -10.847  17.543  65.146  1.00  0.00     0.233 C  
BRANCH   7   8
HETATM    8  O   UNL     1      -9.817  18.311  65.782  1.00  0.00    -0.516 OA 
BRANCH   8   9
HETATM    9  C   UNL     1     -10.039  18.599  67.089  1.00  0.00    -0.359 C  
HETATM   10  O   UNL     1     -10.654  19.556  67.529  1.00  0.00    -0.444 OA 
BRANCH   9  11
HETATM   11  C   UNL     1      -9.377  17.588  67.945  1.00  0.00    -0.265 A  
HETATM   12  C   UNL     1     -10.105  16.768  68.817  1.00  0.00    -0.286 A  
HETATM   13  C   UNL     1      -9.442  15.843  69.629  1.00  0.00    -0.148 A  
HETATM   14  C   UNL     1      -7.320  16.550  68.678  1.00  0.00    -0.194 A  
HETATM   15  C   UNL     1      -8.035  15.732  69.557  1.00  0.00    -0.145 A  
HETATM   16  C   UNL     1      -7.986  17.484  67.881  1.00  0.00    -0.227 A  
BRANCH  13  17
HETATM   17  O   UNL     1     -10.070  15.013  70.525  1.00  0.00     0.075 OA 
HETATM   18  C   UNL     1     -11.195  15.524  71.225  1.00  0.00    -0.356 C  
ENDBRANCH  13  17
BRANCH  15  19
HETATM   19  O   UNL     1      -7.459  14.803  70.387  1.00  0.00     0.237 OA 
HETATM   20  C   UNL     1      -6.088  14.495  70.174  1.00  0.00    -0.160 C  
ENDBRANCH  15  19
ENDBRANCH   9  11
ENDBRANCH   8   9
ENDBRANCH   7   8
ENDBRANCH   6   7
ENDBRANCH   5   6
ENDBRANCH   4   5
ENDBRANCH   3   4
BRANCH   3  21
HETATM   21  C   UNL     1     -11.163  12.744  66.340  1.00  0.00    -0.299 C  
HETATM   22  C   UNL     1     -12.438  13.561  66.609  1.00  0.00    -0.263 C  
BRANCH  21  23
HETATM   23  C   UNL     1     -11.369  11.304  66.900  1.00  0.00    -0.231 C  
BRANCH  23  24
HETATM   24  C   UNL     1     -10.108  10.564  67.294  1.00  0.00    -0.242 A  
HETATM   25  C   UNL     1      -8.972   8.488  67.875  1.00  0.00    -0.139 A  
HETATM   26  C   UNL     1      -7.781   9.180  68.083  1.00  0.00    -0.092 A  
HETATM   27  C   UNL     1      -8.910  11.253  67.518  1.00  0.00    -0.140 A  
HETATM   28  C   UNL     1      -7.755  10.563  67.897  1.00  0.00    -0.092 A  
HETATM   29  C   UNL     1     -10.128   9.176  67.484  1.00  0.00    -0.284 A  
BRANCH  26  30
HETATM   30  O   UNL     1      -6.579   8.615  68.411  1.00  0.00    -0.058 OA 
HETATM   31  C   UNL     1      -5.613   9.485  68.991  1.00  0.00    -0.036 C  
ENDBRANCH  26  30
ENDBRANCH  23  24
ENDBRANCH  21  23
ENDBRANCH   3  21
ENDBRANCH   2   3
TORSDOF 14
ENDMDL
MODEL      398
REMARK 921   NORMALIZED FREE ENERGY PREDICTED BY IDOCK:   -2.10 KCAL/MOL
REMARK 922        TOTAL FREE ENERGY PREDICTED BY IDOCK:   -6.61 KCAL/MOL
REMARK 923 INTER-LIGAND FREE ENERGY PREDICTED BY IDOCK:   -6.22 KCAL/MOL
REMARK 924 INTRA-LIGAND FREE ENERGY PREDICTED BY IDOCK:   -0.39 KCAL/MOL
REMARK 927      BINDING AFFINITY PREDICTED BY RF-SCORE:    0.00 PKD
ROOT
HETATM    1  C   UNL     1     -13.323   7.195  71.440  1.00  0.00    -0.380 C  
HETATM    2  C   UNL     1     -12.672   8.569  71.543  1.00  0.00    -0.313 C  
ENDROOT
BRANCH   2   3
HETATM    3  N   UNL     1     -11.276   8.689  71.109  1.00  0.00    -0.259 NA 
BRANCH   3   4
HETATM    4  C   UNL     1     -10.770   7.559  70.308  1.00  0.00    -0.238 C  
BRANCH   4   5
HETATM    5  C   UNL     1     -11.535   7.326  68.995  1.00  0.00     0.345 C  
BRANCH   5   6
HETATM    6  C   UNL     1     -11.008   6.103  68.244  1.00  0.00    -0.397 C  
BRANCH   6   7
HETATM    7  C   UNL     1      -9.509   6.241  67.998  1.00  0.00    -0.116 C  
BRANCH   7   8
HETATM    8  O   UNL     1      -8.803   5.231  68.731  1.00  0.00    -0.096 OA 
BRANCH   8   9
HETATM    9  C   UNL     1      -7.478   5.464  68.901  1.00  0.00    -0.075 C  
HETATM   10  O   UNL     1      -6.602   5.336  68.062  1.00  0.00    -0.046 OA 
BRANCH   9  11
HETATM   11  C   UNL     1      -7.215   5.868  70.302  1.00  0.00    -0.075 A  
HETATM   12  C   UNL     1      -8.067   5.499  71.350  1.00  0.00    -0.117 A  
HETATM   13  C   UNL     1      -7.800   5.921  72.655  1.00  0.00    -0.101 A  
HETATM   14  C   UNL     1      -5.811   7.070  71.861  1.00  0.00    -0.037 A  
HETATM   15  C   UNL     1      -6.659   6.713  72.914  1.00  0.00    -0.067 A  
HETATM   16  C   UNL     1      -6.092   6.659  70.557  1.00  0.00    -0.027 A  
BRANCH  13  17
HETATM   17  O   UNL     1      -8.588   5.623  73.740  1.00  0.00    -0.119 OA 
HETATM   18  C   UNL     1      -9.789   6.363  73.909  1.00  0.00    -0.234 C  
ENDBRANCH  13  17
BRANCH  15  19
HETATM   19  O   UNL     1      -6.467   7.089  74.219  1.00  0.00    -0.078 OA 
HETATM   20  C   UNL     1      -6.394   8.481  74.496  1.00  0.00    -0.134 C  
ENDBRANCH  15  19
ENDBRANCH   9  11
ENDBRANCH   8   9
ENDBRANCH   7   8
ENDBRANCH   6   7
ENDBRANCH   5   6
ENDBRANCH   4   5
ENDBRANCH   3   4
BRANCH   3  21
HETATM   21  C   UNL     1     -10.847  10.005  70.572  1.00  0.00    -0.314 C  
HETATM   22  C   UNL     1      -9.658   9.954  69.597  1.00  0.00    -0.249 C  
BRANCH  21  23
HETATM   23  C   UNL     1     -11.985  10.847  69.922  1.00  0.00    -0.430 C  
BRANCH  23  24
HETATM   24  C   UNL     1     -11.689  11.401  68.544  1.00  0.00    -0.386 A  
HETATM   25  C   UNL     1     -10.957  11.061  66.245  1.00  0.00    -0.184 A  
HETATM   26  C   UNL     1     -11.078  12.425  65.989  1.00  0.00    -0.308 A  
HETATM   27  C   UNL     1     -11.795  12.772  68.281  1.00  0.00    -0.357 A  
HETATM   28  C   UNL     1     -11.504  13.275  67.011  1.00  0.00    -0.378 A  
HETATM   29  C   UNL     1     -11.260  10.553  67.514  1.00  0.00    -0.299 A  
BRANCH  26  30
HETATM   30  O   UNL     1     -10.867  13.031  64.780  1.00  0.00    -0.304 OA 
HETATM   31  C   UNL     1     -11.920  13.858  64.299  1.00  0.00    -0.444 C  
ENDBRANCH  26  30
ENDBRANCH  23  24
ENDBRANCH  21  23
ENDBRANCH   3  21
ENDBRANCH   2   3
TORSDOF 14
ENDMDL
MODEL      399
REMARK 921   NORMALIZED FREE ENERGY PREDICTED BY IDOCK:   -2.06 KCAL/MOL
REMARK 922        TOTAL FREE ENERGY PREDICTED BY IDOCK:   -6.54 KCAL/MOL
REMARK 923 INTER-LIGAND FREE ENERGY PREDICTED BY IDOCK:   -5.47 KCAL/MOL
REMARK 924 INTRA-LIGAND FREE ENERGY PREDICTED BY IDOCK:   -1.07 KCAL/MOL
REMARK 927      BINDING AFFINITY PREDICTED BY RF-SCORE:    0.00 PKD
ROOT
HETATM    1  C   UNL     1     -12.957  10.671  70.717  1.00  0.00    -0.396 C  
HETATM    2  C   UNL     1     -11.451  10.652  70.483  1.00  0.00    -0.317 C  
ENDROOT
BRANCH   2   3
HETATM    3  N   UNL     1     -10.950   9.827  69.378  1.00  0.00    -0.230 NA 
BRANCH   3   4
HETATM    4  C   UNL     1     -10.118  10.539  68.391  1.00  0.00    -0.164 C  
BRANCH   4   5
HETATM    5  C   UNL     1     -10.792  10.734  67.024  1.00  0.00    -0.311 C  
BRANCH   5   6
HETATM    6  C   UNL     1     -10.068   9.959  65.922  1.00  0.00    -0.316 C  
BRANCH   6   7
HETATM    7  C   UNL     1      -8.837  10.729  65.457  1.00  0.00    -0.190 C  
BRANCH   7   8
HETATM    8  O   UNL     1      -7.937   9.843  64.779  1.00  0.00    -0.130 OA 
BRANCH   8   9
HETATM    9  C   UNL     1      -6.627  10.007  65.088  1.00  0.00    -0.115 C  
HETATM   10  O   UNL     1      -5.684   9.949  64.316  1.00  0.00    -0.086 OA 
BRANCH   9  11
HETATM   11  C   UNL     1      -6.478  10.231  66.544  1.00  0.00    -0.080 A  
HETATM   12  C   UNL     1      -6.133  11.484  67.067  1.00  0.00    -0.131 A  
HETATM   13  C   UNL     1      -5.976  11.650  68.446  1.00  0.00    -0.049 A  
HETATM   14  C   UNL     1      -6.531   9.307  68.778  1.00  0.00    -0.048 A  
HETATM   15  C   UNL     1      -6.179  10.551  69.310  1.00  0.00    -0.048 A  
HETATM   16  C   UNL     1      -6.670   9.143  67.398  1.00  0.00    -0.069 A  
BRANCH  13  17
HETATM   17  O   UNL     1      -5.622  12.834  69.046  1.00  0.00    -0.067 OA 
HETATM   18  C   UNL     1      -6.653  13.609  69.642  1.00  0.00    -0.040 C  
ENDBRANCH  13  17
BRANCH  15  19
HETATM   19  O   UNL     1      -6.004  10.794  70.649  1.00  0.00    -0.162 OA 
HETATM   20  C   UNL     1      -5.740   9.679  71.489  1.00  0.00    -0.050 C  
ENDBRANCH  15  19
ENDBRANCH   9  11
ENDBRANCH   8   9
ENDBRANCH   7   8
ENDBRANCH   6   7
ENDBRANCH   5   6
ENDBRANCH   4   5
ENDBRANCH   3   4
BRANCH   3  21
HETATM   21  C   UNL     1     -10.404   8.491  69.728  1.00  0.00    -0.212 C  
HETATM   22  C   UNL     1      -9.490   8.465  70.965  1.00  0.00    -0.212 C  
BRANCH  21  23
HETATM   23  C   UNL     1     -11.474   7.368  69.878  1.00  0.00    -0.026 C  
BRANCH  23  24
HETATM   24  C   UNL     1     -11.094   6.215  70.783  1.00  0.00    -0.375 A  
HETATM   25  C   UNL     1     -11.090   5.174  72.987  1.00  0.00    -0.379 A  
HETATM   26  C   UNL     1     -10.345   4.103  72.496  1.00  0.00    -0.159 A  
HETATM   27  C   UNL     1     -10.335   5.142  70.303  1.00  0.00    -0.331 A  
HETATM   28  C   UNL     1      -9.975   4.091  71.150  1.00  0.00    -0.197 A  
HETATM   29  C   UNL     1     -11.460   6.223  72.136  1.00  0.00    -0.354 A  
BRANCH  26  30
HETATM   30  O   UNL     1      -9.972   2.998  73.211  1.00  0.00    -0.103 OA 
HETATM   31  C   UNL     1      -9.922   1.772  72.491  1.00  0.00    -0.125 C  
ENDBRANCH  26  30
ENDBRANCH  23  24
ENDBRANCH  21  23
ENDBRANCH   3  21
ENDBRANCH   2   3
TORSDOF 14
ENDMDL
MODEL      400
REMARK 921   NORMALIZED FREE ENERGY PREDICTED BY IDOCK:   -2.05 KCAL/MOL
REMARK 922        TOTAL FREE ENERGY PREDICTED BY IDOCK:   -6.52 KCAL/MOL
REMARK 923 INTER-LIGAND FREE ENERGY PREDICTED BY IDOCK:   -6.09 KCAL/MOL
REMARK 924 INTRA-LIGAND FREE ENERGY PREDICTED BY IDOCK:   -0.42 KCAL/MOL
REMARK 927      BINDING AFFINITY PREDICTED BY RF-SCORE:    0.00 PKD
ROOT
HETATM    1  C   UNL     1     -12.005  12.511  70.334  1.00  0.00    -0.335 C  
HETATM    2  C   UNL     1     -12.066  11.489  69.204  1.00  0.00    -0.263 C  
ENDROOT
BRANCH   2   3
HETATM    3  N   UNL     1     -10.824  11.219  68.471  1.00  0.00    -0.190 NA 
BRANCH   3   4
HETATM    4  C   UNL     1     -10.709   9.860  67.912  1.00  0.00    -0.265 C  
BRANCH   4   5
HETATM    5  C   UNL     1     -10.312   8.789  68.940  1.00  0.00    -0.229 C  
BRANCH   5   6
HETATM    6  C   UNL     1     -10.896   7.421  68.585  1.00  0.00    -0.073 C  
BRANCH   6   7
HETATM    7  C   UNL     1      -9.807   6.511  68.028  1.00  0.00    -0.123 C  
BRANCH   7   8
HETATM    8  O   UNL     1      -8.786   7.301  67.405  1.00  0.00    -0.120 OA 
BRANCH   8   9
HETATM    9  C   UNL     1      -7.528   7.079  67.862  1.00  0.00    -0.099 C  
HETATM   10  O   UNL     1      -6.489   7.455  67.345  1.00  0.00    -0.055 OA 
BRANCH   9  11
HETATM   11  C   UNL     1      -7.578   6.253  69.090  1.00  0.00    -0.099 A  
HETATM   12  C   UNL     1      -7.612   4.854  69.038  1.00  0.00    -0.068 A  
HETATM   13  C   UNL     1      -7.685   4.109  70.219  1.00  0.00    -0.048 A  
HETATM   14  C   UNL     1      -7.672   6.171  71.505  1.00  0.00    -0.101 A  
HETATM   15  C   UNL     1      -7.714   4.774  71.465  1.00  0.00    -0.092 A  
HETATM   16  C   UNL     1      -7.615   6.911  70.322  1.00  0.00    -0.091 A  
BRANCH  13  17
HETATM   17  O   UNL     1      -7.742   2.737  70.263  1.00  0.00    -0.043 OA 
HETATM   18  C   UNL     1      -7.985   2.044  69.047  1.00  0.00    -0.045 C  
ENDBRANCH  13  17
BRANCH  15  19
HETATM   19  O   UNL     1      -7.789   3.973  72.576  1.00  0.00    -0.078 OA 
HETATM   20  C   UNL     1      -7.805   4.613  73.845  1.00  0.00    -0.101 C  
ENDBRANCH  15  19
ENDBRANCH   9  11
ENDBRANCH   8   9
ENDBRANCH   7   8
ENDBRANCH   6   7
ENDBRANCH   5   6
ENDBRANCH   4   5
ENDBRANCH   3   4
BRANCH   3  21
HETATM   21  C   UNL     1     -10.358  12.266  67.527  1.00  0.00    -0.203 C  
HETATM   22  C   UNL     1      -9.327  11.792  66.487  1.00  0.00    -0.217 C  
BRANCH  21  23
HETATM   23  C   UNL     1     -11.496  13.029  66.785  1.00  0.00    -0.392 C  
BRANCH  23  24
HETATM   24  C   UNL     1     -11.214  14.483  66.467  1.00  0.00    -0.344 A  
HETATM   25  C   UNL     1     -11.112  16.311  64.860  1.00  0.00    -0.301 A  
HETATM   26  C   UNL     1     -10.638  17.173  65.847  1.00  0.00    -0.215 A  
HETATM   27  C   UNL     1     -10.725  15.353  67.449  1.00  0.00    -0.296 A  
HETATM   28  C   UNL     1     -10.452  16.688  67.142  1.00  0.00    -0.300 A  
HETATM   29  C   UNL     1     -11.397  14.975  65.168  1.00  0.00    -0.372 A  
BRANCH  26  30
HETATM   30  O   UNL     1     -10.379  18.506  65.682  1.00  0.00    -0.594 OA 
HETATM   31  C   UNL     1      -9.376  19.060  66.526  1.00  0.00    -0.340 C  
ENDBRANCH  26  30
ENDBRANCH  23  24
ENDBRANCH  21  23
ENDBRANCH   3  21
ENDBRANCH   2   3
TORSDOF 14
ENDMDL
MODEL      401
REMARK 921   NORMALIZED FREE ENERGY PREDICTED BY IDOCK:   -2.04 KCAL/MOL
REMARK 922        TOTAL FREE ENERGY PREDICTED BY IDOCK:   -6.50 KCAL/MOL
REMARK 923 INTER-LIGAND FREE ENERGY PREDICTED BY IDOCK:   -4.86 KCAL/MOL
REMARK 924 INTRA-LIGAND FREE ENERGY PREDICTED BY IDOCK:   -1.64 KCAL/MOL
REMARK 927      BINDING AFFINITY PREDICTED BY RF-SCORE:    0.00 PKD
ROOT
HETATM    1  C   UNL     1     -11.387   6.188  70.594  1.00  0.00    -0.368 C  
HETATM    2  C   UNL     1     -11.114   5.655  71.996  1.00  0.00    -0.230 C  
ENDROOT
BRANCH   2   3
HETATM    3  N   UNL     1     -10.056   4.650  72.141  1.00  0.00    -0.188 NA 
BRANCH   3   4
HETATM    4  C   UNL     1      -9.385   4.259  70.887  1.00  0.00    -0.150 C  
BRANCH   4   5
HETATM    5  C   UNL     1      -9.565   2.780  70.513  1.00  0.00    -0.158 C  
BRANCH   5   6
HETATM    6  C   UNL     1      -8.503   2.317  69.514  1.00  0.00    -0.089 C  
BRANCH   6   7
HETATM    7  C   UNL     1      -9.128   2.113  68.138  1.00  0.00    -0.170 C  
BRANCH   7   8
HETATM    8  O   UNL     1      -9.783   3.317  67.719  1.00  0.00    -0.152 OA 
BRANCH   8   9
HETATM    9  C   UNL     1      -9.428   3.767  66.490  1.00  0.00    -0.187 C  
HETATM   10  O   UNL     1      -9.084   3.088  65.537  1.00  0.00    -0.144 OA 
BRANCH   9  11
HETATM   11  C   UNL     1      -9.473   5.247  66.465  1.00  0.00    -0.155 A  
HETATM   12  C   UNL     1      -8.374   6.012  66.054  1.00  0.00    -0.134 A  
HETATM   13  C   UNL     1      -8.445   7.408  66.069  1.00  0.00    -0.148 A  
HETATM   14  C   UNL     1     -10.728   7.270  66.892  1.00  0.00    -0.346 A  
HETATM   15  C   UNL     1      -9.635   8.043  66.491  1.00  0.00    -0.226 A  
HETATM   16  C   UNL     1     -10.646   5.876  66.891  1.00  0.00    -0.384 A  
BRANCH  13  17
HETATM   17  O   UNL     1      -7.414   8.238  65.702  1.00  0.00    -0.077 OA 
HETATM   18  C   UNL     1      -6.864   8.075  64.402  1.00  0.00    -0.064 C  
ENDBRANCH  13  17
BRANCH  15  19
HETATM   19  O   UNL     1      -9.625   9.415  66.480  1.00  0.00    -0.175 OA 
HETATM   20  C   UNL     1      -9.772  10.062  65.223  1.00  0.00    -0.306 C  
ENDBRANCH  15  19
ENDBRANCH   9  11
ENDBRANCH   8   9
ENDBRANCH   7   8
ENDBRANCH   6   7
ENDBRANCH   5   6
ENDBRANCH   4   5
ENDBRANCH   3   4
BRANCH   3  21
HETATM   21  C   UNL     1      -9.103   4.832  73.265  1.00  0.00    -0.115 C  
HETATM   22  C   UNL     1      -9.022   3.650  74.248  1.00  0.00    -0.093 C  
BRANCH  21  23
HETATM   23  C   UNL     1      -7.655   5.219  72.836  1.00  0.00    -0.097 C  
BRANCH  23  24
HETATM   24  C   UNL     1      -7.506   6.575  72.177  1.00  0.00    -0.092 A  
HETATM   25  C   UNL     1      -8.235   8.884  71.908  1.00  0.00    -0.008 A  
HETATM   26  C   UNL     1      -7.277   9.087  70.917  1.00  0.00    -0.103 A  
HETATM   27  C   UNL     1      -6.555   6.785  71.171  1.00  0.00    -0.053 A  
HETATM   28  C   UNL     1      -6.435   8.034  70.558  1.00  0.00    -0.037 A  
HETATM   29  C   UNL     1      -8.349   7.636  72.532  1.00  0.00    -0.153 A  
BRANCH  26  30
HETATM   30  O   UNL     1      -7.032  10.271  70.277  1.00  0.00    -0.149 OA 
HETATM   31  C   UNL     1      -8.028  10.706  69.358  1.00  0.00    -0.111 C  
ENDBRANCH  26  30
ENDBRANCH  23  24
ENDBRANCH  21  23
ENDBRANCH   3  21
ENDBRANCH   2   3
TORSDOF 14
ENDMDL
MODEL      402
REMARK 921   NORMALIZED FREE ENERGY PREDICTED BY IDOCK:   -2.02 KCAL/MOL
REMARK 922        TOTAL FREE ENERGY PREDICTED BY IDOCK:   -6.46 KCAL/MOL
REMARK 923 INTER-LIGAND FREE ENERGY PREDICTED BY IDOCK:   -7.62 KCAL/MOL
REMARK 924 INTRA-LIGAND FREE ENERGY PREDICTED BY IDOCK:    1.16 KCAL/MOL
REMARK 927      BINDING AFFINITY PREDICTED BY RF-SCORE:    0.00 PKD
ROOT
HETATM    1  C   UNL     1      -6.414   8.755  69.655  1.00  0.00    -0.039 C  
HETATM    2  C   UNL     1      -6.436   7.242  69.468  1.00  0.00    -0.036 C  
ENDROOT
BRANCH   2   3
HETATM    3  N   UNL     1      -7.732   6.616  69.184  1.00  0.00    -0.104 NA 
BRANCH   3   4
HETATM    4  C   UNL     1      -8.879   7.190  69.912  1.00  0.00    -0.142 C  
BRANCH   4   5
HETATM    5  C   UNL     1      -9.532   8.390  69.209  1.00  0.00    -0.155 C  
BRANCH   5   6
HETATM    6  C   UNL     1      -9.562   9.625  70.110  1.00  0.00    -0.300 C  
BRANCH   6   7
HETATM    7  C   UNL     1     -10.841   9.642  70.941  1.00  0.00    -0.339 C  
BRANCH   7   8
HETATM    8  O   UNL     1     -11.976   9.797  70.080  1.00  0.00    -0.105 OA 
BRANCH   8   9
HETATM    9  C   UNL     1     -11.891  10.823  69.195  1.00  0.00    -0.275 C  
HETATM   10  O   UNL     1     -11.552  10.749  68.026  1.00  0.00    -0.470 OA 
BRANCH   9  11
HETATM   11  C   UNL     1     -12.236  12.096  69.868  1.00  0.00    -0.240 A  
HETATM   12  C   UNL     1     -11.937  13.339  69.296  1.00  0.00    -0.354 A  
HETATM   13  C   UNL     1     -12.254  14.519  69.973  1.00  0.00    -0.342 A  
HETATM   14  C   UNL     1     -13.189  13.207  71.793  1.00  0.00    -0.494 A  
HETATM   15  C   UNL     1     -12.888  14.453  71.234  1.00  0.00    -0.342 A  
HETATM   16  C   UNL     1     -12.854  12.031  71.119  1.00  0.00    -0.331 A  
BRANCH  13  17
HETATM   17  O   UNL     1     -11.983  15.779  69.498  1.00  0.00    -0.361 OA 
HETATM   18  C   UNL     1     -11.179  15.888  68.332  1.00  0.00    -0.368 C  
ENDBRANCH  13  17
BRANCH  15  19
HETATM   19  O   UNL     1     -13.164  15.654  71.836  1.00  0.00    -0.434 OA 
HETATM   20  C   UNL     1     -12.345  16.042  72.931  1.00  0.00    -0.508 C  
ENDBRANCH  15  19
ENDBRANCH   9  11
ENDBRANCH   8   9
ENDBRANCH   7   8
ENDBRANCH   6   7
ENDBRANCH   5   6
ENDBRANCH   4   5
ENDBRANCH   3   4
BRANCH   3  21
HETATM   21  C   UNL     1      -8.045   6.330  67.761  1.00  0.00    -0.114 C  
HETATM   22  C   UNL     1      -9.511   6.566  67.356  1.00  0.00    -0.135 C  
BRANCH  21  23
HETATM   23  C   UNL     1      -7.125   7.055  66.733  1.00  0.00    -0.082 C  
BRANCH  23  24
HETATM   24  C   UNL     1      -7.818   8.026  65.799  1.00  0.00    -0.097 A  
HETATM   25  C   UNL     1      -9.085  10.078  65.448  1.00  0.00    -0.235 A  
HETATM   26  C   UNL     1      -9.162   9.813  64.082  1.00  0.00    -0.224 A  
HETATM   27  C   UNL     1      -7.913   7.762  64.428  1.00  0.00    -0.126 A  
HETATM   28  C   UNL     1      -8.569   8.656  63.577  1.00  0.00    -0.009 A  
HETATM   29  C   UNL     1      -8.418   9.189  66.300  1.00  0.00    -0.131 A  
BRANCH  26  30
HETATM   30  O   UNL     1      -9.735  10.629  63.144  1.00  0.00    -0.307 OA 
HETATM   31  C   UNL     1     -10.739  11.520  63.616  1.00  0.00    -0.424 C  
ENDBRANCH  26  30
ENDBRANCH  23  24
ENDBRANCH  21  23
ENDBRANCH   3  21
ENDBRANCH   2   3
TORSDOF 14
ENDMDL
MODEL      403
REMARK 921   NORMALIZED FREE ENERGY PREDICTED BY IDOCK:   -2.02 KCAL/MOL
REMARK 922        TOTAL FREE ENERGY PREDICTED BY IDOCK:   -6.45 KCAL/MOL
REMARK 923 INTER-LIGAND FREE ENERGY PREDICTED BY IDOCK:   -5.45 KCAL/MOL
REMARK 924 INTRA-LIGAND FREE ENERGY PREDICTED BY IDOCK:   -1.00 KCAL/MOL
REMARK 927      BINDING AFFINITY PREDICTED BY RF-SCORE:    0.00 PKD
ROOT
HETATM    1  C   UNL     1     -11.553  11.916  64.132  1.00  0.00    -0.434 C  
HETATM    2  C   UNL     1     -10.267  12.326  64.840  1.00  0.00    -0.281 C  
ENDROOT
BRANCH   2   3
HETATM    3  N   UNL     1     -10.380  13.289  65.940  1.00  0.00    -0.287 NA 
BRANCH   3   4
HETATM    4  C   UNL     1     -11.298  14.416  65.695  1.00  0.00    -0.330 C  
BRANCH   4   5
HETATM    5  C   UNL     1     -10.593  15.758  65.441  1.00  0.00    -0.441 C  
BRANCH   5   6
HETATM    6  C   UNL     1     -10.027  16.352  66.732  1.00  0.00    -0.277 C  
BRANCH   6   7
HETATM    7  C   UNL     1      -9.981  17.873  66.637  1.00  0.00    -0.355 C  
BRANCH   7   8
HETATM    8  O   UNL     1      -8.661  18.297  66.274  1.00  0.00    -0.393 OA 
BRANCH   8   9
HETATM    9  C   UNL     1      -7.814  18.496  67.314  1.00  0.00    -0.235 C  
HETATM   10  O   UNL     1      -7.574  19.558  67.865  1.00  0.00    -0.273 OA 
BRANCH   9  11
HETATM   11  C   UNL     1      -7.160  17.219  67.682  1.00  0.00    -0.179 A  
HETATM   12  C   UNL     1      -7.569  16.474  68.795  1.00  0.00    -0.219 A  
HETATM   13  C   UNL     1      -6.910  15.285  69.125  1.00  0.00    -0.138 A  
HETATM   14  C   UNL     1      -5.444  15.582  67.210  1.00  0.00     0.226 A  
HETATM   15  C   UNL     1      -5.838  14.835  68.323  1.00  0.00    -0.115 A  
HETATM   16  C   UNL     1      -6.094  16.777  66.895  1.00  0.00    -0.212 A  
BRANCH  13  17
HETATM   17  O   UNL     1      -7.230  14.501  70.206  1.00  0.00     0.059 OA 
HETATM   18  C   UNL     1      -6.442  14.640  71.381  1.00  0.00     0.592 C  
ENDBRANCH  13  17
BRANCH  15  19
HETATM   19  O   UNL     1      -5.242  13.662  68.714  1.00  0.00    -0.070 OA 
HETATM   20  C   UNL     1      -5.175  12.611  67.760  1.00  0.00    -0.105 C  
ENDBRANCH  15  19
ENDBRANCH   9  11
ENDBRANCH   8   9
ENDBRANCH   7   8
ENDBRANCH   6   7
ENDBRANCH   5   6
ENDBRANCH   4   5
ENDBRANCH   3   4
BRANCH   3  21
HETATM   21  C   UNL     1     -10.511  12.735  67.311  1.00  0.00    -0.232 C  
HETATM   22  C   UNL     1     -11.582  13.409  68.187  1.00  0.00    -0.376 C  
BRANCH  21  23
HETATM   23  C   UNL     1     -10.719  11.192  67.373  1.00  0.00    -0.294 C  
BRANCH  23  24
HETATM   24  C   UNL     1      -9.680  10.419  68.158  1.00  0.00    -0.165 A  
HETATM   25  C   UNL     1      -8.884   9.491  70.266  1.00  0.00    -0.281 A  
HETATM   26  C   UNL     1      -7.725   9.031  69.644  1.00  0.00    -0.075 A  
HETATM   27  C   UNL     1      -8.506   9.965  67.544  1.00  0.00    -0.115 A  
HETATM   28  C   UNL     1      -7.545   9.266  68.280  1.00  0.00    -0.083 A  
HETATM   29  C   UNL     1      -9.853  10.181  69.527  1.00  0.00    -0.255 A  
BRANCH  26  30
HETATM   30  O   UNL     1      -6.736   8.300  70.243  1.00  0.00    -0.036 OA 
HETATM   31  C   UNL     1      -7.164   7.251  71.104  1.00  0.00    -0.072 C  
ENDBRANCH  26  30
ENDBRANCH  23  24
ENDBRANCH  21  23
ENDBRANCH   3  21
ENDBRANCH   2   3
TORSDOF 14
ENDMDL
MODEL      404
REMARK 921   NORMALIZED FREE ENERGY PREDICTED BY IDOCK:   -1.94 KCAL/MOL
REMARK 922        TOTAL FREE ENERGY PREDICTED BY IDOCK:   -6.32 KCAL/MOL
REMARK 923 INTER-LIGAND FREE ENERGY PREDICTED BY IDOCK:   -5.83 KCAL/MOL
REMARK 924 INTRA-LIGAND FREE ENERGY PREDICTED BY IDOCK:   -0.49 KCAL/MOL
REMARK 927      BINDING AFFINITY PREDICTED BY RF-SCORE:    0.00 PKD
ROOT
HETATM    1  C   UNL     1     -12.125  12.981  69.887  1.00  0.00    -0.347 C  
HETATM    2  C   UNL     1     -11.557  12.295  68.650  1.00  0.00    -0.323 C  
ENDROOT
BRANCH   2   3
HETATM    3  N   UNL     1     -10.121  12.447  68.394  1.00  0.00    -0.223 NA 
BRANCH   3   4
HETATM    4  C   UNL     1      -9.533  11.434  67.497  1.00  0.00    -0.167 C  
BRANCH   4   5
HETATM    5  C   UNL     1      -9.449  10.027  68.108  1.00  0.00    -0.148 C  
BRANCH   5   6
HETATM    6  C   UNL     1     -10.342   9.033  67.365  1.00  0.00    -0.335 C  
BRANCH   6   7
HETATM    7  C   UNL     1      -9.506   7.887  66.807  1.00  0.00    -0.201 C  
BRANCH   7   8
HETATM    8  O   UNL     1      -8.152   8.319  66.623  1.00  0.00    -0.099 OA 
BRANCH   8   9
HETATM    9  C   UNL     1      -7.211   7.521  67.188  1.00  0.00    -0.086 C  
HETATM   10  O   UNL     1      -6.003   7.605  67.044  1.00  0.00    -0.043 OA 
BRANCH   9  11
HETATM   11  C   UNL     1      -7.867   6.469  67.998  1.00  0.00    -0.105 A  
HETATM   12  C   UNL     1      -8.128   5.194  67.482  1.00  0.00    -0.099 A  
HETATM   13  C   UNL     1      -8.772   4.235  68.269  1.00  0.00    -0.098 A  
HETATM   14  C   UNL     1      -8.876   5.829  70.101  1.00  0.00    -0.144 A  
HETATM   15  C   UNL     1      -9.148   4.556  69.593  1.00  0.00    -0.109 A  
HETATM   16  C   UNL     1      -8.248   6.789  69.304  1.00  0.00    -0.124 A  
BRANCH  13  17
HETATM   17  O   UNL     1      -9.084   2.968  67.841  1.00  0.00    -0.143 OA 
HETATM   18  C   UNL     1      -8.569   2.547  66.586  1.00  0.00    -0.112 C  
ENDBRANCH  13  17
BRANCH  15  19
HETATM   19  O   UNL     1      -9.778   3.562  70.300  1.00  0.00    -0.183 OA 
HETATM   20  C   UNL     1     -10.177   3.858  71.631  1.00  0.00    -0.018 C  
ENDBRANCH  15  19
ENDBRANCH   9  11
ENDBRANCH   8   9
ENDBRANCH   7   8
ENDBRANCH   6   7
ENDBRANCH   5   6
ENDBRANCH   4   5
ENDBRANCH   3   4
BRANCH   3  21
HETATM   21  C   UNL     1      -9.628  13.817  68.108  1.00  0.00    -0.216 C  
HETATM   22  C   UNL     1      -8.115  13.924  67.846  1.00  0.00    -0.158 C  
BRANCH  21  23
HETATM   23  C   UNL     1     -10.382  14.555  66.961  1.00  0.00    -0.263 C  
BRANCH  23  24
HETATM   24  C   UNL     1     -10.345  16.068  67.016  1.00  0.00    -0.292 A  
HETATM   25  C   UNL     1     -10.304  18.222  65.877  1.00  0.00    -0.297 A  
HETATM   26  C   UNL     1     -10.216  18.884  67.100  1.00  0.00    -0.383 A  
HETATM   27  C   UNL     1     -10.243  16.742  68.239  1.00  0.00    -0.295 A  
HETATM   28  C   UNL     1     -10.193  18.138  68.278  1.00  0.00    -0.402 A  
HETATM   29  C   UNL     1     -10.366  16.823  65.836  1.00  0.00    -0.341 A  
BRANCH  26  30
HETATM   30  O   UNL     1     -10.206  20.241  67.271  1.00  0.00    -0.412 OA 
HETATM   31  C   UNL     1      -9.215  20.755  68.154  1.00  0.00     0.338 C  
ENDBRANCH  26  30
ENDBRANCH  23  24
ENDBRANCH  21  23
ENDBRANCH   3  21
ENDBRANCH   2   3
TORSDOF 14
ENDMDL
MODEL      405
REMARK 921   NORMALIZED FREE ENERGY PREDICTED BY IDOCK:   -1.84 KCAL/MOL
REMARK 922        TOTAL FREE ENERGY PREDICTED BY IDOCK:   -6.14 KCAL/MOL
REMARK 923 INTER-LIGAND FREE ENERGY PREDICTED BY IDOCK:   -5.56 KCAL/MOL
REMARK 924 INTRA-LIGAND FREE ENERGY PREDICTED BY IDOCK:   -0.59 KCAL/MOL
REMARK 927      BINDING AFFINITY PREDICTED BY RF-SCORE:    0.00 PKD
ROOT
HETATM    1  C   UNL     1     -10.939   5.850  67.702  1.00  0.00    -0.247 C  
HETATM    2  C   UNL     1      -9.660   6.474  68.247  1.00  0.00    -0.131 C  
ENDROOT
BRANCH   2   3
HETATM    3  N   UNL     1      -9.797   7.671  69.085  1.00  0.00    -0.168 NA 
BRANCH   3   4
HETATM    4  C   UNL     1     -10.470   8.814  68.440  1.00  0.00    -0.176 C  
BRANCH   4   5
HETATM    5  C   UNL     1     -10.311  10.144  69.193  1.00  0.00    -0.237 C  
BRANCH   5   6
HETATM    6  C   UNL     1      -9.440  11.132  68.417  1.00  0.00    -0.189 C  
BRANCH   6   7
HETATM    7  C   UNL     1      -7.979  10.982  68.829  1.00  0.00    -0.144 C  
BRANCH   7   8
HETATM    8  O   UNL     1      -7.344  12.268  68.842  1.00  0.00    -0.104 OA 
BRANCH   8   9
HETATM    9  C   UNL     1      -7.087  12.795  67.619  1.00  0.00    -0.145 C  
HETATM   10  O   UNL     1      -6.411  12.292  66.737  1.00  0.00    -0.143 OA 
BRANCH   9  11
HETATM   11  C   UNL     1      -7.719  14.129  67.504  1.00  0.00    -0.201 A  
HETATM   12  C   UNL     1      -8.855  14.342  66.712  1.00  0.00    -0.225 A  
HETATM   13  C   UNL     1      -9.408  15.622  66.608  1.00  0.00    -0.265 A  
HETATM   14  C   UNL     1      -7.694  16.471  68.107  1.00  0.00    -0.167 A  
HETATM   15  C   UNL     1      -8.823  16.696  67.314  1.00  0.00    -0.192 A  
HETATM   16  C   UNL     1      -7.135  15.194  68.194  1.00  0.00    -0.124 A  
BRANCH  13  17
HETATM   17  O   UNL     1     -10.507  15.927  65.842  1.00  0.00    -0.324 OA 
HETATM   18  C   UNL     1     -11.117  14.874  65.108  1.00  0.00    -0.393 C  
ENDBRANCH  13  17
BRANCH  15  19
HETATM   19  O   UNL     1      -9.423  17.920  67.158  1.00  0.00    -0.254 OA 
HETATM   20  C   UNL     1      -9.904  18.568  68.328  1.00  0.00    -0.363 C  
ENDBRANCH  15  19
ENDBRANCH   9  11
ENDBRANCH   8   9
ENDBRANCH   7   8
ENDBRANCH   6   7
ENDBRANCH   5   6
ENDBRANCH   4   5
ENDBRANCH   3   4
BRANCH   3  21
HETATM   21  C   UNL     1     -10.240   7.466  70.487  1.00  0.00    -0.193 C  
HETATM   22  C   UNL     1     -11.609   8.077  70.834  1.00  0.00    -0.284 C  
BRANCH  21  23
HETATM   23  C   UNL     1     -10.224   5.983  70.965  1.00  0.00    -0.253 C  
BRANCH  23  24
HETATM   24  C   UNL     1      -9.033   5.577  71.808  1.00  0.00    -0.144 A  
HETATM   25  C   UNL     1      -6.694   5.857  72.432  1.00  0.00    -0.072 A  
HETATM   26  C   UNL     1      -6.790   4.794  73.328  1.00  0.00    -0.069 A  
HETATM   27  C   UNL     1      -9.116   4.502  72.701  1.00  0.00    -0.137 A  
HETATM   28  C   UNL     1      -8.007   4.124  73.462  1.00  0.00    -0.089 A  
HETATM   29  C   UNL     1      -7.808   6.244  71.677  1.00  0.00    -0.102 A  
BRANCH  26  30
HETATM   30  O   UNL     1      -5.793   4.359  74.159  1.00  0.00    -0.018 OA 
HETATM   31  C   UNL     1      -5.850   2.991  74.546  1.00  0.00    -0.007 C  
ENDBRANCH  26  30
ENDBRANCH  23  24
ENDBRANCH  21  23
ENDBRANCH   3  21
ENDBRANCH   2   3
TORSDOF 14
ENDMDL
MODEL      406
REMARK 921   NORMALIZED FREE ENERGY PREDICTED BY IDOCK:   -1.83 KCAL/MOL
REMARK 922        TOTAL FREE ENERGY PREDICTED BY IDOCK:   -6.12 KCAL/MOL
REMARK 923 INTER-LIGAND FREE ENERGY PREDICTED BY IDOCK:   -5.74 KCAL/MOL
REMARK 924 INTRA-LIGAND FREE ENERGY PREDICTED BY IDOCK:   -0.37 KCAL/MOL
REMARK 927      BINDING AFFINITY PREDICTED BY RF-SCORE:    0.00 PKD
ROOT
HETATM    1  C   UNL     1      -7.120   8.812  68.085  1.00  0.00    -0.078 C  
HETATM    2  C   UNL     1      -8.467   8.126  68.282  1.00  0.00    -0.130 C  
ENDROOT
BRANCH   2   3
HETATM    3  N   UNL     1      -8.856   7.109  67.299  1.00  0.00    -0.119 NA 
BRANCH   3   4
HETATM    4  C   UNL     1      -9.208   7.628  65.964  1.00  0.00    -0.063 C  
BRANCH   4   5
HETATM    5  C   UNL     1      -8.011   7.771  65.010  1.00  0.00    -0.134 C  
BRANCH   5   6
HETATM    6  C   UNL     1      -8.007   9.129  64.309  1.00  0.00    -0.139 C  
BRANCH   6   7
HETATM    7  C   UNL     1      -9.387   9.772  64.396  1.00  0.00    -0.215 C  
BRANCH   7   8
HETATM    8  O   UNL     1      -9.279  11.077  64.979  1.00  0.00    -0.208 OA 
BRANCH   8   9
HETATM    9  C   UNL     1     -10.223  11.966  64.581  1.00  0.00    -0.278 C  
HETATM   10  O   UNL     1     -10.893  11.909  63.564  1.00  0.00    -0.387 OA 
BRANCH   9  11
HETATM   11  C   UNL     1     -10.309  13.077  65.556  1.00  0.00    -0.304 A  
HETATM   12  C   UNL     1      -9.165  13.718  66.048  1.00  0.00     0.059 A  
HETATM   13  C   UNL     1      -9.285  14.747  66.987  1.00  0.00    -0.233 A  
HETATM   14  C   UNL     1     -11.702  14.502  66.926  1.00  0.00    -0.399 A  
HETATM   15  C   UNL     1     -10.567  15.144  67.429  1.00  0.00    -0.271 A  
HETATM   16  C   UNL     1     -11.576  13.464  66.000  1.00  0.00    -0.375 A  
BRANCH  13  17
HETATM   17  O   UNL     1      -8.220  15.418  67.537  1.00  0.00    -0.147 OA 
HETATM   18  C   UNL     1      -7.325  14.681  68.358  1.00  0.00    -0.115 C  
ENDBRANCH  13  17
BRANCH  15  19
HETATM   19  O   UNL     1     -10.600  16.158  68.352  1.00  0.00    -0.259 OA 
HETATM   20  C   UNL     1     -11.650  16.137  69.310  1.00  0.00    -0.270 C  
ENDBRANCH  15  19
ENDBRANCH   9  11
ENDBRANCH   8   9
ENDBRANCH   7   8
ENDBRANCH   6   7
ENDBRANCH   5   6
ENDBRANCH   4   5
ENDBRANCH   3   4
BRANCH   3  21
HETATM   21  C   UNL     1      -8.023   5.882  67.232  1.00  0.00    -0.102 C  
HETATM   22  C   UNL     1      -6.741   5.919  68.082  1.00  0.00    -0.058 C  
BRANCH  21  23
HETATM   23  C   UNL     1      -8.785   4.559  67.542  1.00  0.00    -0.109 C  
BRANCH  23  24
HETATM   24  C   UNL     1      -9.096   4.305  69.003  1.00  0.00    -0.187 A  
HETATM   25  C   UNL     1     -10.076   5.037  71.111  1.00  0.00    -0.293 A  
HETATM   26  C   UNL     1      -9.632   3.874  71.738  1.00  0.00    -0.158 A  
HETATM   27  C   UNL     1      -8.643   3.147  69.644  1.00  0.00    -0.113 A  
HETATM   28  C   UNL     1      -8.921   2.930  70.997  1.00  0.00    -0.162 A  
HETATM   29  C   UNL     1      -9.808   5.251  69.753  1.00  0.00    -0.282 A  
BRANCH  26  30
HETATM   30  O   UNL     1      -9.878   3.527  73.038  1.00  0.00    -0.125 OA 
HETATM   31  C   UNL     1      -8.792   3.679  73.945  1.00  0.00    -0.088 C  
ENDBRANCH  26  30
ENDBRANCH  23  24
ENDBRANCH  21  23
ENDBRANCH   3  21
ENDBRANCH   2   3
TORSDOF 14
ENDMDL
MODEL      407
REMARK 921   NORMALIZED FREE ENERGY PREDICTED BY IDOCK:   -1.78 KCAL/MOL
REMARK 922        TOTAL FREE ENERGY PREDICTED BY IDOCK:   -6.02 KCAL/MOL
REMARK 923 INTER-LIGAND FREE ENERGY PREDICTED BY IDOCK:   -6.22 KCAL/MOL
REMARK 924 INTRA-LIGAND FREE ENERGY PREDICTED BY IDOCK:    0.19 KCAL/MOL
REMARK 927      BINDING AFFINITY PREDICTED BY RF-SCORE:    0.00 PKD
ROOT
HETATM    1  C   UNL     1     -10.420   6.991  66.741  1.00  0.00    -0.297 C  
HETATM    2  C   UNL     1      -9.287   5.995  66.528  1.00  0.00    -0.152 C  
ENDROOT
BRANCH   2   3
HETATM    3  N   UNL     1      -7.944   6.539  66.299  1.00  0.00    -0.108 NA 
BRANCH   3   4
HETATM    4  C   UNL     1      -7.806   7.383  65.097  1.00  0.00    -0.123 C  
BRANCH   4   5
HETATM    5  C   UNL     1      -8.621   8.685  65.147  1.00  0.00    -0.200 C  
BRANCH   5   6
HETATM    6  C   UNL     1      -8.009   9.768  64.257  1.00  0.00    -0.143 C  
BRANCH   6   7
HETATM    7  C   UNL     1      -9.110  10.585  63.590  1.00  0.00    -0.239 C  
BRANCH   7   8
HETATM    8  O   UNL     1     -10.260  10.638  64.444  1.00  0.00    -0.346 OA 
BRANCH   8   9
HETATM    9  C   UNL     1     -11.022  11.754  64.315  1.00  0.00    -0.359 C  
HETATM   10  O   UNL     1     -11.910  11.938  63.499  1.00  0.00    -0.473 OA 
BRANCH   9  11
HETATM   11  C   UNL     1     -10.591  12.773  65.299  1.00  0.00    -0.312 A  
HETATM   12  C   UNL     1      -9.743  12.455  66.368  1.00  0.00    -0.246 A  
HETATM   13  C   UNL     1      -9.379  13.439  67.292  1.00  0.00    -0.233 A  
HETATM   14  C   UNL     1     -10.701  15.065  66.061  1.00  0.00    -0.329 A  
HETATM   15  C   UNL     1      -9.861  14.757  67.136  1.00  0.00    -0.232 A  
HETATM   16  C   UNL     1     -11.075  14.075  65.151  1.00  0.00    -0.341 A  
BRANCH  13  17
HETATM   17  O   UNL     1      -8.569  13.215  68.378  1.00  0.00    -0.172 OA 
HETATM   18  C   UNL     1      -8.006  11.920  68.529  1.00  0.00    -0.137 C  
ENDBRANCH  13  17
BRANCH  15  19
HETATM   19  O   UNL     1      -9.461  15.664  68.085  1.00  0.00    -0.193 OA 
HETATM   20  C   UNL     1      -9.719  17.038  67.829  1.00  0.00    -0.258 C  
ENDBRANCH  15  19
ENDBRANCH   9  11
ENDBRANCH   8   9
ENDBRANCH   7   8
ENDBRANCH   6   7
ENDBRANCH   5   6
ENDBRANCH   4   5
ENDBRANCH   3   4
BRANCH   3  21
HETATM   21  C   UNL     1      -7.234   7.101  67.475  1.00  0.00    -0.090 C  
HETATM   22  C   UNL     1      -6.028   7.996  67.141  1.00  0.00    -0.049 C  
BRANCH  21  23
HETATM   23  C   UNL     1      -8.147   7.857  68.487  1.00  0.00    -0.123 C  
BRANCH  23  24
HETATM   24  C   UNL     1      -8.478   7.107  69.761  1.00  0.00    -0.137 A  
HETATM   25  C   UNL     1      -8.419   6.943  72.191  1.00  0.00    -0.114 A  
HETATM   26  C   UNL     1      -9.037   5.696  72.138  1.00  0.00    -0.140 A  
HETATM   27  C   UNL     1      -9.087   5.847  69.716  1.00  0.00    -0.147 A  
HETATM   28  C   UNL     1      -9.375   5.156  70.896  1.00  0.00    -0.199 A  
HETATM   29  C   UNL     1      -8.140   7.643  71.010  1.00  0.00    -0.095 A  
BRANCH  26  30
HETATM   30  O   UNL     1      -9.409   4.944  73.219  1.00  0.00    -0.124 OA 
HETATM   31  C   UNL     1      -9.513   3.542  73.003  1.00  0.00    -0.107 C  
ENDBRANCH  26  30
ENDBRANCH  23  24
ENDBRANCH  21  23
ENDBRANCH   3  21
ENDBRANCH   2   3
TORSDOF 14
ENDMDL
MODEL      408
REMARK 921   NORMALIZED FREE ENERGY PREDICTED BY IDOCK:   -1.71 KCAL/MOL
REMARK 922        TOTAL FREE ENERGY PREDICTED BY IDOCK:   -5.90 KCAL/MOL
REMARK 923 INTER-LIGAND FREE ENERGY PREDICTED BY IDOCK:   -5.34 KCAL/MOL
REMARK 924 INTRA-LIGAND FREE ENERGY PREDICTED BY IDOCK:   -0.57 KCAL/MOL
REMARK 927      BINDING AFFINITY PREDICTED BY RF-SCORE:    0.00 PKD
ROOT
HETATM    1  C   UNL     1     -10.553  12.206  64.911  1.00  0.00    -0.332 C  
HETATM    2  C   UNL     1     -10.198  11.538  66.234  1.00  0.00    -0.230 C  
ENDROOT
BRANCH   2   3
HETATM    3  N   UNL     1      -9.553  12.369  67.257  1.00  0.00    -0.196 NA 
BRANCH   3   4
HETATM    4  C   UNL     1     -10.103  12.228  68.618  1.00  0.00    -0.144 C  
BRANCH   4   5
HETATM    5  C   UNL     1     -10.981  10.983  68.815  1.00  0.00    -0.270 C  
BRANCH   5   6
HETATM    6  C   UNL     1     -10.283   9.931  69.678  1.00  0.00    -0.261 C  
BRANCH   6   7
HETATM    7  C   UNL     1     -11.315   9.094  70.426  1.00  0.00    -0.224 C  
BRANCH   7   8
HETATM    8  O   UNL     1     -10.754   8.618  71.656  1.00  0.00    -0.254 OA 
BRANCH   8   9
HETATM    9  C   UNL     1     -11.568   7.819  72.389  1.00  0.00    -0.356 C  
HETATM   10  O   UNL     1     -12.752   8.000  72.619  1.00  0.00    -0.129 OA 
BRANCH   9  11
HETATM   11  C   UNL     1     -10.796   6.677  72.932  1.00  0.00    -0.293 A  
HETATM   12  C   UNL     1     -11.082   5.354  72.572  1.00  0.00    -0.310 A  
HETATM   13  C   UNL     1     -10.347   4.301  73.125  1.00  0.00    -0.171 A  
HETATM   14  C   UNL     1      -9.026   5.904  74.387  1.00  0.00    -0.129 A  
HETATM   15  C   UNL     1      -9.308   4.579  74.040  1.00  0.00    -0.113 A  
HETATM   16  C   UNL     1      -9.774   6.951  73.844  1.00  0.00    -0.305 A  
BRANCH  13  17
HETATM   17  O   UNL     1     -10.569   2.975  72.845  1.00  0.00    -0.158 OA 
HETATM   18  C   UNL     1     -11.782   2.395  73.304  1.00  0.00     0.057 C  
ENDBRANCH  13  17
BRANCH  15  19
HETATM   19  O   UNL     1      -8.636   3.492  74.540  1.00  0.00    -0.083 OA 
HETATM   20  C   UNL     1      -7.944   2.666  73.613  1.00  0.00    -0.056 C  
ENDBRANCH  15  19
ENDBRANCH   9  11
ENDBRANCH   8   9
ENDBRANCH   7   8
ENDBRANCH   6   7
ENDBRANCH   5   6
ENDBRANCH   4   5
ENDBRANCH   3   4
BRANCH   3  21
HETATM   21  C   UNL     1      -8.069  12.424  67.244  1.00  0.00    -0.182 C  
HETATM   22  C   UNL     1      -7.380  11.238  66.547  1.00  0.00    -0.101 C  
BRANCH  21  23
HETATM   23  C   UNL     1      -7.470  13.747  66.679  1.00  0.00     1.208 C  
BRANCH  23  24
HETATM   24  C   UNL     1      -8.211  15.015  67.049  1.00  0.00    -0.246 A  
HETATM   25  C   UNL     1      -8.511  16.931  68.526  1.00  0.00    -0.258 A  
HETATM   26  C   UNL     1      -9.616  17.347  67.786  1.00  0.00    -0.264 A  
HETATM   27  C   UNL     1      -9.330  15.435  66.320  1.00  0.00    -0.351 A  
HETATM   28  C   UNL     1     -10.016  16.598  66.680  1.00  0.00    -0.290 A  
HETATM   29  C   UNL     1      -7.815  15.772  68.160  1.00  0.00    -0.133 A  
BRANCH  26  30
HETATM   30  O   UNL     1     -10.340  18.486  68.009  1.00  0.00    -0.368 OA 
HETATM   31  C   UNL     1      -9.923  19.646  67.297  1.00  0.00    -0.395 C  
ENDBRANCH  26  30
ENDBRANCH  23  24
ENDBRANCH  21  23
ENDBRANCH   3  21
ENDBRANCH   2   3
TORSDOF 14
ENDMDL
MODEL      409
REMARK 921   NORMALIZED FREE ENERGY PREDICTED BY IDOCK:   -1.71 KCAL/MOL
REMARK 922        TOTAL FREE ENERGY PREDICTED BY IDOCK:   -5.89 KCAL/MOL
REMARK 923 INTER-LIGAND FREE ENERGY PREDICTED BY IDOCK:   -6.08 KCAL/MOL
REMARK 924 INTRA-LIGAND FREE ENERGY PREDICTED BY IDOCK:    0.18 KCAL/MOL
REMARK 927      BINDING AFFINITY PREDICTED BY RF-SCORE:    0.00 PKD
ROOT
HETATM    1  C   UNL     1     -11.931   8.330  72.767  1.00  0.00    -0.243 C  
HETATM    2  C   UNL     1     -10.973   8.765  71.664  1.00  0.00    -0.321 C  
ENDROOT
BRANCH   2   3
HETATM    3  N   UNL     1     -11.263   8.309  70.300  1.00  0.00    -0.222 NA 
BRANCH   3   4
HETATM    4  C   UNL     1     -10.685   9.137  69.226  1.00  0.00    -0.183 C  
BRANCH   4   5
HETATM    5  C   UNL     1      -9.148   9.147  69.199  1.00  0.00    -0.144 C  
BRANCH   5   6
HETATM    6  C   UNL     1      -8.606   8.851  67.800  1.00  0.00    -0.125 C  
BRANCH   6   7
HETATM    7  C   UNL     1      -9.517   9.462  66.741  1.00  0.00    -0.165 C  
BRANCH   7   8
HETATM    8  O   UNL     1      -9.339  10.884  66.709  1.00  0.00    -0.162 OA 
BRANCH   8   9
HETATM    9  C   UNL     1     -10.406  11.588  66.256  1.00  0.00    -0.239 C  
HETATM   10  O   UNL     1     -10.976  11.439  65.189  1.00  0.00    -0.267 OA 
BRANCH   9  11
HETATM   11  C   UNL     1     -10.777  12.629  67.243  1.00  0.00    -0.259 A  
HETATM   12  C   UNL     1     -11.546  12.332  68.375  1.00  0.00    -0.377 A  
HETATM   13  C   UNL     1     -11.898  13.346  69.271  1.00  0.00    -0.334 A  
HETATM   14  C   UNL     1     -10.691  14.953  67.904  1.00  0.00    -0.265 A  
HETATM   15  C   UNL     1     -11.464  14.670  69.033  1.00  0.00    -0.291 A  
HETATM   16  C   UNL     1     -10.357  13.939  67.004  1.00  0.00    -0.267 A  
BRANCH  13  17
HETATM   17  O   UNL     1     -12.662  13.152  70.396  1.00  0.00    -0.152 OA 
HETATM   18  C   UNL     1     -12.513  11.924  71.094  1.00  0.00    -0.261 C  
ENDBRANCH  13  17
BRANCH  15  19
HETATM   19  O   UNL     1     -11.853  15.608  69.956  1.00  0.00    -0.328 OA 
HETATM   20  C   UNL     1     -11.282  16.905  69.852  1.00  0.00     0.317 C  
ENDBRANCH  15  19
ENDBRANCH   9  11
ENDBRANCH   8   9
ENDBRANCH   7   8
ENDBRANCH   6   7
ENDBRANCH   5   6
ENDBRANCH   4   5
ENDBRANCH   3   4
BRANCH   3  21
HETATM   21  C   UNL     1     -11.132   6.854  70.033  1.00  0.00    -0.299 C  
HETATM   22  C   UNL     1     -11.205   6.456  68.548  1.00  0.00    -0.321 C  
BRANCH  21  23
HETATM   23  C   UNL     1      -9.874   6.186  70.664  1.00  0.00    -0.214 C  
BRANCH  23  24
HETATM   24  C   UNL     1      -9.376   4.935  69.971  1.00  0.00    -0.207 A  
HETATM   25  C   UNL     1      -8.170   2.818  70.045  1.00  0.00    -0.065 A  
HETATM   26  C   UNL     1      -8.393   2.627  68.683  1.00  0.00    -0.064 A  
HETATM   27  C   UNL     1      -9.583   4.740  68.601  1.00  0.00    -0.223 A  
HETATM   28  C   UNL     1      -9.106   3.590  67.967  1.00  0.00    -0.202 A  
HETATM   29  C   UNL     1      -8.658   3.965  70.684  1.00  0.00    -0.108 A  
BRANCH  26  30
HETATM   30  O   UNL     1      -8.017   1.527  67.961  1.00  0.00    -0.056 OA 
HETATM   31  C   UNL     1      -6.651   1.470  67.568  1.00  0.00    -0.028 C  
ENDBRANCH  26  30
ENDBRANCH  23  24
ENDBRANCH  21  23
ENDBRANCH   3  21
ENDBRANCH   2   3
TORSDOF 14
ENDMDL
MODEL      410
REMARK 921   NORMALIZED FREE ENERGY PREDICTED BY IDOCK:   -1.61 KCAL/MOL
REMARK 922        TOTAL FREE ENERGY PREDICTED BY IDOCK:   -5.72 KCAL/MOL
REMARK 923 INTER-LIGAND FREE ENERGY PREDICTED BY IDOCK:   -5.00 KCAL/MOL
REMARK 924 INTRA-LIGAND FREE ENERGY PREDICTED BY IDOCK:   -0.71 KCAL/MOL
REMARK 927      BINDING AFFINITY PREDICTED BY RF-SCORE:    0.00 PKD
ROOT
HETATM    1  C   UNL     1      -9.454   8.466  68.995  1.00  0.00    -0.151 C  
HETATM    2  C   UNL     1      -9.646   7.505  67.828  1.00  0.00    -0.142 C  
ENDROOT
BRANCH   2   3
HETATM    3  N   UNL     1      -8.472   7.201  67.003  1.00  0.00    -0.120 NA 
BRANCH   3   4
HETATM    4  C   UNL     1      -8.410   5.822  66.483  1.00  0.00    -0.111 C  
BRANCH   4   5
HETATM    5  C   UNL     1      -7.425   4.911  67.234  1.00  0.00    -0.083 C  
BRANCH   5   6
HETATM    6  C   UNL     1      -7.828   4.729  68.697  1.00  0.00    -0.077 C  
BRANCH   6   7
HETATM    7  C   UNL     1      -9.282   4.281  68.793  1.00  0.00    -0.141 C  
BRANCH   7   8
HETATM    8  O   UNL     1      -9.430   3.337  69.861  1.00  0.00    -0.163 OA 
BRANCH   8   9
HETATM    9  C   UNL     1      -8.948   3.746  71.061  1.00  0.00    -0.098 C  
HETATM   10  O   UNL     1      -8.087   3.195  71.726  1.00  0.00    -0.057 OA 
BRANCH   9  11
HETATM   11  C   UNL     1      -9.660   4.969  71.498  1.00  0.00    -0.213 A  
HETATM   12  C   UNL     1      -9.140   5.813  72.487  1.00  0.00    -0.136 A  
HETATM   13  C   UNL     1      -9.853   6.946  72.890  1.00  0.00    -0.172 A  
HETATM   14  C   UNL     1     -11.603   6.394  71.297  1.00  0.00    -0.370 A  
HETATM   15  C   UNL     1     -11.097   7.239  72.288  1.00  0.00    -0.260 A  
HETATM   16  C   UNL     1     -10.894   5.255  70.909  1.00  0.00    -0.119 A  
BRANCH  13  17
HETATM   17  O   UNL     1      -9.431   7.818  73.863  1.00  0.00    -0.264 OA 
HETATM   18  C   UNL     1      -8.123   8.361  73.743  1.00  0.00    -0.116 C  
ENDBRANCH  13  17
BRANCH  15  19
HETATM   19  O   UNL     1     -11.737   8.366  72.741  1.00  0.00    -0.367 OA 
HETATM   20  C   UNL     1     -12.468   9.130  71.791  1.00  0.00    -0.372 C  
ENDBRANCH  15  19
ENDBRANCH   9  11
ENDBRANCH   8   9
ENDBRANCH   7   8
ENDBRANCH   6   7
ENDBRANCH   5   6
ENDBRANCH   4   5
ENDBRANCH   3   4
BRANCH   3  21
HETATM   21  C   UNL     1      -8.081   8.211  65.987  1.00  0.00    -0.112 C  
HETATM   22  C   UNL     1      -8.011   7.687  64.542  1.00  0.00    -0.130 C  
BRANCH  21  23
HETATM   23  C   UNL     1      -8.936   9.514  66.001  1.00  0.00    -0.198 C  
BRANCH  23  24
HETATM   24  C   UNL     1      -8.231  10.758  66.500  1.00  0.00    -0.148 A  
HETATM   25  C   UNL     1      -6.186  12.048  66.803  1.00  0.00     0.023 A  
HETATM   26  C   UNL     1      -6.895  13.042  67.475  1.00  0.00    -0.151 A  
HETATM   27  C   UNL     1      -8.932  11.756  67.187  1.00  0.00    -0.177 A  
HETATM   28  C   UNL     1      -8.270  12.892  67.658  1.00  0.00    -0.177 A  
HETATM   29  C   UNL     1      -6.850  10.913  66.321  1.00  0.00    -0.123 A  
BRANCH  26  30
HETATM   30  O   UNL     1      -6.370  14.216  67.941  1.00  0.00    -0.138 OA 
HETATM   31  C   UNL     1      -6.834  14.649  69.215  1.00  0.00    -0.143 C  
ENDBRANCH  26  30
ENDBRANCH  23  24
ENDBRANCH  21  23
ENDBRANCH   3  21
ENDBRANCH   2   3
TORSDOF 14
ENDMDL
MODEL      411
REMARK 921   NORMALIZED FREE ENERGY PREDICTED BY IDOCK:   -1.57 KCAL/MOL
REMARK 922        TOTAL FREE ENERGY PREDICTED BY IDOCK:   -5.64 KCAL/MOL
REMARK 923 INTER-LIGAND FREE ENERGY PREDICTED BY IDOCK:   -6.32 KCAL/MOL
REMARK 924 INTRA-LIGAND FREE ENERGY PREDICTED BY IDOCK:    0.68 KCAL/MOL
REMARK 927      BINDING AFFINITY PREDICTED BY RF-SCORE:    0.00 PKD
ROOT
HETATM    1  C   UNL     1     -10.723   9.175  69.145  1.00  0.00    -0.190 C  
HETATM    2  C   UNL     1      -9.731   9.910  70.037  1.00  0.00    -0.227 C  
ENDROOT
BRANCH   2   3
HETATM    3  N   UNL     1      -8.344  10.004  69.570  1.00  0.00    -0.159 NA 
BRANCH   3   4
HETATM    4  C   UNL     1      -7.761   8.741  69.078  1.00  0.00    -0.091 C  
BRANCH   4   5
HETATM    5  C   UNL     1      -8.535   8.104  67.914  1.00  0.00    -0.132 C  
BRANCH   5   6
HETATM    6  C   UNL     1      -7.616   7.283  67.008  1.00  0.00    -0.106 C  
BRANCH   6   7
HETATM    7  C   UNL     1      -8.169   5.872  66.836  1.00  0.00    -0.105 C  
BRANCH   7   8
HETATM    8  O   UNL     1      -7.790   5.062  67.956  1.00  0.00    -0.086 OA 
BRANCH   8   9
HETATM    9  C   UNL     1      -8.815   4.438  68.589  1.00  0.00    -0.104 C  
HETATM   10  O   UNL     1      -9.494   3.526  68.149  1.00  0.00    -0.181 OA 
BRANCH   9  11
HETATM   11  C   UNL     1      -9.039   5.059  69.914  1.00  0.00    -0.162 A  
HETATM   12  C   UNL     1     -10.327   5.328  70.396  1.00  0.00    -0.345 A  
HETATM   13  C   UNL     1     -10.498   5.939  71.641  1.00  0.00    -0.233 A  
HETATM   14  C   UNL     1      -8.085   5.994  71.930  1.00  0.00    -0.107 A  
HETATM   15  C   UNL     1      -9.366   6.274  72.417  1.00  0.00    -0.141 A  
HETATM   16  C   UNL     1      -7.920   5.399  70.678  1.00  0.00    -0.105 A  
BRANCH  13  17
HETATM   17  O   UNL     1     -11.719   6.257  72.184  1.00  0.00    -0.304 OA 
HETATM   18  C   UNL     1     -12.662   6.918  71.352  1.00  0.00    -0.334 C  
ENDBRANCH  13  17
BRANCH  15  19
HETATM   19  O   UNL     1      -9.617   6.873  73.626  1.00  0.00    -0.169 OA 
HETATM   20  C   UNL     1      -8.780   7.957  74.006  1.00  0.00    -0.246 C  
ENDBRANCH  15  19
ENDBRANCH   9  11
ENDBRANCH   8   9
ENDBRANCH   7   8
ENDBRANCH   6   7
ENDBRANCH   5   6
ENDBRANCH   4   5
ENDBRANCH   3   4
BRANCH   3  21
HETATM   21  C   UNL     1      -7.998  11.164  68.710  1.00  0.00    -0.144 C  
HETATM   22  C   UNL     1      -7.655  10.814  67.251  1.00  0.00    -0.102 C  
BRANCH  21  23
HETATM   23  C   UNL     1      -9.052  12.312  68.710  1.00  0.00     0.129 C  
BRANCH  23  24
HETATM   24  C   UNL     1     -10.018  12.318  67.544  1.00  0.00    -0.201 A  
HETATM   25  C   UNL     1     -10.852  11.310  65.488  1.00  0.00    -0.244 A  
HETATM   26  C   UNL     1     -11.771  12.346  65.335  1.00  0.00    -0.402 A  
HETATM   27  C   UNL     1     -10.935  13.362  67.375  1.00  0.00    -0.287 A  
HETATM   28  C   UNL     1     -11.812  13.367  66.286  1.00  0.00    -0.438 A  
HETATM   29  C   UNL     1      -9.981  11.298  66.584  1.00  0.00    -0.242 A  
BRANCH  26  30
HETATM   30  O   UNL     1     -12.708  12.441  64.342  1.00  0.00    -0.626 OA 
HETATM   31  C   UNL     1     -12.408  13.339  63.280  1.00  0.00    -0.238 C  
ENDBRANCH  26  30
ENDBRANCH  23  24
ENDBRANCH  21  23
ENDBRANCH   3  21
ENDBRANCH   2   3
TORSDOF 14
ENDMDL
MODEL      412
REMARK 921   NORMALIZED FREE ENERGY PREDICTED BY IDOCK:   -1.51 KCAL/MOL
REMARK 922        TOTAL FREE ENERGY PREDICTED BY IDOCK:   -5.54 KCAL/MOL
REMARK 923 INTER-LIGAND FREE ENERGY PREDICTED BY IDOCK:   -5.14 KCAL/MOL
REMARK 924 INTRA-LIGAND FREE ENERGY PREDICTED BY IDOCK:   -0.40 KCAL/MOL
REMARK 927      BINDING AFFINITY PREDICTED BY RF-SCORE:    0.00 PKD
ROOT
HETATM    1  C   UNL     1      -6.905  11.866  67.440  1.00  0.00    -0.130 C  
HETATM    2  C   UNL     1      -7.237  10.542  66.762  1.00  0.00    -0.114 C  
ENDROOT
BRANCH   2   3
HETATM    3  N   UNL     1      -7.980   9.550  67.547  1.00  0.00    -0.106 NA 
BRANCH   3   4
HETATM    4  C   UNL     1      -7.260   9.007  68.714  1.00  0.00    -0.075 C  
BRANCH   4   5
HETATM    5  C   UNL     1      -6.768   7.562  68.532  1.00  0.00    -0.057 C  
BRANCH   5   6
HETATM    6  C   UNL     1      -7.430   6.887  67.330  1.00  0.00    -0.096 C  
BRANCH   6   7
HETATM    7  C   UNL     1      -7.142   5.390  67.341  1.00  0.00    -0.070 C  
BRANCH   7   8
HETATM    8  O   UNL     1      -8.375   4.659  67.361  1.00  0.00    -0.104 OA 
BRANCH   8   9
HETATM    9  C   UNL     1      -9.493   5.419  67.470  1.00  0.00    -0.121 C  
HETATM   10  O   UNL     1     -10.020   6.070  66.583  1.00  0.00    -0.159 OA 
BRANCH   9  11
HETATM   11  C   UNL     1      -9.985   5.390  68.866  1.00  0.00    -0.247 A  
HETATM   12  C   UNL     1     -10.652   6.481  69.437  1.00  0.00    -0.291 A  
HETATM   13  C   UNL     1     -11.079   6.427  70.767  1.00  0.00    -0.307 A  
HETATM   14  C   UNL     1     -10.183   4.175  70.948  1.00  0.00     0.011 A  
HETATM   15  C   UNL     1     -10.843   5.261  71.529  1.00  0.00    -0.094 A  
HETATM   16  C   UNL     1      -9.744   4.241  69.624  1.00  0.00    -0.284 A  
BRANCH  13  17
HETATM   17  O   UNL     1     -11.724   7.453  71.414  1.00  0.00    -0.268 OA 
HETATM   18  C   UNL     1     -10.928   8.392  72.122  1.00  0.00    -0.341 C  
ENDBRANCH  13  17
BRANCH  15  19
HETATM   19  O   UNL     1     -11.290   5.286  72.826  1.00  0.00    -0.285 OA 
HETATM   20  C   UNL     1     -12.239   4.301  73.212  1.00  0.00     0.469 C  
ENDBRANCH  15  19
ENDBRANCH   9  11
ENDBRANCH   8   9
ENDBRANCH   7   8
ENDBRANCH   6   7
ENDBRANCH   5   6
ENDBRANCH   4   5
ENDBRANCH   3   4
BRANCH   3  21
HETATM   21  C   UNL     1      -9.402   9.853  67.846  1.00  0.00    -0.137 C  
HETATM   22  C   UNL     1      -9.660  11.254  68.429  1.00  0.00    -0.195 C  
BRANCH  21  23
HETATM   23  C   UNL     1     -10.381   9.624  66.655  1.00  0.00    -0.279 C  
BRANCH  23  24
HETATM   24  C   UNL     1     -10.752  10.860  65.862  1.00  0.00    -0.193 A  
HETATM   25  C   UNL     1     -12.233  12.757  65.478  1.00  0.00    -0.519 A  
HETATM   26  C   UNL     1     -11.491  13.129  64.359  1.00  0.00    -0.366 A  
HETATM   27  C   UNL     1     -10.021  11.234  64.728  1.00  0.00    -0.327 A  
HETATM   28  C   UNL     1     -10.381  12.366  63.993  1.00  0.00    -0.435 A  
HETATM   29  C   UNL     1     -11.866  11.629  66.223  1.00  0.00     0.182 A  
BRANCH  26  30
HETATM   30  O   UNL     1     -11.715  14.237  63.588  1.00  0.00    -0.037 OA 
HETATM   31  C   UNL     1     -12.098  15.418  64.281  1.00  0.00    -0.166 C  
ENDBRANCH  26  30
ENDBRANCH  23  24
ENDBRANCH  21  23
ENDBRANCH   3  21
ENDBRANCH   2   3
TORSDOF 14
ENDMDL
MODEL      413
REMARK 921   NORMALIZED FREE ENERGY PREDICTED BY IDOCK:   -1.30 KCAL/MOL
REMARK 922        TOTAL FREE ENERGY PREDICTED BY IDOCK:   -5.15 KCAL/MOL
REMARK 923 INTER-LIGAND FREE ENERGY PREDICTED BY IDOCK:   -5.37 KCAL/MOL
REMARK 924 INTRA-LIGAND FREE ENERGY PREDICTED BY IDOCK:    0.22 KCAL/MOL
REMARK 927      BINDING AFFINITY PREDICTED BY RF-SCORE:    0.00 PKD
ROOT
HETATM    1  C   UNL     1      -8.701   9.764  67.358  1.00  0.00    -0.133 C  
HETATM    2  C   UNL     1      -7.671   9.514  66.262  1.00  0.00    -0.101 C  
ENDROOT
BRANCH   2   3
HETATM    3  N   UNL     1      -7.688   8.201  65.609  1.00  0.00    -0.086 NA 
BRANCH   3   4
HETATM    4  C   UNL     1      -8.216   8.192  64.232  1.00  0.00    -0.091 C  
BRANCH   4   5
HETATM    5  C   UNL     1      -8.028   9.518  63.478  1.00  0.00    -0.139 C  
BRANCH   5   6
HETATM    6  C   UNL     1      -8.940  10.615  64.028  1.00  0.00    -0.210 C  
BRANCH   6   7
HETATM    7  C   UNL     1      -9.647  11.335  62.885  1.00  0.00    -0.352 C  
BRANCH   7   8
HETATM    8  O   UNL     1     -10.324  12.495  63.386  1.00  0.00    -0.377 OA 
BRANCH   8   9
HETATM    9  C   UNL     1     -11.086  12.286  64.489  1.00  0.00    -0.321 C  
HETATM   10  O   UNL     1     -11.840  11.348  64.685  1.00  0.00     0.002 OA 
BRANCH   9  11
HETATM   11  C   UNL     1     -10.910  13.407  65.440  1.00  0.00    -0.303 A  
HETATM   12  C   UNL     1      -9.667  14.020  65.639  1.00  0.00    -0.181 A  
HETATM   13  C   UNL     1      -9.536  15.059  66.565  1.00  0.00    -0.282 A  
HETATM   14  C   UNL     1     -11.904  14.881  67.080  1.00  0.00    -0.229 A  
HETATM   15  C   UNL     1     -10.666  15.495  67.292  1.00  0.00    -0.308 A  
HETATM   16  C   UNL     1     -12.026  13.832  66.166  1.00  0.00    -0.449 A  
BRANCH  13  17
HETATM   17  O   UNL     1      -8.354  15.705  66.838  1.00  0.00    -0.208 OA 
HETATM   18  C   UNL     1      -7.273  14.926  67.331  1.00  0.00    -0.183 C  
ENDBRANCH  13  17
BRANCH  15  19
HETATM   19  O   UNL     1     -10.455  16.516  68.183  1.00  0.00    -0.285 OA 
HETATM   20  C   UNL     1     -10.594  17.846  67.700  1.00  0.00    -0.387 C  
ENDBRANCH  15  19
ENDBRANCH   9  11
ENDBRANCH   8   9
ENDBRANCH   7   8
ENDBRANCH   6   7
ENDBRANCH   5   6
ENDBRANCH   4   5
ENDBRANCH   3   4
BRANCH   3  21
HETATM   21  C   UNL     1      -6.476   7.357  65.759  1.00  0.00    -0.045 C  
HETATM   22  C   UNL     1      -5.603   7.684  66.984  1.00  0.00    -0.031 C  
BRANCH  21  23
HETATM   23  C   UNL     1      -6.743   5.822  65.737  1.00  0.00    -0.051 C  
BRANCH  23  24
HETATM   24  C   UNL     1      -7.131   5.202  67.063  1.00  0.00    -0.069 A  
HETATM   25  C   UNL     1      -8.276   5.352  69.209  1.00  0.00    -0.093 A  
HETATM   26  C   UNL     1      -7.815   4.085  69.560  1.00  0.00    -0.052 A  
HETATM   27  C   UNL     1      -6.663   3.935  67.430  1.00  0.00    -0.047 A  
HETATM   28  C   UNL     1      -7.014   3.379  68.663  1.00  0.00    -0.049 A  
HETATM   29  C   UNL     1      -7.934   5.907  67.969  1.00  0.00    -0.105 A  
BRANCH  26  30
HETATM   30  O   UNL     1      -8.125   3.417  70.713  1.00  0.00    -0.056 OA 
HETATM   31  C   UNL     1      -9.392   2.769  70.743  1.00  0.00    -0.150 C  
ENDBRANCH  26  30
ENDBRANCH  23  24
ENDBRANCH  21  23
ENDBRANCH   3  21
ENDBRANCH   2   3
TORSDOF 14
ENDMDL
MODEL      414
REMARK 921   NORMALIZED FREE ENERGY PREDICTED BY IDOCK:   -1.28 KCAL/MOL
REMARK 922        TOTAL FREE ENERGY PREDICTED BY IDOCK:   -5.11 KCAL/MOL
REMARK 923 INTER-LIGAND FREE ENERGY PREDICTED BY IDOCK:   -4.75 KCAL/MOL
REMARK 924 INTRA-LIGAND FREE ENERGY PREDICTED BY IDOCK:   -0.36 KCAL/MOL
REMARK 927      BINDING AFFINITY PREDICTED BY RF-SCORE:    0.00 PKD
ROOT
HETATM    1  C   UNL     1     -11.669  15.336  72.873  1.00  0.00    -0.478 C  
HETATM    2  C   UNL     1     -12.758  14.632  72.071  1.00  0.00    -0.334 C  
ENDROOT
BRANCH   2   3
HETATM    3  N   UNL     1     -12.366  14.011  70.801  1.00  0.00    -0.351 NA 
BRANCH   3   4
HETATM    4  C   UNL     1     -13.399  13.169  70.170  1.00  0.00     1.226 C  
BRANCH   4   5
HETATM    5  C   UNL     1     -13.269  11.671  70.487  1.00  0.00     0.509 C  
BRANCH   5   6
HETATM    6  C   UNL     1     -11.932  11.349  71.155  1.00  0.00    -0.031 C  
BRANCH   6   7
HETATM    7  C   UNL     1     -11.923   9.907  71.649  1.00  0.00    -0.346 C  
BRANCH   7   8
HETATM    8  O   UNL     1     -10.594   9.376  71.575  1.00  0.00    -0.341 OA 
BRANCH   8   9
HETATM    9  C   UNL     1     -10.482   8.058  71.877  1.00  0.00    -0.236 C  
HETATM   10  O   UNL     1     -10.469   7.566  72.993  1.00  0.00    -0.274 OA 
BRANCH   9  11
HETATM   11  C   UNL     1     -10.329   7.269  70.633  1.00  0.00    -0.213 A  
HETATM   12  C   UNL     1      -9.725   6.006  70.629  1.00  0.00    -0.209 A  
HETATM   13  C   UNL     1      -9.575   5.303  69.430  1.00  0.00    -0.156 A  
HETATM   14  C   UNL     1     -10.655   7.127  68.241  1.00  0.00    -0.230 A  
HETATM   15  C   UNL     1     -10.047   5.868  68.225  1.00  0.00    -0.166 A  
HETATM   16  C   UNL     1     -10.787   7.832  69.439  1.00  0.00    -0.121 A  
BRANCH  13  17
HETATM   17  O   UNL     1      -8.980   4.069  69.328  1.00  0.00    -0.093 OA 
HETATM   18  C   UNL     1      -8.260   3.586  70.454  1.00  0.00    -0.052 C  
ENDBRANCH  13  17
BRANCH  15  19
HETATM   19  O   UNL     1      -9.861   5.117  67.091  1.00  0.00    -0.145 OA 
HETATM   20  C   UNL     1      -8.712   5.396  66.302  1.00  0.00    -0.125 C  
ENDBRANCH  15  19
ENDBRANCH   9  11
ENDBRANCH   8   9
ENDBRANCH   7   8
ENDBRANCH   6   7
ENDBRANCH   5   6
ENDBRANCH   4   5
ENDBRANCH   3   4
BRANCH   3  21
HETATM   21  C   UNL     1     -11.654  14.870  69.822  1.00  0.00    -0.303 C  
HETATM   22  C   UNL     1     -10.135  14.989  70.043  1.00  0.00    -0.016 C  
BRANCH  21  23
HETATM   23  C   UNL     1     -11.910  14.507  68.328  1.00  0.00    -0.347 C  
BRANCH  23  24
HETATM   24  C   UNL     1     -11.100  13.348  67.785  1.00  0.00    -0.292 A  
HETATM   25  C   UNL     1     -10.935  11.360  66.385  1.00  0.00    -0.315 A  
HETATM   26  C   UNL     1      -9.624  11.152  66.809  1.00  0.00    -0.191 A  
HETATM   27  C   UNL     1      -9.787  13.123  68.215  1.00  0.00    -0.227 A  
HETATM   28  C   UNL     1      -9.054  12.042  67.720  1.00  0.00    -0.187 A  
HETATM   29  C   UNL     1     -11.668  12.450  66.872  1.00  0.00    -0.432 A  
BRANCH  26  30
HETATM   30  O   UNL     1      -8.792  10.160  66.366  1.00  0.00    -0.141 OA 
HETATM   31  C   UNL     1      -7.422  10.512  66.213  1.00  0.00    -0.133 C  
ENDBRANCH  26  30
ENDBRANCH  23  24
ENDBRANCH  21  23
ENDBRANCH   3  21
ENDBRANCH   2   3
TORSDOF 14
ENDMDL
MODEL      415
REMARK 921   NORMALIZED FREE ENERGY PREDICTED BY IDOCK:   -1.09 KCAL/MOL
REMARK 922        TOTAL FREE ENERGY PREDICTED BY IDOCK:   -4.77 KCAL/MOL
REMARK 923 INTER-LIGAND FREE ENERGY PREDICTED BY IDOCK:   -2.96 KCAL/MOL
REMARK 924 INTRA-LIGAND FREE ENERGY PREDICTED BY IDOCK:   -1.82 KCAL/MOL
REMARK 927      BINDING AFFINITY PREDICTED BY RF-SCORE:    0.00 PKD
ROOT
HETATM    1  C   UNL     1     -10.411  16.263  69.314  1.00  0.00    -0.277 C  
HETATM    2  C   UNL     1      -9.170  15.547  69.833  1.00  0.00     0.048 C  
ENDROOT
BRANCH   2   3
HETATM    3  N   UNL     1      -7.915  15.755  69.101  1.00  0.00    -0.217 NA 
BRANCH   3   4
HETATM    4  C   UNL     1      -6.800  14.880  69.507  1.00  0.00    -0.172 C  
BRANCH   4   5
HETATM    5  C   UNL     1      -7.241  13.511  70.049  1.00  0.00     0.781 C  
BRANCH   5   6
HETATM    6  C   UNL     1      -6.398  12.375  69.468  1.00  0.00    -0.116 C  
BRANCH   6   7
HETATM    7  C   UNL     1      -7.069  11.032  69.733  1.00  0.00    -0.047 C  
BRANCH   7   8
HETATM    8  O   UNL     1      -8.021  10.753  68.698  1.00  0.00    -0.116 OA 
BRANCH   8   9
HETATM    9  C   UNL     1      -9.280  10.489  69.129  1.00  0.00    -0.171 C  
HETATM   10  O   UNL     1     -10.280  11.150  68.906  1.00  0.00    -0.198 OA 
BRANCH   9  11
HETATM   11  C   UNL     1      -9.276   9.272  69.974  1.00  0.00    -0.231 A  
HETATM   12  C   UNL     1      -8.668   8.082  69.553  1.00  0.00    -0.136 A  
HETATM   13  C   UNL     1      -8.708   6.947  70.367  1.00  0.00    -0.147 A  
HETATM   14  C   UNL     1      -9.951   8.203  72.035  1.00  0.00    -0.299 A  
HETATM   15  C   UNL     1      -9.354   7.008  71.621  1.00  0.00    -0.156 A  
HETATM   16  C   UNL     1      -9.923   9.329  71.210  1.00  0.00    -0.341 A  
BRANCH  13  17
HETATM   17  O   UNL     1      -8.156   5.735  70.028  1.00  0.00    -0.103 OA 
HETATM   18  C   UNL     1      -7.431   5.654  68.809  1.00  0.00    -0.084 C  
ENDBRANCH  13  17
BRANCH  15  19
HETATM   19  O   UNL     1      -9.352   5.852  72.360  1.00  0.00    -0.144 OA 
HETATM   20  C   UNL     1     -10.586   5.159  72.495  1.00  0.00    -0.220 C  
ENDBRANCH  15  19
ENDBRANCH   9  11
ENDBRANCH   8   9
ENDBRANCH   7   8
ENDBRANCH   6   7
ENDBRANCH   5   6
ENDBRANCH   4   5
ENDBRANCH   3   4
BRANCH   3  21
HETATM   21  C   UNL     1      -8.012  15.910  67.628  1.00  0.00    -0.146 C  
HETATM   22  C   UNL     1      -7.235  17.104  67.046  1.00  0.00    -0.219 C  
BRANCH  21  23
HETATM   23  C   UNL     1      -7.642  14.634  66.812  1.00  0.00     0.519 C  
BRANCH  23  24
HETATM   24  C   UNL     1      -8.806  13.890  66.190  1.00  0.00     0.360 A  
HETATM   25  C   UNL     1     -11.044  13.899  65.227  1.00  0.00    -0.318 A  
HETATM   26  C   UNL     1     -11.004  12.513  65.084  1.00  0.00    -0.297 A  
HETATM   27  C   UNL     1      -8.780  12.497  66.056  1.00  0.00     0.364 A  
HETATM   28  C   UNL     1      -9.866  11.819  65.495  1.00  0.00    -0.262 A  
HETATM   29  C   UNL     1      -9.952  14.582  65.777  1.00  0.00    -0.361 A  
BRANCH  26  30
HETATM   30  O   UNL     1     -11.980  11.743  64.512  1.00  0.00    -0.237 OA 
HETATM   31  C   UNL     1     -13.148  12.429  64.077  1.00  0.00    -0.015 C  
ENDBRANCH  26  30
ENDBRANCH  23  24
ENDBRANCH  21  23
ENDBRANCH   3  21
ENDBRANCH   2   3
TORSDOF 14
ENDMDL
MODEL      416
REMARK 921   NORMALIZED FREE ENERGY PREDICTED BY IDOCK:   -1.08 KCAL/MOL
REMARK 922        TOTAL FREE ENERGY PREDICTED BY IDOCK:   -4.76 KCAL/MOL
REMARK 923 INTER-LIGAND FREE ENERGY PREDICTED BY IDOCK:   -5.23 KCAL/MOL
REMARK 924 INTRA-LIGAND FREE ENERGY PREDICTED BY IDOCK:    0.48 KCAL/MOL
REMARK 927      BINDING AFFINITY PREDICTED BY RF-SCORE:    0.00 PKD
ROOT
HETATM    1  C   UNL     1      -7.054   9.001  66.800  1.00  0.00    -0.082 C  
HETATM    2  C   UNL     1      -8.508   9.380  67.054  1.00  0.00    -0.127 C  
ENDROOT
BRANCH   2   3
HETATM    3  N   UNL     1      -8.846   9.903  68.383  1.00  0.00    -0.119 NA 
BRANCH   3   4
HETATM    4  C   UNL     1      -7.908  10.905  68.920  1.00  0.00    -0.142 C  
BRANCH   4   5
HETATM    5  C   UNL     1      -6.947  10.358  69.988  1.00  0.00    -0.159 C  
BRANCH   5   6
HETATM    6  C   UNL     1      -5.515  10.259  69.462  1.00  0.00    -0.038 C  
BRANCH   6   7
HETATM    7  C   UNL     1      -5.198  11.453  68.567  1.00  0.00    -0.043 C  
BRANCH   7   8
HETATM    8  O   UNL     1      -6.204  12.461  68.729  1.00  0.00    -0.065 OA 
BRANCH   8   9
HETATM    9  C   UNL     1      -6.150  13.478  67.833  1.00  0.00    -0.151 C  
HETATM   10  O   UNL     1      -5.143  14.012  67.399  1.00  0.00    -0.324 OA 
BRANCH   9  11
HETATM   11  C   UNL     1      -7.522  13.900  67.469  1.00  0.00    -0.184 A  
HETATM   12  C   UNL     1      -8.082  15.088  67.953  1.00  0.00    -0.142 A  
HETATM   13  C   UNL     1      -9.390  15.440  67.607  1.00  0.00    -0.203 A  
HETATM   14  C   UNL     1      -9.568  13.416  66.274  1.00  0.00    -0.245 A  
HETATM   15  C   UNL     1     -10.140  14.596  66.758  1.00  0.00    -0.265 A  
HETATM   16  C   UNL     1      -8.267  13.061  66.636  1.00  0.00     0.239 A  
BRANCH  13  17
HETATM   17  O   UNL     1     -10.027  16.575  68.049  1.00  0.00    -0.235 OA 
HETATM   18  C   UNL     1     -10.991  16.433  69.082  1.00  0.00    -0.324 C  
ENDBRANCH  13  17
BRANCH  15  19
HETATM   19  O   UNL     1     -11.416  15.009  66.467  1.00  0.00    -0.330 OA 
HETATM   20  C   UNL     1     -12.473  14.091  66.710  1.00  0.00    -0.201 C  
ENDBRANCH  15  19
ENDBRANCH   9  11
ENDBRANCH   8   9
ENDBRANCH   7   8
ENDBRANCH   6   7
ENDBRANCH   5   6
ENDBRANCH   4   5
ENDBRANCH   3   4
BRANCH   3  21
HETATM   21  C   UNL     1     -10.266  10.264  68.624  1.00  0.00    -0.180 C  
HETATM   22  C   UNL     1     -11.212  10.015  67.436  1.00  0.00    -0.004 C  
BRANCH  21  23
HETATM   23  C   UNL     1     -10.893   9.626  69.900  1.00  0.00    -0.287 C  
BRANCH  23  24
HETATM   24  C   UNL     1     -10.491   8.195  70.186  1.00  0.00    -0.225 A  
HETATM   25  C   UNL     1     -10.510   5.834  69.580  1.00  0.00    -0.364 A  
HETATM   26  C   UNL     1      -9.798   5.517  70.735  1.00  0.00    -0.188 A  
HETATM   27  C   UNL     1      -9.787   7.864  71.350  1.00  0.00    -0.203 A  
HETATM   28  C   UNL     1      -9.434   6.538  71.613  1.00  0.00    -0.160 A  
HETATM   29  C   UNL     1     -10.855   7.165  69.309  1.00  0.00    -0.204 A  
BRANCH  26  30
HETATM   30  O   UNL     1      -9.357   4.268  71.080  1.00  0.00    -0.130 OA 
HETATM   31  C   UNL     1      -9.755   3.793  72.361  1.00  0.00    -0.151 C  
ENDBRANCH  26  30
ENDBRANCH  23  24
ENDBRANCH  21  23
ENDBRANCH   3  21
ENDBRANCH   2   3
TORSDOF 14
ENDMDL
MODEL      417
REMARK 921   NORMALIZED FREE ENERGY PREDICTED BY IDOCK:   -1.08 KCAL/MOL
REMARK 922        TOTAL FREE ENERGY PREDICTED BY IDOCK:   -4.76 KCAL/MOL
REMARK 923 INTER-LIGAND FREE ENERGY PREDICTED BY IDOCK:   -5.80 KCAL/MOL
REMARK 924 INTRA-LIGAND FREE ENERGY PREDICTED BY IDOCK:    1.05 KCAL/MOL
REMARK 927      BINDING AFFINITY PREDICTED BY RF-SCORE:    0.00 PKD
ROOT
HETATM    1  C   UNL     1     -11.072   9.175  68.701  1.00  0.00     0.113 C  
HETATM    2  C   UNL     1      -9.864   8.532  69.371  1.00  0.00    -0.185 C  
ENDROOT
BRANCH   2   3
HETATM    3  N   UNL     1      -9.336   7.301  68.772  1.00  0.00    -0.143 NA 
BRANCH   3   4
HETATM    4  C   UNL     1      -9.858   6.983  67.431  1.00  0.00    -0.154 C  
BRANCH   4   5
HETATM    5  C   UNL     1     -10.147   8.216  66.560  1.00  0.00    -0.286 C  
BRANCH   5   6
HETATM    6  C   UNL     1      -8.907   9.096  66.398  1.00  0.00    -0.165 C  
BRANCH   6   7
HETATM    7  C   UNL     1      -8.759   9.537  64.946  1.00  0.00    -0.189 C  
BRANCH   7   8
HETATM    8  O   UNL     1      -8.766  10.968  64.870  1.00  0.00    -0.121 OA 
BRANCH   8   9
HETATM    9  C   UNL     1      -9.964  11.522  64.557  1.00  0.00    -0.263 C  
HETATM   10  O   UNL     1     -10.720  11.167  63.668  1.00  0.00    -0.377 OA 
BRANCH   9  11
HETATM   11  C   UNL     1     -10.226  12.683  65.438  1.00  0.00    -0.301 A  
HETATM   12  C   UNL     1     -10.270  12.558  66.832  1.00  0.00    -0.237 A  
HETATM   13  C   UNL     1     -10.546  13.672  67.630  1.00  0.00    -0.241 A  
HETATM   14  C   UNL     1     -10.715  15.044  65.630  1.00  0.00    -0.365 A  
HETATM   15  C   UNL     1     -10.769  14.928  67.022  1.00  0.00    -0.307 A  
HETATM   16  C   UNL     1     -10.455  13.924  64.838  1.00  0.00    -0.446 A  
BRANCH  13  17
HETATM   17  O   UNL     1     -10.628  13.639  69.001  1.00  0.00    -0.213 OA 
HETATM   18  C   UNL     1     -11.726  12.951  69.582  1.00  0.00    -0.299 C  
ENDBRANCH  13  17
BRANCH  15  19
HETATM   19  O   UNL     1     -11.036  15.972  67.872  1.00  0.00    -0.327 OA 
HETATM   20  C   UNL     1     -10.576  17.261  67.491  1.00  0.00    -0.329 C  
ENDBRANCH  15  19
ENDBRANCH   9  11
ENDBRANCH   8   9
ENDBRANCH   7   8
ENDBRANCH   6   7
ENDBRANCH   5   6
ENDBRANCH   4   5
ENDBRANCH   3   4
BRANCH   3  21
HETATM   21  C   UNL     1      -7.874   7.069  68.886  1.00  0.00    -0.115 C  
HETATM   22  C   UNL     1      -7.118   7.013  67.546  1.00  0.00    -0.085 C  
BRANCH  21  23
HETATM   23  C   UNL     1      -7.129   8.056  69.834  1.00  0.00    -0.057 C  
BRANCH  23  24
HETATM   24  C   UNL     1      -6.758   9.395  69.231  1.00  0.00    -0.049 A  
HETATM   25  C   UNL     1      -5.276  10.753  67.854  1.00  0.00    -0.036 A  
HETATM   26  C   UNL     1      -6.022  11.892  68.148  1.00  0.00    -0.051 A  
HETATM   27  C   UNL     1      -7.494  10.547  69.531  1.00  0.00    -0.146 A  
HETATM   28  C   UNL     1      -7.134  11.781  68.983  1.00  0.00    -0.100 A  
HETATM   29  C   UNL     1      -5.642   9.513  68.394  1.00  0.00    -0.036 A  
BRANCH  26  30
HETATM   30  O   UNL     1      -5.799  13.143  67.640  1.00  0.00    -0.146 OA 
HETATM   31  C   UNL     1      -6.934  13.996  67.551  1.00  0.00    -0.148 C  
ENDBRANCH  26  30
ENDBRANCH  23  24
ENDBRANCH  21  23
ENDBRANCH   3  21
ENDBRANCH   2   3
TORSDOF 14
ENDMDL
MODEL      418
REMARK 921   NORMALIZED FREE ENERGY PREDICTED BY IDOCK:   -0.85 KCAL/MOL
REMARK 922        TOTAL FREE ENERGY PREDICTED BY IDOCK:   -4.33 KCAL/MOL
REMARK 923 INTER-LIGAND FREE ENERGY PREDICTED BY IDOCK:   -3.50 KCAL/MOL
REMARK 924 INTRA-LIGAND FREE ENERGY PREDICTED BY IDOCK:   -0.84 KCAL/MOL
REMARK 927      BINDING AFFINITY PREDICTED BY RF-SCORE:    0.00 PKD
ROOT
HETATM    1  C   UNL     1     -10.513  14.303  70.383  1.00  0.00     0.872 C  
HETATM    2  C   UNL     1     -10.892  13.691  69.039  1.00  0.00    -0.204 C  
ENDROOT
BRANCH   2   3
HETATM    3  N   UNL     1      -9.966  12.712  68.459  1.00  0.00    -0.199 NA 
BRANCH   3   4
HETATM    4  C   UNL     1      -8.536  12.990  68.687  1.00  0.00     0.041 C  
BRANCH   4   5
HETATM    5  C   UNL     1      -7.588  11.931  68.100  1.00  0.00    -0.121 C  
BRANCH   5   6
HETATM    6  C   UNL     1      -6.443  11.604  69.059  1.00  0.00    -0.082 C  
BRANCH   6   7
HETATM    7  C   UNL     1      -5.423  10.702  68.373  1.00  0.00    -0.040 C  
BRANCH   7   8
HETATM    8  O   UNL     1      -6.041   9.460  68.010  1.00  0.00    -0.051 OA 
BRANCH   8   9
HETATM    9  C   UNL     1      -6.126   9.228  66.677  1.00  0.00    -0.064 C  
HETATM   10  O   UNL     1      -5.657   9.917  65.786  1.00  0.00    -0.047 OA 
BRANCH   9  11
HETATM   11  C   UNL     1      -6.929   8.008  66.430  1.00  0.00    -0.070 A  
HETATM   12  C   UNL     1      -8.304   7.963  66.693  1.00  0.00    -0.125 A  
HETATM   13  C   UNL     1      -9.024   6.785  66.471  1.00  0.00    -0.149 A  
HETATM   14  C   UNL     1      -6.988   5.702  65.704  1.00  0.00    -0.065 A  
HETATM   15  C   UNL     1      -8.359   5.644  65.970  1.00  0.00    -0.124 A  
HETATM   16  C   UNL     1      -6.271   6.877  65.943  1.00  0.00    -0.039 A  
BRANCH  13  17
HETATM   17  O   UNL     1     -10.368   6.644  66.718  1.00  0.00    -0.219 OA 
HETATM   18  C   UNL     1     -10.824   6.863  68.045  1.00  0.00    -0.200 C  
ENDBRANCH  13  17
BRANCH  15  19
HETATM   19  O   UNL     1      -9.133   4.527  65.782  1.00  0.00    -0.125 OA 
HETATM   20  C   UNL     1      -9.369   4.111  64.444  1.00  0.00    -0.160 C  
ENDBRANCH  15  19
ENDBRANCH   9  11
ENDBRANCH   8   9
ENDBRANCH   7   8
ENDBRANCH   6   7
ENDBRANCH   5   6
ENDBRANCH   4   5
ENDBRANCH   3   4
BRANCH   3  21
HETATM   21  C   UNL     1     -10.303  11.277  68.637  1.00  0.00    -0.201 C  
HETATM   22  C   UNL     1     -11.177  10.961  69.863  1.00  0.00    -0.355 C  
BRANCH  21  23
HETATM   23  C   UNL     1     -10.939  10.597  67.387  1.00  0.00    -0.361 C  
BRANCH  23  24
HETATM   24  C   UNL     1     -11.347  11.531  66.267  1.00  0.00    -0.222 A  
HETATM   25  C   UNL     1     -12.543  13.510  65.497  1.00  0.00    -0.531 A  
HETATM   26  C   UNL     1     -12.163  13.246  64.182  1.00  0.00    -0.401 A  
HETATM   27  C   UNL     1     -10.981  11.267  64.941  1.00  0.00    -0.243 A  
HETATM   28  C   UNL     1     -11.376  12.126  63.912  1.00  0.00    -0.501 A  
HETATM   29  C   UNL     1     -12.138  12.656  66.531  1.00  0.00    -0.296 A  
BRANCH  26  30
HETATM   30  O   UNL     1     -12.447  14.032  63.099  1.00  0.00    -0.733 OA 
HETATM   31  C   UNL     1     -12.487  15.435  63.333  1.00  0.00     1.520 C  
ENDBRANCH  26  30
ENDBRANCH  23  24
ENDBRANCH  21  23
ENDBRANCH   3  21
ENDBRANCH   2   3
TORSDOF 14
ENDMDL
MODEL      419
REMARK 921   NORMALIZED FREE ENERGY PREDICTED BY IDOCK:   -0.71 KCAL/MOL
REMARK 922        TOTAL FREE ENERGY PREDICTED BY IDOCK:   -4.09 KCAL/MOL
REMARK 923 INTER-LIGAND FREE ENERGY PREDICTED BY IDOCK:   -3.03 KCAL/MOL
REMARK 924 INTRA-LIGAND FREE ENERGY PREDICTED BY IDOCK:   -1.06 KCAL/MOL
REMARK 927      BINDING AFFINITY PREDICTED BY RF-SCORE:    0.00 PKD
ROOT
HETATM    1  C   UNL     1     -11.781   9.215  69.238  1.00  0.00     0.714 C  
HETATM    2  C   UNL     1     -10.609   9.767  70.040  1.00  0.00    -0.276 C  
ENDROOT
BRANCH   2   3
HETATM    3  N   UNL     1      -9.317   9.885  69.353  1.00  0.00    -0.200 NA 
BRANCH   3   4
HETATM    4  C   UNL     1      -8.991   8.777  68.437  1.00  0.00    -0.141 C  
BRANCH   4   5
HETATM    5  C   UNL     1      -8.797   7.421  69.134  1.00  0.00    -0.136 C  
BRANCH   5   6
HETATM    6  C   UNL     1      -9.876   6.417  68.727  1.00  0.00    -0.152 C  
BRANCH   6   7
HETATM    7  C   UNL     1      -9.234   5.157  68.157  1.00  0.00    -0.116 C  
BRANCH   7   8
HETATM    8  O   UNL     1      -9.044   5.306  66.744  1.00  0.00    -0.117 OA 
BRANCH   8   9
HETATM    9  C   UNL     1      -7.751   5.303  66.333  1.00  0.00    -0.092 C  
HETATM   10  O   UNL     1      -6.931   4.420  66.518  1.00  0.00    -0.057 OA 
BRANCH   9  11
HETATM   11  C   UNL     1      -7.441   6.577  65.644  1.00  0.00    -0.082 A  
HETATM   12  C   UNL     1      -6.469   7.461  66.128  1.00  0.00    -0.045 A  
HETATM   13  C   UNL     1      -6.222   8.666  65.464  1.00  0.00    -0.052 A  
HETATM   14  C   UNL     1      -7.913   8.089  63.817  1.00  0.00    -0.123 A  
HETATM   15  C   UNL     1      -6.951   8.982  64.296  1.00  0.00    -0.090 A  
HETATM   16  C   UNL     1      -8.167   6.894  64.494  1.00  0.00    -0.002 A  
BRANCH  13  17
HETATM   17  O   UNL     1      -5.303   9.600  65.876  1.00  0.00    -0.038 OA 
HETATM   18  C   UNL     1      -5.158   9.816  67.273  1.00  0.00    -0.035 C  
ENDBRANCH  13  17
BRANCH  15  19
HETATM   19  O   UNL     1      -6.652  10.183  63.704  1.00  0.00    -0.131 OA 
HETATM   20  C   UNL     1      -7.722  10.902  63.105  1.00  0.00     0.240 C  
ENDBRANCH  15  19
ENDBRANCH   9  11
ENDBRANCH   8   9
ENDBRANCH   7   8
ENDBRANCH   6   7
ENDBRANCH   5   6
ENDBRANCH   4   5
ENDBRANCH   3   4
BRANCH   3  21
HETATM   21  C   UNL     1      -8.974  11.213  68.787  1.00  0.00    -0.131 C  
HETATM   22  C   UNL     1      -8.269  11.176  67.420  1.00  0.00    -0.132 C  
BRANCH  21  23
HETATM   23  C   UNL     1     -10.166  12.214  68.701  1.00  0.00    -0.186 C  
BRANCH  23  24
HETATM   24  C   UNL     1     -10.872  12.283  67.363  1.00  0.00    -0.277 A  
HETATM   25  C   UNL     1     -11.277  11.372  65.140  1.00  0.00    -0.146 A  
HETATM   26  C   UNL     1     -12.135  12.429  64.846  1.00  0.00    -0.407 A  
HETATM   27  C   UNL     1     -11.726  13.348  67.054  1.00  0.00    -0.426 A  
HETATM   28  C   UNL     1     -12.360  13.412  65.811  1.00  0.00    -0.513 A  
HETATM   29  C   UNL     1     -10.649  11.300  66.390  1.00  0.00    -0.316 A  
BRANCH  26  30
HETATM   30  O   UNL     1     -12.847  12.579  63.687  1.00  0.00    -0.731 OA 
HETATM   31  C   UNL     1     -12.571  13.751  62.927  1.00  0.00     1.169 C  
ENDBRANCH  26  30
ENDBRANCH  23  24
ENDBRANCH  21  23
ENDBRANCH   3  21
ENDBRANCH   2   3
TORSDOF 14
ENDMDL
MODEL      420
REMARK 921   NORMALIZED FREE ENERGY PREDICTED BY IDOCK:   -0.65 KCAL/MOL
REMARK 922        TOTAL FREE ENERGY PREDICTED BY IDOCK:   -3.97 KCAL/MOL
REMARK 923 INTER-LIGAND FREE ENERGY PREDICTED BY IDOCK:   -3.03 KCAL/MOL
REMARK 924 INTRA-LIGAND FREE ENERGY PREDICTED BY IDOCK:   -0.94 KCAL/MOL
REMARK 927      BINDING AFFINITY PREDICTED BY RF-SCORE:    0.00 PKD
ROOT
HETATM    1  C   UNL     1      -9.493  16.470  69.387  1.00  0.00    -0.068 C  
HETATM    2  C   UNL     1     -10.006  15.904  68.068  1.00  0.00    -0.220 C  
ENDROOT
BRANCH   2   3
HETATM    3  N   UNL     1      -9.436  14.631  67.613  1.00  0.00    -0.202 NA 
BRANCH   3   4
HETATM    4  C   UNL     1      -8.335  14.106  68.442  1.00  0.00    -0.161 C  
BRANCH   4   5
HETATM    5  C   UNL     1      -7.447  13.075  67.727  1.00  0.00    -0.146 C  
BRANCH   5   6
HETATM    6  C   UNL     1      -6.371  12.514  68.657  1.00  0.00    -0.073 C  
BRANCH   6   7
HETATM    7  C   UNL     1      -6.090  11.054  68.318  1.00  0.00    -0.049 C  
BRANCH   7   8
HETATM    8  O   UNL     1      -6.810  10.200  69.216  1.00  0.00    -0.054 OA 
BRANCH   8   9
HETATM    9  C   UNL     1      -6.749   8.877  68.925  1.00  0.00    -0.053 C  
HETATM   10  O   UNL     1      -5.960   8.333  68.170  1.00  0.00    -0.040 OA 
BRANCH   9  11
HETATM   11  C   UNL     1      -7.831   8.156  69.635  1.00  0.00    -0.103 A  
HETATM   12  C   UNL     1      -8.294   6.907  69.201  1.00  0.00    -0.125 A  
HETATM   13  C   UNL     1      -9.335   6.269  69.882  1.00  0.00    -0.150 A  
HETATM   14  C   UNL     1      -9.434   8.128  71.445  1.00  0.00    -0.211 A  
HETATM   15  C   UNL     1      -9.909   6.885  71.017  1.00  0.00    -0.178 A  
HETATM   16  C   UNL     1      -8.405   8.769  70.751  1.00  0.00    -0.185 A  
BRANCH  13  17
HETATM   17  O   UNL     1      -9.865   5.055  69.519  1.00  0.00    -0.173 OA 
HETATM   18  C   UNL     1     -10.963   5.055  68.618  1.00  0.00     0.924 C  
ENDBRANCH  13  17
BRANCH  15  19
HETATM   19  O   UNL     1     -10.927   6.198  71.628  1.00  0.00    -0.248 OA 
HETATM   20  C   UNL     1     -11.321   6.626  72.924  1.00  0.00    -0.136 C  
ENDBRANCH  15  19
ENDBRANCH   9  11
ENDBRANCH   8   9
ENDBRANCH   7   8
ENDBRANCH   6   7
ENDBRANCH   5   6
ENDBRANCH   4   5
ENDBRANCH   3   4
BRANCH   3  21
HETATM   21  C   UNL     1     -10.392  13.574  67.199  1.00  0.00    -0.250 C  
HETATM   22  C   UNL     1     -10.195  13.043  65.767  1.00  0.00    -0.297 C  
BRANCH  21  23
HETATM   23  C   UNL     1     -10.481  12.358  68.169  1.00  0.00    -0.228 C  
BRANCH  23  24
HETATM   24  C   UNL     1     -10.283  10.996  67.538  1.00  0.00    -0.219 A  
HETATM   25  C   UNL     1      -9.091   9.540  65.989  1.00  0.00    -0.220 A  
HETATM   26  C   UNL     1      -9.937   8.481  66.310  1.00  0.00    -0.181 A  
HETATM   27  C   UNL     1     -11.136   9.929  67.844  1.00  0.00    -0.216 A  
HETATM   28  C   UNL     1     -10.955   8.681  67.244  1.00  0.00     0.117 A  
HETATM   29  C   UNL     1      -9.264  10.789  66.598  1.00  0.00    -0.184 A  
BRANCH  26  30
HETATM   30  O   UNL     1      -9.835   7.205  65.827  1.00  0.00     0.349 OA 
HETATM   31  C   UNL     1      -8.552   6.815  65.350  1.00  0.00    -0.047 C  
ENDBRANCH  26  30
ENDBRANCH  23  24
ENDBRANCH  21  23
ENDBRANCH   3  21
ENDBRANCH   2   3
TORSDOF 14
ENDMDL
MODEL      421
REMARK 921   NORMALIZED FREE ENERGY PREDICTED BY IDOCK:   -0.64 KCAL/MOL
REMARK 922        TOTAL FREE ENERGY PREDICTED BY IDOCK:   -3.96 KCAL/MOL
REMARK 923 INTER-LIGAND FREE ENERGY PREDICTED BY IDOCK:   -3.14 KCAL/MOL
REMARK 924 INTRA-LIGAND FREE ENERGY PREDICTED BY IDOCK:   -0.82 KCAL/MOL
REMARK 927      BINDING AFFINITY PREDICTED BY RF-SCORE:    0.00 PKD
ROOT
HETATM    1  C   UNL     1      -9.833  16.276  69.542  1.00  0.00    -0.159 C  
HETATM    2  C   UNL     1      -8.664  15.336  69.814  1.00  0.00     0.013 C  
ENDROOT
BRANCH   2   3
HETATM    3  N   UNL     1      -7.545  15.360  68.866  1.00  0.00    -0.149 NA 
BRANCH   3   4
HETATM    4  C   UNL     1      -6.495  14.354  69.110  1.00  0.00    -0.107 C  
BRANCH   4   5
HETATM    5  C   UNL     1      -7.031  12.944  69.404  1.00  0.00     0.107 C  
BRANCH   5   6
HETATM    6  C   UNL     1      -5.909  11.906  69.425  1.00  0.00    -0.076 C  
BRANCH   6   7
HETATM    7  C   UNL     1      -6.452  10.535  69.035  1.00  0.00    -0.054 C  
BRANCH   7   8
HETATM    8  O   UNL     1      -7.347  10.667  67.923  1.00  0.00    -0.087 OA 
BRANCH   8   9
HETATM    9  C   UNL     1      -8.433   9.854  67.958  1.00  0.00    -0.117 C  
HETATM   10  O   UNL     1      -9.600  10.194  67.870  1.00  0.00    -0.147 OA 
BRANCH   9  11
HETATM   11  C   UNL     1      -8.003   8.452  68.170  1.00  0.00    -0.119 A  
HETATM   12  C   UNL     1      -7.943   7.531  67.116  1.00  0.00    -0.117 A  
HETATM   13  C   UNL     1      -7.558   6.209  67.360  1.00  0.00    -0.090 A  
HETATM   14  C   UNL     1      -7.274   6.740  69.714  1.00  0.00    -0.077 A  
HETATM   15  C   UNL     1      -7.218   5.811  68.672  1.00  0.00    -0.082 A  
HETATM   16  C   UNL     1      -7.676   8.055  69.468  1.00  0.00    -0.103 A  
BRANCH  13  17
HETATM   17  O   UNL     1      -7.488   5.235  66.394  1.00  0.00    -0.084 OA 
HETATM   18  C   UNL     1      -8.551   5.158  65.454  1.00  0.00    -0.146 C  
ENDBRANCH  13  17
BRANCH  15  19
HETATM   19  O   UNL     1      -6.853   4.498  68.829  1.00  0.00    -0.048 OA 
HETATM   20  C   UNL     1      -7.581   3.723  69.772  1.00  0.00    -0.052 C  
ENDBRANCH  15  19
ENDBRANCH   9  11
ENDBRANCH   8   9
ENDBRANCH   7   8
ENDBRANCH   6   7
ENDBRANCH   5   6
ENDBRANCH   4   5
ENDBRANCH   3   4
BRANCH   3  21
HETATM   21  C   UNL     1      -7.882  15.494  67.426  1.00  0.00    -0.186 C  
HETATM   22  C   UNL     1      -6.992  16.470  66.637  1.00  0.00    -0.196 C  
BRANCH  21  23
HETATM   23  C   UNL     1      -7.954  14.147  66.646  1.00  0.00     0.572 C  
BRANCH  23  24
HETATM   24  C   UNL     1      -9.291  13.825  66.011  1.00  0.00    -0.042 A  
HETATM   25  C   UNL     1     -10.677  12.377  64.625  1.00  0.00    -0.339 A  
HETATM   26  C   UNL     1     -11.758  13.243  64.775  1.00  0.00    -0.355 A  
HETATM   27  C   UNL     1     -10.379  14.696  66.145  1.00  0.00    -0.309 A  
HETATM   28  C   UNL     1     -11.604  14.398  65.542  1.00  0.00    -0.347 A  
HETATM   29  C   UNL     1      -9.452  12.667  65.239  1.00  0.00     0.181 A  
BRANCH  26  30
HETATM   30  O   UNL     1     -13.015  13.041  64.274  1.00  0.00    -0.666 OA 
HETATM   31  C   UNL     1     -13.252  11.779  63.661  1.00  0.00     0.236 C  
ENDBRANCH  26  30
ENDBRANCH  23  24
ENDBRANCH  21  23
ENDBRANCH   3  21
ENDBRANCH   2   3
TORSDOF 14
ENDMDL
MODEL      422
REMARK 921   NORMALIZED FREE ENERGY PREDICTED BY IDOCK:   -0.47 KCAL/MOL
REMARK 922        TOTAL FREE ENERGY PREDICTED BY IDOCK:   -3.64 KCAL/MOL
REMARK 923 INTER-LIGAND FREE ENERGY PREDICTED BY IDOCK:   -3.90 KCAL/MOL
REMARK 924 INTRA-LIGAND FREE ENERGY PREDICTED BY IDOCK:    0.26 KCAL/MOL
REMARK 927      BINDING AFFINITY PREDICTED BY RF-SCORE:    0.00 PKD
ROOT
HETATM    1  C   UNL     1     -10.411  20.203  68.073  1.00  0.00    -0.389 C  
HETATM    2  C   UNL     1      -9.294  19.188  68.283  1.00  0.00    -0.344 C  
ENDROOT
BRANCH   2   3
HETATM    3  N   UNL     1      -9.502  17.836  67.750  1.00  0.00    -0.258 NA 
BRANCH   3   4
HETATM    4  C   UNL     1      -9.443  16.753  68.749  1.00  0.00    -0.259 C  
BRANCH   4   5
HETATM    5  C   UNL     1      -8.269  15.780  68.552  1.00  0.00    -0.166 C  
BRANCH   5   6
HETATM    6  C   UNL     1      -7.531  15.512  69.864  1.00  0.00     0.016 C  
BRANCH   6   7
HETATM    7  C   UNL     1      -6.290  14.665  69.606  1.00  0.00    -0.142 C  
BRANCH   7   8
HETATM    8  O   UNL     1      -6.675  13.312  69.328  1.00  0.00    -0.107 OA 
BRANCH   8   9
HETATM    9  C   UNL     1      -6.350  12.412  70.289  1.00  0.00     0.145 C  
HETATM   10  O   UNL     1      -5.919  12.660  71.403  1.00  0.00    -0.218 OA 
BRANCH   9  11
HETATM   11  C   UNL     1      -6.553  11.037  69.778  1.00  0.00    -0.143 A  
HETATM   12  C   UNL     1      -7.771  10.628  69.221  1.00  0.00    -0.142 A  
HETATM   13  C   UNL     1      -7.932   9.314  68.773  1.00  0.00    -0.099 A  
HETATM   14  C   UNL     1      -5.643   8.824  69.425  1.00  0.00    -0.035 A  
HETATM   15  C   UNL     1      -6.857   8.403  68.875  1.00  0.00    -0.061 A  
HETATM   16  C   UNL     1      -5.492  10.134  69.886  1.00  0.00    -0.039 A  
BRANCH  13  17
HETATM   17  O   UNL     1      -9.094   8.820  68.232  1.00  0.00    -0.140 OA 
HETATM   18  C   UNL     1      -8.986   7.936  67.125  1.00  0.00    -0.129 C  
ENDBRANCH  13  17
BRANCH  15  19
HETATM   19  O   UNL     1      -7.095   7.132  68.416  1.00  0.00    -0.079 OA 
HETATM   20  C   UNL     1      -6.052   6.490  67.695  1.00  0.00    -0.027 C  
ENDBRANCH  15  19
ENDBRANCH   9  11
ENDBRANCH   8   9
ENDBRANCH   7   8
ENDBRANCH   6   7
ENDBRANCH   5   6
ENDBRANCH   4   5
ENDBRANCH   3   4
BRANCH   3  21
HETATM   21  C   UNL     1     -10.612  17.657  66.780  1.00  0.00    -0.224 C  
HETATM   22  C   UNL     1     -10.175  17.505  65.313  1.00  0.00     0.433 C  
BRANCH  21  23
HETATM   23  C   UNL     1     -11.600  16.502  67.126  1.00  0.00     0.685 C  
BRANCH  23  24
HETATM   24  C   UNL     1     -11.473  15.253  66.279  1.00  0.00    -0.079 A  
HETATM   25  C   UNL     1     -10.511  13.045  65.904  1.00  0.00    -0.293 A  
HETATM   26  C   UNL     1     -11.180  12.944  64.686  1.00  0.00    -0.320 A  
HETATM   27  C   UNL     1     -12.131  15.148  65.048  1.00  0.00    -0.043 A  
HETATM   28  C   UNL     1     -11.994  13.997  64.266  1.00  0.00    -0.463 A  
HETATM   29  C   UNL     1     -10.656  14.193  66.694  1.00  0.00    -0.278 A  
BRANCH  26  30
HETATM   30  O   UNL     1     -11.163  11.857  63.855  1.00  0.00    -0.360 OA 
HETATM   31  C   UNL     1     -10.247  10.822  64.193  1.00  0.00    -0.344 C  
ENDBRANCH  26  30
ENDBRANCH  23  24
ENDBRANCH  21  23
ENDBRANCH   3  21
ENDBRANCH   2   3
TORSDOF 14
ENDMDL
MODEL      423
REMARK 921   NORMALIZED FREE ENERGY PREDICTED BY IDOCK:   -0.41 KCAL/MOL
REMARK 922        TOTAL FREE ENERGY PREDICTED BY IDOCK:   -3.54 KCAL/MOL
REMARK 923 INTER-LIGAND FREE ENERGY PREDICTED BY IDOCK:   -3.72 KCAL/MOL
REMARK 924 INTRA-LIGAND FREE ENERGY PREDICTED BY IDOCK:    0.18 KCAL/MOL
REMARK 927      BINDING AFFINITY PREDICTED BY RF-SCORE:    0.00 PKD
ROOT
HETATM    1  C   UNL     1     -11.879   8.418  73.000  1.00  0.00     0.247 C  
HETATM    2  C   UNL     1     -10.858   8.763  71.922  1.00  0.00    -0.360 C  
ENDROOT
BRANCH   2   3
HETATM    3  N   UNL     1     -11.063   8.185  70.589  1.00  0.00    -0.253 NA 
BRANCH   3   4
HETATM    4  C   UNL     1     -10.430   8.923  69.481  1.00  0.00    -0.226 C  
BRANCH   4   5
HETATM    5  C   UNL     1     -11.404   9.785  68.662  1.00  0.00     0.024 C  
BRANCH   5   6
HETATM    6  C   UNL     1     -11.053  11.270  68.748  1.00  0.00    -0.288 C  
BRANCH   6   7
HETATM    7  C   UNL     1      -9.550  11.447  68.937  1.00  0.00    -0.073 C  
BRANCH   7   8
HETATM    8  O   UNL     1      -8.897  11.446  67.661  1.00  0.00    -0.135 OA 
BRANCH   8   9
HETATM    9  C   UNL     1      -7.699  10.811  67.627  1.00  0.00    -0.104 C  
HETATM   10  O   UNL     1      -6.755  10.997  68.378  1.00  0.00    -0.057 OA 
BRANCH   9  11
HETATM   11  C   UNL     1      -7.666   9.859  66.493  1.00  0.00    -0.107 A  
HETATM   12  C   UNL     1      -6.484   9.580  65.797  1.00  0.00    -0.074 A  
HETATM   13  C   UNL     1      -6.498   8.695  64.715  1.00  0.00    -0.065 A  
HETATM   14  C   UNL     1      -8.882   8.356  65.041  1.00  0.00    -0.028 A  
HETATM   15  C   UNL     1      -7.709   8.075  64.335  1.00  0.00    -0.130 A  
HETATM   16  C   UNL     1      -8.866   9.254  66.111  1.00  0.00    -0.183 A  
BRANCH  13  17
HETATM   17  O   UNL     1      -5.393   8.376  63.964  1.00  0.00    -0.050 OA 
HETATM   18  C   UNL     1      -5.229   9.032  62.715  1.00  0.00    -0.069 C  
ENDBRANCH  13  17
BRANCH  15  19
HETATM   19  O   UNL     1      -7.642   7.222  63.262  1.00  0.00    -0.099 OA 
HETATM   20  C   UNL     1      -8.194   5.923  63.422  1.00  0.00    -0.052 C  
ENDBRANCH  15  19
ENDBRANCH   9  11
ENDBRANCH   8   9
ENDBRANCH   7   8
ENDBRANCH   6   7
ENDBRANCH   5   6
ENDBRANCH   4   5
ENDBRANCH   3   4
BRANCH   3  21
HETATM   21  C   UNL     1     -10.903   6.714  70.460  1.00  0.00    -0.261 C  
HETATM   22  C   UNL     1     -11.193   6.148  69.059  1.00  0.00    -0.375 C  
BRANCH  21  23
HETATM   23  C   UNL     1      -9.528   6.164  70.943  1.00  0.00    -0.187 C  
BRANCH  23  24
HETATM   24  C   UNL     1      -9.037   4.914  70.242  1.00  0.00    -0.165 A  
HETATM   25  C   UNL     1      -7.611   2.938  70.201  1.00  0.00    -0.043 A  
HETATM   26  C   UNL     1      -8.072   2.614  68.926  1.00  0.00    -0.052 A  
HETATM   27  C   UNL     1      -9.484   4.587  68.956  1.00  0.00    -0.229 A  
HETATM   28  C   UNL     1      -9.013   3.440  68.311  1.00  0.00    -0.184 A  
HETATM   29  C   UNL     1      -8.091   4.081  70.853  1.00  0.00    -0.067 A  
BRANCH  26  30
HETATM   30  O   UNL     1      -7.723   1.500  68.212  1.00  0.00    -0.049 OA 
HETATM   31  C   UNL     1      -6.409   1.490  67.665  1.00  0.00    -0.024 C  
ENDBRANCH  26  30
ENDBRANCH  23  24
ENDBRANCH  21  23
ENDBRANCH   3  21
ENDBRANCH   2   3
TORSDOF 14
ENDMDL
MODEL      424
REMARK 921   NORMALIZED FREE ENERGY PREDICTED BY IDOCK:   -0.31 KCAL/MOL
REMARK 922        TOTAL FREE ENERGY PREDICTED BY IDOCK:   -3.35 KCAL/MOL
REMARK 923 INTER-LIGAND FREE ENERGY PREDICTED BY IDOCK:   -3.82 KCAL/MOL
REMARK 924 INTRA-LIGAND FREE ENERGY PREDICTED BY IDOCK:    0.46 KCAL/MOL
REMARK 927      BINDING AFFINITY PREDICTED BY RF-SCORE:    0.00 PKD
ROOT
HETATM    1  C   UNL     1      -9.370   8.966  69.566  1.00  0.00    -0.155 C  
HETATM    2  C   UNL     1      -9.523   7.605  68.896  1.00  0.00    -0.149 C  
ENDROOT
BRANCH   2   3
HETATM    3  N   UNL     1      -8.469   7.189  67.963  1.00  0.00    -0.122 NA 
BRANCH   3   4
HETATM    4  C   UNL     1      -8.731   5.930  67.243  1.00  0.00    -0.108 C  
BRANCH   4   5
HETATM    5  C   UNL     1      -7.992   4.711  67.818  1.00  0.00    -0.092 C  
BRANCH   5   6
HETATM    6  C   UNL     1      -8.265   4.539  69.313  1.00  0.00    -0.071 C  
BRANCH   6   7
HETATM    7  C   UNL     1      -9.658   3.957  69.530  1.00  0.00    -0.178 C  
BRANCH   7   8
HETATM    8  O   UNL     1      -9.671   3.165  70.725  1.00  0.00    -0.171 OA 
BRANCH   8   9
HETATM    9  C   UNL     1      -9.112   3.753  71.812  1.00  0.00    -0.111 C  
HETATM   10  O   UNL     1      -8.199   3.313  72.489  1.00  0.00    -0.073 OA 
BRANCH   9  11
HETATM   11  C   UNL     1      -9.809   5.027  72.108  1.00  0.00    -0.220 A  
HETATM   12  C   UNL     1      -9.112   6.177  72.496  1.00  0.00    -0.138 A  
HETATM   13  C   UNL     1      -9.807   7.354  72.791  1.00  0.00    -0.189 A  
HETATM   14  C   UNL     1     -11.901   6.226  72.291  1.00  0.00    -0.326 A  
HETATM   15  C   UNL     1     -11.216   7.378  72.686  1.00  0.00    -0.332 A  
HETATM   16  C   UNL     1     -11.203   5.049  72.013  1.00  0.00     0.070 A  
BRANCH  13  17
HETATM   17  O   UNL     1      -9.210   8.522  73.196  1.00  0.00    -0.220 OA 
HETATM   18  C   UNL     1      -8.048   8.425  74.008  1.00  0.00    -0.135 C  
ENDBRANCH  13  17
BRANCH  15  19
HETATM   19  O   UNL     1     -11.824   8.568  72.996  1.00  0.00    -0.169 OA 
HETATM   20  C   UNL     1     -13.042   8.874  72.330  1.00  0.00    -0.436 C  
ENDBRANCH  15  19
ENDBRANCH   9  11
ENDBRANCH   8   9
ENDBRANCH   7   8
ENDBRANCH   6   7
ENDBRANCH   5   6
ENDBRANCH   4   5
ENDBRANCH   3   4
BRANCH   3  21
HETATM   21  C   UNL     1      -7.893   8.239  67.086  1.00  0.00    -0.097 C  
HETATM   22  C   UNL     1      -7.926   9.664  67.667  1.00  0.00    -0.106 C  
BRANCH  21  23
HETATM   23  C   UNL     1      -6.448   7.944  66.580  1.00  0.00    -0.055 C  
BRANCH  23  24
HETATM   24  C   UNL     1      -6.340   6.949  65.444  1.00  0.00    -0.043 A  
HETATM   25  C   UNL     1      -7.030   6.182  63.236  1.00  0.00    -0.046 A  
HETATM   26  C   UNL     1      -6.192   5.074  63.343  1.00  0.00    -0.022 A  
HETATM   27  C   UNL     1      -5.511   5.826  65.547  1.00  0.00    -0.013 A  
HETATM   28  C   UNL     1      -5.430   4.905  64.500  1.00  0.00    -0.013 A  
HETATM   29  C   UNL     1      -7.104   7.112  64.280  1.00  0.00    -0.063 A  
BRANCH  26  30
HETATM   30  O   UNL     1      -5.992   4.130  62.373  1.00  0.00    -0.016 OA 
HETATM   31  C   UNL     1      -6.686   2.899  62.542  1.00  0.00    -0.023 C  
ENDBRANCH  26  30
ENDBRANCH  23  24
ENDBRANCH  21  23
ENDBRANCH   3  21
ENDBRANCH   2   3
TORSDOF 14
ENDMDL
MODEL      425
REMARK 921   NORMALIZED FREE ENERGY PREDICTED BY IDOCK:   -0.10 KCAL/MOL
REMARK 922        TOTAL FREE ENERGY PREDICTED BY IDOCK:   -2.98 KCAL/MOL
REMARK 923 INTER-LIGAND FREE ENERGY PREDICTED BY IDOCK:   -3.68 KCAL/MOL
REMARK 924 INTRA-LIGAND FREE ENERGY PREDICTED BY IDOCK:    0.70 KCAL/MOL
REMARK 927      BINDING AFFINITY PREDICTED BY RF-SCORE:    0.00 PKD
ROOT
HETATM    1  C   UNL     1     -12.745  11.969  63.382  1.00  0.00    -0.527 C  
HETATM    2  C   UNL     1     -11.440  11.842  64.160  1.00  0.00    -0.370 C  
ENDROOT
BRANCH   2   3
HETATM    3  N   UNL     1     -11.045  12.976  65.004  1.00  0.00    -0.287 NA 
BRANCH   3   4
HETATM    4  C   UNL     1     -10.679  14.203  64.273  1.00  0.00     0.038 C  
BRANCH   4   5
HETATM    5  C   UNL     1      -9.464  14.943  64.855  1.00  0.00     0.922 C  
BRANCH   5   6
HETATM    6  C   UNL     1      -9.852  15.814  66.050  1.00  0.00    -0.366 C  
BRANCH   6   7
HETATM    7  C   UNL     1     -10.195  17.225  65.585  1.00  0.00    -0.124 C  
BRANCH   7   8
HETATM    8  O   UNL     1      -9.170  18.136  66.002  1.00  0.00    -0.507 OA 
BRANCH   8   9
HETATM    9  C   UNL     1      -9.316  18.631  67.257  1.00  0.00    -0.287 C  
HETATM   10  O   UNL     1      -9.116  19.780  67.614  1.00  0.00    -0.316 OA 
BRANCH   9  11
HETATM   11  C   UNL     1      -9.724  17.547  68.180  1.00  0.00    -0.302 A  
HETATM   12  C   UNL     1      -8.794  16.662  68.737  1.00  0.00    -0.264 A  
HETATM   13  C   UNL     1      -9.220  15.635  69.584  1.00  0.00    -0.189 A  
HETATM   14  C   UNL     1     -11.514  16.396  69.328  1.00  0.00    -0.165 A  
HETATM   15  C   UNL     1     -10.594  15.501  69.884  1.00  0.00    -0.313 A  
HETATM   16  C   UNL     1     -11.084  17.409  68.469  1.00  0.00     0.076 A  
BRANCH  13  17
HETATM   17  O   UNL     1      -8.383  14.711  70.160  1.00  0.00     0.473 OA 
HETATM   18  C   UNL     1      -6.983  14.891  69.993  1.00  0.00    -0.095 C  
ENDBRANCH  13  17
BRANCH  15  19
HETATM   19  O   UNL     1     -10.933  14.468  70.720  1.00  0.00     0.034 OA 
HETATM   20  C   UNL     1     -12.317  14.198  70.901  1.00  0.00    -0.368 C  
ENDBRANCH  15  19
ENDBRANCH   9  11
ENDBRANCH   8   9
ENDBRANCH   7   8
ENDBRANCH   6   7
ENDBRANCH   5   6
ENDBRANCH   4   5
ENDBRANCH   3   4
BRANCH   3  21
HETATM   21  C   UNL     1     -11.881  13.251  66.199  1.00  0.00    -0.390 C  
HETATM   22  C   UNL     1     -13.399  13.221  65.952  1.00  0.00     1.251 C  
BRANCH  21  23
HETATM   23  C   UNL     1     -11.562  12.361  67.437  1.00  0.00    -0.433 C  
BRANCH  23  24
HETATM   24  C   UNL     1     -10.215  11.668  67.420  1.00  0.00    -0.226 A  
HETATM   25  C   UNL     1      -7.787  11.767  67.599  1.00  0.00    -0.138 A  
HETATM   26  C   UNL     1      -7.696  10.402  67.333  1.00  0.00    -0.095 A  
HETATM   27  C   UNL     1     -10.113  10.300  67.140  1.00  0.00    -0.259 A  
HETATM   28  C   UNL     1      -8.865   9.673  67.110  1.00  0.00    -0.141 A  
HETATM   29  C   UNL     1      -9.038  12.395  67.640  1.00  0.00    -0.186 A  
BRANCH  26  30
HETATM   30  O   UNL     1      -6.542   9.668  67.321  1.00  0.00    -0.069 OA 
HETATM   31  C   UNL     1      -6.419   8.708  66.278  1.00  0.00    -0.061 C  
ENDBRANCH  26  30
ENDBRANCH  23  24
ENDBRANCH  21  23
ENDBRANCH   3  21
ENDBRANCH   2   3
TORSDOF 14
ENDMDL
MODEL      426
REMARK 921   NORMALIZED FREE ENERGY PREDICTED BY IDOCK:    0.01 KCAL/MOL
REMARK 922        TOTAL FREE ENERGY PREDICTED BY IDOCK:   -2.77 KCAL/MOL
REMARK 923 INTER-LIGAND FREE ENERGY PREDICTED BY IDOCK:   -4.86 KCAL/MOL
REMARK 924 INTRA-LIGAND FREE ENERGY PREDICTED BY IDOCK:    2.09 KCAL/MOL
REMARK 927      BINDING AFFINITY PREDICTED BY RF-SCORE:    0.00 PKD
ROOT
HETATM    1  C   UNL     1     -10.113  17.920  68.950  1.00  0.00    -0.349 C  
HETATM    2  C   UNL     1      -8.766  18.622  69.076  1.00  0.00    -0.068 C  
ENDROOT
BRANCH   2   3
HETATM    3  N   UNL     1      -7.566  17.839  68.760  1.00  0.00    -0.276 NA 
BRANCH   3   4
HETATM    4  C   UNL     1      -7.583  16.444  69.236  1.00  0.00    -0.180 C  
BRANCH   4   5
HETATM    5  C   UNL     1      -8.112  15.435  68.205  1.00  0.00    -0.136 C  
BRANCH   5   6
HETATM    6  C   UNL     1      -7.861  13.992  68.646  1.00  0.00    -0.130 C  
BRANCH   6   7
HETATM    7  C   UNL     1      -9.091  13.135  68.372  1.00  0.00    -0.134 C  
BRANCH   7   8
HETATM    8  O   UNL     1     -10.121  13.447  69.319  1.00  0.00     0.152 OA 
BRANCH   8   9
HETATM    9  C   UNL     1     -11.369  13.049  68.966  1.00  0.00    -0.289 C  
HETATM   10  O   UNL     1     -12.061  13.523  68.082  1.00  0.00    -0.346 OA 
BRANCH   9  11
HETATM   11  C   UNL     1     -11.815  11.950  69.854  1.00  0.00    -0.418 A  
HETATM   12  C   UNL     1     -11.196  10.694  69.843  1.00  0.00    -0.378 A  
HETATM   13  C   UNL     1     -11.663   9.674  70.677  1.00  0.00    -0.280 A  
HETATM   14  C   UNL     1     -13.360  11.180  71.547  1.00  0.00    -0.235 A  
HETATM   15  C   UNL     1     -12.755   9.920  71.539  1.00  0.00    -0.415 A  
HETATM   16  C   UNL     1     -12.901  12.191  70.699  1.00  0.00    -0.031 A  
BRANCH  13  17
HETATM   17  O   UNL     1     -11.131   8.408  70.721  1.00  0.00    -0.249 OA 
HETATM   18  C   UNL     1      -9.731   8.285  70.929  1.00  0.00    -0.172 C  
ENDBRANCH  13  17
BRANCH  15  19
HETATM   19  O   UNL     1     -13.155   8.869  72.324  1.00  0.00    -0.386 OA 
HETATM   20  C   UNL     1     -14.379   8.228  71.988  1.00  0.00    -0.450 C  
ENDBRANCH  15  19
ENDBRANCH   9  11
ENDBRANCH   8   9
ENDBRANCH   7   8
ENDBRANCH   6   7
ENDBRANCH   5   6
ENDBRANCH   4   5
ENDBRANCH   3   4
BRANCH   3  21
HETATM   21  C   UNL     1      -7.022  17.966  67.385  1.00  0.00    -0.186 C  
HETATM   22  C   UNL     1      -6.495  16.657  66.770  1.00  0.00    -0.186 C  
BRANCH  21  23
HETATM   23  C   UNL     1      -7.984  18.641  66.362  1.00  0.00    -0.298 C  
BRANCH  23  24
HETATM   24  C   UNL     1      -9.056  17.746  65.776  1.00  0.00     0.307 A  
HETATM   25  C   UNL     1     -11.314  17.442  64.912  1.00  0.00     0.956 A  
HETATM   26  C   UNL     1     -11.081  16.079  64.739  1.00  0.00    -0.365 A  
HETATM   27  C   UNL     1      -8.835  16.373  65.611  1.00  0.00     0.275 A  
HETATM   28  C   UNL     1      -9.836  15.552  65.085  1.00  0.00    -0.086 A  
HETATM   29  C   UNL     1     -10.308  18.269  65.428  1.00  0.00     0.374 A  
BRANCH  26  30
HETATM   30  O   UNL     1     -11.960  15.184  64.194  1.00  0.00    -0.467 OA 
HETATM   31  C   UNL     1     -12.055  13.922  64.845  1.00  0.00    -0.414 C  
ENDBRANCH  26  30
ENDBRANCH  23  24
ENDBRANCH  21  23
ENDBRANCH   3  21
ENDBRANCH   2   3
TORSDOF 14
ENDMDL
MODEL      427
REMARK 921   NORMALIZED FREE ENERGY PREDICTED BY IDOCK:    0.77 KCAL/MOL
REMARK 922        TOTAL FREE ENERGY PREDICTED BY IDOCK:   -1.39 KCAL/MOL
REMARK 923 INTER-LIGAND FREE ENERGY PREDICTED BY IDOCK:   -5.20 KCAL/MOL
REMARK 924 INTRA-LIGAND FREE ENERGY PREDICTED BY IDOCK:    3.81 KCAL/MOL
REMARK 927      BINDING AFFINITY PREDICTED BY RF-SCORE:    0.00 PKD
ROOT
HETATM    1  C   UNL     1      -5.628   8.497  68.807  1.00  0.00    -0.040 C  
HETATM    2  C   UNL     1      -5.829   7.041  69.210  1.00  0.00    -0.019 C  
ENDROOT
BRANCH   2   3
HETATM    3  N   UNL     1      -7.165   6.466  69.014  1.00  0.00    -0.081 NA 
BRANCH   3   4
HETATM    4  C   UNL     1      -8.274   7.243  69.597  1.00  0.00    -0.131 C  
BRANCH   4   5
HETATM    5  C   UNL     1      -8.581   8.553  68.856  1.00  0.00    -0.127 C  
BRANCH   5   6
HETATM    6  C   UNL     1      -9.206   9.595  69.785  1.00  0.00    -0.237 C  
BRANCH   6   7
HETATM    7  C   UNL     1     -10.726   9.559  69.672  1.00  0.00    -0.238 C  
BRANCH   7   8
HETATM    8  O   UNL     1     -11.119   9.858  68.326  1.00  0.00    -0.230 OA 
BRANCH   8   9
HETATM    9  C   UNL     1     -10.120  10.293  67.517  1.00  0.00    -0.198 C  
HETATM   10  O   UNL     1      -9.163   9.644  67.130  1.00  0.00    -0.133 OA 
BRANCH   9  11
HETATM   11  C   UNL     1     -10.326  11.722  67.189  1.00  0.00    -0.242 A  
HETATM   12  C   UNL     1     -10.800  12.132  65.936  1.00  0.00    -0.316 A  
HETATM   13  C   UNL     1     -10.957  13.492  65.655  1.00  0.00    -0.289 A  
HETATM   14  C   UNL     1     -10.180  14.031  67.893  1.00  0.00    -0.240 A  
HETATM   15  C   UNL     1     -10.645  14.451  66.644  1.00  0.00    -0.282 A  
HETATM   16  C   UNL     1     -10.009  12.672  68.164  1.00  0.00    -0.225 A  
BRANCH  13  17
HETATM   17  O   UNL     1     -11.397  13.985  64.450  1.00  0.00    -0.367 OA 
HETATM   18  C   UNL     1     -12.003  13.075  63.544  1.00  0.00    -0.545 C  
ENDBRANCH  13  17
BRANCH  15  19
HETATM   19  O   UNL     1     -10.823  15.764  66.290  1.00  0.00    -0.306 OA 
HETATM   20  C   UNL     1      -9.660  16.529  66.001  1.00  0.00    -0.290 C  
ENDBRANCH  15  19
ENDBRANCH   9  11
ENDBRANCH   8   9
ENDBRANCH   7   8
ENDBRANCH   6   7
ENDBRANCH   5   6
ENDBRANCH   4   5
ENDBRANCH   3   4
BRANCH   3  21
HETATM   21  C   UNL     1      -7.483   5.945  67.661  1.00  0.00    -0.078 C  
HETATM   22  C   UNL     1      -8.922   6.209  67.183  1.00  0.00    -0.111 C  
BRANCH  21  23
HETATM   23  C   UNL     1      -6.499   6.397  66.540  1.00  0.00    -0.047 C  
BRANCH  23  24
HETATM   24  C   UNL     1      -7.064   7.359  65.517  1.00  0.00    -0.061 A  
HETATM   25  C   UNL     1      -7.230   9.612  64.602  1.00  0.00    -0.123 A  
HETATM   26  C   UNL     1      -8.153   9.175  63.654  1.00  0.00    -0.160 A  
HETATM   27  C   UNL     1      -8.002   6.933  64.568  1.00  0.00    -0.106 A  
HETATM   28  C   UNL     1      -8.530   7.832  63.639  1.00  0.00     0.241 A  
HETATM   29  C   UNL     1      -6.691   8.710  65.528  1.00  0.00    -0.063 A  
BRANCH  26  30
HETATM   30  O   UNL     1      -8.705   9.945  62.667  1.00  0.00    -0.168 OA 
HETATM   31  C   UNL     1      -8.348  11.323  62.670  1.00  0.00     0.017 C  
ENDBRANCH  26  30
ENDBRANCH  23  24
ENDBRANCH  21  23
ENDBRANCH   3  21
ENDBRANCH   2   3
TORSDOF 14
ENDMDL
MODEL      428
REMARK 921   NORMALIZED FREE ENERGY PREDICTED BY IDOCK:    1.07 KCAL/MOL
REMARK 922        TOTAL FREE ENERGY PREDICTED BY IDOCK:   -0.85 KCAL/MOL
REMARK 923 INTER-LIGAND FREE ENERGY PREDICTED BY IDOCK:    0.41 KCAL/MOL
REMARK 924 INTRA-LIGAND FREE ENERGY PREDICTED BY IDOCK:   -1.26 KCAL/MOL
REMARK 927      BINDING AFFINITY PREDICTED BY RF-SCORE:    0.00 PKD
ROOT
HETATM    1  C   UNL     1     -13.824   5.844  70.702  1.00  0.00     4.831 C  
HETATM    2  C   UNL     1     -12.918   7.038  70.978  1.00  0.00    -0.143 C  
ENDROOT
BRANCH   2   3
HETATM    3  N   UNL     1     -11.517   6.933  70.554  1.00  0.00    -0.322 NA 
BRANCH   3   4
HETATM    4  C   UNL     1     -11.263   5.981  69.457  1.00  0.00    -0.346 C  
BRANCH   4   5
HETATM    5  C   UNL     1     -11.350   6.603  68.054  1.00  0.00    -0.068 C  
BRANCH   5   6
HETATM    6  C   UNL     1     -10.844   5.641  66.978  1.00  0.00    -0.265 C  
BRANCH   6   7
HETATM    7  C   UNL     1      -9.418   5.203  67.292  1.00  0.00    -0.131 C  
BRANCH   7   8
HETATM    8  O   UNL     1      -9.429   3.894  67.876  1.00  0.00    -0.172 OA 
BRANCH   8   9
HETATM    9  C   UNL     1      -8.258   3.505  68.440  1.00  0.00    -0.077 C  
HETATM   10  O   UNL     1      -7.311   2.990  67.871  1.00  0.00    -0.053 OA 
BRANCH   9  11
HETATM   11  C   UNL     1      -8.296   3.758  69.899  1.00  0.00    -0.080 A  
HETATM   12  C   UNL     1      -9.478   3.635  70.640  1.00  0.00    -0.242 A  
HETATM   13  C   UNL     1      -9.479   3.906  72.011  1.00  0.00    -0.136 A  
HETATM   14  C   UNL     1      -7.104   4.408  71.900  1.00  0.00    -0.055 A  
HETATM   15  C   UNL     1      -8.280   4.295  72.648  1.00  0.00    -0.097 A  
HETATM   16  C   UNL     1      -7.112   4.151  70.528  1.00  0.00    -0.038 A  
BRANCH  13  17
HETATM   17  O   UNL     1     -10.593   3.830  72.812  1.00  0.00    -0.169 OA 
HETATM   18  C   UNL     1     -11.274   5.039  73.116  1.00  0.00    -0.335 C  
ENDBRANCH  13  17
BRANCH  15  19
HETATM   19  O   UNL     1      -8.364   4.546  73.994  1.00  0.00    -0.102 OA 
HETATM   20  C   UNL     1      -7.763   5.741  74.477  1.00  0.00    -0.097 C  
ENDBRANCH  15  19
ENDBRANCH   9  11
ENDBRANCH   8   9
ENDBRANCH   7   8
ENDBRANCH   6   7
ENDBRANCH   5   6
ENDBRANCH   4   5
ENDBRANCH   3   4
BRANCH   3  21
HETATM   21  C   UNL     1     -10.764   8.202  70.394  1.00  0.00    -0.232 C  
HETATM   22  C   UNL     1     -11.378   9.418  71.111  1.00  0.00    -0.422 C  
BRANCH  21  23
HETATM   23  C   UNL     1      -9.254   8.117  70.769  1.00  0.00    -0.165 C  
BRANCH  23  24
HETATM   24  C   UNL     1      -8.308   8.879  69.865  1.00  0.00    -0.128 A  
HETATM   25  C   UNL     1      -7.900  10.676  68.270  1.00  0.00    -0.113 A  
HETATM   26  C   UNL     1      -6.573  10.274  68.134  1.00  0.00    -0.057 A  
HETATM   27  C   UNL     1      -6.976   8.475  69.712  1.00  0.00    -0.047 A  
HETATM   28  C   UNL     1      -6.115   9.176  68.863  1.00  0.00    -0.044 A  
HETATM   29  C   UNL     1      -8.761   9.982  69.129  1.00  0.00    -0.168 A  
BRANCH  26  30
HETATM   30  O   UNL     1      -5.625  10.902  67.373  1.00  0.00    -0.043 OA 
HETATM   31  C   UNL     1      -5.509  10.462  66.024  1.00  0.00    -0.073 C  
ENDBRANCH  26  30
ENDBRANCH  23  24
ENDBRANCH  21  23
ENDBRANCH   3  21
ENDBRANCH   2   3
TORSDOF 14
ENDMDL
MODEL      429
REMARK 921   NORMALIZED FREE ENERGY PREDICTED BY IDOCK:    1.46 KCAL/MOL
REMARK 922        TOTAL FREE ENERGY PREDICTED BY IDOCK:   -0.13 KCAL/MOL
REMARK 923 INTER-LIGAND FREE ENERGY PREDICTED BY IDOCK:   -4.26 KCAL/MOL
REMARK 924 INTRA-LIGAND FREE ENERGY PREDICTED BY IDOCK:    4.13 KCAL/MOL
REMARK 927      BINDING AFFINITY PREDICTED BY RF-SCORE:    0.00 PKD
ROOT
HETATM    1  C   UNL     1     -13.034  12.259  63.743  1.00  0.00    -0.317 C  
HETATM    2  C   UNL     1     -11.873  12.056  64.709  1.00  0.00    -0.254 C  
ENDROOT
BRANCH   2   3
HETATM    3  N   UNL     1     -11.078  13.237  65.065  1.00  0.00    -0.300 NA 
BRANCH   3   4
HETATM    4  C   UNL     1     -11.629  14.525  64.608  1.00  0.00    -0.408 C  
BRANCH   4   5
HETATM    5  C   UNL     1     -10.605  15.670  64.572  1.00  0.00     0.182 C  
BRANCH   5   6
HETATM    6  C   UNL     1      -9.894  15.835  65.916  1.00  0.00    -0.381 C  
BRANCH   6   7
HETATM    7  C   UNL     1     -10.912  16.078  67.024  1.00  0.00    -0.154 C  
BRANCH   7   8
HETATM    8  O   UNL     1     -10.955  17.474  67.347  1.00  0.00    -0.228 OA 
BRANCH   8   9
HETATM    9  C   UNL     1     -10.063  17.875  68.287  1.00  0.00    -0.375 C  
HETATM   10  O   UNL     1     -10.237  18.732  69.137  1.00  0.00    -0.314 OA 
BRANCH   9  11
HETATM   11  C   UNL     1      -8.788  17.141  68.115  1.00  0.00    -0.237 A  
HETATM   12  C   UNL     1      -7.837  17.525  67.161  1.00  0.00    -0.229 A  
HETATM   13  C   UNL     1      -6.657  16.792  67.011  1.00  0.00    -0.204 A  
HETATM   14  C   UNL     1      -7.376  15.297  68.787  1.00  0.00    -0.131 A  
HETATM   15  C   UNL     1      -6.423  15.667  67.833  1.00  0.00    -0.149 A  
HETATM   16  C   UNL     1      -8.561  16.023  68.922  1.00  0.00    -0.229 A  
BRANCH  13  17
HETATM   17  O   UNL     1      -5.679  17.083  66.091  1.00  0.00    -0.302 OA 
HETATM   18  C   UNL     1      -5.147  18.401  66.086  1.00  0.00    -0.149 C  
ENDBRANCH  13  17
BRANCH  15  19
HETATM   19  O   UNL     1      -5.244  14.999  67.622  1.00  0.00    -0.292 OA 
HETATM   20  C   UNL     1      -5.318  13.706  67.037  1.00  0.00     1.059 C  
ENDBRANCH  15  19
ENDBRANCH   9  11
ENDBRANCH   8   9
ENDBRANCH   7   8
ENDBRANCH   6   7
ENDBRANCH   5   6
ENDBRANCH   4   5
ENDBRANCH   3   4
BRANCH   3  21
HETATM   21  C   UNL     1     -10.551  13.301  66.452  1.00  0.00    -0.284 C  
HETATM   22  C   UNL     1     -11.534  12.847  67.544  1.00  0.00    -0.386 C  
BRANCH  21  23
HETATM   23  C   UNL     1      -9.195  12.565  66.669  1.00  0.00    -0.223 C  
BRANCH  23  24
HETATM   24  C   UNL     1      -8.722  11.703  65.516  1.00  0.00     0.188 A  
HETATM   25  C   UNL     1      -8.708  11.184  63.135  1.00  0.00    -0.052 A  
HETATM   26  C   UNL     1      -7.898  10.075  63.367  1.00  0.00    -0.151 A  
HETATM   27  C   UNL     1      -7.919  10.579  65.740  1.00  0.00    -0.158 A  
HETATM   28  C   UNL     1      -7.501   9.781  64.672  1.00  0.00    -0.134 A  
HETATM   29  C   UNL     1      -9.118  11.992  64.203  1.00  0.00     0.561 A  
BRANCH  26  30
HETATM   30  O   UNL     1      -7.389   9.246  62.404  1.00  0.00    -0.104 OA 
HETATM   31  C   UNL     1      -7.533   7.849  62.637  1.00  0.00    -0.108 C  
ENDBRANCH  26  30
ENDBRANCH  23  24
ENDBRANCH  21  23
ENDBRANCH   3  21
ENDBRANCH   2   3
TORSDOF 14
ENDMDL
MODEL      430
REMARK 921   NORMALIZED FREE ENERGY PREDICTED BY IDOCK:    1.54 KCAL/MOL
REMARK 922        TOTAL FREE ENERGY PREDICTED BY IDOCK:    0.01 KCAL/MOL
REMARK 923 INTER-LIGAND FREE ENERGY PREDICTED BY IDOCK:    0.85 KCAL/MOL
REMARK 924 INTRA-LIGAND FREE ENERGY PREDICTED BY IDOCK:   -0.84 KCAL/MOL
REMARK 927      BINDING AFFINITY PREDICTED BY RF-SCORE:    0.00 PKD
ROOT
HETATM    1  C   UNL     1      -9.307  16.092  69.386  1.00  0.00    -0.186 C  
HETATM    2  C   UNL     1      -8.419  14.976  69.924  1.00  0.00     0.266 C  
ENDROOT
BRANCH   2   3
HETATM    3  N   UNL     1      -7.257  14.590  69.116  1.00  0.00    -0.134 NA 
BRANCH   3   4
HETATM    4  C   UNL     1      -6.471  13.462  69.647  1.00  0.00    -0.056 C  
BRANCH   4   5
HETATM    5  C   UNL     1      -7.275  12.165  69.828  1.00  0.00     0.584 C  
BRANCH   5   6
HETATM    6  C   UNL     1      -6.373  10.930  69.782  1.00  0.00    -0.114 C  
BRANCH   6   7
HETATM    7  C   UNL     1      -7.056   9.808  69.008  1.00  0.00    -0.067 C  
BRANCH   7   8
HETATM    8  O   UNL     1      -6.765   8.547  69.624  1.00  0.00    -0.039 OA 
BRANCH   8   9
HETATM    9  C   UNL     1      -6.197   7.625  68.807  1.00  0.00    -0.036 C  
HETATM   10  O   UNL     1      -5.275   6.876  69.084  1.00  0.00    -0.013 OA 
BRANCH   9  11
HETATM   11  C   UNL     1      -6.835   7.676  67.471  1.00  0.00    -0.069 A  
HETATM   12  C   UNL     1      -7.851   6.786  67.103  1.00  0.00    -0.112 A  
HETATM   13  C   UNL     1      -8.412   6.849  65.824  1.00  0.00    -0.146 A  
HETATM   14  C   UNL     1      -6.945   8.711  65.288  1.00  0.00    -0.075 A  
HETATM   15  C   UNL     1      -7.955   7.822  64.908  1.00  0.00    -0.139 A  
HETATM   16  C   UNL     1      -6.377   8.633  66.562  1.00  0.00    -0.058 A  
BRANCH  13  17
HETATM   17  O   UNL     1      -9.398   6.006  65.371  1.00  0.00     0.079 OA 
HETATM   18  C   UNL     1      -9.186   4.608  65.503  1.00  0.00    -0.153 C  
ENDBRANCH  13  17
BRANCH  15  19
HETATM   19  O   UNL     1      -8.552   7.818  63.673  1.00  0.00     0.162 OA 
HETATM   20  C   UNL     1      -7.704   7.739  62.535  1.00  0.00    -0.124 C  
ENDBRANCH  15  19
ENDBRANCH   9  11
ENDBRANCH   8   9
ENDBRANCH   7   8
ENDBRANCH   6   7
ENDBRANCH   5   6
ENDBRANCH   4   5
ENDBRANCH   3   4
BRANCH   3  21
HETATM   21  C   UNL     1      -7.455  14.505  67.647  1.00  0.00    -0.177 C  
HETATM   22  C   UNL     1      -6.401  15.243  66.803  1.00  0.00     1.197 C  
BRANCH  21  23
HETATM   23  C   UNL     1      -7.608  13.056  67.093  1.00  0.00    -0.023 C  
BRANCH  23  24
HETATM   24  C   UNL     1      -8.790  12.824  66.175  1.00  0.00     0.232 A  
HETATM   25  C   UNL     1      -9.960  11.437  64.548  1.00  0.00    -0.318 A  
HETATM   26  C   UNL     1     -10.956  12.403  64.419  1.00  0.00    -0.334 A  
HETATM   27  C   UNL     1      -9.789  13.794  66.028  1.00  0.00    -0.298 A  
HETATM   28  C   UNL     1     -10.867  13.578  65.166  1.00  0.00    -0.336 A  
HETATM   29  C   UNL     1      -8.885  11.648  65.420  1.00  0.00     0.171 A  
BRANCH  26  30
HETATM   30  O   UNL     1     -12.080  12.290  63.646  1.00  0.00    -0.469 OA 
HETATM   31  C   UNL     1     -12.418  10.976  63.217  1.00  0.00     1.634 C  
ENDBRANCH  26  30
ENDBRANCH  23  24
ENDBRANCH  21  23
ENDBRANCH   3  21
ENDBRANCH   2   3
TORSDOF 14
ENDMDL
MODEL      431
REMARK 921   NORMALIZED FREE ENERGY PREDICTED BY IDOCK:    1.64 KCAL/MOL
REMARK 922        TOTAL FREE ENERGY PREDICTED BY IDOCK:    0.20 KCAL/MOL
REMARK 923 INTER-LIGAND FREE ENERGY PREDICTED BY IDOCK:   -6.82 KCAL/MOL
REMARK 924 INTRA-LIGAND FREE ENERGY PREDICTED BY IDOCK:    7.02 KCAL/MOL
REMARK 927      BINDING AFFINITY PREDICTED BY RF-SCORE:    0.00 PKD
ROOT
HETATM    1  C   UNL     1      -7.046   8.890  69.959  1.00  0.00    -0.049 C  
HETATM    2  C   UNL     1      -6.306  10.075  69.350  1.00  0.00    -0.046 C  
ENDROOT
BRANCH   2   3
HETATM    3  N   UNL     1      -7.097  11.263  69.013  1.00  0.00    -0.107 NA 
BRANCH   3   4
HETATM    4  C   UNL     1      -6.473  12.177  68.038  1.00  0.00    -0.069 C  
BRANCH   4   5
HETATM    5  C   UNL     1      -7.476  13.003  67.219  1.00  0.00    -0.083 C  
BRANCH   5   6
HETATM    6  C   UNL     1      -7.229  14.504  67.371  1.00  0.00    -0.165 C  
BRANCH   6   7
HETATM    7  C   UNL     1      -6.447  14.783  68.650  1.00  0.00    -0.084 C  
BRANCH   7   8
HETATM    8  O   UNL     1      -7.307  15.389  69.623  1.00  0.00    -0.204 OA 
BRANCH   8   9
HETATM    9  C   UNL     1      -8.274  16.194  69.114  1.00  0.00    -0.230 C  
HETATM   10  O   UNL     1      -9.472  16.118  69.330  1.00  0.00    -0.250 OA 
BRANCH   9  11
HETATM   11  C   UNL     1      -7.670  17.185  68.195  1.00  0.00    -0.204 A  
HETATM   12  C   UNL     1      -7.309  18.468  68.626  1.00  0.00    -0.313 A  
HETATM   13  C   UNL     1      -6.765  19.386  67.722  1.00  0.00    -0.224 A  
HETATM   14  C   UNL     1      -6.928  17.723  65.957  1.00  0.00    -0.335 A  
HETATM   15  C   UNL     1      -6.571  19.008  66.374  1.00  0.00    -0.194 A  
HETATM   16  C   UNL     1      -7.486  16.816  66.860  1.00  0.00    -0.257 A  
BRANCH  13  17
HETATM   17  O   UNL     1      -6.401  20.669  68.050  1.00  0.00    -0.276 OA 
HETATM   18  C   UNL     1      -5.341  20.838  68.981  1.00  0.00    -0.342 C  
ENDBRANCH  13  17
BRANCH  15  19
HETATM   19  O   UNL     1      -6.036  19.965  65.550  1.00  0.00    -0.175 OA 
HETATM   20  C   UNL     1      -6.284  21.326  65.877  1.00  0.00    -0.126 C  
ENDBRANCH  15  19
ENDBRANCH   9  11
ENDBRANCH   8   9
ENDBRANCH   7   8
ENDBRANCH   6   7
ENDBRANCH   5   6
ENDBRANCH   4   5
ENDBRANCH   3   4
BRANCH   3  21
HETATM   21  C   UNL     1      -8.545  11.059  68.756  1.00  0.00    -0.144 C  
HETATM   22  C   UNL     1      -9.217   9.988  69.633  1.00  0.00    -0.236 C  
BRANCH  21  23
HETATM   23  C   UNL     1      -9.407  12.356  68.812  1.00  0.00     0.109 C  
BRANCH  23  24
HETATM   24  C   UNL     1     -10.300  12.604  67.614  1.00  0.00    -0.221 A  
HETATM   25  C   UNL     1     -12.376  13.464  66.670  1.00  0.00    -0.324 A  
HETATM   26  C   UNL     1     -12.001  13.021  65.404  1.00  0.00    -0.414 A  
HETATM   27  C   UNL     1      -9.938  12.151  66.340  1.00  0.00    -0.243 A  
HETATM   28  C   UNL     1     -10.777  12.370  65.244  1.00  0.00    -0.322 A  
HETATM   29  C   UNL     1     -11.531  13.255  67.768  1.00  0.00    -0.354 A  
BRANCH  26  30
HETATM   30  O   UNL     1     -12.710  13.215  64.250  1.00  0.00    -0.648 OA 
HETATM   31  C   UNL     1     -12.847  12.082  63.399  1.00  0.00    -0.291 C  
ENDBRANCH  26  30
ENDBRANCH  23  24
ENDBRANCH  21  23
ENDBRANCH   3  21
ENDBRANCH   2   3
TORSDOF 14
ENDMDL
MODEL      432
REMARK 921   NORMALIZED FREE ENERGY PREDICTED BY IDOCK:    2.06 KCAL/MOL
REMARK 922        TOTAL FREE ENERGY PREDICTED BY IDOCK:    0.96 KCAL/MOL
REMARK 923 INTER-LIGAND FREE ENERGY PREDICTED BY IDOCK:    0.05 KCAL/MOL
REMARK 924 INTRA-LIGAND FREE ENERGY PREDICTED BY IDOCK:    0.91 KCAL/MOL
REMARK 927      BINDING AFFINITY PREDICTED BY RF-SCORE:    0.00 PKD
ROOT
HETATM    1  C   UNL     1     -11.117  14.982  72.912  1.00  0.00     0.708 C  
HETATM    2  C   UNL     1     -12.117  14.520  71.858  1.00  0.00    -0.244 C  
ENDROOT
BRANCH   2   3
HETATM    3  N   UNL     1     -11.617  14.331  70.492  1.00  0.00    -0.227 NA 
BRANCH   3   4
HETATM    4  C   UNL     1     -12.658  14.165  69.461  1.00  0.00     0.029 C  
BRANCH   4   5
HETATM    5  C   UNL     1     -12.655  12.786  68.781  1.00  0.00     0.760 C  
BRANCH   5   6
HETATM    6  C   UNL     1     -11.493  11.919  69.267  1.00  0.00    -0.366 C  
BRANCH   6   7
HETATM    7  C   UNL     1     -11.795  10.446  69.019  1.00  0.00    -0.023 C  
BRANCH   7   8
HETATM    8  O   UNL     1     -10.569   9.714  68.889  1.00  0.00    -0.209 OA 
BRANCH   8   9
HETATM    9  C   UNL     1      -9.697   9.866  69.917  1.00  0.00    -0.235 C  
HETATM   10  O   UNL     1      -9.094  10.883  70.216  1.00  0.00     1.002 OA 
BRANCH   9  11
HETATM   11  C   UNL     1      -9.532   8.578  70.630  1.00  0.00    -0.203 A  
HETATM   12  C   UNL     1      -8.658   8.442  71.716  1.00  0.00    -0.234 A  
HETATM   13  C   UNL     1      -8.510   7.203  72.347  1.00  0.00    -0.112 A  
HETATM   14  C   UNL     1     -10.130   6.243  70.812  1.00  0.00    -0.229 A  
HETATM   15  C   UNL     1      -9.255   6.093  71.891  1.00  0.00    -0.147 A  
HETATM   16  C   UNL     1     -10.262   7.478  70.174  1.00  0.00    -0.206 A  
BRANCH  13  17
HETATM   17  O   UNL     1      -7.664   6.972  73.405  1.00  0.00    -0.086 OA 
HETATM   18  C   UNL     1      -6.763   8.008  73.771  1.00  0.00    -0.115 C  
ENDBRANCH  13  17
BRANCH  15  19
HETATM   19  O   UNL     1      -9.052   4.913  72.561  1.00  0.00    -0.131 OA 
HETATM   20  C   UNL     1      -7.849   4.205  72.292  1.00  0.00    -0.082 C  
ENDBRANCH  15  19
ENDBRANCH   9  11
ENDBRANCH   8   9
ENDBRANCH   7   8
ENDBRANCH   6   7
ENDBRANCH   5   6
ENDBRANCH   4   5
ENDBRANCH   3   4
BRANCH   3  21
HETATM   21  C   UNL     1     -10.513  15.219  70.049  1.00  0.00    -0.247 C  
HETATM   22  C   UNL     1      -9.133  14.890  70.646  1.00  0.00     1.728 C  
BRANCH  21  23
HETATM   23  C   UNL     1     -10.364  15.353  68.503  1.00  0.00    -0.226 C  
BRANCH  23  24
HETATM   24  C   UNL     1      -9.586  14.248  67.819  1.00  0.00    -0.221 A  
HETATM   25  C   UNL     1      -9.353  12.644  65.999  1.00  0.00    -0.074 A  
HETATM   26  C   UNL     1      -8.179  12.151  66.564  1.00  0.00     0.064 A  
HETATM   27  C   UNL     1      -8.412  13.737  68.386  1.00  0.00    -0.154 A  
HETATM   28  C   UNL     1      -7.710  12.707  67.755  1.00  0.00    -0.145 A  
HETATM   29  C   UNL     1     -10.052  13.685  66.624  1.00  0.00    -0.277 A  
BRANCH  26  30
HETATM   30  O   UNL     1      -7.381  11.180  66.023  1.00  0.00    -0.079 OA 
HETATM   31  C   UNL     1      -5.978  11.404  66.100  1.00  0.00     0.027 C  
ENDBRANCH  26  30
ENDBRANCH  23  24
ENDBRANCH  21  23
ENDBRANCH   3  21
ENDBRANCH   2   3
TORSDOF 14
ENDMDL
MODEL      433
REMARK 921   NORMALIZED FREE ENERGY PREDICTED BY IDOCK:    3.58 KCAL/MOL
REMARK 922        TOTAL FREE ENERGY PREDICTED BY IDOCK:    3.73 KCAL/MOL
REMARK 923 INTER-LIGAND FREE ENERGY PREDICTED BY IDOCK:   -2.24 KCAL/MOL
REMARK 924 INTRA-LIGAND FREE ENERGY PREDICTED BY IDOCK:    5.96 KCAL/MOL
REMARK 927      BINDING AFFINITY PREDICTED BY RF-SCORE:    0.00 PKD
ROOT
HETATM    1  C   UNL     1      -5.613   8.510  68.812  1.00  0.00    -0.040 C  
HETATM    2  C   UNL     1      -6.087   7.091  69.106  1.00  0.00    -0.026 C  
ENDROOT
BRANCH   2   3
HETATM    3  N   UNL     1      -7.515   6.805  68.924  1.00  0.00    -0.094 NA 
BRANCH   3   4
HETATM    4  C   UNL     1      -8.429   7.653  69.712  1.00  0.00    -0.134 C  
BRANCH   4   5
HETATM    5  C   UNL     1      -8.362   9.147  69.358  1.00  0.00    -0.124 C  
BRANCH   5   6
HETATM    6  C   UNL     1      -8.813  10.024  70.527  1.00  0.00     0.361 C  
BRANCH   6   7
HETATM    7  C   UNL     1     -10.215  10.565  70.269  1.00  0.00     0.263 C  
BRANCH   7   8
HETATM    8  O   UNL     1     -10.234  11.298  69.038  1.00  0.00    -0.205 OA 
BRANCH   8   9
HETATM    9  C   UNL     1      -9.028  11.441  68.434  1.00  0.00    -0.172 C  
HETATM   10  O   UNL     1      -8.270  10.545  68.102  1.00  0.00    -0.109 OA 
BRANCH   9  11
HETATM   11  C   UNL     1      -8.719  12.879  68.262  1.00  0.00    -0.168 A  
HETATM   12  C   UNL     1      -9.585  13.880  68.718  1.00  0.00    -0.073 A  
HETATM   13  C   UNL     1      -9.271  15.227  68.515  1.00  0.00    -0.200 A  
HETATM   14  C   UNL     1      -7.208  14.566  67.413  1.00  0.00    -0.165 A  
HETATM   15  C   UNL     1      -8.070  15.573  67.857  1.00  0.00    -0.139 A  
HETATM   16  C   UNL     1      -7.535  13.221  67.604  1.00  0.00    -0.173 A  
BRANCH  13  17
HETATM   17  O   UNL     1     -10.068  16.274  68.910  1.00  0.00    -0.226 OA 
HETATM   18  C   UNL     1     -11.126  15.995  69.817  1.00  0.00    -0.337 C  
ENDBRANCH  13  17
BRANCH  15  19
HETATM   19  O   UNL     1      -7.835  16.915  67.694  1.00  0.00    -0.168 OA 
HETATM   20  C   UNL     1      -8.861  17.691  67.090  1.00  0.00    -0.244 C  
ENDBRANCH  15  19
ENDBRANCH   9  11
ENDBRANCH   8   9
ENDBRANCH   7   8
ENDBRANCH   6   7
ENDBRANCH   5   6
ENDBRANCH   4   5
ENDBRANCH   3   4
BRANCH   3  21
HETATM   21  C   UNL     1      -7.988   6.595  67.533  1.00  0.00    -0.115 C  
HETATM   22  C   UNL     1      -9.407   7.114  67.242  1.00  0.00    -0.156 C  
BRANCH  21  23
HETATM   23  C   UNL     1      -7.028   7.132  66.429  1.00  0.00    -0.069 C  
BRANCH  23  24
HETATM   24  C   UNL     1      -7.500   8.367  65.692  1.00  0.00    -0.081 A  
HETATM   25  C   UNL     1      -9.021   9.433  64.114  1.00  0.00    -0.187 A  
HETATM   26  C   UNL     1      -8.354  10.647  64.267  1.00  0.00    -0.024 A  
HETATM   27  C   UNL     1      -6.828   9.588  65.829  1.00  0.00    -0.087 A  
HETATM   28  C   UNL     1      -7.261  10.719  65.131  1.00  0.00     0.165 A  
HETATM   29  C   UNL     1      -8.596   8.301  64.821  1.00  0.00    -0.047 A  
BRANCH  26  30
HETATM   30  O   UNL     1      -8.707  11.829  63.677  1.00  0.00     0.424 OA 
HETATM   31  C   UNL     1      -9.806  11.778  62.775  1.00  0.00     0.113 C  
ENDBRANCH  26  30
ENDBRANCH  23  24
ENDBRANCH  21  23
ENDBRANCH   3  21
ENDBRANCH   2   3
TORSDOF 14
ENDMDL
MODEL      434
REMARK 921   NORMALIZED FREE ENERGY PREDICTED BY IDOCK:    4.17 KCAL/MOL
REMARK 922        TOTAL FREE ENERGY PREDICTED BY IDOCK:    4.80 KCAL/MOL
REMARK 923 INTER-LIGAND FREE ENERGY PREDICTED BY IDOCK:    0.48 KCAL/MOL
REMARK 924 INTRA-LIGAND FREE ENERGY PREDICTED BY IDOCK:    4.32 KCAL/MOL
REMARK 927      BINDING AFFINITY PREDICTED BY RF-SCORE:    0.00 PKD
ROOT
HETATM    1  C   UNL     1      -5.643   8.521  68.824  1.00  0.00    -0.040 C  
HETATM    2  C   UNL     1      -5.872   7.026  69.010  1.00  0.00    -0.019 C  
ENDROOT
BRANCH   2   3
HETATM    3  N   UNL     1      -7.235   6.522  68.807  1.00  0.00    -0.082 NA 
BRANCH   3   4
HETATM    4  C   UNL     1      -8.234   7.006  69.778  1.00  0.00    -0.131 C  
BRANCH   4   5
HETATM    5  C   UNL     1      -8.453   8.527  69.749  1.00  0.00    -0.129 C  
BRANCH   5   6
HETATM    6  C   UNL     1      -9.038   9.038  71.066  1.00  0.00    -0.322 C  
BRANCH   6   7
HETATM    7  C   UNL     1     -10.549   9.201  70.943  1.00  0.00    -0.273 C  
BRANCH   7   8
HETATM    8  O   UNL     1     -10.851  10.231  69.993  1.00  0.00    -0.273 OA 
BRANCH   8   9
HETATM    9  C   UNL     1      -9.816  11.052  69.686  1.00  0.00     0.313 C  
HETATM   10  O   UNL     1      -8.711  10.715  69.296  1.00  0.00    -0.149 OA 
BRANCH   9  11
HETATM   11  C   UNL     1     -10.200  12.461  69.937  1.00  0.00     1.641 A  
HETATM   12  C   UNL     1     -11.481  12.808  70.384  1.00  0.00     0.289 A  
HETATM   13  C   UNL     1     -11.815  14.151  70.584  1.00  0.00    -0.263 A  
HETATM   14  C   UNL     1      -9.572  14.795  69.907  1.00  0.00     0.334 A  
HETATM   15  C   UNL     1     -10.850  15.154  70.345  1.00  0.00    -0.218 A  
HETATM   16  C   UNL     1      -9.249  13.454  69.692  1.00  0.00     1.656 A  
BRANCH  13  17
HETATM   17  O   UNL     1     -13.049  14.586  71.002  1.00  0.00    -0.350 OA 
HETATM   18  C   UNL     1     -13.959  13.616  71.502  1.00  0.00     0.024 C  
ENDBRANCH  13  17
BRANCH  15  19
HETATM   19  O   UNL     1     -11.255  16.447  70.563  1.00  0.00    -0.369 OA 
HETATM   20  C   UNL     1     -11.667  16.792  71.879  1.00  0.00     0.212 C  
ENDBRANCH  15  19
ENDBRANCH   9  11
ENDBRANCH   8   9
ENDBRANCH   7   8
ENDBRANCH   6   7
ENDBRANCH   5   6
ENDBRANCH   4   5
ENDBRANCH   3   4
BRANCH   3  21
HETATM   21  C   UNL     1      -7.751   6.513  67.415  1.00  0.00    -0.101 C  
HETATM   22  C   UNL     1      -9.234   6.894  67.268  1.00  0.00    -0.137 C  
BRANCH  21  23
HETATM   23  C   UNL     1      -6.919   7.360  66.407  1.00  0.00    -0.069 C  
BRANCH  23  24
HETATM   24  C   UNL     1      -7.605   8.596  65.863  1.00  0.00    -0.089 A  
HETATM   25  C   UNL     1      -9.334   9.615  64.480  1.00  0.00    -0.247 A  
HETATM   26  C   UNL     1      -8.858  10.886  64.795  1.00  0.00    -0.100 A  
HETATM   27  C   UNL     1      -7.126   9.877  66.163  1.00  0.00    -0.103 A  
HETATM   28  C   UNL     1      -7.757  11.010  65.643  1.00  0.00     0.090 A  
HETATM   29  C   UNL     1      -8.711   8.478  65.010  1.00  0.00    -0.124 A  
BRANCH  26  30
HETATM   30  O   UNL     1      -9.414  12.068  64.387  1.00  0.00    -0.024 OA 
HETATM   31  C   UNL     1     -10.518  11.969  63.496  1.00  0.00    -0.464 C  
ENDBRANCH  26  30
ENDBRANCH  23  24
ENDBRANCH  21  23
ENDBRANCH   3  21
ENDBRANCH   2   3
TORSDOF 14
ENDMDL
MODEL      435
REMARK 921   NORMALIZED FREE ENERGY PREDICTED BY IDOCK:   14.01 KCAL/MOL
REMARK 922        TOTAL FREE ENERGY PREDICTED BY IDOCK:   22.68 KCAL/MOL
REMARK 923 INTER-LIGAND FREE ENERGY PREDICTED BY IDOCK:   18.25 KCAL/MOL
REMARK 924 INTRA-LIGAND FREE ENERGY PREDICTED BY IDOCK:    4.43 KCAL/MOL
REMARK 927      BINDING AFFINITY PREDICTED BY RF-SCORE:    0.00 PKD
ROOT
HETATM    1  C   UNL     1      -7.150  15.819  71.355  1.00  0.00     3.072 C  
HETATM    2  C   UNL     1      -7.598  16.155  69.938  1.00  0.00     0.483 C  
ENDROOT
BRANCH   2   3
HETATM    3  N   UNL     1      -8.661  17.154  69.786  1.00  0.00     0.894 NA 
BRANCH   3   4
HETATM    4  C   UNL     1      -8.692  18.201  70.824  1.00  0.00     5.383 C  
BRANCH   4   5
HETATM    5  C   UNL     1      -9.535  19.430  70.454  1.00  0.00     1.301 C  
BRANCH   5   6
HETATM    6  C   UNL     1     -11.030  19.108  70.443  1.00  0.00     3.075 C  
BRANCH   6   7
HETATM    7  C   UNL     1     -11.285  17.771  71.131  1.00  0.00     2.600 C  
BRANCH   7   8
HETATM    8  O   UNL     1     -11.073  16.699  70.203  1.00  0.00    -0.310 OA 
BRANCH   8   9
HETATM    9  C   UNL     1     -12.139  15.882  70.015  1.00  0.00    -0.244 C  
HETATM   10  O   UNL     1     -13.206  15.929  70.604  1.00  0.00    -0.447 OA 
BRANCH   9  11
HETATM   11  C   UNL     1     -11.814  14.859  68.994  1.00  0.00    -0.333 A  
HETATM   12  C   UNL     1     -11.782  15.162  67.628  1.00  0.00    -0.233 A  
HETATM   13  C   UNL     1     -11.496  14.164  66.692  1.00  0.00    -0.366 A  
HETATM   14  C   UNL     1     -11.254  12.558  68.501  1.00  0.00    -0.322 A  
HETATM   15  C   UNL     1     -11.228  12.849  67.134  1.00  0.00    -0.289 A  
HETATM   16  C   UNL     1     -11.557  13.556  69.430  1.00  0.00    -0.369 A  
BRANCH  13  17
HETATM   17  O   UNL     1     -11.462  14.365  65.334  1.00  0.00    -0.327 OA 
HETATM   18  C   UNL     1     -10.222  14.173  64.667  1.00  0.00    -0.161 C  
ENDBRANCH  13  17
BRANCH  15  19
HETATM   19  O   UNL     1     -10.958  11.926  66.155  1.00  0.00    -0.284 OA 
HETATM   20  C   UNL     1      -9.594  11.701  65.824  1.00  0.00    -0.232 C  
ENDBRANCH  15  19
ENDBRANCH   9  11
ENDBRANCH   8   9
ENDBRANCH   7   8
ENDBRANCH   6   7
ENDBRANCH   5   6
ENDBRANCH   4   5
ENDBRANCH   3   4
BRANCH   3  21
HETATM   21  C   UNL     1      -8.886  17.697  68.423  1.00  0.00    -0.281 C  
HETATM   22  C   UNL     1      -8.554  19.190  68.253  1.00  0.00    -0.370 C  
BRANCH  21  23
HETATM   23  C   UNL     1      -8.187  16.901  67.280  1.00  0.00    -0.205 C  
BRANCH  23  24
HETATM   24  C   UNL     1      -7.714  17.724  66.099  1.00  0.00    -0.280 A  
HETATM   25  C   UNL     1      -5.998  18.267  64.457  1.00  0.00     0.389 A  
HETATM   26  C   UNL     1      -6.796  19.285  63.938  1.00  0.00     2.131 A  
HETATM   27  C   UNL     1      -8.503  18.757  65.580  1.00  0.00     0.589 A  
HETATM   28  C   UNL     1      -8.051  19.521  64.501  1.00  0.00     3.328 A  
HETATM   29  C   UNL     1      -6.455  17.493  65.531  1.00  0.00     0.254 A  
BRANCH  26  30
HETATM   30  O   UNL     1      -6.486  20.069  62.860  1.00  0.00    -0.001 OA 
HETATM   31  C   UNL     1      -5.186  20.648  62.857  1.00  0.00    -0.194 C  
ENDBRANCH  26  30
ENDBRANCH  23  24
ENDBRANCH  21  23
ENDBRANCH   3  21
ENDBRANCH   2   3
TORSDOF 14
ENDMDL
MODEL      436
REMARK 921   NORMALIZED FREE ENERGY PREDICTED BY IDOCK:   15.32 KCAL/MOL
REMARK 922        TOTAL FREE ENERGY PREDICTED BY IDOCK:   25.06 KCAL/MOL
REMARK 923 INTER-LIGAND FREE ENERGY PREDICTED BY IDOCK:   19.56 KCAL/MOL
REMARK 924 INTRA-LIGAND FREE ENERGY PREDICTED BY IDOCK:    5.50 KCAL/MOL
REMARK 927      BINDING AFFINITY PREDICTED BY RF-SCORE:    0.00 PKD
ROOT
HETATM    1  C   UNL     1     -10.117  14.380  74.160  1.00  0.00     7.601 C  
HETATM    2  C   UNL     1     -11.297  14.564  73.213  1.00  0.00     1.145 C  
ENDROOT
BRANCH   2   3
HETATM    3  N   UNL     1     -11.005  15.037  71.855  1.00  0.00     0.050 NA 
BRANCH   3   4
HETATM    4  C   UNL     1     -12.071  15.840  71.228  1.00  0.00    -0.437 C  
BRANCH   4   5
HETATM    5  C   UNL     1     -12.692  15.196  69.979  1.00  0.00    -0.200 C  
BRANCH   5   6
HETATM    6  C   UNL     1     -11.641  14.479  69.132  1.00  0.00    -0.331 C  
BRANCH   6   7
HETATM    7  C   UNL     1     -11.457  13.046  69.621  1.00  0.00    -0.183 C  
BRANCH   7   8
HETATM    8  O   UNL     1     -11.150  12.191  68.512  1.00  0.00    -0.219 OA 
BRANCH   8   9
HETATM    9  C   UNL     1      -9.941  12.406  67.936  1.00  0.00    -0.204 C  
HETATM   10  O   UNL     1      -9.445  13.487  67.668  1.00  0.00    -0.208 OA 
BRANCH   9  11
HETATM   11  C   UNL     1      -9.296  11.110  67.624  1.00  0.00    -0.169 A  
HETATM   12  C   UNL     1      -8.648  10.882  66.404  1.00  0.00    -0.160 A  
HETATM   13  C   UNL     1      -8.073   9.636  66.135  1.00  0.00    -0.108 A  
HETATM   14  C   UNL     1      -8.781   8.853  68.325  1.00  0.00    -0.134 A  
HETATM   15  C   UNL     1      -8.139   8.612  67.107  1.00  0.00    -0.100 A  
HETATM   16  C   UNL     1      -9.368  10.094  68.581  1.00  0.00    -0.161 A  
BRANCH  13  17
HETATM   17  O   UNL     1      -7.436   9.317  64.961  1.00  0.00    -0.102 OA 
HETATM   18  C   UNL     1      -7.671  10.148  63.833  1.00  0.00    -0.140 C  
ENDBRANCH  13  17
BRANCH  15  19
HETATM   19  O   UNL     1      -7.553   7.419  66.767  1.00  0.00    -0.096 OA 
HETATM   20  C   UNL     1      -8.051   6.748  65.617  1.00  0.00    -0.122 C  
ENDBRANCH  15  19
ENDBRANCH   9  11
ENDBRANCH   8   9
ENDBRANCH   7   8
ENDBRANCH   6   7
ENDBRANCH   5   6
ENDBRANCH   4   5
ENDBRANCH   3   4
BRANCH   3  21
HETATM   21  C   UNL     1      -9.652  15.595  71.611  1.00  0.00     3.724 C  
HETATM   22  C   UNL     1      -8.662  14.632  70.932  1.00  0.00     2.929 C  
BRANCH  21  23
HETATM   23  C   UNL     1      -9.634  16.949  70.840  1.00  0.00     3.829 C  
BRANCH  23  24
HETATM   24  C   UNL     1      -9.974  16.871  69.366  1.00  0.00    -0.113 A  
HETATM   25  C   UNL     1     -11.359  17.549  67.479  1.00  0.00     0.480 A  
HETATM   26  C   UNL     1     -10.655  16.692  66.635  1.00  0.00    -0.203 A  
HETATM   27  C   UNL     1      -9.281  16.003  68.513  1.00  0.00    -0.206 A  
HETATM   28  C   UNL     1      -9.613  15.926  67.158  1.00  0.00    -0.224 A  
HETATM   29  C   UNL     1     -11.021  17.636  68.836  1.00  0.00     0.367 A  
BRANCH  26  30
HETATM   30  O   UNL     1     -10.854  16.561  65.288  1.00  0.00    -0.450 OA 
HETATM   31  C   UNL     1      -9.747  16.886  64.455  1.00  0.00     3.709 C  
ENDBRANCH  26  30
ENDBRANCH  23  24
ENDBRANCH  21  23
ENDBRANCH   3  21
ENDBRANCH   2   3
TORSDOF 14
ENDMDL
MODEL      437
REMARK 921   NORMALIZED FREE ENERGY PREDICTED BY IDOCK:   17.21 KCAL/MOL
REMARK 922        TOTAL FREE ENERGY PREDICTED BY IDOCK:   28.50 KCAL/MOL
REMARK 923 INTER-LIGAND FREE ENERGY PREDICTED BY IDOCK:   22.21 KCAL/MOL
REMARK 924 INTRA-LIGAND FREE ENERGY PREDICTED BY IDOCK:    6.29 KCAL/MOL
REMARK 927      BINDING AFFINITY PREDICTED BY RF-SCORE:    0.00 PKD
ROOT
HETATM    1  C   UNL     1      -7.936  17.026  71.842  1.00  0.00    11.543 C  
HETATM    2  C   UNL     1      -9.409  17.329  71.594  1.00  0.00     8.993 C  
ENDROOT
BRANCH   2   3
HETATM    3  N   UNL     1     -10.003  16.822  70.352  1.00  0.00     1.050 NA 
BRANCH   3   4
HETATM    4  C   UNL     1      -9.187  17.020  69.140  1.00  0.00    -0.073 C  
BRANCH   4   5
HETATM    5  C   UNL     1      -9.624  16.164  67.941  1.00  0.00    -0.223 C  
BRANCH   5   6
HETATM    6  C   UNL     1      -8.493  15.992  66.927  1.00  0.00    -0.275 C  
BRANCH   6   7
HETATM    7  C   UNL     1      -9.009  15.293  65.674  1.00  0.00     0.444 C  
BRANCH   7   8
HETATM    8  O   UNL     1      -8.299  14.064  65.475  1.00  0.00     2.126 OA 
BRANCH   8   9
HETATM    9  C   UNL     1      -9.068  12.947  65.481  1.00  0.00     0.598 C  
HETATM   10  O   UNL     1     -10.135  12.795  64.909  1.00  0.00    -0.274 OA 
BRANCH   9  11
HETATM   11  C   UNL     1      -8.445  11.912  66.337  1.00  0.00    -0.039 A  
HETATM   12  C   UNL     1      -9.213  10.998  67.068  1.00  0.00    -0.164 A  
HETATM   13  C   UNL     1      -8.588  10.051  67.886  1.00  0.00    -0.121 A  
HETATM   14  C   UNL     1      -6.421  10.928  67.222  1.00  0.00    -0.072 A  
HETATM   15  C   UNL     1      -7.178  10.015  67.962  1.00  0.00    -0.082 A  
HETATM   16  C   UNL     1      -7.050  11.882  66.420  1.00  0.00     0.327 A  
BRANCH  13  17
HETATM   17  O   UNL     1      -9.260   9.129  68.652  1.00  0.00    -0.136 OA 
HETATM   18  C   UNL     1      -8.932   9.050  70.032  1.00  0.00    -0.175 C  
ENDBRANCH  13  17
BRANCH  15  19
HETATM   19  O   UNL     1      -6.641   9.060  68.788  1.00  0.00    -0.052 OA 
HETATM   20  C   UNL     1      -5.226   9.018  68.909  1.00  0.00    -0.037 C  
ENDBRANCH  15  19
ENDBRANCH   9  11
ENDBRANCH   8   9
ENDBRANCH   7   8
ENDBRANCH   6   7
ENDBRANCH   5   6
ENDBRANCH   4   5
ENDBRANCH   3   4
BRANCH   3  21
HETATM   21  C   UNL     1     -10.628  15.476  70.404  1.00  0.00    -0.271 C  
HETATM   22  C   UNL     1     -12.163  15.467  70.293  1.00  0.00    -0.432 C  
BRANCH  21  23
HETATM   23  C   UNL     1     -10.052  14.449  69.385  1.00  0.00     0.041 C  
BRANCH  23  24
HETATM   24  C   UNL     1     -10.989  14.029  68.272  1.00  0.00    -0.272 A  
HETATM   25  C   UNL     1     -12.370  14.599  66.346  1.00  0.00    -0.069 A  
HETATM   26  C   UNL     1     -12.781  13.273  66.230  1.00  0.00     0.129 A  
HETATM   27  C   UNL     1     -11.419  12.702  68.155  1.00  0.00    -0.359 A  
HETATM   28  C   UNL     1     -12.297  12.327  67.135  1.00  0.00     0.599 A  
HETATM   29  C   UNL     1     -11.481  14.974  67.362  1.00  0.00    -0.326 A  
BRANCH  26  30
HETATM   30  O   UNL     1     -13.599  12.775  65.252  1.00  0.00    -0.052 OA 
HETATM   31  C   UNL     1     -12.952  12.122  64.166  1.00  0.00    -0.137 C  
ENDBRANCH  26  30
ENDBRANCH  23  24
ENDBRANCH  21  23
ENDBRANCH   3  21
ENDBRANCH   2   3
TORSDOF 14
ENDMDL
MODEL      438
REMARK 921   NORMALIZED FREE ENERGY PREDICTED BY IDOCK:   21.26 KCAL/MOL
REMARK 922        TOTAL FREE ENERGY PREDICTED BY IDOCK:   35.87 KCAL/MOL
REMARK 923 INTER-LIGAND FREE ENERGY PREDICTED BY IDOCK:   31.85 KCAL/MOL
REMARK 924 INTRA-LIGAND FREE ENERGY PREDICTED BY IDOCK:    4.02 KCAL/MOL
REMARK 927      BINDING AFFINITY PREDICTED BY RF-SCORE:    0.00 PKD
ROOT
HETATM    1  C   UNL     1      -7.181  15.847  71.367  1.00  0.00     3.666 C  
HETATM    2  C   UNL     1      -7.724  16.310  70.020  1.00  0.00     0.917 C  
ENDROOT
BRANCH   2   3
HETATM    3  N   UNL     1      -8.690  17.414  70.025  1.00  0.00     1.718 NA 
BRANCH   3   4
HETATM    4  C   UNL     1      -8.128  18.740  69.710  1.00  0.00     0.836 C  
BRANCH   4   5
HETATM    5  C   UNL     1      -9.162  19.755  69.197  1.00  0.00    -0.090 C  
BRANCH   5   6
HETATM    6  C   UNL     1     -10.142  20.168  70.296  1.00  0.00     0.779 C  
BRANCH   6   7
HETATM    7  C   UNL     1      -9.718  19.569  71.632  1.00  0.00     3.292 C  
BRANCH   7   8
HETATM    8  O   UNL     1     -10.228  18.235  71.750  1.00  0.00     3.436 OA 
BRANCH   8   9
HETATM    9  C   UNL     1     -11.068  18.030  72.795  1.00  0.00     2.618 C  
HETATM   10  O   UNL     1     -11.354  18.833  73.668  1.00  0.00     1.321 OA 
BRANCH   9  11
HETATM   11  C   UNL     1     -11.580  16.641  72.763  1.00  0.00    -0.002 A  
HETATM   12  C   UNL     1     -12.566  16.237  71.854  1.00  0.00    -0.076 A  
HETATM   13  C   UNL     1     -13.042  14.923  71.872  1.00  0.00    -0.338 A  
HETATM   14  C   UNL     1     -11.527  14.413  73.702  1.00  0.00     1.094 A  
HETATM   15  C   UNL     1     -12.516  14.001  72.804  1.00  0.00     0.025 A  
HETATM   16  C   UNL     1     -11.066  15.731  73.691  1.00  0.00     1.751 A  
BRANCH  13  17
HETATM   17  O   UNL     1     -14.018  14.444  71.032  1.00  0.00    -0.240 OA 
HETATM   18  C   UNL     1     -14.376  15.240  69.911  1.00  0.00     2.958 C  
ENDBRANCH  13  17
BRANCH  15  19
HETATM   19  O   UNL     1     -13.037  12.733  72.760  1.00  0.00    -0.230 OA 
HETATM   20  C   UNL     1     -12.350  11.769  71.972  1.00  0.00     0.767 C  
ENDBRANCH  15  19
ENDBRANCH   9  11
ENDBRANCH   8   9
ENDBRANCH   7   8
ENDBRANCH   6   7
ENDBRANCH   5   6
ENDBRANCH   4   5
ENDBRANCH   3   4
BRANCH   3  21
HETATM   21  C   UNL     1      -9.994  17.173  69.357  1.00  0.00    -0.061 C  
HETATM   22  C   UNL     1     -10.229  17.991  68.075  1.00  0.00    -0.390 C  
BRANCH  21  23
HETATM   23  C   UNL     1     -10.304  15.676  69.053  1.00  0.00    -0.225 C  
BRANCH  23  24
HETATM   24  C   UNL     1     -11.152  15.416  67.826  1.00  0.00    -0.320 A  
HETATM   25  C   UNL     1     -11.588  14.151  65.789  1.00  0.00    -0.343 A  
HETATM   26  C   UNL     1     -12.689  14.957  65.506  1.00  0.00     0.257 A  
HETATM   27  C   UNL     1     -12.252  16.228  67.526  1.00  0.00     1.455 A  
HETATM   28  C   UNL     1     -13.020  15.991  66.383  1.00  0.00     4.010 A  
HETATM   29  C   UNL     1     -10.824  14.381  66.941  1.00  0.00    -0.301 A  
BRANCH  26  30
HETATM   30  O   UNL     1     -13.541  14.797  64.448  1.00  0.00     0.997 OA 
HETATM   31  C   UNL     1     -12.934  14.626  63.172  1.00  0.00     2.567 C  
ENDBRANCH  26  30
ENDBRANCH  23  24
ENDBRANCH  21  23
ENDBRANCH   3  21
ENDBRANCH   2   3
TORSDOF 14
ENDMDL
MODEL      439
REMARK 921   NORMALIZED FREE ENERGY PREDICTED BY IDOCK:   30.26 KCAL/MOL
REMARK 922        TOTAL FREE ENERGY PREDICTED BY IDOCK:   52.23 KCAL/MOL
REMARK 923 INTER-LIGAND FREE ENERGY PREDICTED BY IDOCK:   27.37 KCAL/MOL
REMARK 924 INTRA-LIGAND FREE ENERGY PREDICTED BY IDOCK:   24.86 KCAL/MOL
REMARK 927      BINDING AFFINITY PREDICTED BY RF-SCORE:    0.00 PKD
ROOT
HETATM    1  C   UNL     1      -7.335  10.248  70.476  1.00  0.00     0.237 C  
HETATM    2  C   UNL     1      -6.237  11.305  70.471  1.00  0.00     0.008 C  
ENDROOT
BRANCH   2   3
HETATM    3  N   UNL     1      -6.571  12.622  69.917  1.00  0.00     0.045 NA 
BRANCH   3   4
HETATM    4  C   UNL     1      -5.654  13.114  68.872  1.00  0.00    -0.073 C  
BRANCH   4   5
HETATM    5  C   UNL     1      -6.308  14.066  67.859  1.00  0.00    -0.169 C  
BRANCH   5   6
HETATM    6  C   UNL     1      -5.850  15.511  68.065  1.00  0.00    -0.147 C  
BRANCH   6   7
HETATM    7  C   UNL     1      -5.311  15.696  69.479  1.00  0.00    -0.105 C  
BRANCH   7   8
HETATM    8  O   UNL     1      -6.273  16.398  70.277  1.00  0.00    -0.113 OA 
BRANCH   8   9
HETATM    9  C   UNL     1      -7.328  16.907  69.592  1.00  0.00     0.300 C  
HETATM   10  O   UNL     1      -8.451  17.101  70.025  1.00  0.00     1.297 OA 
BRANCH   9  11
HETATM   11  C   UNL     1      -6.937  17.165  68.187  1.00  0.00    -0.178 A  
HETATM   12  C   UNL     1      -6.947  18.455  67.642  1.00  0.00    -0.208 A  
HETATM   13  C   UNL     1      -6.596  18.655  66.304  1.00  0.00    -0.212 A  
HETATM   14  C   UNL     1      -6.206  16.268  66.063  1.00  0.00     2.016 A  
HETATM   15  C   UNL     1      -6.220  17.551  65.507  1.00  0.00     0.280 A  
HETATM   16  C   UNL     1      -6.574  16.072  67.396  1.00  0.00    -0.224 A  
BRANCH  13  17
HETATM   17  O   UNL     1      -6.596  19.880  65.681  1.00  0.00    -0.222 OA 
HETATM   18  C   UNL     1      -5.841  20.925  66.277  1.00  0.00    -0.232 C  
ENDBRANCH  13  17
BRANCH  15  19
HETATM   19  O   UNL     1      -5.892  17.829  64.205  1.00  0.00     0.983 OA 
HETATM   20  C   UNL     1      -6.312  19.080  63.676  1.00  0.00     1.416 C  
ENDBRANCH  15  19
ENDBRANCH   9  11
ENDBRANCH   8   9
ENDBRANCH   7   8
ENDBRANCH   6   7
ENDBRANCH   5   6
ENDBRANCH   4   5
ENDBRANCH   3   4
BRANCH   3  21
HETATM   21  C   UNL     1      -7.997  12.875  69.590  1.00  0.00     1.393 C  
HETATM   22  C   UNL     1      -8.721  11.708  68.895  1.00  0.00     0.078 C  
BRANCH  21  23
HETATM   23  C   UNL     1      -8.867  13.354  70.790  1.00  0.00     6.976 C  
BRANCH  23  24
HETATM   24  C   UNL     1      -9.624  14.648  70.579  1.00  0.00     1.452 A  
HETATM   25  C   UNL     1     -11.281  15.950  69.355  1.00  0.00    -0.336 A  
HETATM   26  C   UNL     1     -11.001  17.069  70.135  1.00  0.00     0.391 A  
HETATM   27  C   UNL     1      -9.340  15.782  71.350  1.00  0.00     3.759 A  
HETATM   28  C   UNL     1     -10.033  16.977  71.136  1.00  0.00     3.692 A  
HETATM   29  C   UNL     1     -10.596  14.748  69.575  1.00  0.00    -0.200 A  
BRANCH  26  30
HETATM   30  O   UNL     1     -11.639  18.277  70.054  1.00  0.00     3.537 OA 
HETATM   31  C   UNL     1     -10.804  19.419  69.904  1.00  0.00     1.928 C  
ENDBRANCH  26  30
ENDBRANCH  23  24
ENDBRANCH  21  23
ENDBRANCH   3  21
ENDBRANCH   2   3
TORSDOF 14
ENDMDL
MODEL      440
REMARK 921   NORMALIZED FREE ENERGY PREDICTED BY IDOCK:   35.11 KCAL/MOL
REMARK 922        TOTAL FREE ENERGY PREDICTED BY IDOCK:   61.06 KCAL/MOL
REMARK 923 INTER-LIGAND FREE ENERGY PREDICTED BY IDOCK:   39.20 KCAL/MOL
REMARK 924 INTRA-LIGAND FREE ENERGY PREDICTED BY IDOCK:   21.86 KCAL/MOL
REMARK 927      BINDING AFFINITY PREDICTED BY RF-SCORE:    0.00 PKD
ROOT
HETATM    1  C   UNL     1      -9.138  19.004  71.727  1.00  0.00     6.490 C  
HETATM    2  C   UNL     1      -7.615  18.952  71.686  1.00  0.00     5.384 C  
ENDROOT
BRANCH   2   3
HETATM    3  N   UNL     1      -6.997  17.845  70.948  1.00  0.00     2.664 NA 
BRANCH   3   4
HETATM    4  C   UNL     1      -7.917  16.760  70.560  1.00  0.00     3.351 C  
BRANCH   4   5
HETATM    5  C   UNL     1      -8.125  16.624  69.043  1.00  0.00    -0.199 C  
BRANCH   5   6
HETATM    6  C   UNL     1      -7.362  15.428  68.473  1.00  0.00    -0.116 C  
BRANCH   6   7
HETATM    7  C   UNL     1      -7.812  14.142  69.156  1.00  0.00     0.063 C  
BRANCH   7   8
HETATM    8  O   UNL     1      -8.541  14.455  70.350  1.00  0.00     1.326 OA 
BRANCH   8   9
HETATM    9  C   UNL     1      -9.866  14.684  70.171  1.00  0.00     0.636 C  
HETATM   10  O   UNL     1     -10.406  15.770  70.034  1.00  0.00    -0.299 OA 
BRANCH   9  11
HETATM   11  C   UNL     1     -10.607  13.402  70.208  1.00  0.00     1.604 A  
HETATM   12  C   UNL     1     -10.235  12.311  69.413  1.00  0.00     0.494 A  
HETATM   13  C   UNL     1     -10.975  11.126  69.456  1.00  0.00    -0.220 A  
HETATM   14  C   UNL     1     -12.449  12.122  71.111  1.00  0.00    -0.337 A  
HETATM   15  C   UNL     1     -12.092  11.030  70.316  1.00  0.00    -0.362 A  
HETATM   16  C   UNL     1     -11.717  13.310  71.051  1.00  0.00     0.524 A  
BRANCH  13  17
HETATM   17  O   UNL     1     -10.696  10.014  68.699  1.00  0.00    -0.209 OA 
HETATM   18  C   UNL     1      -9.331   9.699  68.463  1.00  0.00    -0.137 C  
ENDBRANCH  13  17
BRANCH  15  19
HETATM   19  O   UNL     1     -12.767   9.836  70.299  1.00  0.00     0.024 OA 
HETATM   20  C   UNL     1     -12.905   9.178  69.047  1.00  0.00     4.655 C  
ENDBRANCH  15  19
ENDBRANCH   9  11
ENDBRANCH   8   9
ENDBRANCH   7   8
ENDBRANCH   6   7
ENDBRANCH   5   6
ENDBRANCH   4   5
ENDBRANCH   3   4
BRANCH   3  21
HETATM   21  C   UNL     1      -6.049  18.204  69.863  1.00  0.00    -0.157 C  
HETATM   22  C   UNL     1      -5.212  17.034  69.316  1.00  0.00    -0.135 C  
BRANCH  21  23
HETATM   23  C   UNL     1      -6.690  18.960  68.660  1.00  0.00    -0.294 C  
BRANCH  23  24
HETATM   24  C   UNL     1      -8.180  19.211  68.760  1.00  0.00    -0.382 A  
HETATM   25  C   UNL     1     -10.219  20.204  67.867  1.00  0.00    -0.501 A  
HETATM   26  C   UNL     1     -10.944  19.737  68.961  1.00  0.00     1.277 A  
HETATM   27  C   UNL     1      -8.915  18.757  69.862  1.00  0.00     1.175 A  
HETATM   28  C   UNL     1     -10.286  19.008  69.953  1.00  0.00     0.891 A  
HETATM   29  C   UNL     1      -8.846  19.944  67.769  1.00  0.00    -0.390 A  
BRANCH  26  30
HETATM   30  O   UNL     1     -12.292  19.878  69.142  1.00  0.00     5.546 OA 
HETATM   31  C   UNL     1     -12.839  21.153  68.825  1.00  0.00     6.836 C  
ENDBRANCH  26  30
ENDBRANCH  23  24
ENDBRANCH  21  23
ENDBRANCH   3  21
ENDBRANCH   2   3
TORSDOF 14
ENDMDL
MODEL      441
REMARK 921   NORMALIZED FREE ENERGY PREDICTED BY IDOCK:   44.33 KCAL/MOL
REMARK 922        TOTAL FREE ENERGY PREDICTED BY IDOCK:   77.82 KCAL/MOL
REMARK 923 INTER-LIGAND FREE ENERGY PREDICTED BY IDOCK:   49.68 KCAL/MOL
REMARK 924 INTRA-LIGAND FREE ENERGY PREDICTED BY IDOCK:   28.14 KCAL/MOL
REMARK 927      BINDING AFFINITY PREDICTED BY RF-SCORE:    0.00 PKD
ROOT
HETATM    1  C   UNL     1      -9.142  19.000  71.738  1.00  0.00     6.490 C  
HETATM    2  C   UNL     1      -7.621  18.947  71.659  1.00  0.00     5.384 C  
ENDROOT
BRANCH   2   3
HETATM    3  N   UNL     1      -7.022  17.826  70.924  1.00  0.00     2.738 NA 
BRANCH   3   4
HETATM    4  C   UNL     1      -7.938  16.709  70.630  1.00  0.00     3.697 C  
BRANCH   4   5
HETATM    5  C   UNL     1      -8.237  16.517  69.135  1.00  0.00    -0.159 C  
BRANCH   5   6
HETATM    6  C   UNL     1      -7.471  15.328  68.554  1.00  0.00    -0.121 C  
BRANCH   6   7
HETATM    7  C   UNL     1      -7.817  14.054  69.317  1.00  0.00     0.202 C  
BRANCH   7   8
HETATM    8  O   UNL     1      -8.457  14.389  70.556  1.00  0.00     1.536 OA 
BRANCH   8   9
HETATM    9  C   UNL     1      -9.800  14.567  70.480  1.00  0.00     1.459 C  
HETATM   10  O   UNL     1     -10.570  14.702  71.416  1.00  0.00     0.641 OA 
BRANCH   9  11
HETATM   11  C   UNL     1     -10.232  14.529  69.064  1.00  0.00    -0.210 A  
HETATM   12  C   UNL     1      -9.627  15.328  68.086  1.00  0.00    -0.204 A  
HETATM   13  C   UNL     1     -10.080  15.284  66.764  1.00  0.00    -0.258 A  
HETATM   14  C   UNL     1     -11.737  13.624  67.402  1.00  0.00    -0.416 A  
HETATM   15  C   UNL     1     -11.145  14.422  66.419  1.00  0.00    -0.326 A  
HETATM   16  C   UNL     1     -11.291  13.684  68.724  1.00  0.00    -0.326 A  
BRANCH  13  17
HETATM   17  O   UNL     1      -9.560  16.043  65.744  1.00  0.00    -0.321 OA 
HETATM   18  C   UNL     1      -8.160  16.283  65.745  1.00  0.00     0.787 C  
ENDBRANCH  13  17
BRANCH  15  19
HETATM   19  O   UNL     1     -11.533  14.439  65.103  1.00  0.00    -0.334 OA 
HETATM   20  C   UNL     1     -11.524  15.692  64.432  1.00  0.00    -0.262 C  
ENDBRANCH  15  19
ENDBRANCH   9  11
ENDBRANCH   8   9
ENDBRANCH   7   8
ENDBRANCH   6   7
ENDBRANCH   5   6
ENDBRANCH   4   5
ENDBRANCH   3   4
BRANCH   3  21
HETATM   21  C   UNL     1      -6.148  18.165  69.773  1.00  0.00    -0.202 C  
HETATM   22  C   UNL     1      -5.323  16.992  69.215  1.00  0.00    -0.138 C  
BRANCH  21  23
HETATM   23  C   UNL     1      -6.874  18.868  68.587  1.00  0.00    -0.302 C  
BRANCH  23  24
HETATM   24  C   UNL     1      -8.359  19.104  68.772  1.00  0.00    -0.377 A  
HETATM   25  C   UNL     1     -10.464  20.038  67.974  1.00  0.00    -0.448 A  
HETATM   26  C   UNL     1     -11.111  19.603  69.129  1.00  0.00     1.851 A  
HETATM   27  C   UNL     1      -9.015  18.683  69.935  1.00  0.00     1.254 A  
HETATM   28  C   UNL     1     -10.382  18.921  70.103  1.00  0.00     1.271 A  
HETATM   29  C   UNL     1      -9.096  19.791  67.798  1.00  0.00    -0.412 A  
BRANCH  26  30
HETATM   30  O   UNL     1     -12.448  19.734  69.389  1.00  0.00     7.429 OA 
HETATM   31  C   UNL     1     -13.147  18.537  69.709  1.00  0.00    19.760 C  
ENDBRANCH  26  30
ENDBRANCH  23  24
ENDBRANCH  21  23
ENDBRANCH   3  21
ENDBRANCH   2   3
TORSDOF 14
ENDMDL
