MODEL        1
REMARK 921   NORMALIZED FREE ENERGY PREDICTED BY IDOCK:   -5.58 KCAL/MOL
REMARK 922        TOTAL FREE ENERGY PREDICTED BY IDOCK:   -8.12 KCAL/MOL
REMARK 923 INTER-LIGAND FREE ENERGY PREDICTED BY IDOCK:   -7.53 KCAL/MOL
REMARK 924 INTRA-LIGAND FREE ENERGY PREDICTED BY IDOCK:   -0.59 KCAL/MOL
REMARK 927      BINDING AFFINITY PREDICTED BY RF-SCORE:    0.00 PKD
ROOT
HETATM    1  C   UNL     1     -12.062  11.389  70.533  1.00  0.00    -0.487 C  
HETATM    2  C   UNL     1     -11.266  11.829  69.309  1.00  0.00    -0.318 C  
HETATM    3  C   UNL     1     -11.900  12.995  68.506  1.00  0.00    -0.360 C  
HETATM    4  C   UNL     1     -11.947  14.232  69.429  1.00  0.00    -0.381 C  
HETATM    5  C   UNL     1     -11.219  13.296  67.096  1.00  0.00    -0.327 C  
HETATM    6  C   UNL     1      -9.710  13.582  67.253  1.00  0.00    -0.236 C  
ENDROOT
BRANCH   5   7
HETATM    7  C   UNL     1     -11.893  14.546  66.440  1.00  0.00    -0.349 C  
BRANCH   7   8
HETATM    8  O   UNL     1     -10.979  15.252  65.581  1.00  0.00    -0.334 OA 
BRANCH   8   9
HETATM    9  C   UNL     1     -11.509  15.924  64.536  1.00  0.00    -0.283 C  
HETATM   10  H2  UNL     1     -12.606  14.171  64.123  1.00  0.00     0.000 HD 
HETATM   11  O   UNL     1     -11.261  17.072  64.209  1.00  0.00    -1.186 OA 
HETATM   12  N   UNL     1     -12.381  15.134  63.872  1.00  0.00    -1.038 N  
HETATM   13  H1  UNL     1     -12.782  15.641  63.083  1.00  0.00     0.000 HD 
ENDBRANCH   8   9
ENDBRANCH   7   8
ENDBRANCH   5   7
BRANCH   5  14
HETATM   14  C   UNL     1     -11.412  12.122  66.079  1.00  0.00    -0.370 C  
BRANCH  14  15
HETATM   15  O   UNL     1     -12.495  12.336  65.160  1.00  0.00    -0.563 OA 
BRANCH  15  16
HETATM   16  C   UNL     1     -12.270  11.980  63.874  1.00  0.00    -0.453 C  
HETATM   17  H1  UNL     1     -10.766  11.723  62.657  1.00  0.00     0.000 HD 
HETATM   18  H2  UNL     1     -10.214  12.232  64.306  1.00  0.00     0.000 HD 
HETATM   19  N   UNL     1     -10.937  11.991  63.626  1.00  0.00    -0.413 N  
HETATM   20  O   UNL     1     -13.092  11.620  63.054  1.00  0.00    -0.436 OA 
ENDBRANCH  15  16
ENDBRANCH  14  15
ENDBRANCH   5  14
TORSDOF 6
ENDMDL
MODEL        2
REMARK 921   NORMALIZED FREE ENERGY PREDICTED BY IDOCK:   -5.06 KCAL/MOL
REMARK 922        TOTAL FREE ENERGY PREDICTED BY IDOCK:   -7.42 KCAL/MOL
REMARK 923 INTER-LIGAND FREE ENERGY PREDICTED BY IDOCK:   -6.84 KCAL/MOL
REMARK 924 INTRA-LIGAND FREE ENERGY PREDICTED BY IDOCK:   -0.57 KCAL/MOL
REMARK 927      BINDING AFFINITY PREDICTED BY RF-SCORE:    0.00 PKD
ROOT
HETATM    1  C   UNL     1     -10.203  19.665  68.339  1.00  0.00    -0.553 C  
HETATM    2  C   UNL     1     -10.143  18.173  68.652  1.00  0.00    -0.406 C  
HETATM    3  C   UNL     1     -10.274  17.243  67.418  1.00  0.00    -0.325 C  
HETATM    4  C   UNL     1      -9.068  17.515  66.493  1.00  0.00    -0.284 C  
HETATM    5  C   UNL     1     -10.466  15.695  67.752  1.00  0.00    -0.273 C  
HETATM    6  C   UNL     1      -9.315  15.167  68.635  1.00  0.00    -0.199 C  
ENDROOT
BRANCH   5   7
HETATM    7  C   UNL     1     -10.492  14.868  66.425  1.00  0.00    -0.299 C  
BRANCH   7   8
HETATM    8  O   UNL     1     -11.784  14.923  65.792  1.00  0.00    -0.296 OA 
BRANCH   8   9
HETATM    9  C   UNL     1     -11.834  15.412  64.534  1.00  0.00    -0.256 C  
HETATM   10  H2  UNL     1     -12.735  13.585  63.990  1.00  0.00     0.000 HD 
HETATM   11  O   UNL     1     -11.437  16.504  64.162  1.00  0.00    -1.059 OA 
HETATM   12  N   UNL     1     -12.396  14.504  63.706  1.00  0.00    -1.087 N  
HETATM   13  H1  UNL     1     -12.434  14.873  62.756  1.00  0.00     0.000 HD 
ENDBRANCH   8   9
ENDBRANCH   7   8
ENDBRANCH   5   7
BRANCH   5  14
HETATM   14  C   UNL     1     -11.830  15.406  68.464  1.00  0.00    -0.272 C  
BRANCH  14  15
HETATM   15  O   UNL     1     -11.680  14.874  69.790  1.00  0.00    -0.270 OA 
BRANCH  15  16
HETATM   16  C   UNL     1     -12.474  15.412  70.745  1.00  0.00    -0.423 C  
HETATM   17  H1  UNL     1     -12.320  16.558  72.316  1.00  0.00     0.000 HD 
HETATM   18  H2  UNL     1     -10.713  16.286  71.526  1.00  0.00     0.000 HD 
HETATM   19  N   UNL     1     -11.722  16.153  71.596  1.00  0.00    -0.494 N  
HETATM   20  O   UNL     1     -13.685  15.336  70.825  1.00  0.00    -0.345 OA 
ENDBRANCH  15  16
ENDBRANCH  14  15
ENDBRANCH   5  14
TORSDOF 6
ENDMDL
MODEL        3
REMARK 921   NORMALIZED FREE ENERGY PREDICTED BY IDOCK:   -5.01 KCAL/MOL
REMARK 922        TOTAL FREE ENERGY PREDICTED BY IDOCK:   -7.36 KCAL/MOL
REMARK 923 INTER-LIGAND FREE ENERGY PREDICTED BY IDOCK:   -6.91 KCAL/MOL
REMARK 924 INTRA-LIGAND FREE ENERGY PREDICTED BY IDOCK:   -0.44 KCAL/MOL
REMARK 927      BINDING AFFINITY PREDICTED BY RF-SCORE:    0.00 PKD
ROOT
HETATM    1  C   UNL     1     -10.657  19.330  67.095  1.00  0.00    -0.575 C  
HETATM    2  C   UNL     1     -10.426  18.000  67.804  1.00  0.00    -0.421 C  
HETATM    3  C   UNL     1     -10.784  16.745  66.967  1.00  0.00    -0.161 C  
HETATM    4  C   UNL     1      -9.852  16.718  65.737  1.00  0.00    -0.209 C  
HETATM    5  C   UNL     1     -10.789  15.370  67.775  1.00  0.00    -0.302 C  
HETATM    6  C   UNL     1      -9.430  15.121  68.462  1.00  0.00    -0.203 C  
ENDROOT
BRANCH   5   7
HETATM    7  C   UNL     1     -11.073  14.183  66.796  1.00  0.00    -0.310 C  
BRANCH   7   8
HETATM    8  O   UNL     1     -12.407  14.249  66.259  1.00  0.00    -0.443 OA 
BRANCH   8   9
HETATM    9  C   UNL     1     -12.609  13.694  65.043  1.00  0.00    -0.390 C  
HETATM   10  H2  UNL     1     -12.095  15.574  64.236  1.00  0.00     0.000 HD 
HETATM   11  O   UNL     1     -12.951  12.546  64.816  1.00  0.00    -0.827 OA 
HETATM   12  N   UNL     1     -12.380  14.608  64.074  1.00  0.00    -0.999 N  
HETATM   13  H1  UNL     1     -12.533  14.189  63.156  1.00  0.00     0.000 HD 
ENDBRANCH   8   9
ENDBRANCH   7   8
ENDBRANCH   5   7
BRANCH   5  14
HETATM   14  C   UNL     1     -11.923  15.317  68.853  1.00  0.00    -0.264 C  
BRANCH  14  15
HETATM   15  O   UNL     1     -11.472  15.660  70.173  1.00  0.00    -0.289 OA 
BRANCH  15  16
HETATM   16  C   UNL     1     -12.427  15.751  71.128  1.00  0.00    -0.436 C  
HETATM   17  H1  UNL     1     -12.572  16.137  73.035  1.00  0.00     0.000 HD 
HETATM   18  H2  UNL     1     -10.855  16.217  72.465  1.00  0.00     0.000 HD 
HETATM   19  N   UNL     1     -11.853  16.069  72.315  1.00  0.00    -0.497 N  
HETATM   20  O   UNL     1     -13.630  15.650  70.980  1.00  0.00    -0.588 OA 
ENDBRANCH  15  16
ENDBRANCH  14  15
ENDBRANCH   5  14
TORSDOF 6
ENDMDL
MODEL        4
REMARK 921   NORMALIZED FREE ENERGY PREDICTED BY IDOCK:   -4.85 KCAL/MOL
REMARK 922        TOTAL FREE ENERGY PREDICTED BY IDOCK:   -7.14 KCAL/MOL
REMARK 923 INTER-LIGAND FREE ENERGY PREDICTED BY IDOCK:   -6.61 KCAL/MOL
REMARK 924 INTRA-LIGAND FREE ENERGY PREDICTED BY IDOCK:   -0.53 KCAL/MOL
REMARK 927      BINDING AFFINITY PREDICTED BY RF-SCORE:    0.00 PKD
ROOT
HETATM    1  C   UNL     1     -10.098  19.560  68.858  1.00  0.00    -0.486 C  
HETATM    2  C   UNL     1      -9.606  18.303  68.149  1.00  0.00    -0.316 C  
HETATM    3  C   UNL     1     -10.503  17.823  66.978  1.00  0.00    -0.324 C  
HETATM    4  C   UNL     1     -10.500  18.928  65.899  1.00  0.00    -0.450 C  
HETATM    5  C   UNL     1     -10.144  16.382  66.395  1.00  0.00    -0.328 C  
HETATM    6  C   UNL     1      -8.673  16.317  65.935  1.00  0.00    -0.134 C  
ENDROOT
BRANCH   5   7
HETATM    7  C   UNL     1     -11.061  16.066  65.168  1.00  0.00    -0.283 C  
BRANCH   7   8
HETATM    8  O   UNL     1     -11.010  14.672  64.814  1.00  0.00    -0.392 OA 
BRANCH   8   9
HETATM    9  C   UNL     1     -12.184  14.064  64.536  1.00  0.00    -0.434 C  
HETATM   10  H2  UNL     1     -11.436  13.785  62.584  1.00  0.00     0.000 HD 
HETATM   11  O   UNL     1     -13.115  13.894  65.305  1.00  0.00    -0.777 OA 
HETATM   12  N   UNL     1     -12.199  13.655  63.248  1.00  0.00    -1.063 N  
HETATM   13  H1  UNL     1     -13.085  13.196  63.037  1.00  0.00     0.000 HD 
ENDBRANCH   8   9
ENDBRANCH   7   8
ENDBRANCH   5   7
BRANCH   5  14
HETATM   14  C   UNL     1     -10.406  15.239  67.432  1.00  0.00    -0.256 C  
BRANCH  14  15
HETATM   15  O   UNL     1     -11.733  15.262  67.983  1.00  0.00    -0.342 OA 
BRANCH  15  16
HETATM   16  C   UNL     1     -11.821  15.261  69.333  1.00  0.00    -0.343 C  
HETATM   17  H1  UNL     1     -12.305  14.042  70.778  1.00  0.00     0.000 HD 
HETATM   18  H2  UNL     1     -12.452  13.249  69.155  1.00  0.00     0.000 HD 
HETATM   19  N   UNL     1     -12.238  14.043  69.760  1.00  0.00    -0.342 N  
HETATM   20  O   UNL     1     -11.511  16.158  70.093  1.00  0.00    -0.340 OA 
ENDBRANCH  15  16
ENDBRANCH  14  15
ENDBRANCH   5  14
TORSDOF 6
ENDMDL
MODEL        5
REMARK 921   NORMALIZED FREE ENERGY PREDICTED BY IDOCK:   -4.81 KCAL/MOL
REMARK 922        TOTAL FREE ENERGY PREDICTED BY IDOCK:   -7.09 KCAL/MOL
REMARK 923 INTER-LIGAND FREE ENERGY PREDICTED BY IDOCK:   -6.62 KCAL/MOL
REMARK 924 INTRA-LIGAND FREE ENERGY PREDICTED BY IDOCK:   -0.47 KCAL/MOL
REMARK 927      BINDING AFFINITY PREDICTED BY RF-SCORE:    0.00 PKD
ROOT
HETATM    1  C   UNL     1      -9.225  17.463  68.271  1.00  0.00    -0.271 C  
HETATM    2  C   UNL     1      -9.553  15.985  68.083  1.00  0.00    -0.209 C  
HETATM    3  C   UNL     1     -10.708  15.697  67.088  1.00  0.00    -0.314 C  
HETATM    4  C   UNL     1     -10.266  16.197  65.696  1.00  0.00    -0.390 C  
HETATM    5  C   UNL     1     -11.228  14.189  67.072  1.00  0.00    -0.328 C  
HETATM    6  C   UNL     1     -10.077  13.204  66.775  1.00  0.00    -0.253 C  
ENDROOT
BRANCH   5   7
HETATM    7  C   UNL     1     -12.321  14.020  65.966  1.00  0.00    -0.473 C  
BRANCH   7   8
HETATM    8  O   UNL     1     -12.123  12.814  65.205  1.00  0.00    -0.405 OA 
BRANCH   8   9
HETATM    9  C   UNL     1     -12.530  12.825  63.917  1.00  0.00    -0.367 C  
HETATM   10  H2  UNL     1     -11.705  14.762  63.800  1.00  0.00     0.000 HD 
HETATM   11  O   UNL     1     -13.118  11.930  63.333  1.00  0.00    -0.710 OA 
HETATM   12  N   UNL     1     -12.194  13.997  63.336  1.00  0.00    -1.112 N  
HETATM   13  H1  UNL     1     -12.502  14.006  62.363  1.00  0.00     0.000 HD 
ENDBRANCH   8   9
ENDBRANCH   7   8
ENDBRANCH   5   7
BRANCH   5  14
HETATM   14  C   UNL     1     -11.914  13.781  68.419  1.00  0.00    -0.360 C  
BRANCH  14  15
HETATM   15  O   UNL     1     -11.177  12.794  69.158  1.00  0.00    -0.256 OA 
BRANCH  15  16
HETATM   16  C   UNL     1     -11.860  11.684  69.521  1.00  0.00    -0.348 C  
HETATM   17  H1  UNL     1     -12.813  10.979  71.070  1.00  0.00     0.000 HD 
HETATM   18  H2  UNL     1     -12.138  12.629  71.393  1.00  0.00     0.000 HD 
HETATM   19  N   UNL     1     -12.298  11.816  70.797  1.00  0.00    -0.374 N  
HETATM   20  O   UNL     1     -12.133  10.726  68.823  1.00  0.00    -0.451 OA 
ENDBRANCH  15  16
ENDBRANCH  14  15
ENDBRANCH   5  14
TORSDOF 6
ENDMDL
MODEL        6
REMARK 921   NORMALIZED FREE ENERGY PREDICTED BY IDOCK:   -4.79 KCAL/MOL
REMARK 922        TOTAL FREE ENERGY PREDICTED BY IDOCK:   -7.06 KCAL/MOL
REMARK 923 INTER-LIGAND FREE ENERGY PREDICTED BY IDOCK:   -6.34 KCAL/MOL
REMARK 924 INTRA-LIGAND FREE ENERGY PREDICTED BY IDOCK:   -0.72 KCAL/MOL
REMARK 927      BINDING AFFINITY PREDICTED BY RF-SCORE:    0.00 PKD
ROOT
HETATM    1  C   UNL     1     -12.390  11.004  70.860  1.00  0.00    -0.503 C  
HETATM    2  C   UNL     1     -11.525  11.437  69.681  1.00  0.00    -0.380 C  
HETATM    3  C   UNL     1     -12.092  12.624  68.859  1.00  0.00    -0.164 C  
HETATM    4  C   UNL     1     -12.155  13.853  69.791  1.00  0.00    -0.404 C  
HETATM    5  C   UNL     1     -11.336  12.921  67.486  1.00  0.00    -0.354 C  
HETATM    6  C   UNL     1      -9.831  13.170  67.720  1.00  0.00    -0.228 C  
ENDROOT
BRANCH   5   7
HETATM    7  C   UNL     1     -11.949  14.192  66.811  1.00  0.00    -0.447 C  
BRANCH   7   8
HETATM    8  O   UNL     1     -12.571  13.874  65.552  1.00  0.00    -0.489 OA 
BRANCH   8   9
HETATM    9  C   UNL     1     -12.213  14.618  64.483  1.00  0.00    -0.456 C  
HETATM   10  H2  UNL     1     -13.063  13.098  63.294  1.00  0.00     0.000 HD 
HETATM   11  O   UNL     1     -11.637  15.693  64.505  1.00  0.00    -0.392 OA 
HETATM   12  N   UNL     1     -12.583  13.997  63.342  1.00  0.00    -1.030 N  
HETATM   13  H1  UNL     1     -12.312  14.558  62.534  1.00  0.00     0.000 HD 
ENDBRANCH   8   9
ENDBRANCH   7   8
ENDBRANCH   5   7
BRANCH   5  14
HETATM   14  C   UNL     1     -11.507  11.760  66.450  1.00  0.00    -0.239 C  
BRANCH  14  15
HETATM   15  O   UNL     1     -10.272  11.357  65.836  1.00  0.00    -0.230 OA 
BRANCH  15  16
HETATM   16  C   UNL     1     -10.348  10.953  64.547  1.00  0.00    -0.348 C  
HETATM   17  H1  UNL     1      -9.489   9.674  63.350  1.00  0.00     0.000 HD 
HETATM   18  H2  UNL     1      -8.785   9.607  65.018  1.00  0.00     0.000 HD 
HETATM   19  N   UNL     1      -9.432   9.979  64.322  1.00  0.00    -0.292 N  
HETATM   20  O   UNL     1     -11.146  11.318  63.705  1.00  0.00    -0.380 OA 
ENDBRANCH  15  16
ENDBRANCH  14  15
ENDBRANCH   5  14
TORSDOF 6
ENDMDL
MODEL        7
REMARK 921   NORMALIZED FREE ENERGY PREDICTED BY IDOCK:   -4.78 KCAL/MOL
REMARK 922        TOTAL FREE ENERGY PREDICTED BY IDOCK:   -7.05 KCAL/MOL
REMARK 923 INTER-LIGAND FREE ENERGY PREDICTED BY IDOCK:   -6.39 KCAL/MOL
REMARK 924 INTRA-LIGAND FREE ENERGY PREDICTED BY IDOCK:   -0.66 KCAL/MOL
REMARK 927      BINDING AFFINITY PREDICTED BY RF-SCORE:    0.00 PKD
ROOT
HETATM    1  C   UNL     1     -13.244  13.485  71.579  1.00  0.00    -0.402 C  
HETATM    2  C   UNL     1     -12.275  13.519  70.401  1.00  0.00    -0.426 C  
HETATM    3  C   UNL     1     -12.018  14.929  69.810  1.00  0.00    -0.366 C  
HETATM    4  C   UNL     1     -11.355  15.787  70.908  1.00  0.00    -0.426 C  
HETATM    5  C   UNL     1     -11.214  14.950  68.432  1.00  0.00    -0.304 C  
HETATM    6  C   UNL     1      -9.856  14.228  68.567  1.00  0.00    -0.231 C  
ENDROOT
BRANCH   5   7
HETATM    7  C   UNL     1     -10.947  16.430  68.000  1.00  0.00    -0.327 C  
BRANCH   7   8
HETATM    8  O   UNL     1      -9.574  16.629  67.615  1.00  0.00    -0.235 OA 
BRANCH   8   9
HETATM    9  C   UNL     1      -9.349  17.205  66.414  1.00  0.00    -0.262 C  
HETATM   10  H2  UNL     1     -11.437  17.470  66.287  1.00  0.00     0.000 HD 
HETATM   11  O   UNL     1      -8.266  17.365  65.876  1.00  0.00    -0.537 OA 
HETATM   12  N   UNL     1     -10.519  17.593  65.861  1.00  0.00    -0.324 N  
HETATM   13  H1  UNL     1     -10.349  18.027  64.953  1.00  0.00     0.000 HD 
ENDBRANCH   8   9
ENDBRANCH   7   8
ENDBRANCH   5   7
BRANCH   5  14
HETATM   14  C   UNL     1     -12.023  14.301  67.261  1.00  0.00    -0.405 C  
BRANCH  14  15
HETATM   15  O   UNL     1     -11.549  14.682  65.959  1.00  0.00    -0.356 OA 
BRANCH  15  16
HETATM   16  C   UNL     1     -12.238  14.192  64.902  1.00  0.00    -0.438 C  
HETATM   17  H1  UNL     1     -13.078  12.526  64.335  1.00  0.00     0.000 HD 
HETATM   18  H2  UNL     1     -12.317  12.368  65.971  1.00  0.00     0.000 HD 
HETATM   19  N   UNL     1     -12.558  12.895  65.131  1.00  0.00    -0.512 N  
HETATM   20  O   UNL     1     -12.606  14.802  63.916  1.00  0.00    -0.834 OA 
ENDBRANCH  15  16
ENDBRANCH  14  15
ENDBRANCH   5  14
TORSDOF 6
ENDMDL
MODEL        8
REMARK 921   NORMALIZED FREE ENERGY PREDICTED BY IDOCK:   -4.74 KCAL/MOL
REMARK 922        TOTAL FREE ENERGY PREDICTED BY IDOCK:   -6.99 KCAL/MOL
REMARK 923 INTER-LIGAND FREE ENERGY PREDICTED BY IDOCK:   -6.23 KCAL/MOL
REMARK 924 INTRA-LIGAND FREE ENERGY PREDICTED BY IDOCK:   -0.76 KCAL/MOL
REMARK 927      BINDING AFFINITY PREDICTED BY RF-SCORE:    0.00 PKD
ROOT
HETATM    1  C   UNL     1     -10.019  19.902  67.964  1.00  0.00    -0.556 C  
HETATM    2  C   UNL     1      -9.837  18.523  68.590  1.00  0.00    -0.419 C  
HETATM    3  C   UNL     1     -10.745  17.414  67.997  1.00  0.00    -0.359 C  
HETATM    4  C   UNL     1     -10.367  17.241  66.510  1.00  0.00    -0.308 C  
HETATM    5  C   UNL     1     -10.748  16.038  68.804  1.00  0.00    -0.282 C  
HETATM    6  C   UNL     1      -9.321  15.469  68.945  1.00  0.00    -0.222 C  
ENDROOT
BRANCH   5   7
HETATM    7  C   UNL     1     -11.628  14.987  68.050  1.00  0.00    -0.338 C  
BRANCH   7   8
HETATM    8  O   UNL     1     -10.967  13.711  67.960  1.00  0.00    -0.240 OA 
BRANCH   8   9
HETATM    9  C   UNL     1     -11.680  12.622  68.322  1.00  0.00    -0.342 C  
HETATM   10  H2  UNL     1     -11.729  13.450  70.261  1.00  0.00     0.000 HD 
HETATM   11  O   UNL     1     -12.009  11.695  67.601  1.00  0.00    -0.618 OA 
HETATM   12  N   UNL     1     -11.992  12.689  69.635  1.00  0.00    -0.309 N  
HETATM   13  H1  UNL     1     -12.530  11.867  69.909  1.00  0.00     0.000 HD 
ENDBRANCH   8   9
ENDBRANCH   7   8
ENDBRANCH   5   7
BRANCH   5  14
HETATM   14  C   UNL     1     -11.382  16.185  70.227  1.00  0.00    -0.353 C  
BRANCH  14  15
HETATM   15  O   UNL     1     -12.687  15.593  70.335  1.00  0.00    -0.425 OA 
BRANCH  15  16
HETATM   16  C   UNL     1     -13.242  15.585  71.569  1.00  0.00    -0.509 C  
HETATM   17  H1  UNL     1     -14.813  14.865  72.474  1.00  0.00     0.000 HD 
HETATM   18  H2  UNL     1     -14.783  14.410  70.721  1.00  0.00     0.000 HD 
HETATM   19  N   UNL     1     -14.395  14.871  71.544  1.00  0.00    -0.513 N  
HETATM   20  O   UNL     1     -12.780  16.061  72.588  1.00  0.00    -0.436 OA 
ENDBRANCH  15  16
ENDBRANCH  14  15
ENDBRANCH   5  14
TORSDOF 6
ENDMDL
MODEL        9
REMARK 921   NORMALIZED FREE ENERGY PREDICTED BY IDOCK:   -4.73 KCAL/MOL
REMARK 922        TOTAL FREE ENERGY PREDICTED BY IDOCK:   -6.98 KCAL/MOL
REMARK 923 INTER-LIGAND FREE ENERGY PREDICTED BY IDOCK:   -6.57 KCAL/MOL
REMARK 924 INTRA-LIGAND FREE ENERGY PREDICTED BY IDOCK:   -0.41 KCAL/MOL
REMARK 927      BINDING AFFINITY PREDICTED BY RF-SCORE:    0.00 PKD
ROOT
HETATM    1  C   UNL     1     -10.351  10.091  66.308  1.00  0.00    -0.235 C  
HETATM    2  C   UNL     1     -10.227  11.573  66.649  1.00  0.00    -0.254 C  
HETATM    3  C   UNL     1     -11.136  12.052  67.810  1.00  0.00    -0.303 C  
HETATM    4  C   UNL     1     -10.703  11.301  69.088  1.00  0.00    -0.247 C  
HETATM    5  C   UNL     1     -11.205  13.633  68.009  1.00  0.00    -0.295 C  
HETATM    6  C   UNL     1      -9.798  14.231  68.219  1.00  0.00    -0.235 C  
ENDROOT
BRANCH   5   7
HETATM    7  C   UNL     1     -12.078  13.969  69.263  1.00  0.00    -0.338 C  
BRANCH   7   8
HETATM    8  O   UNL     1     -11.895  15.334  69.684  1.00  0.00    -0.301 OA 
BRANCH   8   9
HETATM    9  C   UNL     1     -12.497  15.708  70.835  1.00  0.00    -0.445 C  
HETATM   10  H2  UNL     1     -14.250  14.828  70.061  1.00  0.00     0.000 HD 
HETATM   11  O   UNL     1     -11.981  16.306  71.764  1.00  0.00    -0.478 OA 
HETATM   12  N   UNL     1     -13.793  15.326  70.824  1.00  0.00    -0.789 N  
HETATM   13  H1  UNL     1     -14.248  15.610  71.693  1.00  0.00     0.000 HD 
ENDBRANCH   8   9
ENDBRANCH   7   8
ENDBRANCH   5   7
BRANCH   5  14
HETATM   14  C   UNL     1     -11.892  14.355  66.802  1.00  0.00    -0.410 C  
BRANCH  14  15
HETATM   15  O   UNL     1     -10.997  15.195  66.056  1.00  0.00    -0.331 OA 
BRANCH  15  16
HETATM   16  C   UNL     1     -11.380  15.510  64.797  1.00  0.00    -0.357 C  
HETATM   17  H1  UNL     1     -12.236  14.665  63.261  1.00  0.00     0.000 HD 
HETATM   18  H2  UNL     1     -12.068  13.515  64.651  1.00  0.00     0.000 HD 
HETATM   19  N   UNL     1     -11.948  14.428  64.211  1.00  0.00    -0.438 N  
HETATM   20  O   UNL     1     -11.320  16.599  64.259  1.00  0.00    -1.116 OA 
ENDBRANCH  15  16
ENDBRANCH  14  15
ENDBRANCH   5  14
TORSDOF 6
ENDMDL
MODEL       10
REMARK 921   NORMALIZED FREE ENERGY PREDICTED BY IDOCK:   -4.68 KCAL/MOL
REMARK 922        TOTAL FREE ENERGY PREDICTED BY IDOCK:   -6.91 KCAL/MOL
REMARK 923 INTER-LIGAND FREE ENERGY PREDICTED BY IDOCK:   -6.57 KCAL/MOL
REMARK 924 INTRA-LIGAND FREE ENERGY PREDICTED BY IDOCK:   -0.34 KCAL/MOL
REMARK 927      BINDING AFFINITY PREDICTED BY RF-SCORE:    0.00 PKD
ROOT
HETATM    1  C   UNL     1      -5.902  18.069  65.781  1.00  0.00    -0.238 C  
HETATM    2  C   UNL     1      -7.244  18.759  66.000  1.00  0.00    -0.295 C  
HETATM    3  C   UNL     1      -8.086  18.190  67.172  1.00  0.00    -0.230 C  
HETATM    4  C   UNL     1      -7.293  18.418  68.476  1.00  0.00    -0.302 C  
HETATM    5  C   UNL     1      -9.586  18.726  67.253  1.00  0.00    -0.333 C  
HETATM    6  C   UNL     1      -9.624  20.267  67.335  1.00  0.00    -0.569 C  
ENDROOT
BRANCH   5   7
HETATM    7  C   UNL     1     -10.286  18.145  68.525  1.00  0.00    -0.384 C  
BRANCH   7   8
HETATM    8  O   UNL     1     -10.114  16.719  68.619  1.00  0.00    -0.247 OA 
BRANCH   8   9
HETATM    9  C   UNL     1     -10.971  16.047  69.417  1.00  0.00    -0.321 C  
HETATM   10  H2  UNL     1     -12.312  16.070  67.789  1.00  0.00     0.000 HD 
HETATM   11  O   UNL     1     -10.775  15.704  70.571  1.00  0.00    -0.320 OA 
HETATM   12  N   UNL     1     -12.120  15.794  68.752  1.00  0.00    -0.545 N  
HETATM   13  H1  UNL     1     -12.769  15.287  69.355  1.00  0.00     0.000 HD 
ENDBRANCH   8   9
ENDBRANCH   7   8
ENDBRANCH   5   7
BRANCH   5  14
HETATM   14  C   UNL     1     -10.452  18.258  66.036  1.00  0.00    -0.361 C  
BRANCH  14  15
HETATM   15  O   UNL     1     -10.061  16.976  65.518  1.00  0.00    -0.577 OA 
BRANCH  15  16
HETATM   16  C   UNL     1     -11.019  16.276  64.867  1.00  0.00    -0.307 C  
HETATM   17  H1  UNL     1     -11.969  14.579  65.025  1.00  0.00     0.000 HD 
HETATM   18  H2  UNL     1     -10.771  14.803  66.365  1.00  0.00     0.000 HD 
HETATM   19  N   UNL     1     -11.248  15.108  65.516  1.00  0.00    -0.340 N  
HETATM   20  O   UNL     1     -11.659  16.630  63.895  1.00  0.00    -1.204 OA 
ENDBRANCH  15  16
ENDBRANCH  14  15
ENDBRANCH   5  14
TORSDOF 6
ENDMDL
MODEL       11
REMARK 921   NORMALIZED FREE ENERGY PREDICTED BY IDOCK:   -4.64 KCAL/MOL
REMARK 922        TOTAL FREE ENERGY PREDICTED BY IDOCK:   -6.85 KCAL/MOL
REMARK 923 INTER-LIGAND FREE ENERGY PREDICTED BY IDOCK:   -6.50 KCAL/MOL
REMARK 924 INTRA-LIGAND FREE ENERGY PREDICTED BY IDOCK:   -0.35 KCAL/MOL
REMARK 927      BINDING AFFINITY PREDICTED BY RF-SCORE:    0.00 PKD
ROOT
HETATM    1  C   UNL     1      -7.290  13.223  67.622  1.00  0.00    -0.164 C  
HETATM    2  C   UNL     1      -8.773  13.446  67.900  1.00  0.00    -0.187 C  
HETATM    3  C   UNL     1      -9.727  12.933  66.791  1.00  0.00    -0.246 C  
HETATM    4  C   UNL     1      -9.557  11.402  66.694  1.00  0.00    -0.211 C  
HETATM    5  C   UNL     1     -11.251  13.381  66.946  1.00  0.00    -0.330 C  
HETATM    6  C   UNL     1     -11.823  12.951  68.313  1.00  0.00    -0.372 C  
ENDROOT
BRANCH   5   7
HETATM    7  C   UNL     1     -12.112  12.721  65.819  1.00  0.00    -0.448 C  
BRANCH   7   8
HETATM    8  O   UNL     1     -11.757  13.226  64.518  1.00  0.00    -0.346 OA 
BRANCH   8   9
HETATM    9  C   UNL     1     -11.369  12.321  63.592  1.00  0.00    -0.470 C  
HETATM   10  H2  UNL     1     -13.414  11.866  63.358  1.00  0.00     0.000 HD 
HETATM   11  O   UNL     1     -10.225  12.083  63.244  1.00  0.00    -0.438 OA 
HETATM   12  N   UNL     1     -12.448  11.688  63.084  1.00  0.00    -0.949 N  
HETATM   13  H1  UNL     1     -12.155  11.004  62.385  1.00  0.00     0.000 HD 
ENDBRANCH   8   9
ENDBRANCH   7   8
ENDBRANCH   5   7
BRANCH   5  14
HETATM   14  C   UNL     1     -11.436  14.926  66.778  1.00  0.00    -0.301 C  
BRANCH  14  15
HETATM   15  O   UNL     1     -10.391  15.546  66.011  1.00  0.00    -0.289 OA 
BRANCH  15  16
HETATM   16  C   UNL     1     -10.715  16.697  65.377  1.00  0.00    -0.215 C  
HETATM   17  H1  UNL     1     -10.593  18.622  65.663  1.00  0.00     0.000 HD 
HETATM   18  H2  UNL     1      -9.897  17.693  67.054  1.00  0.00     0.000 HD 
HETATM   19  N   UNL     1     -10.348  17.755  66.140  1.00  0.00    -0.374 N  
HETATM   20  O   UNL     1     -11.189  16.816  64.263  1.00  0.00    -1.163 OA 
ENDBRANCH  15  16
ENDBRANCH  14  15
ENDBRANCH   5  14
TORSDOF 6
ENDMDL
MODEL       12
REMARK 921   NORMALIZED FREE ENERGY PREDICTED BY IDOCK:   -4.58 KCAL/MOL
REMARK 922        TOTAL FREE ENERGY PREDICTED BY IDOCK:   -6.77 KCAL/MOL
REMARK 923 INTER-LIGAND FREE ENERGY PREDICTED BY IDOCK:   -6.35 KCAL/MOL
REMARK 924 INTRA-LIGAND FREE ENERGY PREDICTED BY IDOCK:   -0.42 KCAL/MOL
REMARK 927      BINDING AFFINITY PREDICTED BY RF-SCORE:    0.00 PKD
ROOT
HETATM    1  C   UNL     1      -8.709  16.261  66.048  1.00  0.00    -0.285 C  
HETATM    2  C   UNL     1     -10.011  15.725  66.636  1.00  0.00    -0.268 C  
HETATM    3  C   UNL     1     -10.097  14.179  66.724  1.00  0.00    -0.262 C  
HETATM    4  C   UNL     1      -8.989  13.700  67.685  1.00  0.00    -0.202 C  
HETATM    5  C   UNL     1     -11.537  13.601  67.095  1.00  0.00    -0.392 C  
HETATM    6  C   UNL     1     -12.049  14.191  68.427  1.00  0.00    -0.308 C  
ENDROOT
BRANCH   5   7
HETATM    7  C   UNL     1     -11.459  12.046  67.240  1.00  0.00    -0.335 C  
BRANCH   7   8
HETATM    8  O   UNL     1     -12.094  11.595  68.451  1.00  0.00    -0.522 OA 
BRANCH   8   9
HETATM    9  C   UNL     1     -11.526  10.550  69.092  1.00  0.00    -0.247 C  
HETATM   10  H2  UNL     1     -11.372   9.631  67.199  1.00  0.00     0.000 HD 
HETATM   11  O   UNL     1     -11.318  10.457  70.290  1.00  0.00    -0.284 OA 
HETATM   12  N   UNL     1     -11.208   9.581  68.205  1.00  0.00    -0.509 N  
HETATM   13  H1  UNL     1     -10.780   8.791  68.688  1.00  0.00     0.000 HD 
ENDBRANCH   8   9
ENDBRANCH   7   8
ENDBRANCH   5   7
BRANCH   5  14
HETATM   14  C   UNL     1     -12.595  13.875  65.975  1.00  0.00    -0.423 C  
BRANCH  14  15
HETATM   15  O   UNL     1     -12.830  12.742  65.123  1.00  0.00    -0.726 OA 
BRANCH  15  16
HETATM   16  C   UNL     1     -12.362  12.837  63.857  1.00  0.00    -0.426 C  
HETATM   17  H1  UNL     1     -11.280  11.804  62.604  1.00  0.00     0.000 HD 
HETATM   18  H2  UNL     1     -11.464  10.951  64.192  1.00  0.00     0.000 HD 
HETATM   19  N   UNL     1     -11.633  11.733  63.559  1.00  0.00    -0.432 N  
HETATM   20  O   UNL     1     -12.596  13.714  63.048  1.00  0.00    -0.729 OA 
ENDBRANCH  15  16
ENDBRANCH  14  15
ENDBRANCH   5  14
TORSDOF 6
ENDMDL
MODEL       13
REMARK 921   NORMALIZED FREE ENERGY PREDICTED BY IDOCK:   -4.57 KCAL/MOL
REMARK 922        TOTAL FREE ENERGY PREDICTED BY IDOCK:   -6.76 KCAL/MOL
REMARK 923 INTER-LIGAND FREE ENERGY PREDICTED BY IDOCK:   -6.28 KCAL/MOL
REMARK 924 INTRA-LIGAND FREE ENERGY PREDICTED BY IDOCK:   -0.48 KCAL/MOL
REMARK 927      BINDING AFFINITY PREDICTED BY RF-SCORE:    0.00 PKD
ROOT
HETATM    1  C   UNL     1      -7.159  10.757  67.365  1.00  0.00    -0.091 C  
HETATM    2  C   UNL     1      -8.336  11.677  67.670  1.00  0.00    -0.142 C  
HETATM    3  C   UNL     1      -9.523  11.566  66.678  1.00  0.00    -0.208 C  
HETATM    4  C   UNL     1     -10.089  10.134  66.780  1.00  0.00    -0.277 C  
HETATM    5  C   UNL     1     -10.643  12.691  66.833  1.00  0.00    -0.256 C  
HETATM    6  C   UNL     1     -11.213  12.719  68.267  1.00  0.00    -0.308 C  
ENDROOT
BRANCH   5   7
HETATM    7  C   UNL     1     -11.817  12.406  65.840  1.00  0.00    -0.405 C  
BRANCH   7   8
HETATM    8  O   UNL     1     -11.363  12.393  64.474  1.00  0.00    -0.304 OA 
BRANCH   8   9
HETATM    9  C   UNL     1     -12.268  12.704  63.520  1.00  0.00    -0.547 C  
HETATM   10  H2  UNL     1     -12.365  10.637  63.111  1.00  0.00     0.000 HD 
HETATM   11  O   UNL     1     -12.670  13.819  63.236  1.00  0.00    -0.783 OA 
HETATM   12  N   UNL     1     -12.685  11.581  62.895  1.00  0.00    -0.839 N  
HETATM   13  H1  UNL     1     -13.369  11.816  62.174  1.00  0.00     0.000 HD 
ENDBRANCH   8   9
ENDBRANCH   7   8
ENDBRANCH   5   7
BRANCH   5  14
HETATM   14  C   UNL     1     -10.109  14.117  66.469  1.00  0.00    -0.280 C  
BRANCH  14  15
HETATM   15  O   UNL     1     -11.154  15.062  66.187  1.00  0.00    -0.336 OA 
BRANCH  15  16
HETATM   16  C   UNL     1     -10.776  16.207  65.571  1.00  0.00    -0.342 C  
HETATM   17  H1  UNL     1      -9.697  17.790  65.936  1.00  0.00     0.000 HD 
HETATM   18  H2  UNL     1      -9.708  16.649  67.343  1.00  0.00     0.000 HD 
HETATM   19  N   UNL     1      -9.981  16.927  66.400  1.00  0.00    -0.295 N  
HETATM   20  O   UNL     1     -11.020  16.544  64.429  1.00  0.00    -0.872 OA 
ENDBRANCH  15  16
ENDBRANCH  14  15
ENDBRANCH   5  14
TORSDOF 6
ENDMDL
MODEL       14
REMARK 921   NORMALIZED FREE ENERGY PREDICTED BY IDOCK:   -4.57 KCAL/MOL
REMARK 922        TOTAL FREE ENERGY PREDICTED BY IDOCK:   -6.76 KCAL/MOL
REMARK 923 INTER-LIGAND FREE ENERGY PREDICTED BY IDOCK:   -6.48 KCAL/MOL
REMARK 924 INTRA-LIGAND FREE ENERGY PREDICTED BY IDOCK:   -0.28 KCAL/MOL
REMARK 927      BINDING AFFINITY PREDICTED BY RF-SCORE:    0.00 PKD
ROOT
HETATM    1  C   UNL     1      -7.813  11.096  67.894  1.00  0.00    -0.111 C  
HETATM    2  C   UNL     1      -8.990  12.019  68.191  1.00  0.00    -0.190 C  
HETATM    3  C   UNL     1     -10.057  12.093  67.068  1.00  0.00    -0.219 C  
HETATM    4  C   UNL     1     -10.672  10.686  66.907  1.00  0.00    -0.297 C  
HETATM    5  C   UNL     1     -11.156  13.236  67.251  1.00  0.00    -0.301 C  
HETATM    6  C   UNL     1     -11.887  13.096  68.603  1.00  0.00    -0.363 C  
ENDROOT
BRANCH   5   7
HETATM    7  C   UNL     1     -12.215  13.138  66.104  1.00  0.00    -0.385 C  
BRANCH   7   8
HETATM    8  O   UNL     1     -11.601  12.808  64.844  1.00  0.00    -0.307 OA 
BRANCH   8   9
HETATM    9  C   UNL     1     -12.398  12.804  63.753  1.00  0.00    -0.446 C  
HETATM   10  H2  UNL     1     -11.767  14.791  63.436  1.00  0.00     0.000 HD 
HETATM   11  O   UNL     1     -13.089  11.878  63.361  1.00  0.00    -0.710 OA 
HETATM   12  N   UNL     1     -12.334  14.001  63.129  1.00  0.00    -1.094 N  
HETATM   13  H1  UNL     1     -12.936  13.998  62.306  1.00  0.00     0.000 HD 
ENDBRANCH   8   9
ENDBRANCH   7   8
ENDBRANCH   5   7
BRANCH   5  14
HETATM   14  C   UNL     1     -10.543  14.672  67.148  1.00  0.00    -0.282 C  
BRANCH  14  15
HETATM   15  O   UNL     1     -10.087  15.004  65.826  1.00  0.00    -0.295 OA 
BRANCH  15  16
HETATM   16  C   UNL     1     -10.469  16.211  65.346  1.00  0.00    -0.373 C  
HETATM   17  H1  UNL     1     -10.192  18.104  65.728  1.00  0.00     0.000 HD 
HETATM   18  H2  UNL     1      -9.286  17.048  66.888  1.00  0.00     0.000 HD 
HETATM   19  N   UNL     1      -9.904  17.194  66.089  1.00  0.00    -0.280 N  
HETATM   20  O   UNL     1     -11.145  16.431  64.360  1.00  0.00    -0.825 OA 
ENDBRANCH  15  16
ENDBRANCH  14  15
ENDBRANCH   5  14
TORSDOF 6
ENDMDL
MODEL       15
REMARK 921   NORMALIZED FREE ENERGY PREDICTED BY IDOCK:   -4.54 KCAL/MOL
REMARK 922        TOTAL FREE ENERGY PREDICTED BY IDOCK:   -6.73 KCAL/MOL
REMARK 923 INTER-LIGAND FREE ENERGY PREDICTED BY IDOCK:   -6.11 KCAL/MOL
REMARK 924 INTRA-LIGAND FREE ENERGY PREDICTED BY IDOCK:   -0.61 KCAL/MOL
REMARK 927      BINDING AFFINITY PREDICTED BY RF-SCORE:    0.00 PKD
ROOT
HETATM    1  C   UNL     1     -12.495  12.746  65.108  1.00  0.00    -0.565 C  
HETATM    2  C   UNL     1     -11.454  13.496  65.931  1.00  0.00    -0.338 C  
HETATM    3  C   UNL     1     -11.792  13.634  67.439  1.00  0.00    -0.429 C  
HETATM    4  C   UNL     1     -11.844  12.214  68.042  1.00  0.00    -0.351 C  
HETATM    5  C   UNL     1     -10.848  14.625  68.258  1.00  0.00    -0.249 C  
HETATM    6  C   UNL     1      -9.365  14.216  68.131  1.00  0.00    -0.206 C  
ENDROOT
BRANCH   5   7
HETATM    7  C   UNL     1     -11.241  14.598  69.771  1.00  0.00    -0.259 C  
BRANCH   7   8
HETATM    8  O   UNL     1     -12.645  14.857  69.957  1.00  0.00    -0.294 OA 
BRANCH   8   9
HETATM    9  C   UNL     1     -13.008  15.501  71.089  1.00  0.00    -0.496 C  
HETATM   10  H2  UNL     1     -11.067  16.327  71.094  1.00  0.00     0.000 HD 
HETATM   11  O   UNL     1     -14.089  15.435  71.648  1.00  0.00    -0.496 OA 
HETATM   12  N   UNL     1     -11.981  16.255  71.541  1.00  0.00    -0.650 N  
HETATM   13  H1  UNL     1     -12.254  16.741  72.395  1.00  0.00     0.000 HD 
ENDBRANCH   8   9
ENDBRANCH   7   8
ENDBRANCH   5   7
BRANCH   5  14
HETATM   14  C   UNL     1     -11.007  16.113  67.800  1.00  0.00    -0.293 C  
BRANCH  14  15
HETATM   15  O   UNL     1     -10.624  17.064  68.806  1.00  0.00    -0.330 OA 
BRANCH  15  16
HETATM   16  C   UNL     1     -10.313  18.307  68.370  1.00  0.00    -0.343 C  
HETATM   17  H1  UNL     1     -10.402  19.358  66.729  1.00  0.00     0.000 HD 
HETATM   18  H2  UNL     1     -11.052  17.685  66.487  1.00  0.00     0.000 HD 
HETATM   19  N   UNL     1     -10.637  18.422  67.058  1.00  0.00    -0.391 N  
HETATM   20  O   UNL     1      -9.883  19.233  69.029  1.00  0.00    -0.422 OA 
ENDBRANCH  15  16
ENDBRANCH  14  15
ENDBRANCH   5  14
TORSDOF 6
ENDMDL
MODEL       16
REMARK 921   NORMALIZED FREE ENERGY PREDICTED BY IDOCK:   -4.54 KCAL/MOL
REMARK 922        TOTAL FREE ENERGY PREDICTED BY IDOCK:   -6.71 KCAL/MOL
REMARK 923 INTER-LIGAND FREE ENERGY PREDICTED BY IDOCK:   -6.29 KCAL/MOL
REMARK 924 INTRA-LIGAND FREE ENERGY PREDICTED BY IDOCK:   -0.42 KCAL/MOL
REMARK 927      BINDING AFFINITY PREDICTED BY RF-SCORE:    0.00 PKD
ROOT
HETATM    1  C   UNL     1      -7.179  11.468  67.578  1.00  0.00    -0.111 C  
HETATM    2  C   UNL     1      -8.600  11.885  67.943  1.00  0.00    -0.162 C  
HETATM    3  C   UNL     1      -9.388  12.579  66.801  1.00  0.00    -0.230 C  
HETATM    4  C   UNL     1      -9.545  11.563  65.651  1.00  0.00    -0.256 C  
HETATM    5  C   UNL     1     -10.772  13.243  67.239  1.00  0.00    -0.262 C  
HETATM    6  C   UNL     1     -11.701  12.207  67.907  1.00  0.00    -0.403 C  
ENDROOT
BRANCH   5   7
HETATM    7  C   UNL     1     -11.499  13.822  65.982  1.00  0.00    -0.326 C  
BRANCH   7   8
HETATM    8  O   UNL     1     -10.748  14.895  65.383  1.00  0.00    -0.325 OA 
BRANCH   8   9
HETATM    9  C   UNL     1     -11.396  15.679  64.493  1.00  0.00    -0.320 C  
HETATM   10  H2  UNL     1     -12.504  13.961  63.973  1.00  0.00     0.000 HD 
HETATM   11  O   UNL     1     -11.201  16.865  64.292  1.00  0.00    -1.204 OA 
HETATM   12  N   UNL     1     -12.321  14.954  63.826  1.00  0.00    -1.071 N  
HETATM   13  H1  UNL     1     -12.810  15.545  63.154  1.00  0.00     0.000 HD 
ENDBRANCH   8   9
ENDBRANCH   7   8
ENDBRANCH   5   7
BRANCH   5  14
HETATM   14  C   UNL     1     -10.570  14.452  68.213  1.00  0.00    -0.243 C  
BRANCH  14  15
HETATM   15  O   UNL     1     -11.804  15.008  68.694  1.00  0.00    -0.327 OA 
BRANCH  15  16
HETATM   16  C   UNL     1     -11.850  15.314  70.011  1.00  0.00    -0.334 C  
HETATM   17  H1  UNL     1     -12.438  14.514  71.691  1.00  0.00     0.000 HD 
HETATM   18  H2  UNL     1     -12.734  13.411  70.284  1.00  0.00     0.000 HD 
HETATM   19  N   UNL     1     -12.403  14.284  70.698  1.00  0.00    -0.337 N  
HETATM   20  O   UNL     1     -11.406  16.308  70.553  1.00  0.00    -0.378 OA 
ENDBRANCH  15  16
ENDBRANCH  14  15
ENDBRANCH   5  14
TORSDOF 6
ENDMDL
MODEL       17
REMARK 921   NORMALIZED FREE ENERGY PREDICTED BY IDOCK:   -4.53 KCAL/MOL
REMARK 922        TOTAL FREE ENERGY PREDICTED BY IDOCK:   -6.71 KCAL/MOL
REMARK 923 INTER-LIGAND FREE ENERGY PREDICTED BY IDOCK:   -6.19 KCAL/MOL
REMARK 924 INTRA-LIGAND FREE ENERGY PREDICTED BY IDOCK:   -0.52 KCAL/MOL
REMARK 927      BINDING AFFINITY PREDICTED BY RF-SCORE:    0.00 PKD
ROOT
HETATM    1  C   UNL     1     -10.010   9.604  66.148  1.00  0.00    -0.346 C  
HETATM    2  C   UNL     1      -9.804  11.107  66.307  1.00  0.00    -0.253 C  
HETATM    3  C   UNL     1     -10.989  11.860  66.966  1.00  0.00    -0.326 C  
HETATM    4  C   UNL     1     -11.152  11.317  68.402  1.00  0.00    -0.296 C  
HETATM    5  C   UNL     1     -10.898  13.452  66.909  1.00  0.00    -0.282 C  
HETATM    6  C   UNL     1      -9.587  13.959  67.548  1.00  0.00    -0.229 C  
ENDROOT
BRANCH   5   7
HETATM    7  C   UNL     1     -12.102  14.078  67.686  1.00  0.00    -0.309 C  
BRANCH   7   8
HETATM    8  O   UNL     1     -11.659  14.835  68.827  1.00  0.00    -0.290 OA 
BRANCH   8   9
HETATM    9  C   UNL     1     -12.283  14.600  70.003  1.00  0.00    -0.333 C  
HETATM   10  H2  UNL     1     -13.249  16.454  69.720  1.00  0.00     0.000 HD 
HETATM   11  O   UNL     1     -12.141  13.623  70.718  1.00  0.00    -0.340 OA 
HETATM   12  N   UNL     1     -13.113  15.625  70.299  1.00  0.00    -0.704 N  
HETATM   13  H1  UNL     1     -13.583  15.448  71.186  1.00  0.00     0.000 HD 
ENDBRANCH   8   9
ENDBRANCH   7   8
ENDBRANCH   5   7
BRANCH   5  14
HETATM   14  C   UNL     1     -10.999  14.001  65.447  1.00  0.00    -0.321 C  
BRANCH  14  15
HETATM   15  O   UNL     1     -10.156  15.139  65.206  1.00  0.00    -0.348 OA 
BRANCH  15  16
HETATM   16  C   UNL     1     -10.782  16.333  65.083  1.00  0.00    -0.331 C  
HETATM   17  H1  UNL     1     -10.988  17.998  66.079  1.00  0.00     0.000 HD 
HETATM   18  H2  UNL     1      -9.935  16.817  66.961  1.00  0.00     0.000 HD 
HETATM   19  N   UNL     1     -10.517  17.098  66.171  1.00  0.00    -0.313 N  
HETATM   20  O   UNL     1     -11.425  16.734  64.132  1.00  0.00    -1.171 OA 
ENDBRANCH  15  16
ENDBRANCH  14  15
ENDBRANCH   5  14
TORSDOF 6
ENDMDL
MODEL       18
REMARK 921   NORMALIZED FREE ENERGY PREDICTED BY IDOCK:   -4.53 KCAL/MOL
REMARK 922        TOTAL FREE ENERGY PREDICTED BY IDOCK:   -6.70 KCAL/MOL
REMARK 923 INTER-LIGAND FREE ENERGY PREDICTED BY IDOCK:   -6.24 KCAL/MOL
REMARK 924 INTRA-LIGAND FREE ENERGY PREDICTED BY IDOCK:   -0.46 KCAL/MOL
REMARK 927      BINDING AFFINITY PREDICTED BY RF-SCORE:    0.00 PKD
ROOT
HETATM    1  C   UNL     1      -6.827  16.029  68.846  1.00  0.00    -0.143 C  
HETATM    2  C   UNL     1      -8.306  16.215  68.525  1.00  0.00    -0.195 C  
HETATM    3  C   UNL     1      -8.795  15.472  67.254  1.00  0.00    -0.218 C  
HETATM    4  C   UNL     1      -8.618  13.958  67.496  1.00  0.00    -0.195 C  
HETATM    5  C   UNL     1     -10.264  15.858  66.766  1.00  0.00    -0.283 C  
HETATM    6  C   UNL     1     -11.302  15.632  67.887  1.00  0.00    -0.302 C  
ENDROOT
BRANCH   5   7
HETATM    7  C   UNL     1     -10.661  14.973  65.539  1.00  0.00    -0.359 C  
BRANCH   7   8
HETATM    8  O   UNL     1     -11.831  14.181  65.814  1.00  0.00    -0.355 OA 
BRANCH   8   9
HETATM    9  C   UNL     1     -12.481  13.654  64.753  1.00  0.00    -0.350 C  
HETATM   10  H2  UNL     1     -11.803  15.326  63.661  1.00  0.00     0.000 HD 
HETATM   11  O   UNL     1     -13.121  12.616  64.735  1.00  0.00    -0.852 OA 
HETATM   12  N   UNL     1     -12.330  14.453  63.674  1.00  0.00    -1.106 N  
HETATM   13  H1  UNL     1     -12.821  14.055  62.873  1.00  0.00     0.000 HD 
ENDBRANCH   8   9
ENDBRANCH   7   8
ENDBRANCH   5   7
BRANCH   5  14
HETATM   14  C   UNL     1     -10.358  17.341  66.274  1.00  0.00    -0.322 C  
BRANCH  14  15
HETATM   15  O   UNL     1     -10.879  18.239  67.267  1.00  0.00    -0.373 OA 
BRANCH  15  16
HETATM   16  C   UNL     1     -10.138  19.341  67.527  1.00  0.00    -0.389 C  
HETATM   17  H1  UNL     1      -8.908  20.542  66.604  1.00  0.00     0.000 HD 
HETATM   18  H2  UNL     1      -9.515  19.234  65.508  1.00  0.00     0.000 HD 
HETATM   19  N   UNL     1      -9.468  19.712  66.408  1.00  0.00    -0.375 N  
HETATM   20  O   UNL     1     -10.106  19.980  68.561  1.00  0.00    -0.425 OA 
ENDBRANCH  15  16
ENDBRANCH  14  15
ENDBRANCH   5  14
TORSDOF 6
ENDMDL
MODEL       19
REMARK 921   NORMALIZED FREE ENERGY PREDICTED BY IDOCK:   -4.52 KCAL/MOL
REMARK 922        TOTAL FREE ENERGY PREDICTED BY IDOCK:   -6.70 KCAL/MOL
REMARK 923 INTER-LIGAND FREE ENERGY PREDICTED BY IDOCK:   -6.26 KCAL/MOL
REMARK 924 INTRA-LIGAND FREE ENERGY PREDICTED BY IDOCK:   -0.44 KCAL/MOL
REMARK 927      BINDING AFFINITY PREDICTED BY RF-SCORE:    0.00 PKD
ROOT
HETATM    1  C   UNL     1      -7.380  13.362  67.517  1.00  0.00    -0.165 C  
HETATM    2  C   UNL     1      -8.847  13.247  67.919  1.00  0.00    -0.192 C  
HETATM    3  C   UNL     1      -9.825  12.993  66.742  1.00  0.00    -0.243 C  
HETATM    4  C   UNL     1      -9.465  11.628  66.117  1.00  0.00    -0.240 C  
HETATM    5  C   UNL     1     -11.373  13.121  67.108  1.00  0.00    -0.354 C  
HETATM    6  C   UNL     1     -11.753  12.175  68.266  1.00  0.00    -0.401 C  
ENDROOT
BRANCH   5   7
HETATM    7  C   UNL     1     -12.242  12.752  65.861  1.00  0.00    -0.359 C  
BRANCH   7   8
HETATM    8  O   UNL     1     -12.826  13.921  65.258  1.00  0.00    -0.689 OA 
BRANCH   8   9
HETATM    9  C   UNL     1     -12.400  14.254  64.020  1.00  0.00    -0.244 C  
HETATM   10  H2  UNL     1     -11.814  16.101  64.851  1.00  0.00     0.000 HD 
HETATM   11  O   UNL     1     -12.464  13.560  63.019  1.00  0.00    -0.709 OA 
HETATM   12  N   UNL     1     -11.878  15.500  64.030  1.00  0.00    -0.954 N  
HETATM   13  H1  UNL     1     -11.557  15.752  63.095  1.00  0.00     0.000 HD 
ENDBRANCH   8   9
ENDBRANCH   7   8
ENDBRANCH   5   7
BRANCH   5  14
HETATM   14  C   UNL     1     -11.773  14.585  67.491  1.00  0.00    -0.386 C  
BRANCH  14  15
HETATM   15  O   UNL     1     -10.780  15.560  67.136  1.00  0.00    -0.306 OA 
BRANCH  15  16
HETATM   16  C   UNL     1     -10.798  16.717  67.837  1.00  0.00    -0.311 C  
HETATM   17  H1  UNL     1     -10.935  17.317  69.689  1.00  0.00     0.000 HD 
HETATM   18  H2  UNL     1     -10.992  15.510  69.564  1.00  0.00     0.000 HD 
HETATM   19  N   UNL     1     -10.922  16.445  69.160  1.00  0.00    -0.321 N  
HETATM   20  O   UNL     1     -10.649  17.844  67.405  1.00  0.00    -0.386 OA 
ENDBRANCH  15  16
ENDBRANCH  14  15
ENDBRANCH   5  14
TORSDOF 6
ENDMDL
MODEL       20
REMARK 921   NORMALIZED FREE ENERGY PREDICTED BY IDOCK:   -4.52 KCAL/MOL
REMARK 922        TOTAL FREE ENERGY PREDICTED BY IDOCK:   -6.69 KCAL/MOL
REMARK 923 INTER-LIGAND FREE ENERGY PREDICTED BY IDOCK:   -5.94 KCAL/MOL
REMARK 924 INTRA-LIGAND FREE ENERGY PREDICTED BY IDOCK:   -0.75 KCAL/MOL
REMARK 927      BINDING AFFINITY PREDICTED BY RF-SCORE:    0.00 PKD
ROOT
HETATM    1  C   UNL     1      -9.565   7.472  66.805  1.00  0.00    -0.265 C  
HETATM    2  C   UNL     1      -9.476   8.992  66.887  1.00  0.00    -0.219 C  
HETATM    3  C   UNL     1     -10.625   9.669  67.678  1.00  0.00    -0.334 C  
HETATM    4  C   UNL     1     -10.545   9.177  69.139  1.00  0.00    -0.224 C  
HETATM    5  C   UNL     1     -10.685  11.259  67.559  1.00  0.00    -0.275 C  
HETATM    6  C   UNL     1      -9.352  11.902  67.997  1.00  0.00    -0.193 C  
ENDROOT
BRANCH   5   7
HETATM    7  C   UNL     1     -11.826  11.814  68.474  1.00  0.00    -0.303 C  
BRANCH   7   8
HETATM    8  O   UNL     1     -11.373  12.923  69.272  1.00  0.00    -0.261 OA 
BRANCH   8   9
HETATM    9  C   UNL     1     -12.158  14.022  69.301  1.00  0.00    -0.338 C  
HETATM   10  H2  UNL     1     -11.825  14.163  67.223  1.00  0.00     0.000 HD 
HETATM   11  O   UNL     1     -12.700  14.503  70.282  1.00  0.00    -0.343 OA 
HETATM   12  N   UNL     1     -12.268  14.544  68.059  1.00  0.00    -0.603 N  
HETATM   13  H1  UNL     1     -12.860  15.374  68.080  1.00  0.00     0.000 HD 
ENDBRANCH   8   9
ENDBRANCH   7   8
ENDBRANCH   5   7
BRANCH   5  14
HETATM   14  C   UNL     1     -11.030  11.734  66.108  1.00  0.00    -0.307 C  
BRANCH  14  15
HETATM   15  O   UNL     1     -12.282  12.432  66.019  1.00  0.00    -0.636 OA 
BRANCH  15  16
HETATM   16  C   UNL     1     -12.657  12.835  64.783  1.00  0.00    -0.446 C  
HETATM   17  H1  UNL     1     -12.568  14.429  63.662  1.00  0.00     0.000 HD 
HETATM   18  H2  UNL     1     -11.797  14.703  65.278  1.00  0.00     0.000 HD 
HETATM   19  N   UNL     1     -12.285  14.125  64.593  1.00  0.00    -0.443 N  
HETATM   20  O   UNL     1     -13.177  12.161  63.914  1.00  0.00    -0.748 OA 
ENDBRANCH  15  16
ENDBRANCH  14  15
ENDBRANCH   5  14
TORSDOF 6
ENDMDL
MODEL       21
REMARK 921   NORMALIZED FREE ENERGY PREDICTED BY IDOCK:   -4.51 KCAL/MOL
REMARK 922        TOTAL FREE ENERGY PREDICTED BY IDOCK:   -6.68 KCAL/MOL
REMARK 923 INTER-LIGAND FREE ENERGY PREDICTED BY IDOCK:   -6.20 KCAL/MOL
REMARK 924 INTRA-LIGAND FREE ENERGY PREDICTED BY IDOCK:   -0.48 KCAL/MOL
REMARK 927      BINDING AFFINITY PREDICTED BY RF-SCORE:    0.00 PKD
ROOT
HETATM    1  C   UNL     1     -12.882  14.729  70.819  1.00  0.00    -0.418 C  
HETATM    2  C   UNL     1     -11.702  14.337  69.935  1.00  0.00    -0.373 C  
HETATM    3  C   UNL     1     -11.597  15.126  68.603  1.00  0.00    -0.358 C  
HETATM    4  C   UNL     1     -11.369  16.612  68.953  1.00  0.00    -0.123 C  
HETATM    5  C   UNL     1     -10.529  14.559  67.563  1.00  0.00    -0.253 C  
HETATM    6  C   UNL     1      -9.122  14.484  68.192  1.00  0.00    -0.191 C  
ENDROOT
BRANCH   5   7
HETATM    7  C   UNL     1     -10.462  15.497  66.312  1.00  0.00    -0.307 C  
BRANCH   7   8
HETATM    8  O   UNL     1     -10.785  14.788  65.102  1.00  0.00    -0.358 OA 
BRANCH   8   9
HETATM    9  C   UNL     1     -11.595  15.413  64.219  1.00  0.00    -0.191 C  
HETATM   10  H2  UNL     1     -12.491  13.531  63.896  1.00  0.00     0.000 HD 
HETATM   11  O   UNL     1     -11.579  16.597  63.930  1.00  0.00    -1.204 OA 
HETATM   12  N   UNL     1     -12.456  14.526  63.674  1.00  0.00    -1.078 N  
HETATM   13  H1  UNL     1     -13.068  14.997  63.007  1.00  0.00     0.000 HD 
ENDBRANCH   8   9
ENDBRANCH   7   8
ENDBRANCH   5   7
BRANCH   5  14
HETATM   14  C   UNL     1     -10.921  13.145  67.018  1.00  0.00    -0.269 C  
BRANCH  14  15
HETATM   15  O   UNL     1     -10.088  12.089  67.522  1.00  0.00    -0.192 OA 
BRANCH  15  16
HETATM   16  C   UNL     1     -10.716  11.108  68.212  1.00  0.00    -0.196 C  
HETATM   17  H1  UNL     1     -10.445  10.025  69.812  1.00  0.00     0.000 HD 
HETATM   18  H2  UNL     1      -9.076  11.182  69.546  1.00  0.00     0.000 HD 
HETATM   19  N   UNL     1      -9.972  10.765  69.292  1.00  0.00    -0.196 N  
HETATM   20  O   UNL     1     -11.812  10.632  67.984  1.00  0.00    -0.494 OA 
ENDBRANCH  15  16
ENDBRANCH  14  15
ENDBRANCH   5  14
TORSDOF 6
ENDMDL
MODEL       22
REMARK 921   NORMALIZED FREE ENERGY PREDICTED BY IDOCK:   -4.51 KCAL/MOL
REMARK 922        TOTAL FREE ENERGY PREDICTED BY IDOCK:   -6.68 KCAL/MOL
REMARK 923 INTER-LIGAND FREE ENERGY PREDICTED BY IDOCK:   -6.24 KCAL/MOL
REMARK 924 INTRA-LIGAND FREE ENERGY PREDICTED BY IDOCK:   -0.44 KCAL/MOL
REMARK 927      BINDING AFFINITY PREDICTED BY RF-SCORE:    0.00 PKD
ROOT
HETATM    1  C   UNL     1     -11.273  13.450  64.293  1.00  0.00    -0.406 C  
HETATM    2  C   UNL     1     -10.471  14.200  65.351  1.00  0.00    -0.372 C  
HETATM    3  C   UNL     1     -11.305  14.722  66.550  1.00  0.00    -0.344 C  
HETATM    4  C   UNL     1     -11.898  13.499  67.280  1.00  0.00    -0.427 C  
HETATM    5  C   UNL     1     -10.534  15.719  67.529  1.00  0.00    -0.288 C  
HETATM    6  C   UNL     1      -9.245  15.073  68.081  1.00  0.00    -0.183 C  
ENDROOT
BRANCH   5   7
HETATM    7  C   UNL     1     -11.457  16.092  68.735  1.00  0.00    -0.375 C  
BRANCH   7   8
HETATM    8  O   UNL     1     -10.746  16.026  69.985  1.00  0.00    -0.304 OA 
BRANCH   8   9
HETATM    9  C   UNL     1     -11.444  15.622  71.070  1.00  0.00    -0.395 C  
HETATM   10  H2  UNL     1     -11.323  13.674  70.271  1.00  0.00     0.000 HD 
HETATM   11  O   UNL     1     -11.848  16.329  71.978  1.00  0.00    -0.505 OA 
HETATM   12  N   UNL     1     -11.648  14.288  71.018  1.00  0.00    -0.516 N  
HETATM   13  H1  UNL     1     -12.176  13.983  71.837  1.00  0.00     0.000 HD 
ENDBRANCH   8   9
ENDBRANCH   7   8
ENDBRANCH   5   7
BRANCH   5  14
HETATM   14  C   UNL     1     -10.169  17.073  66.833  1.00  0.00    -0.305 C  
BRANCH  14  15
HETATM   15  O   UNL     1     -10.739  18.220  67.484  1.00  0.00    -0.419 OA 
BRANCH  15  16
HETATM   16  C   UNL     1     -10.537  19.414  66.880  1.00  0.00    -0.476 C  
HETATM   17  H1  UNL     1      -9.808  21.174  67.300  1.00  0.00     0.000 HD 
HETATM   18  H2  UNL     1      -9.716  20.054  68.721  1.00  0.00     0.000 HD 
HETATM   19  N   UNL     1      -9.960  20.274  67.755  1.00  0.00    -0.411 N  
HETATM   20  O   UNL     1     -10.748  19.696  65.716  1.00  0.00    -0.516 OA 
ENDBRANCH  15  16
ENDBRANCH  14  15
ENDBRANCH   5  14
TORSDOF 6
ENDMDL
MODEL       23
REMARK 921   NORMALIZED FREE ENERGY PREDICTED BY IDOCK:   -4.51 KCAL/MOL
REMARK 922        TOTAL FREE ENERGY PREDICTED BY IDOCK:   -6.68 KCAL/MOL
REMARK 923 INTER-LIGAND FREE ENERGY PREDICTED BY IDOCK:   -6.15 KCAL/MOL
REMARK 924 INTRA-LIGAND FREE ENERGY PREDICTED BY IDOCK:   -0.53 KCAL/MOL
REMARK 927      BINDING AFFINITY PREDICTED BY RF-SCORE:    0.00 PKD
ROOT
HETATM    1  C   UNL     1     -10.519   8.246  67.239  1.00  0.00    -0.373 C  
HETATM    2  C   UNL     1     -10.292   9.699  66.832  1.00  0.00    -0.307 C  
HETATM    3  C   UNL     1     -11.105  10.737  67.648  1.00  0.00    -0.384 C  
HETATM    4  C   UNL     1     -10.642  10.649  69.118  1.00  0.00    -0.256 C  
HETATM    5  C   UNL     1     -11.074  12.225  67.074  1.00  0.00    -0.339 C  
HETATM    6  C   UNL     1      -9.626  12.742  66.940  1.00  0.00    -0.235 C  
ENDROOT
BRANCH   5   7
HETATM    7  C   UNL     1     -11.853  13.179  68.038  1.00  0.00    -0.358 C  
BRANCH   7   8
HETATM    8  O   UNL     1     -11.122  14.395  68.284  1.00  0.00    -0.244 OA 
BRANCH   8   9
HETATM    9  C   UNL     1     -11.254  14.956  69.507  1.00  0.00    -0.277 C  
HETATM   10  H2  UNL     1      -9.189  14.607  69.754  1.00  0.00     0.000 HD 
HETATM   11  O   UNL     1     -12.280  15.394  69.999  1.00  0.00    -0.345 OA 
HETATM   12  N   UNL     1     -10.061  14.968  70.141  1.00  0.00    -0.503 N  
HETATM   13  H1  UNL     1     -10.160  15.391  71.064  1.00  0.00     0.000 HD 
ENDBRANCH   8   9
ENDBRANCH   7   8
ENDBRANCH   5   7
BRANCH   5  14
HETATM   14  C   UNL     1     -11.788  12.342  65.686  1.00  0.00    -0.409 C  
BRANCH  14  15
HETATM   15  O   UNL     1     -12.548  13.552  65.536  1.00  0.00    -0.476 OA 
BRANCH  15  16
HETATM   16  C   UNL     1     -12.219  14.341  64.486  1.00  0.00    -0.455 C  
HETATM   17  H1  UNL     1     -10.993  15.799  64.065  1.00  0.00     0.000 HD 
HETATM   18  H2  UNL     1     -10.819  15.252  65.784  1.00  0.00     0.000 HD 
HETATM   19  N   UNL     1     -11.241  15.204  64.856  1.00  0.00    -0.412 N  
HETATM   20  O   UNL     1     -12.647  14.272  63.350  1.00  0.00    -0.777 OA 
ENDBRANCH  15  16
ENDBRANCH  14  15
ENDBRANCH   5  14
TORSDOF 6
ENDMDL
MODEL       24
REMARK 921   NORMALIZED FREE ENERGY PREDICTED BY IDOCK:   -4.50 KCAL/MOL
REMARK 922        TOTAL FREE ENERGY PREDICTED BY IDOCK:   -6.66 KCAL/MOL
REMARK 923 INTER-LIGAND FREE ENERGY PREDICTED BY IDOCK:   -5.89 KCAL/MOL
REMARK 924 INTRA-LIGAND FREE ENERGY PREDICTED BY IDOCK:   -0.77 KCAL/MOL
REMARK 927      BINDING AFFINITY PREDICTED BY RF-SCORE:    0.00 PKD
ROOT
HETATM    1  C   UNL     1     -10.000  20.009  66.261  1.00  0.00    -0.597 C  
HETATM    2  C   UNL     1     -10.547  18.603  66.489  1.00  0.00    -0.409 C  
HETATM    3  C   UNL     1      -9.471  17.487  66.544  1.00  0.00    -0.285 C  
HETATM    4  C   UNL     1      -8.559  17.771  67.757  1.00  0.00    -0.237 C  
HETATM    5  C   UNL     1     -10.039  15.997  66.527  1.00  0.00    -0.297 C  
HETATM    6  C   UNL     1     -11.035  15.765  67.683  1.00  0.00    -0.302 C  
ENDROOT
BRANCH   5   7
HETATM    7  C   UNL     1      -8.859  14.981  66.679  1.00  0.00    -0.272 C  
BRANCH   7   8
HETATM    8  O   UNL     1      -9.143  13.987  67.682  1.00  0.00    -0.178 OA 
BRANCH   8   9
HETATM    9  C   UNL     1      -8.748  12.722  67.423  1.00  0.00    -0.196 C  
HETATM   10  H2  UNL     1      -9.405  13.052  65.446  1.00  0.00     0.000 HD 
HETATM   11  O   UNL     1      -8.248  11.939  68.214  1.00  0.00    -0.145 OA 
HETATM   12  N   UNL     1      -8.988  12.418  66.128  1.00  0.00    -0.423 N  
HETATM   13  H1  UNL     1      -8.690  11.462  65.932  1.00  0.00     0.000 HD 
ENDBRANCH   8   9
ENDBRANCH   7   8
ENDBRANCH   5   7
BRANCH   5  14
HETATM   14  C   UNL     1     -10.738  15.642  65.172  1.00  0.00    -0.443 C  
BRANCH  14  15
HETATM   15  O   UNL     1     -10.876  14.229  64.955  1.00  0.00    -0.373 OA 
BRANCH  15  16
HETATM   16  C   UNL     1     -12.104  13.796  64.587  1.00  0.00    -0.421 C  
HETATM   17  H1  UNL     1     -12.926  12.694  63.202  1.00  0.00     0.000 HD 
HETATM   18  H2  UNL     1     -11.129  12.797  62.997  1.00  0.00     0.000 HD 
HETATM   19  N   UNL     1     -12.000  13.020  63.480  1.00  0.00    -0.542 N  
HETATM   20  O   UNL     1     -13.155  13.979  65.170  1.00  0.00    -0.776 OA 
ENDBRANCH  15  16
ENDBRANCH  14  15
ENDBRANCH   5  14
TORSDOF 6
ENDMDL
MODEL       25
REMARK 921   NORMALIZED FREE ENERGY PREDICTED BY IDOCK:   -4.50 KCAL/MOL
REMARK 922        TOTAL FREE ENERGY PREDICTED BY IDOCK:   -6.66 KCAL/MOL
REMARK 923 INTER-LIGAND FREE ENERGY PREDICTED BY IDOCK:   -6.21 KCAL/MOL
REMARK 924 INTRA-LIGAND FREE ENERGY PREDICTED BY IDOCK:   -0.44 KCAL/MOL
REMARK 927      BINDING AFFINITY PREDICTED BY RF-SCORE:    0.00 PKD
ROOT
HETATM    1  C   UNL     1     -12.143  14.201  70.186  1.00  0.00    -0.411 C  
HETATM    2  C   UNL     1     -12.112  14.016  68.672  1.00  0.00    -0.332 C  
HETATM    3  C   UNL     1     -11.137  12.919  68.170  1.00  0.00    -0.282 C  
HETATM    4  C   UNL     1     -11.617  11.566  68.737  1.00  0.00    -0.379 C  
HETATM    5  C   UNL     1     -10.907  12.887  66.592  1.00  0.00    -0.288 C  
HETATM    6  C   UNL     1     -12.243  12.728  65.836  1.00  0.00    -0.422 C  
ENDROOT
BRANCH   5   7
HETATM    7  C   UNL     1      -9.980  11.684  66.218  1.00  0.00    -0.217 C  
BRANCH   7   8
HETATM    8  O   UNL     1      -9.376  11.863  64.924  1.00  0.00    -0.055 OA 
BRANCH   8   9
HETATM    9  C   UNL     1      -9.689  10.962  63.968  1.00  0.00    -0.301 C  
HETATM   10  H2  UNL     1     -10.713  12.530  62.998  1.00  0.00     0.000 HD 
HETATM   11  O   UNL     1      -9.371   9.785  63.946  1.00  0.00    -0.261 OA 
HETATM   12  N   UNL     1     -10.431  11.550  63.003  1.00  0.00    -0.661 N  
HETATM   13  H1  UNL     1     -10.669  10.869  62.281  1.00  0.00     0.000 HD 
ENDBRANCH   8   9
ENDBRANCH   7   8
ENDBRANCH   5   7
BRANCH   5  14
HETATM   14  C   UNL     1     -10.176  14.170  66.071  1.00  0.00    -0.308 C  
BRANCH  14  15
HETATM   15  O   UNL     1     -10.755  14.710  64.873  1.00  0.00    -0.402 OA 
BRANCH  15  16
HETATM   16  C   UNL     1     -10.988  16.043  64.867  1.00  0.00    -0.384 C  
HETATM   17  H1  UNL     1     -10.631  17.606  65.978  1.00  0.00     0.000 HD 
HETATM   18  H2  UNL     1      -9.955  16.094  66.713  1.00  0.00     0.000 HD 
HETATM   19  N   UNL     1     -10.455  16.601  65.982  1.00  0.00    -0.321 N  
HETATM   20  O   UNL     1     -11.517  16.695  63.987  1.00  0.00    -1.192 OA 
ENDBRANCH  15  16
ENDBRANCH  14  15
ENDBRANCH   5  14
TORSDOF 6
ENDMDL
MODEL       26
REMARK 921   NORMALIZED FREE ENERGY PREDICTED BY IDOCK:   -4.49 KCAL/MOL
REMARK 922        TOTAL FREE ENERGY PREDICTED BY IDOCK:   -6.65 KCAL/MOL
REMARK 923 INTER-LIGAND FREE ENERGY PREDICTED BY IDOCK:   -6.27 KCAL/MOL
REMARK 924 INTRA-LIGAND FREE ENERGY PREDICTED BY IDOCK:   -0.38 KCAL/MOL
REMARK 927      BINDING AFFINITY PREDICTED BY RF-SCORE:    0.00 PKD
ROOT
HETATM    1  C   UNL     1      -9.500  10.116  63.351  1.00  0.00    -0.308 C  
HETATM    2  C   UNL     1      -9.873  10.640  64.734  1.00  0.00    -0.372 C  
HETATM    3  C   UNL     1     -10.623  11.997  64.735  1.00  0.00    -0.340 C  
HETATM    4  C   UNL     1     -11.966  11.794  64.001  1.00  0.00    -0.380 C  
HETATM    5  C   UNL     1     -10.793  12.677  66.168  1.00  0.00    -0.301 C  
HETATM    6  C   UNL     1     -11.508  11.729  67.155  1.00  0.00    -0.366 C  
ENDROOT
BRANCH   5   7
HETATM    7  C   UNL     1     -11.642  13.984  66.035  1.00  0.00    -0.357 C  
BRANCH   7   8
HETATM    8  O   UNL     1     -10.883  15.049  65.434  1.00  0.00    -0.319 OA 
BRANCH   8   9
HETATM    9  C   UNL     1     -11.486  15.760  64.456  1.00  0.00    -0.289 C  
HETATM   10  H2  UNL     1     -12.494  13.977  63.952  1.00  0.00     0.000 HD 
HETATM   11  O   UNL     1     -11.314  16.940  64.204  1.00  0.00    -1.208 OA 
HETATM   12  N   UNL     1     -12.332  14.966  63.763  1.00  0.00    -1.071 N  
HETATM   13  H1  UNL     1     -12.788  15.502  63.024  1.00  0.00     0.000 HD 
ENDBRANCH   8   9
ENDBRANCH   7   8
ENDBRANCH   5   7
BRANCH   5  14
HETATM   14  C   UNL     1      -9.423  13.117  66.784  1.00  0.00    -0.252 C  
BRANCH  14  15
HETATM   15  O   UNL     1      -9.516  13.500  68.166  1.00  0.00    -0.204 OA 
BRANCH  15  16
HETATM   16  C   UNL     1      -8.850  14.623  68.522  1.00  0.00    -0.182 C  
HETATM   17  H1  UNL     1      -9.228  16.490  68.946  1.00  0.00     0.000 HD 
HETATM   18  H2  UNL     1     -10.739  15.574  68.546  1.00  0.00     0.000 HD 
HETATM   19  N   UNL     1      -9.730  15.643  68.678  1.00  0.00    -0.198 N  
HETATM   20  O   UNL     1      -7.661  14.732  68.756  1.00  0.00    -0.122 OA 
ENDBRANCH  15  16
ENDBRANCH  14  15
ENDBRANCH   5  14
TORSDOF 6
ENDMDL
MODEL       27
REMARK 921   NORMALIZED FREE ENERGY PREDICTED BY IDOCK:   -4.45 KCAL/MOL
REMARK 922        TOTAL FREE ENERGY PREDICTED BY IDOCK:   -6.60 KCAL/MOL
REMARK 923 INTER-LIGAND FREE ENERGY PREDICTED BY IDOCK:   -6.09 KCAL/MOL
REMARK 924 INTRA-LIGAND FREE ENERGY PREDICTED BY IDOCK:   -0.51 KCAL/MOL
REMARK 927      BINDING AFFINITY PREDICTED BY RF-SCORE:    0.00 PKD
ROOT
HETATM    1  C   UNL     1      -6.886  11.945  67.592  1.00  0.00    -0.112 C  
HETATM    2  C   UNL     1      -7.993  12.888  68.053  1.00  0.00    -0.158 C  
HETATM    3  C   UNL     1      -9.151  13.076  67.038  1.00  0.00    -0.230 C  
HETATM    4  C   UNL     1      -9.836  11.707  66.845  1.00  0.00    -0.218 C  
HETATM    5  C   UNL     1     -10.180  14.243  67.393  1.00  0.00    -0.247 C  
HETATM    6  C   UNL     1     -10.794  14.039  68.794  1.00  0.00    -0.279 C  
ENDROOT
BRANCH   5   7
HETATM    7  C   UNL     1     -11.339  14.261  66.343  1.00  0.00    -0.343 C  
BRANCH   7   8
HETATM    8  O   UNL     1     -10.848  14.537  65.018  1.00  0.00    -0.362 OA 
BRANCH   8   9
HETATM    9  C   UNL     1     -11.644  15.267  64.206  1.00  0.00    -0.197 C  
HETATM   10  H2  UNL     1     -12.582  13.448  63.696  1.00  0.00     0.000 HD 
HETATM   11  O   UNL     1     -11.601  16.474  64.038  1.00  0.00    -1.154 OA 
HETATM   12  N   UNL     1     -12.525  14.459  63.576  1.00  0.00    -1.090 N  
HETATM   13  H1  UNL     1     -13.126  15.010  62.962  1.00  0.00     0.000 HD 
ENDBRANCH   8   9
ENDBRANCH   7   8
ENDBRANCH   5   7
BRANCH   5  14
HETATM   14  C   UNL     1      -9.518  15.660  67.326  1.00  0.00    -0.216 C  
BRANCH  14  15
HETATM   15  O   UNL     1     -10.454  16.735  67.504  1.00  0.00    -0.308 OA 
BRANCH  15  16
HETATM   16  C   UNL     1     -10.018  17.972  67.168  1.00  0.00    -0.325 C  
HETATM   17  H1  UNL     1     -10.017  19.782  67.894  1.00  0.00     0.000 HD 
HETATM   18  H2  UNL     1     -10.844  18.616  69.006  1.00  0.00     0.000 HD 
HETATM   19  N   UNL     1     -10.345  18.850  68.147  1.00  0.00    -0.380 N  
HETATM   20  O   UNL     1      -9.362  18.282  66.192  1.00  0.00    -0.469 OA 
ENDBRANCH  15  16
ENDBRANCH  14  15
ENDBRANCH   5  14
TORSDOF 6
ENDMDL
MODEL       28
REMARK 921   NORMALIZED FREE ENERGY PREDICTED BY IDOCK:   -4.45 KCAL/MOL
REMARK 922        TOTAL FREE ENERGY PREDICTED BY IDOCK:   -6.59 KCAL/MOL
REMARK 923 INTER-LIGAND FREE ENERGY PREDICTED BY IDOCK:   -6.23 KCAL/MOL
REMARK 924 INTRA-LIGAND FREE ENERGY PREDICTED BY IDOCK:   -0.37 KCAL/MOL
REMARK 927      BINDING AFFINITY PREDICTED BY RF-SCORE:    0.00 PKD
ROOT
HETATM    1  C   UNL     1     -12.481  15.161  70.292  1.00  0.00    -0.388 C  
HETATM    2  C   UNL     1     -11.558  14.059  69.780  1.00  0.00    -0.344 C  
HETATM    3  C   UNL     1     -11.685  13.756  68.264  1.00  0.00    -0.394 C  
HETATM    4  C   UNL     1     -11.268  15.027  67.494  1.00  0.00    -0.333 C  
HETATM    5  C   UNL     1     -10.919  12.448  67.768  1.00  0.00    -0.267 C  
HETATM    6  C   UNL     1      -9.418  12.510  68.125  1.00  0.00    -0.214 C  
ENDROOT
BRANCH   5   7
HETATM    7  C   UNL     1     -11.053  12.315  66.216  1.00  0.00    -0.302 C  
BRANCH   7   8
HETATM    8  O   UNL     1     -12.413  12.510  65.784  1.00  0.00    -0.626 OA 
BRANCH   8   9
HETATM    9  C   UNL     1     -12.606  12.831  64.485  1.00  0.00    -0.389 C  
HETATM   10  H2  UNL     1     -11.868  14.745  64.976  1.00  0.00     0.000 HD 
HETATM   11  O   UNL     1     -13.048  12.101  63.614  1.00  0.00    -0.787 OA 
HETATM   12  N   UNL     1     -12.238  14.112  64.266  1.00  0.00    -0.613 N  
HETATM   13  H1  UNL     1     -12.385  14.355  63.286  1.00  0.00     0.000 HD 
ENDBRANCH   8   9
ENDBRANCH   7   8
ENDBRANCH   5   7
BRANCH   5  14
HETATM   14  C   UNL     1     -11.532  11.137  68.365  1.00  0.00    -0.306 C  
BRANCH  14  15
HETATM   15  O   UNL     1     -10.837  10.660  69.529  1.00  0.00    -0.229 OA 
BRANCH  15  16
HETATM   16  C   UNL     1     -11.608  10.258  70.565  1.00  0.00    -0.338 C  
HETATM   17  H1  UNL     1     -11.434   9.258  72.231  1.00  0.00     0.000 HD 
HETATM   18  H2  UNL     1      -9.855   9.370  71.350  1.00  0.00     0.000 HD 
HETATM   19  N   UNL     1     -10.853   9.562  71.450  1.00  0.00    -0.350 N  
HETATM   20  O   UNL     1     -12.780  10.521  70.758  1.00  0.00    -0.344 OA 
ENDBRANCH  15  16
ENDBRANCH  14  15
ENDBRANCH   5  14
TORSDOF 6
ENDMDL
MODEL       29
REMARK 921   NORMALIZED FREE ENERGY PREDICTED BY IDOCK:   -4.43 KCAL/MOL
REMARK 922        TOTAL FREE ENERGY PREDICTED BY IDOCK:   -6.57 KCAL/MOL
REMARK 923 INTER-LIGAND FREE ENERGY PREDICTED BY IDOCK:   -6.47 KCAL/MOL
REMARK 924 INTRA-LIGAND FREE ENERGY PREDICTED BY IDOCK:   -0.09 KCAL/MOL
REMARK 927      BINDING AFFINITY PREDICTED BY RF-SCORE:    0.00 PKD
ROOT
HETATM    1  C   UNL     1      -9.757   9.193  67.000  1.00  0.00    -0.245 C  
HETATM    2  C   UNL     1     -10.675  10.403  66.861  1.00  0.00    -0.272 C  
HETATM    3  C   UNL     1     -10.216  11.451  65.814  1.00  0.00    -0.295 C  
HETATM    4  C   UNL     1     -10.228  10.769  64.429  1.00  0.00    -0.432 C  
HETATM    5  C   UNL     1     -11.019  12.829  65.837  1.00  0.00    -0.303 C  
HETATM    6  C   UNL     1     -12.534  12.596  65.655  1.00  0.00    -0.255 C  
ENDROOT
BRANCH   5   7
HETATM    7  C   UNL     1     -10.518  13.751  64.677  1.00  0.00    -0.412 C  
BRANCH   7   8
HETATM    8  O   UNL     1     -10.636  15.144  65.020  1.00  0.00    -0.393 OA 
BRANCH   8   9
HETATM    9  C   UNL     1     -11.541  15.873  64.331  1.00  0.00    -0.234 C  
HETATM   10  H2  UNL     1     -12.408  14.035  63.765  1.00  0.00     0.000 HD 
HETATM   11  O   UNL     1     -11.587  17.089  64.251  1.00  0.00    -0.996 OA 
HETATM   12  N   UNL     1     -12.423  15.054  63.716  1.00  0.00    -1.049 N  
HETATM   13  H1  UNL     1     -13.107  15.604  63.196  1.00  0.00     0.000 HD 
ENDBRANCH   8   9
ENDBRANCH   7   8
ENDBRANCH   5   7
BRANCH   5  14
HETATM   14  C   UNL     1     -10.781  13.634  67.158  1.00  0.00    -0.277 C  
BRANCH  14  15
HETATM   15  O   UNL     1     -11.995  13.956  67.856  1.00  0.00    -0.363 OA 
BRANCH  15  16
HETATM   16  C   UNL     1     -11.920  14.967  68.753  1.00  0.00    -0.249 C  
HETATM   17  H1  UNL     1     -12.321  15.304  70.632  1.00  0.00     0.000 HD 
HETATM   18  H2  UNL     1     -12.724  13.603  70.156  1.00  0.00     0.000 HD 
HETATM   19  N   UNL     1     -12.377  14.541  69.956  1.00  0.00    -0.330 N  
HETATM   20  O   UNL     1     -11.452  16.075  68.576  1.00  0.00    -0.370 OA 
ENDBRANCH  15  16
ENDBRANCH  14  15
ENDBRANCH   5  14
TORSDOF 6
ENDMDL
MODEL       30
REMARK 921   NORMALIZED FREE ENERGY PREDICTED BY IDOCK:   -4.41 KCAL/MOL
REMARK 922        TOTAL FREE ENERGY PREDICTED BY IDOCK:   -6.54 KCAL/MOL
REMARK 923 INTER-LIGAND FREE ENERGY PREDICTED BY IDOCK:   -5.80 KCAL/MOL
REMARK 924 INTRA-LIGAND FREE ENERGY PREDICTED BY IDOCK:   -0.74 KCAL/MOL
REMARK 927      BINDING AFFINITY PREDICTED BY RF-SCORE:    0.00 PKD
ROOT
HETATM    1  C   UNL     1      -7.190  17.732  66.052  1.00  0.00    -0.322 C  
HETATM    2  C   UNL     1      -8.566  17.093  66.212  1.00  0.00    -0.276 C  
HETATM    3  C   UNL     1      -8.546  15.569  66.496  1.00  0.00    -0.320 C  
HETATM    4  C   UNL     1      -7.836  15.351  67.850  1.00  0.00    -0.143 C  
HETATM    5  C   UNL     1      -9.966  14.845  66.415  1.00  0.00    -0.290 C  
HETATM    6  C   UNL     1     -10.983  15.502  67.371  1.00  0.00    -0.306 C  
ENDROOT
BRANCH   5   7
HETATM    7  C   UNL     1      -9.814  13.340  66.811  1.00  0.00    -0.264 C  
BRANCH   7   8
HETATM    8  O   UNL     1     -10.837  12.931  67.737  1.00  0.00    -0.221 OA 
BRANCH   8   9
HETATM    9  C   UNL     1     -11.315  11.673  67.611  1.00  0.00    -0.295 C  
HETATM   10  H2  UNL     1     -10.043  11.489  65.938  1.00  0.00     0.000 HD 
HETATM   11  O   UNL     1     -12.145  11.135  68.324  1.00  0.00    -0.620 OA 
HETATM   12  N   UNL     1     -10.738  11.063  66.552  1.00  0.00    -0.259 N  
HETATM   13  H1  UNL     1     -11.098  10.114  66.456  1.00  0.00     0.000 HD 
ENDBRANCH   8   9
ENDBRANCH   7   8
ENDBRANCH   5   7
BRANCH   5  14
HETATM   14  C   UNL     1     -10.553  14.849  64.964  1.00  0.00    -0.422 C  
BRANCH  14  15
HETATM   15  O   UNL     1     -10.889  13.538  64.481  1.00  0.00    -0.378 OA 
BRANCH  15  16
HETATM   16  C   UNL     1     -12.209  13.265  64.360  1.00  0.00    -0.390 C  
HETATM   17  H1  UNL     1     -13.386  12.118  63.310  1.00  0.00     0.000 HD 
HETATM   18  H2  UNL     1     -11.648  11.889  62.854  1.00  0.00     0.000 HD 
HETATM   19  N   UNL     1     -12.392  12.324  63.401  1.00  0.00    -0.552 N  
HETATM   20  O   UNL     1     -13.118  13.707  65.035  1.00  0.00    -0.742 OA 
ENDBRANCH  15  16
ENDBRANCH  14  15
ENDBRANCH   5  14
TORSDOF 6
ENDMDL
MODEL       31
REMARK 921   NORMALIZED FREE ENERGY PREDICTED BY IDOCK:   -4.37 KCAL/MOL
REMARK 922        TOTAL FREE ENERGY PREDICTED BY IDOCK:   -6.50 KCAL/MOL
REMARK 923 INTER-LIGAND FREE ENERGY PREDICTED BY IDOCK:   -6.10 KCAL/MOL
REMARK 924 INTRA-LIGAND FREE ENERGY PREDICTED BY IDOCK:   -0.40 KCAL/MOL
REMARK 927      BINDING AFFINITY PREDICTED BY RF-SCORE:    0.00 PKD
ROOT
HETATM    1  C   UNL     1      -7.299  11.956  67.633  1.00  0.00    -0.123 C  
HETATM    2  C   UNL     1      -8.593  12.674  68.000  1.00  0.00    -0.189 C  
HETATM    3  C   UNL     1      -9.349  13.305  66.802  1.00  0.00    -0.254 C  
HETATM    4  C   UNL     1      -9.772  12.161  65.857  1.00  0.00    -0.253 C  
HETATM    5  C   UNL     1     -10.559  14.268  67.195  1.00  0.00    -0.279 C  
HETATM    6  C   UNL     1     -11.588  13.537  68.085  1.00  0.00    -0.368 C  
ENDROOT
BRANCH   5   7
HETATM    7  C   UNL     1     -11.286  14.757  65.899  1.00  0.00    -0.340 C  
BRANCH   7   8
HETATM    8  O   UNL     1     -12.576  14.136  65.749  1.00  0.00    -0.488 OA 
BRANCH   8   9
HETATM    9  C   UNL     1     -12.785  13.415  64.626  1.00  0.00    -0.186 C  
HETATM   10  H2  UNL     1     -12.117  15.109  63.561  1.00  0.00     0.000 HD 
HETATM   11  O   UNL     1     -13.201  12.271  64.563  1.00  0.00    -0.799 OA 
HETATM   12  N   UNL     1     -12.466  14.151  63.538  1.00  0.00    -1.106 N  
HETATM   13  H1  UNL     1     -12.624  13.607  62.689  1.00  0.00     0.000 HD 
ENDBRANCH   8   9
ENDBRANCH   7   8
ENDBRANCH   5   7
BRANCH   5  14
HETATM   14  C   UNL     1     -10.075  15.562  67.931  1.00  0.00    -0.224 C  
BRANCH  14  15
HETATM   15  O   UNL     1     -11.014  16.646  67.854  1.00  0.00    -0.342 OA 
BRANCH  15  16
HETATM   16  C   UNL     1     -10.492  17.895  67.876  1.00  0.00    -0.396 C  
HETATM   17  H1  UNL     1     -10.186  19.387  66.658  1.00  0.00     0.000 HD 
HETATM   18  H2  UNL     1     -10.980  17.991  65.820  1.00  0.00     0.000 HD 
HETATM   19  N   UNL     1     -10.581  18.447  66.641  1.00  0.00    -0.367 N  
HETATM   20  O   UNL     1     -10.070  18.500  68.843  1.00  0.00    -0.386 OA 
ENDBRANCH  15  16
ENDBRANCH  14  15
ENDBRANCH   5  14
TORSDOF 6
ENDMDL
MODEL       32
REMARK 921   NORMALIZED FREE ENERGY PREDICTED BY IDOCK:   -4.36 KCAL/MOL
REMARK 922        TOTAL FREE ENERGY PREDICTED BY IDOCK:   -6.48 KCAL/MOL
REMARK 923 INTER-LIGAND FREE ENERGY PREDICTED BY IDOCK:   -5.77 KCAL/MOL
REMARK 924 INTRA-LIGAND FREE ENERGY PREDICTED BY IDOCK:   -0.71 KCAL/MOL
REMARK 927      BINDING AFFINITY PREDICTED BY RF-SCORE:    0.00 PKD
ROOT
HETATM    1  C   UNL     1     -12.444  12.094  63.474  1.00  0.00    -0.666 C  
HETATM    2  C   UNL     1     -11.733  12.875  64.575  1.00  0.00    -0.416 C  
HETATM    3  C   UNL     1     -11.549  12.101  65.906  1.00  0.00    -0.425 C  
HETATM    4  C   UNL     1     -10.644  10.883  65.622  1.00  0.00    -0.233 C  
HETATM    5  C   UNL     1     -11.041  12.981  67.137  1.00  0.00    -0.304 C  
HETATM    6  C   UNL     1      -9.713  13.693  66.804  1.00  0.00    -0.275 C  
ENDROOT
BRANCH   5   7
HETATM    7  C   UNL     1     -10.811  12.063  68.382  1.00  0.00    -0.233 C  
BRANCH   7   8
HETATM    8  O   UNL     1     -12.023  11.392  68.775  1.00  0.00    -0.412 OA 
BRANCH   8   9
HETATM    9  C   UNL     1     -12.244  11.246  70.100  1.00  0.00    -0.330 C  
HETATM   10  H2  UNL     1     -11.667  13.265  70.294  1.00  0.00     0.000 HD 
HETATM   11  O   UNL     1     -12.619  10.233  70.667  1.00  0.00    -0.313 OA 
HETATM   12  N   UNL     1     -11.983  12.405  70.743  1.00  0.00    -0.458 N  
HETATM   13  H1  UNL     1     -12.149  12.295  71.743  1.00  0.00     0.000 HD 
ENDBRANCH   8   9
ENDBRANCH   7   8
ENDBRANCH   5   7
BRANCH   5  14
HETATM   14  C   UNL     1     -12.096  14.049  67.580  1.00  0.00    -0.326 C  
BRANCH  14  15
HETATM   15  O   UNL     1     -11.509  15.297  67.983  1.00  0.00    -0.335 OA 
BRANCH  15  16
HETATM   16  C   UNL     1     -11.631  15.621  69.292  1.00  0.00    -0.366 C  
HETATM   17  H1  UNL     1     -10.791  16.795  70.604  1.00  0.00     0.000 HD 
HETATM   18  H2  UNL     1     -10.012  16.946  68.975  1.00  0.00     0.000 HD 
HETATM   19  N   UNL     1     -10.699  16.551  69.618  1.00  0.00    -0.335 N  
HETATM   20  O   UNL     1     -12.476  15.228  70.073  1.00  0.00    -0.339 OA 
ENDBRANCH  15  16
ENDBRANCH  14  15
ENDBRANCH   5  14
TORSDOF 6
ENDMDL
MODEL       33
REMARK 921   NORMALIZED FREE ENERGY PREDICTED BY IDOCK:   -4.34 KCAL/MOL
REMARK 922        TOTAL FREE ENERGY PREDICTED BY IDOCK:   -6.45 KCAL/MOL
REMARK 923 INTER-LIGAND FREE ENERGY PREDICTED BY IDOCK:   -5.92 KCAL/MOL
REMARK 924 INTRA-LIGAND FREE ENERGY PREDICTED BY IDOCK:   -0.52 KCAL/MOL
REMARK 927      BINDING AFFINITY PREDICTED BY RF-SCORE:    0.00 PKD
ROOT
HETATM    1  C   UNL     1      -6.135  17.118  66.633  1.00  0.00    -0.247 C  
HETATM    2  C   UNL     1      -7.600  17.119  66.208  1.00  0.00    -0.352 C  
HETATM    3  C   UNL     1      -8.608  16.816  67.346  1.00  0.00    -0.206 C  
HETATM    4  C   UNL     1      -8.487  17.942  68.395  1.00  0.00    -0.300 C  
HETATM    5  C   UNL     1     -10.111  16.564  66.872  1.00  0.00    -0.281 C  
HETATM    6  C   UNL     1     -10.647  17.761  66.058  1.00  0.00    -0.229 C  
ENDROOT
BRANCH   5   7
HETATM    7  C   UNL     1     -11.031  16.363  68.121  1.00  0.00    -0.339 C  
BRANCH   7   8
HETATM    8  O   UNL     1     -10.787  15.096  68.759  1.00  0.00    -0.231 OA 
BRANCH   8   9
HETATM    9  C   UNL     1     -11.841  14.493  69.353  1.00  0.00    -0.325 C  
HETATM   10  H2  UNL     1     -12.637  16.426  69.625  1.00  0.00     0.000 HD 
HETATM   11  O   UNL     1     -11.991  13.295  69.523  1.00  0.00    -0.307 OA 
HETATM   12  N   UNL     1     -12.739  15.419  69.753  1.00  0.00    -0.623 N  
HETATM   13  H1  UNL     1     -13.534  14.965  70.202  1.00  0.00     0.000 HD 
ENDBRANCH   8   9
ENDBRANCH   7   8
ENDBRANCH   5   7
BRANCH   5  14
HETATM   14  C   UNL     1     -10.255  15.260  66.019  1.00  0.00    -0.317 C  
BRANCH  14  15
HETATM   15  O   UNL     1     -11.019  15.446  64.817  1.00  0.00    -0.420 OA 
BRANCH  15  16
HETATM   16  C   UNL     1     -12.050  14.592  64.623  1.00  0.00    -0.473 C  
HETATM   17  H1  UNL     1     -13.186  13.393  65.662  1.00  0.00     0.000 HD 
HETATM   18  H2  UNL     1     -11.969  14.235  66.707  1.00  0.00     0.000 HD 
HETATM   19  N   UNL     1     -12.409  14.038  65.808  1.00  0.00    -0.457 N  
HETATM   20  O   UNL     1     -12.647  14.380  63.585  1.00  0.00    -0.817 OA 
ENDBRANCH  15  16
ENDBRANCH  14  15
ENDBRANCH   5  14
TORSDOF 6
ENDMDL
MODEL       34
REMARK 921   NORMALIZED FREE ENERGY PREDICTED BY IDOCK:   -4.34 KCAL/MOL
REMARK 922        TOTAL FREE ENERGY PREDICTED BY IDOCK:   -6.45 KCAL/MOL
REMARK 923 INTER-LIGAND FREE ENERGY PREDICTED BY IDOCK:   -5.98 KCAL/MOL
REMARK 924 INTRA-LIGAND FREE ENERGY PREDICTED BY IDOCK:   -0.46 KCAL/MOL
REMARK 927      BINDING AFFINITY PREDICTED BY RF-SCORE:    0.00 PKD
ROOT
HETATM    1  C   UNL     1     -12.165  15.103  69.806  1.00  0.00    -0.325 C  
HETATM    2  C   UNL     1     -11.315  14.917  68.553  1.00  0.00    -0.314 C  
HETATM    3  C   UNL     1     -10.726  16.227  67.967  1.00  0.00    -0.331 C  
HETATM    4  C   UNL     1      -9.772  16.827  69.021  1.00  0.00    -0.244 C  
HETATM    5  C   UNL     1     -10.052  16.082  66.528  1.00  0.00    -0.297 C  
HETATM    6  C   UNL     1      -8.939  15.013  66.537  1.00  0.00    -0.310 C  
ENDROOT
BRANCH   5   7
HETATM    7  C   UNL     1      -9.422  17.449  66.101  1.00  0.00    -0.169 C  
BRANCH   7   8
HETATM    8  O   UNL     1     -10.401  18.504  66.094  1.00  0.00    -0.414 OA 
BRANCH   8   9
HETATM    9  C   UNL     1     -10.074  19.651  66.728  1.00  0.00    -0.424 C  
HETATM   10  H2  UNL     1      -8.814  20.055  65.085  1.00  0.00     0.000 HD 
HETATM   11  O   UNL     1     -10.496  20.032  67.807  1.00  0.00    -0.383 OA 
HETATM   12  N   UNL     1      -9.184  20.350  65.989  1.00  0.00    -0.611 N  
HETATM   13  H1  UNL     1      -8.936  21.216  66.467  1.00  0.00     0.000 HD 
ENDBRANCH   8   9
ENDBRANCH   7   8
ENDBRANCH   5   7
BRANCH   5  14
HETATM   14  C   UNL     1     -11.095  15.725  65.416  1.00  0.00    -0.228 C  
BRANCH  14  15
HETATM   15  O   UNL     1     -10.926  14.403  64.880  1.00  0.00    -0.366 OA 
BRANCH  15  16
HETATM   16  C   UNL     1     -12.052  13.665  64.737  1.00  0.00    -0.402 C  
HETATM   17  H1  UNL     1     -12.627  12.000  63.900  1.00  0.00     0.000 HD 
HETATM   18  H2  UNL     1     -10.865  12.314  63.624  1.00  0.00     0.000 HD 
HETATM   19  N   UNL     1     -11.779  12.556  64.008  1.00  0.00    -0.385 N  
HETATM   20  O   UNL     1     -13.141  13.881  65.233  1.00  0.00    -0.777 OA 
ENDBRANCH  15  16
ENDBRANCH  14  15
ENDBRANCH   5  14
TORSDOF 6
ENDMDL
MODEL       35
REMARK 921   NORMALIZED FREE ENERGY PREDICTED BY IDOCK:   -4.33 KCAL/MOL
REMARK 922        TOTAL FREE ENERGY PREDICTED BY IDOCK:   -6.43 KCAL/MOL
REMARK 923 INTER-LIGAND FREE ENERGY PREDICTED BY IDOCK:   -5.93 KCAL/MOL
REMARK 924 INTRA-LIGAND FREE ENERGY PREDICTED BY IDOCK:   -0.50 KCAL/MOL
REMARK 927      BINDING AFFINITY PREDICTED BY RF-SCORE:    0.00 PKD
ROOT
HETATM    1  C   UNL     1      -9.323  10.065  62.382  1.00  0.00    -0.286 C  
HETATM    2  C   UNL     1      -9.476  10.980  63.592  1.00  0.00    -0.298 C  
HETATM    3  C   UNL     1      -9.993  10.280  64.876  1.00  0.00    -0.393 C  
HETATM    4  C   UNL     1      -8.946   9.225  65.291  1.00  0.00    -0.260 C  
HETATM    5  C   UNL     1     -10.397  11.260  66.068  1.00  0.00    -0.302 C  
HETATM    6  C   UNL     1      -9.219  12.178  66.459  1.00  0.00    -0.216 C  
ENDROOT
BRANCH   5   7
HETATM    7  C   UNL     1     -10.810  10.423  67.322  1.00  0.00    -0.264 C  
BRANCH   7   8
HETATM    8  O   UNL     1     -11.981  10.967  67.959  1.00  0.00    -0.623 OA 
BRANCH   8   9
HETATM    9  C   UNL     1     -11.947  11.095  69.304  1.00  0.00    -0.351 C  
HETATM   10  H2  UNL     1     -10.196  12.238  69.028  1.00  0.00     0.000 HD 
HETATM   11  O   UNL     1     -12.743  10.626  70.099  1.00  0.00    -0.308 OA 
HETATM   12  N   UNL     1     -10.877  11.835  69.671  1.00  0.00    -0.456 N  
HETATM   13  H1  UNL     1     -10.851  11.932  70.686  1.00  0.00     0.000 HD 
ENDBRANCH   8   9
ENDBRANCH   7   8
ENDBRANCH   5   7
BRANCH   5  14
HETATM   14  C   UNL     1     -11.638  12.146  65.715  1.00  0.00    -0.355 C  
BRANCH  14  15
HETATM   15  O   UNL     1     -11.307  13.524  65.478  1.00  0.00    -0.295 OA 
BRANCH  15  16
HETATM   16  C   UNL     1     -11.939  14.123  64.442  1.00  0.00    -0.457 C  
HETATM   17  H1  UNL     1     -12.079  15.887  63.622  1.00  0.00     0.000 HD 
HETATM   18  H2  UNL     1     -10.971  15.901  65.055  1.00  0.00     0.000 HD 
HETATM   19  N   UNL     1     -11.603  15.436  64.403  1.00  0.00    -0.335 N  
HETATM   20  O   UNL     1     -12.642  13.594  63.603  1.00  0.00    -0.728 OA 
ENDBRANCH  15  16
ENDBRANCH  14  15
ENDBRANCH   5  14
TORSDOF 6
ENDMDL
MODEL       36
REMARK 921   NORMALIZED FREE ENERGY PREDICTED BY IDOCK:   -4.32 KCAL/MOL
REMARK 922        TOTAL FREE ENERGY PREDICTED BY IDOCK:   -6.43 KCAL/MOL
REMARK 923 INTER-LIGAND FREE ENERGY PREDICTED BY IDOCK:   -6.07 KCAL/MOL
REMARK 924 INTRA-LIGAND FREE ENERGY PREDICTED BY IDOCK:   -0.35 KCAL/MOL
REMARK 927      BINDING AFFINITY PREDICTED BY RF-SCORE:    0.00 PKD
ROOT
HETATM    1  C   UNL     1     -12.221  14.433  64.495  1.00  0.00    -0.483 C  
HETATM    2  C   UNL     1     -11.633  14.471  65.902  1.00  0.00    -0.349 C  
HETATM    3  C   UNL     1     -11.835  13.173  66.726  1.00  0.00    -0.444 C  
HETATM    4  C   UNL     1     -11.086  12.034  66.002  1.00  0.00    -0.364 C  
HETATM    5  C   UNL     1     -11.454  13.285  68.272  1.00  0.00    -0.351 C  
HETATM    6  C   UNL     1      -9.994  13.751  68.455  1.00  0.00    -0.229 C  
ENDROOT
BRANCH   5   7
HETATM    7  C   UNL     1     -11.617  11.888  68.957  1.00  0.00    -0.317 C  
BRANCH   7   8
HETATM    8  O   UNL     1     -11.979  12.019  70.344  1.00  0.00    -0.348 OA 
BRANCH   8   9
HETATM    9  C   UNL     1     -12.565  10.952  70.931  1.00  0.00    -0.397 C  
HETATM   10  H2  UNL     1     -11.736   9.796  69.374  1.00  0.00     0.000 HD 
HETATM   11  O   UNL     1     -13.242  10.960  71.945  1.00  0.00    -0.467 OA 
HETATM   12  N   UNL     1     -12.298   9.831  70.224  1.00  0.00    -0.486 N  
HETATM   13  H1  UNL     1     -12.740   9.025  70.667  1.00  0.00     0.000 HD 
ENDBRANCH   8   9
ENDBRANCH   7   8
ENDBRANCH   5   7
BRANCH   5  14
HETATM   14  C   UNL     1     -12.402  14.257  69.049  1.00  0.00    -0.112 C  
BRANCH  14  15
HETATM   15  O   UNL     1     -11.703  15.164  69.917  1.00  0.00    -0.273 OA 
BRANCH  15  16
HETATM   16  C   UNL     1     -12.403  15.647  70.969  1.00  0.00    -0.428 C  
HETATM   17  H1  UNL     1     -12.072  16.423  72.728  1.00  0.00     0.000 HD 
HETATM   18  H2  UNL     1     -10.527  16.013  71.876  1.00  0.00     0.000 HD 
HETATM   19  N   UNL     1     -11.544  16.059  71.935  1.00  0.00    -0.456 N  
HETATM   20  O   UNL     1     -13.608  15.784  71.052  1.00  0.00    -0.568 OA 
ENDBRANCH  15  16
ENDBRANCH  14  15
ENDBRANCH   5  14
TORSDOF 6
ENDMDL
MODEL       37
REMARK 921   NORMALIZED FREE ENERGY PREDICTED BY IDOCK:   -4.31 KCAL/MOL
REMARK 922        TOTAL FREE ENERGY PREDICTED BY IDOCK:   -6.42 KCAL/MOL
REMARK 923 INTER-LIGAND FREE ENERGY PREDICTED BY IDOCK:   -6.05 KCAL/MOL
REMARK 924 INTRA-LIGAND FREE ENERGY PREDICTED BY IDOCK:   -0.36 KCAL/MOL
REMARK 927      BINDING AFFINITY PREDICTED BY RF-SCORE:    0.00 PKD
ROOT
HETATM    1  C   UNL     1      -7.641  13.739  68.282  1.00  0.00    -0.129 C  
HETATM    2  C   UNL     1      -8.838  12.829  68.025  1.00  0.00    -0.195 C  
HETATM    3  C   UNL     1      -9.994  13.484  67.225  1.00  0.00    -0.236 C  
HETATM    4  C   UNL     1      -9.451  13.847  65.826  1.00  0.00    -0.016 C  
HETATM    5  C   UNL     1     -11.344  12.636  67.168  1.00  0.00    -0.373 C  
HETATM    6  C   UNL     1     -11.095  11.226  66.592  1.00  0.00    -0.299 C  
ENDROOT
BRANCH   5   7
HETATM    7  C   UNL     1     -12.387  13.366  66.258  1.00  0.00    -0.349 C  
BRANCH   7   8
HETATM    8  O   UNL     1     -12.865  12.506  65.207  1.00  0.00    -0.613 OA 
BRANCH   8   9
HETATM    9  C   UNL     1     -12.511  12.825  63.943  1.00  0.00    -0.367 C  
HETATM   10  H2  UNL     1     -12.139  10.768  63.659  1.00  0.00     0.000 HD 
HETATM   11  O   UNL     1     -12.506  13.939  63.448  1.00  0.00    -0.833 OA 
HETATM   12  N   UNL     1     -12.146  11.711  63.270  1.00  0.00    -0.914 N  
HETATM   13  H1  UNL     1     -11.878  11.951  62.315  1.00  0.00     0.000 HD 
ENDBRANCH   8   9
ENDBRANCH   7   8
ENDBRANCH   5   7
BRANCH   5  14
HETATM   14  C   UNL     1     -12.021  12.501  68.573  1.00  0.00    -0.219 C  
BRANCH  14  15
HETATM   15  O   UNL     1     -12.386  11.151  68.903  1.00  0.00    -0.512 OA 
BRANCH  15  16
HETATM   16  C   UNL     1     -12.128  10.753  70.170  1.00  0.00    -0.346 C  
HETATM   17  H1  UNL     1     -10.922   9.549  71.120  1.00  0.00     0.000 HD 
HETATM   18  H2  UNL     1     -10.626   9.520  69.333  1.00  0.00     0.000 HD 
HETATM   19  N   UNL     1     -11.117   9.849  70.165  1.00  0.00    -0.276 N  
HETATM   20  O   UNL     1     -12.639  11.169  71.192  1.00  0.00    -0.377 OA 
ENDBRANCH  15  16
ENDBRANCH  14  15
ENDBRANCH   5  14
TORSDOF 6
ENDMDL
MODEL       38
REMARK 921   NORMALIZED FREE ENERGY PREDICTED BY IDOCK:   -4.30 KCAL/MOL
REMARK 922        TOTAL FREE ENERGY PREDICTED BY IDOCK:   -6.40 KCAL/MOL
REMARK 923 INTER-LIGAND FREE ENERGY PREDICTED BY IDOCK:   -5.91 KCAL/MOL
REMARK 924 INTRA-LIGAND FREE ENERGY PREDICTED BY IDOCK:   -0.49 KCAL/MOL
REMARK 927      BINDING AFFINITY PREDICTED BY RF-SCORE:    0.00 PKD
ROOT
HETATM    1  C   UNL     1     -10.170  10.896  63.472  1.00  0.00    -0.379 C  
HETATM    2  C   UNL     1     -10.112  11.939  64.584  1.00  0.00    -0.301 C  
HETATM    3  C   UNL     1     -10.843  11.537  65.891  1.00  0.00    -0.316 C  
HETATM    4  C   UNL     1     -10.133  10.291  66.464  1.00  0.00    -0.290 C  
HETATM    5  C   UNL     1     -11.007  12.708  66.963  1.00  0.00    -0.300 C  
HETATM    6  C   UNL     1      -9.640  13.316  67.340  1.00  0.00    -0.223 C  
ENDROOT
BRANCH   5   7
HETATM    7  C   UNL     1     -11.674  12.144  68.261  1.00  0.00    -0.342 C  
BRANCH   7   8
HETATM    8  O   UNL     1     -11.871  13.176  69.245  1.00  0.00    -0.302 OA 
BRANCH   8   9
HETATM    9  C   UNL     1     -12.095  12.779  70.517  1.00  0.00    -0.285 C  
HETATM   10  H2  UNL     1     -12.152  14.828  71.016  1.00  0.00     0.000 HD 
HETATM   11  O   UNL     1     -12.177  11.630  70.916  1.00  0.00    -0.364 OA 
HETATM   12  N   UNL     1     -12.218  13.857  71.323  1.00  0.00    -0.387 N  
HETATM   13  H1  UNL     1     -12.387  13.558  72.283  1.00  0.00     0.000 HD 
ENDBRANCH   8   9
ENDBRANCH   7   8
ENDBRANCH   5   7
BRANCH   5  14
HETATM   14  C   UNL     1     -11.951  13.849  66.456  1.00  0.00    -0.439 C  
BRANCH  14  15
HETATM   15  O   UNL     1     -11.246  15.023  66.024  1.00  0.00    -0.343 OA 
BRANCH  15  16
HETATM   16  C   UNL     1     -11.592  15.519  64.813  1.00  0.00    -0.256 C  
HETATM   17  H1  UNL     1     -12.756  15.068  63.314  1.00  0.00     0.000 HD 
HETATM   18  H2  UNL     1     -12.858  13.833  64.635  1.00  0.00     0.000 HD 
HETATM   19  N   UNL     1     -12.495  14.695  64.226  1.00  0.00    -0.388 N  
HETATM   20  O   UNL     1     -11.238  16.572  64.319  1.00  0.00    -0.992 OA 
ENDBRANCH  15  16
ENDBRANCH  14  15
ENDBRANCH   5  14
TORSDOF 6
ENDMDL
MODEL       39
REMARK 921   NORMALIZED FREE ENERGY PREDICTED BY IDOCK:   -4.29 KCAL/MOL
REMARK 922        TOTAL FREE ENERGY PREDICTED BY IDOCK:   -6.39 KCAL/MOL
REMARK 923 INTER-LIGAND FREE ENERGY PREDICTED BY IDOCK:   -5.97 KCAL/MOL
REMARK 924 INTRA-LIGAND FREE ENERGY PREDICTED BY IDOCK:   -0.42 KCAL/MOL
REMARK 927      BINDING AFFINITY PREDICTED BY RF-SCORE:    0.00 PKD
ROOT
HETATM    1  C   UNL     1     -12.247  11.610  70.454  1.00  0.00    -0.434 C  
HETATM    2  C   UNL     1     -11.374  11.949  69.249  1.00  0.00    -0.338 C  
HETATM    3  C   UNL     1     -11.893  13.124  68.381  1.00  0.00    -0.386 C  
HETATM    4  C   UNL     1     -11.889  14.395  69.257  1.00  0.00    -0.365 C  
HETATM    5  C   UNL     1     -11.137  13.324  66.990  1.00  0.00    -0.304 C  
HETATM    6  C   UNL     1      -9.620  13.512  67.201  1.00  0.00    -0.241 C  
ENDROOT
BRANCH   5   7
HETATM    7  C   UNL     1     -11.696  14.592  66.264  1.00  0.00    -0.358 C  
BRANCH   7   8
HETATM    8  O   UNL     1     -10.666  15.279  65.530  1.00  0.00    -0.324 OA 
BRANCH   8   9
HETATM    9  C   UNL     1     -10.994  16.464  64.971  1.00  0.00    -0.252 C  
HETATM   10  H2  UNL     1     -10.071  17.367  66.639  1.00  0.00     0.000 HD 
HETATM   11  O   UNL     1     -11.588  16.633  63.919  1.00  0.00    -1.204 OA 
HETATM   12  N   UNL     1     -10.568  17.479  65.755  1.00  0.00    -0.273 N  
HETATM   13  H1  UNL     1     -10.816  18.374  65.334  1.00  0.00     0.000 HD 
ENDBRANCH   8   9
ENDBRANCH   7   8
ENDBRANCH   5   7
BRANCH   5  14
HETATM   14  C   UNL     1     -11.372  12.129  66.008  1.00  0.00    -0.358 C  
BRANCH  14  15
HETATM   15  O   UNL     1     -10.319  11.966  65.045  1.00  0.00    -0.267 OA 
BRANCH  15  16
HETATM   16  C   UNL     1     -10.014  10.693  64.699  1.00  0.00    -0.337 C  
HETATM   17  H1  UNL     1     -10.032   8.908  65.484  1.00  0.00     0.000 HD 
HETATM   18  H2  UNL     1     -10.622  10.159  66.653  1.00  0.00     0.000 HD 
HETATM   19  N   UNL     1     -10.262   9.867  65.745  1.00  0.00    -0.235 N  
HETATM   20  O   UNL     1      -9.649  10.293  63.610  1.00  0.00    -0.292 OA 
ENDBRANCH  15  16
ENDBRANCH  14  15
ENDBRANCH   5  14
TORSDOF 6
ENDMDL
MODEL       40
REMARK 921   NORMALIZED FREE ENERGY PREDICTED BY IDOCK:   -4.29 KCAL/MOL
REMARK 922        TOTAL FREE ENERGY PREDICTED BY IDOCK:   -6.38 KCAL/MOL
REMARK 923 INTER-LIGAND FREE ENERGY PREDICTED BY IDOCK:   -6.07 KCAL/MOL
REMARK 924 INTRA-LIGAND FREE ENERGY PREDICTED BY IDOCK:   -0.30 KCAL/MOL
REMARK 927      BINDING AFFINITY PREDICTED BY RF-SCORE:    0.00 PKD
ROOT
HETATM    1  C   UNL     1     -12.074   9.680  70.876  1.00  0.00    -0.383 C  
HETATM    2  C   UNL     1     -11.297  10.497  69.848  1.00  0.00    -0.380 C  
HETATM    3  C   UNL     1     -12.013  11.784  69.364  1.00  0.00    -0.361 C  
HETATM    4  C   UNL     1     -12.181  12.716  70.583  1.00  0.00    -0.373 C  
HETATM    5  C   UNL     1     -11.335  12.508  68.115  1.00  0.00    -0.343 C  
HETATM    6  C   UNL     1      -9.859  12.856  68.405  1.00  0.00    -0.197 C  
ENDROOT
BRANCH   5   7
HETATM    7  C   UNL     1     -12.102  13.833  67.793  1.00  0.00    -0.290 C  
BRANCH   7   8
HETATM    8  O   UNL     1     -11.199  14.945  67.648  1.00  0.00    -0.301 OA 
BRANCH   8   9
HETATM    9  C   UNL     1     -11.477  16.060  68.359  1.00  0.00    -0.331 C  
HETATM   10  H2  UNL     1     -12.827  14.874  69.461  1.00  0.00     0.000 HD 
HETATM   11  O   UNL     1     -10.988  17.166  68.197  1.00  0.00    -0.361 OA 
HETATM   12  N   UNL     1     -12.402  15.787  69.305  1.00  0.00    -0.526 N  
HETATM   13  H1  UNL     1     -12.612  16.629  69.842  1.00  0.00     0.000 HD 
ENDBRANCH   8   9
ENDBRANCH   7   8
ENDBRANCH   5   7
BRANCH   5  14
HETATM   14  C   UNL     1     -11.409  11.643  66.813  1.00  0.00    -0.286 C  
BRANCH  14  15
HETATM   15  O   UNL     1     -10.970  12.342  65.638  1.00  0.00    -0.280 OA 
BRANCH  15  16
HETATM   16  C   UNL     1     -11.845  12.391  64.606  1.00  0.00    -0.380 C  
HETATM   17  H1  UNL     1     -11.836  12.278  62.659  1.00  0.00     0.000 HD 
HETATM   18  H2  UNL     1     -10.168  12.112  63.346  1.00  0.00     0.000 HD 
HETATM   19  N   UNL     1     -11.177  12.241  63.436  1.00  0.00    -0.440 N  
HETATM   20  O   UNL     1     -13.056  12.473  64.671  1.00  0.00    -0.845 OA 
ENDBRANCH  15  16
ENDBRANCH  14  15
ENDBRANCH   5  14
TORSDOF 6
ENDMDL
MODEL       41
REMARK 921   NORMALIZED FREE ENERGY PREDICTED BY IDOCK:   -4.25 KCAL/MOL
REMARK 922        TOTAL FREE ENERGY PREDICTED BY IDOCK:   -6.32 KCAL/MOL
REMARK 923 INTER-LIGAND FREE ENERGY PREDICTED BY IDOCK:   -5.68 KCAL/MOL
REMARK 924 INTRA-LIGAND FREE ENERGY PREDICTED BY IDOCK:   -0.65 KCAL/MOL
REMARK 927      BINDING AFFINITY PREDICTED BY RF-SCORE:    0.00 PKD
ROOT
HETATM    1  C   UNL     1      -7.542  16.630  67.242  1.00  0.00    -0.199 C  
HETATM    2  C   UNL     1      -8.568  16.061  66.267  1.00  0.00    -0.363 C  
HETATM    3  C   UNL     1      -9.836  15.465  66.932  1.00  0.00    -0.251 C  
HETATM    4  C   UNL     1     -10.564  16.610  67.669  1.00  0.00    -0.321 C  
HETATM    5  C   UNL     1     -10.794  14.647  65.953  1.00  0.00    -0.312 C  
HETATM    6  C   UNL     1     -11.238  15.511  64.754  1.00  0.00    -0.399 C  
ENDROOT
BRANCH   5   7
HETATM    7  C   UNL     1     -12.070  14.184  66.729  1.00  0.00    -0.442 C  
BRANCH   7   8
HETATM    8  O   UNL     1     -11.861  12.921  67.386  1.00  0.00    -0.367 OA 
BRANCH   8   9
HETATM    9  C   UNL     1     -11.871  12.920  68.737  1.00  0.00    -0.315 C  
HETATM   10  H2  UNL     1     -12.916  14.748  68.607  1.00  0.00     0.000 HD 
HETATM   11  O   UNL     1     -11.389  12.072  69.468  1.00  0.00    -0.267 OA 
HETATM   12  N   UNL     1     -12.505  14.023  69.195  1.00  0.00    -0.450 N  
HETATM   13  H1  UNL     1     -12.513  14.023  70.215  1.00  0.00     0.000 HD 
ENDBRANCH   8   9
ENDBRANCH   7   8
ENDBRANCH   5   7
BRANCH   5  14
HETATM   14  C   UNL     1     -10.120  13.339  65.418  1.00  0.00    -0.253 C  
BRANCH  14  15
HETATM   15  O   UNL     1     -10.385  13.088  64.028  1.00  0.00    -0.419 OA 
BRANCH  15  16
HETATM   16  C   UNL     1     -10.951  11.895  63.732  1.00  0.00    -0.425 C  
HETATM   17  H1  UNL     1     -12.722  11.141  63.415  1.00  0.00     0.000 HD 
HETATM   18  H2  UNL     1     -12.803  12.916  63.771  1.00  0.00     0.000 HD 
HETATM   19  N   UNL     1     -12.296  12.041  63.638  1.00  0.00    -0.539 N  
HETATM   20  O   UNL     1     -10.380  10.847  63.499  1.00  0.00    -0.352 OA 
ENDBRANCH  15  16
ENDBRANCH  14  15
ENDBRANCH   5  14
TORSDOF 6
ENDMDL
MODEL       42
REMARK 921   NORMALIZED FREE ENERGY PREDICTED BY IDOCK:   -4.24 KCAL/MOL
REMARK 922        TOTAL FREE ENERGY PREDICTED BY IDOCK:   -6.31 KCAL/MOL
REMARK 923 INTER-LIGAND FREE ENERGY PREDICTED BY IDOCK:   -6.02 KCAL/MOL
REMARK 924 INTRA-LIGAND FREE ENERGY PREDICTED BY IDOCK:   -0.30 KCAL/MOL
REMARK 927      BINDING AFFINITY PREDICTED BY RF-SCORE:    0.00 PKD
ROOT
HETATM    1  C   UNL     1      -9.490  10.666  65.664  1.00  0.00    -0.257 C  
HETATM    2  C   UNL     1      -9.846  12.138  65.842  1.00  0.00    -0.265 C  
HETATM    3  C   UNL     1     -10.803  12.438  67.026  1.00  0.00    -0.282 C  
HETATM    4  C   UNL     1     -10.082  12.032  68.329  1.00  0.00    -0.201 C  
HETATM    5  C   UNL     1     -11.381  13.924  67.070  1.00  0.00    -0.343 C  
HETATM    6  C   UNL     1     -10.243  14.966  67.095  1.00  0.00    -0.245 C  
ENDROOT
BRANCH   5   7
HETATM    7  C   UNL     1     -12.252  14.112  68.356  1.00  0.00    -0.164 C  
BRANCH   7   8
HETATM    8  O   UNL     1     -11.929  15.338  69.039  1.00  0.00    -0.323 OA 
BRANCH   8   9
HETATM    9  C   UNL     1     -12.039  15.340  70.386  1.00  0.00    -0.348 C  
HETATM   10  H2  UNL     1     -10.003  14.793  70.431  1.00  0.00     0.000 HD 
HETATM   11  O   UNL     1     -13.042  15.592  71.033  1.00  0.00    -0.500 OA 
HETATM   12  N   UNL     1     -10.855  15.011  70.947  1.00  0.00    -0.551 N  
HETATM   13  H1  UNL     1     -10.938  15.012  71.964  1.00  0.00     0.000 HD 
ENDBRANCH   8   9
ENDBRANCH   7   8
ENDBRANCH   5   7
BRANCH   5  14
HETATM   14  C   UNL     1     -12.328  14.230  65.863  1.00  0.00    -0.403 C  
BRANCH  14  15
HETATM   15  O   UNL     1     -12.802  13.049  65.195  1.00  0.00    -0.656 OA 
BRANCH  15  16
HETATM   16  C   UNL     1     -12.637  13.012  63.853  1.00  0.00    -0.206 C  
HETATM   17  H1  UNL     1     -12.482  11.695  62.422  1.00  0.00     0.000 HD 
HETATM   18  H2  UNL     1     -12.694  10.906  64.039  1.00  0.00     0.000 HD 
HETATM   19  N   UNL     1     -12.607  11.723  63.434  1.00  0.00    -0.494 N  
HETATM   20  O   UNL     1     -12.598  13.958  63.089  1.00  0.00    -0.775 OA 
ENDBRANCH  15  16
ENDBRANCH  14  15
ENDBRANCH   5  14
TORSDOF 6
ENDMDL
MODEL       43
REMARK 921   NORMALIZED FREE ENERGY PREDICTED BY IDOCK:   -4.21 KCAL/MOL
REMARK 922        TOTAL FREE ENERGY PREDICTED BY IDOCK:   -6.27 KCAL/MOL
REMARK 923 INTER-LIGAND FREE ENERGY PREDICTED BY IDOCK:   -5.89 KCAL/MOL
REMARK 924 INTRA-LIGAND FREE ENERGY PREDICTED BY IDOCK:   -0.38 KCAL/MOL
REMARK 927      BINDING AFFINITY PREDICTED BY RF-SCORE:    0.00 PKD
ROOT
HETATM    1  C   UNL     1     -12.935  11.090  71.369  1.00  0.00    -0.517 C  
HETATM    2  C   UNL     1     -11.757  10.996  70.405  1.00  0.00    -0.437 C  
HETATM    3  C   UNL     1     -11.911  11.829  69.106  1.00  0.00    -0.389 C  
HETATM    4  C   UNL     1     -11.990  13.317  69.507  1.00  0.00    -0.366 C  
HETATM    5  C   UNL     1     -10.813  11.544  67.984  1.00  0.00    -0.259 C  
HETATM    6  C   UNL     1      -9.386  11.760  68.530  1.00  0.00    -0.158 C  
ENDROOT
BRANCH   5   7
HETATM    7  C   UNL     1     -11.032  12.511  66.774  1.00  0.00    -0.265 C  
BRANCH   7   8
HETATM    8  O   UNL     1     -12.276  12.243  66.101  1.00  0.00    -0.647 OA 
BRANCH   8   9
HETATM    9  C   UNL     1     -12.507  12.908  64.948  1.00  0.00    -0.478 C  
HETATM   10  H2  UNL     1     -13.406  14.403  66.133  1.00  0.00     0.000 HD 
HETATM   11  O   UNL     1     -12.206  12.542  63.824  1.00  0.00    -0.453 OA 
HETATM   12  N   UNL     1     -13.142  14.073  65.205  1.00  0.00    -0.759 N  
HETATM   13  H1  UNL     1     -13.317  14.575  64.334  1.00  0.00     0.000 HD 
ENDBRANCH   8   9
ENDBRANCH   7   8
ENDBRANCH   5   7
BRANCH   5  14
HETATM   14  C   UNL     1     -10.922  10.096  67.399  1.00  0.00    -0.229 C  
BRANCH  14  15
HETATM   15  O   UNL     1      -9.740   9.672  66.702  1.00  0.00    -0.182 OA 
BRANCH  15  16
HETATM   16  C   UNL     1      -9.631   8.345  66.456  1.00  0.00    -0.236 C  
HETATM   17  H1  UNL     1     -10.569   6.687  66.877  1.00  0.00     0.000 HD 
HETATM   18  H2  UNL     1     -11.387   8.124  67.616  1.00  0.00     0.000 HD 
HETATM   19  N   UNL     1     -10.650   7.687  67.061  1.00  0.00    -0.351 N  
HETATM   20  O   UNL     1      -8.814   7.792  65.747  1.00  0.00    -0.160 OA 
ENDBRANCH  15  16
ENDBRANCH  14  15
ENDBRANCH   5  14
TORSDOF 6
ENDMDL
MODEL       44
REMARK 921   NORMALIZED FREE ENERGY PREDICTED BY IDOCK:   -4.18 KCAL/MOL
REMARK 922        TOTAL FREE ENERGY PREDICTED BY IDOCK:   -6.23 KCAL/MOL
REMARK 923 INTER-LIGAND FREE ENERGY PREDICTED BY IDOCK:   -5.73 KCAL/MOL
REMARK 924 INTRA-LIGAND FREE ENERGY PREDICTED BY IDOCK:   -0.50 KCAL/MOL
REMARK 927      BINDING AFFINITY PREDICTED BY RF-SCORE:    0.00 PKD
ROOT
HETATM    1  C   UNL     1      -7.068  10.411  65.936  1.00  0.00    -0.135 C  
HETATM    2  C   UNL     1      -8.246  10.890  66.778  1.00  0.00    -0.140 C  
HETATM    3  C   UNL     1      -9.418  11.504  65.968  1.00  0.00    -0.249 C  
HETATM    4  C   UNL     1      -9.991  10.397  65.058  1.00  0.00    -0.399 C  
HETATM    5  C   UNL     1     -10.536  12.234  66.841  1.00  0.00    -0.240 C  
HETATM    6  C   UNL     1     -11.128  11.281  67.902  1.00  0.00    -0.325 C  
ENDROOT
BRANCH   5   7
HETATM    7  C   UNL     1     -11.695  12.722  65.912  1.00  0.00    -0.414 C  
BRANCH   7   8
HETATM    8  O   UNL     1     -11.260  13.774  65.031  1.00  0.00    -0.313 OA 
BRANCH   8   9
HETATM    9  C   UNL     1     -12.054  14.062  63.977  1.00  0.00    -0.376 C  
HETATM   10  H2  UNL     1     -11.745  16.093  64.455  1.00  0.00     0.000 HD 
HETATM   11  O   UNL     1     -12.594  13.261  63.233  1.00  0.00    -0.711 OA 
HETATM   12  N   UNL     1     -12.183  15.401  63.847  1.00  0.00    -0.965 N  
HETATM   13  H1  UNL     1     -12.783  15.619  63.051  1.00  0.00     0.000 HD 
ENDBRANCH   8   9
ENDBRANCH   7   8
ENDBRANCH   5   7
BRANCH   5  14
HETATM   14  C   UNL     1      -9.990  13.516  67.555  1.00  0.00    -0.230 C  
BRANCH  14  15
HETATM   15  O   UNL     1     -10.897  14.057  68.528  1.00  0.00    -0.239 OA 
BRANCH  15  16
HETATM   16  C   UNL     1     -11.238  15.358  68.373  1.00  0.00    -0.315 C  
HETATM   17  H1  UNL     1     -12.162  16.767  69.356  1.00  0.00     0.000 HD 
HETATM   18  H2  UNL     1     -12.119  15.216  70.292  1.00  0.00     0.000 HD 
HETATM   19  N   UNL     1     -11.905  15.787  69.473  1.00  0.00    -0.361 N  
HETATM   20  O   UNL     1     -10.945  16.091  67.448  1.00  0.00    -0.315 OA 
ENDBRANCH  15  16
ENDBRANCH  14  15
ENDBRANCH   5  14
TORSDOF 6
ENDMDL
MODEL       45
REMARK 921   NORMALIZED FREE ENERGY PREDICTED BY IDOCK:   -4.16 KCAL/MOL
REMARK 922        TOTAL FREE ENERGY PREDICTED BY IDOCK:   -6.21 KCAL/MOL
REMARK 923 INTER-LIGAND FREE ENERGY PREDICTED BY IDOCK:   -5.69 KCAL/MOL
REMARK 924 INTRA-LIGAND FREE ENERGY PREDICTED BY IDOCK:   -0.51 KCAL/MOL
REMARK 927      BINDING AFFINITY PREDICTED BY RF-SCORE:    0.00 PKD
ROOT
HETATM    1  C   UNL     1     -12.022  14.124  70.578  1.00  0.00    -0.393 C  
HETATM    2  C   UNL     1     -12.098  14.341  69.070  1.00  0.00    -0.320 C  
HETATM    3  C   UNL     1     -11.344  13.283  68.222  1.00  0.00    -0.335 C  
HETATM    4  C   UNL     1     -12.013  11.915  68.472  1.00  0.00    -0.273 C  
HETATM    5  C   UNL     1     -11.200  13.633  66.673  1.00  0.00    -0.324 C  
HETATM    6  C   UNL     1     -12.580  13.877  66.025  1.00  0.00    -0.467 C  
ENDROOT
BRANCH   5   7
HETATM    7  C   UNL     1     -10.506  12.447  65.926  1.00  0.00    -0.256 C  
BRANCH   7   8
HETATM    8  O   UNL     1     -10.113  12.819  64.592  1.00  0.00    -0.293 OA 
BRANCH   8   9
HETATM    9  C   UNL     1     -10.483  11.994  63.588  1.00  0.00    -0.454 C  
HETATM   10  H2  UNL     1      -8.448  11.950  63.037  1.00  0.00     0.000 HD 
HETATM   11  O   UNL     1     -11.614  11.607  63.345  1.00  0.00    -0.395 OA 
HETATM   12  N   UNL     1      -9.403  11.640  62.858  1.00  0.00    -0.524 N  
HETATM   13  H1  UNL     1      -9.682  11.018  62.099  1.00  0.00     0.000 HD 
ENDBRANCH   8   9
ENDBRANCH   7   8
ENDBRANCH   5   7
BRANCH   5  14
HETATM   14  C   UNL     1     -10.293  14.885  66.427  1.00  0.00    -0.286 C  
BRANCH  14  15
HETATM   15  O   UNL     1     -10.905  15.878  65.589  1.00  0.00    -0.329 OA 
BRANCH  15  16
HETATM   16  C   UNL     1     -10.769  17.164  65.987  1.00  0.00    -0.113 C  
HETATM   17  H1  UNL     1     -10.506  18.179  67.632  1.00  0.00     0.000 HD 
HETATM   18  H2  UNL     1     -10.593  16.398  67.951  1.00  0.00     0.000 HD 
HETATM   19  N   UNL     1     -10.609  17.209  67.332  1.00  0.00    -0.326 N  
HETATM   20  O   UNL     1     -10.713  18.152  65.280  1.00  0.00    -0.605 OA 
ENDBRANCH  15  16
ENDBRANCH  14  15
ENDBRANCH   5  14
TORSDOF 6
ENDMDL
MODEL       46
REMARK 921   NORMALIZED FREE ENERGY PREDICTED BY IDOCK:   -4.12 KCAL/MOL
REMARK 922        TOTAL FREE ENERGY PREDICTED BY IDOCK:   -6.15 KCAL/MOL
REMARK 923 INTER-LIGAND FREE ENERGY PREDICTED BY IDOCK:   -5.41 KCAL/MOL
REMARK 924 INTRA-LIGAND FREE ENERGY PREDICTED BY IDOCK:   -0.74 KCAL/MOL
REMARK 927      BINDING AFFINITY PREDICTED BY RF-SCORE:    0.00 PKD
ROOT
HETATM    1  C   UNL     1     -10.389  10.664  64.144  1.00  0.00    -0.293 C  
HETATM    2  C   UNL     1     -10.716  11.689  65.226  1.00  0.00    -0.346 C  
HETATM    3  C   UNL     1     -10.692  13.166  64.752  1.00  0.00    -0.381 C  
HETATM    4  C   UNL     1     -11.793  13.335  63.683  1.00  0.00    -0.515 C  
HETATM    5  C   UNL     1     -10.781  14.253  65.916  1.00  0.00    -0.304 C  
HETATM    6  C   UNL     1     -12.042  14.044  66.781  1.00  0.00    -0.480 C  
ENDROOT
BRANCH   5   7
HETATM    7  C   UNL     1     -10.839  15.687  65.294  1.00  0.00    -0.406 C  
BRANCH   7   8
HETATM    8  O   UNL     1      -9.701  16.478  65.682  1.00  0.00    -0.513 OA 
BRANCH   8   9
HETATM    9  C   UNL     1      -9.918  17.787  65.937  1.00  0.00    -0.120 C  
HETATM   10  H2  UNL     1      -8.463  17.608  67.453  1.00  0.00     0.000 HD 
HETATM   11  O   UNL     1     -10.705  18.519  65.360  1.00  0.00    -0.585 OA 
HETATM   12  N   UNL     1      -9.127  18.198  66.952  1.00  0.00    -0.267 N  
HETATM   13  H1  UNL     1      -9.292  19.186  67.146  1.00  0.00     0.000 HD 
ENDBRANCH   8   9
ENDBRANCH   7   8
ENDBRANCH   5   7
BRANCH   5  14
HETATM   14  C   UNL     1      -9.519  14.238  66.841  1.00  0.00    -0.263 C  
BRANCH  14  15
HETATM   15  O   UNL     1      -9.838  14.155  68.240  1.00  0.00    -0.221 OA 
BRANCH  15  16
HETATM   16  C   UNL     1      -9.576  15.258  68.980  1.00  0.00    -0.237 C  
HETATM   17  H1  UNL     1     -10.379  16.283  70.433  1.00  0.00     0.000 HD 
HETATM   18  H2  UNL     1     -11.400  14.858  69.975  1.00  0.00     0.000 HD 
HETATM   19  N   UNL     1     -10.576  15.452  69.875  1.00  0.00    -0.288 N  
HETATM   20  O   UNL     1      -8.578  15.952  68.942  1.00  0.00    -0.191 OA 
ENDBRANCH  15  16
ENDBRANCH  14  15
ENDBRANCH   5  14
TORSDOF 6
ENDMDL
MODEL       47
REMARK 921   NORMALIZED FREE ENERGY PREDICTED BY IDOCK:   -4.09 KCAL/MOL
REMARK 922        TOTAL FREE ENERGY PREDICTED BY IDOCK:   -6.11 KCAL/MOL
REMARK 923 INTER-LIGAND FREE ENERGY PREDICTED BY IDOCK:   -5.69 KCAL/MOL
REMARK 924 INTRA-LIGAND FREE ENERGY PREDICTED BY IDOCK:   -0.43 KCAL/MOL
REMARK 927      BINDING AFFINITY PREDICTED BY RF-SCORE:    0.00 PKD
ROOT
HETATM    1  C   UNL     1     -12.152  15.797  73.121  1.00  0.00    -0.603 C  
HETATM    2  C   UNL     1     -11.915  16.083  71.642  1.00  0.00    -0.569 C  
HETATM    3  C   UNL     1     -11.422  14.868  70.815  1.00  0.00    -0.313 C  
HETATM    4  C   UNL     1     -12.531  13.795  70.849  1.00  0.00    -0.451 C  
HETATM    5  C   UNL     1     -10.931  15.209  69.336  1.00  0.00    -0.268 C  
HETATM    6  C   UNL     1     -12.035  15.926  68.531  1.00  0.00    -0.051 C  
ENDROOT
BRANCH   5   7
HETATM    7  C   UNL     1     -10.552  13.888  68.588  1.00  0.00    -0.257 C  
BRANCH   7   8
HETATM    8  O   UNL     1     -11.233  13.781  67.325  1.00  0.00    -0.293 OA 
BRANCH   8   9
HETATM    9  C   UNL     1     -11.672  12.555  66.964  1.00  0.00    -0.367 C  
HETATM   10  H2  UNL     1     -11.549  13.233  64.970  1.00  0.00     0.000 HD 
HETATM   11  O   UNL     1     -11.949  11.633  67.712  1.00  0.00    -0.608 OA 
HETATM   12  N   UNL     1     -11.772  12.478  65.618  1.00  0.00    -0.403 N  
HETATM   13  H1  UNL     1     -12.104  11.553  65.345  1.00  0.00     0.000 HD 
ENDBRANCH   8   9
ENDBRANCH   7   8
ENDBRANCH   5   7
BRANCH   5  14
HETATM   14  C   UNL     1      -9.638  16.092  69.328  1.00  0.00    -0.255 C  
BRANCH  14  15
HETATM   15  O   UNL     1      -9.611  17.053  68.260  1.00  0.00    -0.255 OA 
BRANCH  15  16
HETATM   16  C   UNL     1      -9.204  18.302  68.588  1.00  0.00    -0.292 C  
HETATM   17  H1  UNL     1      -7.580  19.381  68.548  1.00  0.00     0.000 HD 
HETATM   18  H2  UNL     1      -7.292  17.714  67.899  1.00  0.00     0.000 HD 
HETATM   19  N   UNL     1      -7.887  18.440  68.301  1.00  0.00    -0.289 N  
HETATM   20  O   UNL     1      -9.892  19.215  69.002  1.00  0.00    -0.410 OA 
ENDBRANCH  15  16
ENDBRANCH  14  15
ENDBRANCH   5  14
TORSDOF 6
ENDMDL
MODEL       48
REMARK 921   NORMALIZED FREE ENERGY PREDICTED BY IDOCK:   -4.09 KCAL/MOL
REMARK 922        TOTAL FREE ENERGY PREDICTED BY IDOCK:   -6.11 KCAL/MOL
REMARK 923 INTER-LIGAND FREE ENERGY PREDICTED BY IDOCK:   -5.27 KCAL/MOL
REMARK 924 INTRA-LIGAND FREE ENERGY PREDICTED BY IDOCK:   -0.84 KCAL/MOL
REMARK 927      BINDING AFFINITY PREDICTED BY RF-SCORE:    0.00 PKD
ROOT
HETATM    1  C   UNL     1      -7.626   9.572  69.081  1.00  0.00    -0.075 C  
HETATM    2  C   UNL     1      -8.791  10.545  68.933  1.00  0.00    -0.166 C  
HETATM    3  C   UNL     1      -9.283  10.755  67.477  1.00  0.00    -0.150 C  
HETATM    4  C   UNL     1      -9.815   9.401  66.960  1.00  0.00    -0.258 C  
HETATM    5  C   UNL     1     -10.323  11.949  67.278  1.00  0.00    -0.228 C  
HETATM    6  C   UNL     1     -11.559  11.770  68.185  1.00  0.00    -0.391 C  
ENDROOT
BRANCH   5   7
HETATM    7  C   UNL     1     -10.802  11.987  65.790  1.00  0.00    -0.287 C  
BRANCH   7   8
HETATM    8  O   UNL     1     -12.218  12.231  65.696  1.00  0.00    -0.605 OA 
BRANCH   8   9
HETATM    9  C   UNL     1     -12.617  13.236  64.886  1.00  0.00    -0.384 C  
HETATM   10  H2  UNL     1     -13.100  14.298  66.643  1.00  0.00     0.000 HD 
HETATM   11  O   UNL     1     -12.593  13.239  63.666  1.00  0.00    -0.708 OA 
HETATM   12  N   UNL     1     -13.067  14.275  65.623  1.00  0.00    -0.582 N  
HETATM   13  H1  UNL     1     -13.370  15.033  65.012  1.00  0.00     0.000 HD 
ENDBRANCH   8   9
ENDBRANCH   7   8
ENDBRANCH   5   7
BRANCH   5  14
HETATM   14  C   UNL     1      -9.681  13.349  67.559  1.00  0.00    -0.224 C  
BRANCH  14  15
HETATM   15  O   UNL     1      -9.411  14.101  66.365  1.00  0.00    -0.275 OA 
BRANCH  15  16
HETATM   16  C   UNL     1      -9.672  15.428  66.421  1.00  0.00    -0.288 C  
HETATM   17  H1  UNL     1      -8.733  17.125  66.214  1.00  0.00     0.000 HD 
HETATM   18  H2  UNL     1      -7.625  15.713  65.973  1.00  0.00     0.000 HD 
HETATM   19  N   UNL     1      -8.537  16.126  66.172  1.00  0.00    -0.331 N  
HETATM   20  O   UNL     1     -10.753  15.960  66.586  1.00  0.00    -0.316 OA 
ENDBRANCH  15  16
ENDBRANCH  14  15
ENDBRANCH   5  14
TORSDOF 6
ENDMDL
MODEL       49
REMARK 921   NORMALIZED FREE ENERGY PREDICTED BY IDOCK:   -4.05 KCAL/MOL
REMARK 922        TOTAL FREE ENERGY PREDICTED BY IDOCK:   -6.06 KCAL/MOL
REMARK 923 INTER-LIGAND FREE ENERGY PREDICTED BY IDOCK:   -5.52 KCAL/MOL
REMARK 924 INTRA-LIGAND FREE ENERGY PREDICTED BY IDOCK:   -0.53 KCAL/MOL
REMARK 927      BINDING AFFINITY PREDICTED BY RF-SCORE:    0.00 PKD
ROOT
HETATM    1  C   UNL     1     -12.194  11.409  69.609  1.00  0.00    -0.316 C  
HETATM    2  C   UNL     1     -10.943  11.699  68.787  1.00  0.00    -0.274 C  
HETATM    3  C   UNL     1     -11.201  12.430  67.444  1.00  0.00    -0.351 C  
HETATM    4  C   UNL     1     -11.806  13.813  67.768  1.00  0.00    -0.404 C  
HETATM    5  C   UNL     1      -9.945  12.514  66.465  1.00  0.00    -0.252 C  
HETATM    6  C   UNL     1      -8.741  13.188  67.157  1.00  0.00    -0.214 C  
ENDROOT
BRANCH   5   7
HETATM    7  C   UNL     1     -10.319  13.351  65.197  1.00  0.00    -0.336 C  
BRANCH   7   8
HETATM    8  O   UNL     1     -10.883  12.523  64.164  1.00  0.00    -0.326 OA 
BRANCH   8   9
HETATM    9  C   UNL     1     -12.155  12.783  63.792  1.00  0.00    -0.517 C  
HETATM   10  H2  UNL     1     -11.553  14.794  63.583  1.00  0.00     0.000 HD 
HETATM   11  O   UNL     1     -13.067  11.978  63.707  1.00  0.00    -0.730 OA 
HETATM   12  N   UNL     1     -12.297  14.099  63.519  1.00  0.00    -1.127 N  
HETATM   13  H1  UNL     1     -13.258  14.296  63.239  1.00  0.00     0.000 HD 
ENDBRANCH   8   9
ENDBRANCH   7   8
ENDBRANCH   5   7
BRANCH   5  14
HETATM   14  C   UNL     1      -9.508  11.107  65.936  1.00  0.00    -0.215 C  
BRANCH  14  15
HETATM   15  O   UNL     1      -8.235  10.677  66.444  1.00  0.00    -0.135 OA 
BRANCH  15  16
HETATM   16  C   UNL     1      -8.221   9.498  67.107  1.00  0.00    -0.113 C  
HETATM   17  H1  UNL     1      -7.159   8.581  68.463  1.00  0.00     0.000 HD 
HETATM   18  H2  UNL     1      -6.492  10.223  68.087  1.00  0.00     0.000 HD 
HETATM   19  N   UNL     1      -7.170   9.470  67.963  1.00  0.00    -0.081 N  
HETATM   20  O   UNL     1      -9.045   8.605  67.041  1.00  0.00    -0.132 OA 
ENDBRANCH  15  16
ENDBRANCH  14  15
ENDBRANCH   5  14
TORSDOF 6
ENDMDL
MODEL       50
REMARK 921   NORMALIZED FREE ENERGY PREDICTED BY IDOCK:   -4.05 KCAL/MOL
REMARK 922        TOTAL FREE ENERGY PREDICTED BY IDOCK:   -6.05 KCAL/MOL
REMARK 923 INTER-LIGAND FREE ENERGY PREDICTED BY IDOCK:   -5.33 KCAL/MOL
REMARK 924 INTRA-LIGAND FREE ENERGY PREDICTED BY IDOCK:   -0.73 KCAL/MOL
REMARK 927      BINDING AFFINITY PREDICTED BY RF-SCORE:    0.00 PKD
ROOT
HETATM    1  C   UNL     1     -10.476   9.863  69.823  1.00  0.00    -0.292 C  
HETATM    2  C   UNL     1     -11.069  10.712  68.703  1.00  0.00    -0.315 C  
HETATM    3  C   UNL     1     -10.195  11.917  68.268  1.00  0.00    -0.207 C  
HETATM    4  C   UNL     1      -8.873  11.359  67.700  1.00  0.00    -0.139 C  
HETATM    5  C   UNL     1     -10.908  12.952  67.286  1.00  0.00    -0.277 C  
HETATM    6  C   UNL     1     -11.428  12.248  66.014  1.00  0.00    -0.434 C  
ENDROOT
BRANCH   5   7
HETATM    7  C   UNL     1      -9.890  14.060  66.857  1.00  0.00    -0.267 C  
BRANCH   7   8
HETATM    8  O   UNL     1     -10.302  14.717  65.644  1.00  0.00    -0.309 OA 
BRANCH   8   9
HETATM    9  C   UNL     1     -10.472  16.056  65.697  1.00  0.00    -0.397 C  
HETATM   10  H2  UNL     1      -9.865  15.931  67.713  1.00  0.00     0.000 HD 
HETATM   11  O   UNL     1     -10.840  16.778  64.786  1.00  0.00    -0.745 OA 
HETATM   12  N   UNL     1     -10.174  16.512  66.934  1.00  0.00    -0.290 N  
HETATM   13  H1  UNL     1     -10.302  17.523  66.974  1.00  0.00     0.000 HD 
ENDBRANCH   8   9
ENDBRANCH   7   8
ENDBRANCH   5   7
BRANCH   5  14
HETATM   14  C   UNL     1     -12.095  13.705  67.974  1.00  0.00    -0.274 C  
BRANCH  14  15
HETATM   15  O   UNL     1     -11.677  14.590  69.026  1.00  0.00    -0.278 OA 
BRANCH  15  16
HETATM   16  C   UNL     1     -12.318  14.459  70.210  1.00  0.00    -0.348 C  
HETATM   17  H1  UNL     1     -13.355  15.548  71.453  1.00  0.00     0.000 HD 
HETATM   18  H2  UNL     1     -12.815  16.506  70.014  1.00  0.00     0.000 HD 
HETATM   19  N   UNL     1     -12.872  15.646  70.560  1.00  0.00    -0.394 N  
HETATM   20  O   UNL     1     -12.469  13.441  70.858  1.00  0.00    -0.361 OA 
ENDBRANCH  15  16
ENDBRANCH  14  15
ENDBRANCH   5  14
TORSDOF 6
ENDMDL
MODEL       51
REMARK 921   NORMALIZED FREE ENERGY PREDICTED BY IDOCK:   -4.03 KCAL/MOL
REMARK 922        TOTAL FREE ENERGY PREDICTED BY IDOCK:   -6.03 KCAL/MOL
REMARK 923 INTER-LIGAND FREE ENERGY PREDICTED BY IDOCK:   -5.24 KCAL/MOL
REMARK 924 INTRA-LIGAND FREE ENERGY PREDICTED BY IDOCK:   -0.79 KCAL/MOL
REMARK 927      BINDING AFFINITY PREDICTED BY RF-SCORE:    0.00 PKD
ROOT
HETATM    1  C   UNL     1      -9.642  17.080  66.519  1.00  0.00    -0.295 C  
HETATM    2  C   UNL     1     -10.496  15.973  65.908  1.00  0.00    -0.373 C  
HETATM    3  C   UNL     1     -10.763  14.766  66.845  1.00  0.00    -0.308 C  
HETATM    4  C   UNL     1     -11.568  15.280  68.058  1.00  0.00    -0.325 C  
HETATM    5  C   UNL     1     -11.433  13.499  66.144  1.00  0.00    -0.348 C  
HETATM    6  C   UNL     1     -12.761  13.880  65.456  1.00  0.00    -0.536 C  
ENDROOT
BRANCH   5   7
HETATM    7  C   UNL     1     -11.729  12.399  67.216  1.00  0.00    -0.349 C  
BRANCH   7   8
HETATM    8  O   UNL     1     -10.517  11.901  67.811  1.00  0.00    -0.195 OA 
BRANCH   8   9
HETATM    9  C   UNL     1     -10.608  10.764  68.535  1.00  0.00    -0.195 C  
HETATM   10  H2  UNL     1     -11.661   9.951  66.898  1.00  0.00     0.000 HD 
HETATM   11  O   UNL     1     -10.166  10.578  69.656  1.00  0.00    -0.226 OA 
HETATM   12  N   UNL     1     -11.280   9.823  67.835  1.00  0.00    -0.505 N  
HETATM   13  H1  UNL     1     -11.350   8.964  68.382  1.00  0.00     0.000 HD 
ENDBRANCH   8   9
ENDBRANCH   7   8
ENDBRANCH   5   7
BRANCH   5  14
HETATM   14  C   UNL     1     -10.486  12.831  65.093  1.00  0.00    -0.300 C  
BRANCH  14  15
HETATM   15  O   UNL     1     -11.028  11.630  64.520  1.00  0.00    -0.308 OA 
BRANCH  15  16
HETATM   16  C   UNL     1     -10.148  10.629  64.282  1.00  0.00    -0.343 C  
HETATM   17  H1  UNL     1      -8.944  10.029  62.869  1.00  0.00     0.000 HD 
HETATM   18  H2  UNL     1      -9.828  11.539  62.399  1.00  0.00     0.000 HD 
HETATM   19  N   UNL     1      -9.607  10.784  63.048  1.00  0.00    -0.326 N  
HETATM   20  O   UNL     1      -9.804   9.752  65.051  1.00  0.00    -0.306 OA 
ENDBRANCH  15  16
ENDBRANCH  14  15
ENDBRANCH   5  14
TORSDOF 6
ENDMDL
MODEL       52
REMARK 921   NORMALIZED FREE ENERGY PREDICTED BY IDOCK:   -4.03 KCAL/MOL
REMARK 922        TOTAL FREE ENERGY PREDICTED BY IDOCK:   -6.03 KCAL/MOL
REMARK 923 INTER-LIGAND FREE ENERGY PREDICTED BY IDOCK:   -5.55 KCAL/MOL
REMARK 924 INTRA-LIGAND FREE ENERGY PREDICTED BY IDOCK:   -0.48 KCAL/MOL
REMARK 927      BINDING AFFINITY PREDICTED BY RF-SCORE:    0.00 PKD
ROOT
HETATM    1  C   UNL     1     -10.545  12.371  63.743  1.00  0.00    -0.486 C  
HETATM    2  C   UNL     1     -10.641  12.226  65.258  1.00  0.00    -0.322 C  
HETATM    3  C   UNL     1     -11.199  13.470  65.997  1.00  0.00    -0.305 C  
HETATM    4  C   UNL     1     -12.649  13.692  65.516  1.00  0.00    -0.541 C  
HETATM    5  C   UNL     1     -11.069  13.430  67.586  1.00  0.00    -0.288 C  
HETATM    6  C   UNL     1     -11.751  12.174  68.171  1.00  0.00    -0.402 C  
ENDROOT
BRANCH   5   7
HETATM    7  C   UNL     1     -11.751  14.696  68.203  1.00  0.00    -0.330 C  
BRANCH   7   8
HETATM    8  O   UNL     1     -12.404  14.390  69.449  1.00  0.00    -0.294 OA 
BRANCH   8   9
HETATM    9  C   UNL     1     -12.519  15.395  70.346  1.00  0.00    -0.404 C  
HETATM   10  H2  UNL     1     -14.546  14.840  70.523  1.00  0.00     0.000 HD 
HETATM   11  O   UNL     1     -11.634  16.152  70.707  1.00  0.00    -0.392 OA 
HETATM   12  N   UNL     1     -13.787  15.459  70.808  1.00  0.00    -0.860 N  
HETATM   13  H1  UNL     1     -13.874  16.217  71.485  1.00  0.00     0.000 HD 
ENDBRANCH   8   9
ENDBRANCH   7   8
ENDBRANCH   5   7
BRANCH   5  14
HETATM   14  C   UNL     1      -9.579  13.470  68.063  1.00  0.00    -0.221 C  
BRANCH  14  15
HETATM   15  O   UNL     1      -9.231  14.685  68.746  1.00  0.00    -0.195 OA 
BRANCH  15  16
HETATM   16  C   UNL     1      -8.128  15.330  68.298  1.00  0.00    -0.137 C  
HETATM   17  H1  UNL     1      -7.120  15.552  66.643  1.00  0.00     0.000 HD 
HETATM   18  H2  UNL     1      -8.557  14.472  66.412  1.00  0.00     0.000 HD 
HETATM   19  N   UNL     1      -7.952  15.066  66.980  1.00  0.00    -0.202 N  
HETATM   20  O   UNL     1      -7.421  16.099  68.920  1.00  0.00    -0.170 OA 
ENDBRANCH  15  16
ENDBRANCH  14  15
ENDBRANCH   5  14
TORSDOF 6
ENDMDL
MODEL       53
REMARK 921   NORMALIZED FREE ENERGY PREDICTED BY IDOCK:   -4.01 KCAL/MOL
REMARK 922        TOTAL FREE ENERGY PREDICTED BY IDOCK:   -6.00 KCAL/MOL
REMARK 923 INTER-LIGAND FREE ENERGY PREDICTED BY IDOCK:   -5.65 KCAL/MOL
REMARK 924 INTRA-LIGAND FREE ENERGY PREDICTED BY IDOCK:   -0.35 KCAL/MOL
REMARK 927      BINDING AFFINITY PREDICTED BY RF-SCORE:    0.00 PKD
ROOT
HETATM    1  C   UNL     1      -9.732   9.807  65.274  1.00  0.00    -0.371 C  
HETATM    2  C   UNL     1     -10.702  10.935  65.612  1.00  0.00    -0.178 C  
HETATM    3  C   UNL     1     -10.339  12.311  64.996  1.00  0.00    -0.321 C  
HETATM    4  C   UNL     1     -10.398  12.170  63.460  1.00  0.00    -0.473 C  
HETATM    5  C   UNL     1     -11.193  13.544  65.541  1.00  0.00    -0.304 C  
HETATM    6  C   UNL     1     -12.705  13.308  65.341  1.00  0.00    -0.460 C  
ENDROOT
BRANCH   5   7
HETATM    7  C   UNL     1     -10.789  14.845  64.773  1.00  0.00    -0.363 C  
BRANCH   7   8
HETATM    8  O   UNL     1      -9.892  15.661  65.549  1.00  0.00    -0.328 OA 
BRANCH   8   9
HETATM    9  C   UNL     1     -10.196  16.973  65.664  1.00  0.00    -0.176 C  
HETATM   10  H2  UNL     1      -9.004  16.970  67.404  1.00  0.00     0.000 HD 
HETATM   11  O   UNL     1     -10.902  17.624  64.913  1.00  0.00    -0.831 OA 
HETATM   12  N   UNL     1      -9.598  17.492  66.759  1.00  0.00    -0.271 N  
HETATM   13  H1  UNL     1      -9.827  18.482  66.846  1.00  0.00     0.000 HD 
ENDBRANCH   8   9
ENDBRANCH   7   8
ENDBRANCH   5   7
BRANCH   5  14
HETATM   14  C   UNL     1     -10.917  13.836  67.054  1.00  0.00    -0.290 C  
BRANCH  14  15
HETATM   15  O   UNL     1     -12.037  13.543  67.904  1.00  0.00    -0.346 OA 
BRANCH  15  16
HETATM   16  C   UNL     1     -11.861  12.551  68.808  1.00  0.00    -0.303 C  
HETATM   17  H1  UNL     1     -11.462  12.340  70.706  1.00  0.00     0.000 HD 
HETATM   18  H2  UNL     1     -11.537  14.086  70.228  1.00  0.00     0.000 HD 
HETATM   19  N   UNL     1     -11.595  13.088  70.025  1.00  0.00    -0.189 N  
HETATM   20  O   UNL     1     -11.989  11.356  68.625  1.00  0.00    -0.452 OA 
ENDBRANCH  15  16
ENDBRANCH  14  15
ENDBRANCH   5  14
TORSDOF 6
ENDMDL
MODEL       54
REMARK 921   NORMALIZED FREE ENERGY PREDICTED BY IDOCK:   -3.98 KCAL/MOL
REMARK 922        TOTAL FREE ENERGY PREDICTED BY IDOCK:   -5.97 KCAL/MOL
REMARK 923 INTER-LIGAND FREE ENERGY PREDICTED BY IDOCK:   -5.48 KCAL/MOL
REMARK 924 INTRA-LIGAND FREE ENERGY PREDICTED BY IDOCK:   -0.49 KCAL/MOL
REMARK 927      BINDING AFFINITY PREDICTED BY RF-SCORE:    0.00 PKD
ROOT
HETATM    1  C   UNL     1     -12.542  12.082  63.498  1.00  0.00    -0.625 C  
HETATM    2  C   UNL     1     -12.297  12.540  64.932  1.00  0.00    -0.539 C  
HETATM    3  C   UNL     1     -11.336  13.749  65.074  1.00  0.00    -0.334 C  
HETATM    4  C   UNL     1     -11.989  14.956  64.366  1.00  0.00    -0.408 C  
HETATM    5  C   UNL     1     -10.875  14.077  66.566  1.00  0.00    -0.300 C  
HETATM    6  C   UNL     1     -12.091  14.315  67.487  1.00  0.00    -0.347 C  
ENDROOT
BRANCH   5   7
HETATM    7  C   UNL     1      -9.989  15.366  66.572  1.00  0.00    -0.268 C  
BRANCH   7   8
HETATM    8  O   UNL     1     -10.574  16.406  67.377  1.00  0.00    -0.314 OA 
BRANCH   8   9
HETATM    9  C   UNL     1     -10.277  17.682  67.046  1.00  0.00    -0.332 C  
HETATM   10  H2  UNL     1     -10.142  18.058  69.117  1.00  0.00     0.000 HD 
HETATM   11  O   UNL     1     -10.194  18.141  65.920  1.00  0.00    -0.548 OA 
HETATM   12  N   UNL     1     -10.078  18.415  68.164  1.00  0.00    -0.363 N  
HETATM   13  H1  UNL     1      -9.853  19.379  67.915  1.00  0.00     0.000 HD 
ENDBRANCH   8   9
ENDBRANCH   7   8
ENDBRANCH   5   7
BRANCH   5  14
HETATM   14  C   UNL     1      -9.986  12.943  67.177  1.00  0.00    -0.240 C  
BRANCH  14  15
HETATM   15  O   UNL     1     -10.470  12.457  68.439  1.00  0.00    -0.224 OA 
BRANCH  15  16
HETATM   16  C   UNL     1     -10.490  11.112  68.596  1.00  0.00    -0.197 C  
HETATM   17  H1  UNL     1     -11.510   9.571  67.974  1.00  0.00     0.000 HD 
HETATM   18  H2  UNL     1     -12.138  11.117  67.269  1.00  0.00     0.000 HD 
HETATM   19  N   UNL     1     -11.495  10.584  67.855  1.00  0.00    -0.232 N  
HETATM   20  O   UNL     1      -9.704  10.432  69.227  1.00  0.00    -0.206 OA 
ENDBRANCH  15  16
ENDBRANCH  14  15
ENDBRANCH   5  14
TORSDOF 6
ENDMDL
MODEL       55
REMARK 921   NORMALIZED FREE ENERGY PREDICTED BY IDOCK:   -3.98 KCAL/MOL
REMARK 922        TOTAL FREE ENERGY PREDICTED BY IDOCK:   -5.96 KCAL/MOL
REMARK 923 INTER-LIGAND FREE ENERGY PREDICTED BY IDOCK:   -5.44 KCAL/MOL
REMARK 924 INTRA-LIGAND FREE ENERGY PREDICTED BY IDOCK:   -0.53 KCAL/MOL
REMARK 927      BINDING AFFINITY PREDICTED BY RF-SCORE:    0.00 PKD
ROOT
HETATM    1  C   UNL     1     -10.591  17.726  67.526  1.00  0.00    -0.365 C  
HETATM    2  C   UNL     1     -10.546  16.257  67.932  1.00  0.00    -0.318 C  
HETATM    3  C   UNL     1     -10.078  15.287  66.816  1.00  0.00    -0.262 C  
HETATM    4  C   UNL     1      -8.623  15.654  66.453  1.00  0.00    -0.319 C  
HETATM    5  C   UNL     1     -10.266  13.737  67.142  1.00  0.00    -0.244 C  
HETATM    6  C   UNL     1      -9.547  13.350  68.452  1.00  0.00    -0.188 C  
ENDROOT
BRANCH   5   7
HETATM    7  C   UNL     1      -9.672  12.877  65.978  1.00  0.00    -0.223 C  
BRANCH   7   8
HETATM    8  O   UNL     1      -9.764  11.469  66.261  1.00  0.00    -0.203 OA 
BRANCH   8   9
HETATM    9  C   UNL     1      -9.937  10.640  65.208  1.00  0.00    -0.294 C  
HETATM   10  H2  UNL     1     -10.427  12.360  64.091  1.00  0.00     0.000 HD 
HETATM   11  O   UNL     1      -9.797   9.428  65.206  1.00  0.00    -0.231 OA 
HETATM   12  N   UNL     1     -10.301  11.348  64.117  1.00  0.00    -0.313 N  
HETATM   13  H1  UNL     1     -10.432  10.723  63.321  1.00  0.00     0.000 HD 
ENDBRANCH   8   9
ENDBRANCH   7   8
ENDBRANCH   5   7
BRANCH   5  14
HETATM   14  C   UNL     1     -11.774  13.330  67.248  1.00  0.00    -0.377 C  
BRANCH  14  15
HETATM   15  O   UNL     1     -12.636  14.109  66.402  1.00  0.00    -0.427 OA 
BRANCH  15  16
HETATM   16  C   UNL     1     -12.744  13.699  65.117  1.00  0.00    -0.395 C  
HETATM   17  H1  UNL     1     -12.479  14.403  63.317  1.00  0.00     0.000 HD 
HETATM   18  H2  UNL     1     -12.100  15.642  64.584  1.00  0.00     0.000 HD 
HETATM   19  N   UNL     1     -12.397  14.712  64.286  1.00  0.00    -0.453 N  
HETATM   20  O   UNL     1     -13.026  12.584  64.720  1.00  0.00    -0.827 OA 
ENDBRANCH  15  16
ENDBRANCH  14  15
ENDBRANCH   5  14
TORSDOF 6
ENDMDL
MODEL       56
REMARK 921   NORMALIZED FREE ENERGY PREDICTED BY IDOCK:   -3.95 KCAL/MOL
REMARK 922        TOTAL FREE ENERGY PREDICTED BY IDOCK:   -5.93 KCAL/MOL
REMARK 923 INTER-LIGAND FREE ENERGY PREDICTED BY IDOCK:   -5.50 KCAL/MOL
REMARK 924 INTRA-LIGAND FREE ENERGY PREDICTED BY IDOCK:   -0.43 KCAL/MOL
REMARK 927      BINDING AFFINITY PREDICTED BY RF-SCORE:    0.00 PKD
ROOT
HETATM    1  C   UNL     1      -7.681  11.177  68.343  1.00  0.00    -0.125 C  
HETATM    2  C   UNL     1      -8.985  11.806  67.865  1.00  0.00    -0.180 C  
HETATM    3  C   UNL     1      -9.422  11.394  66.435  1.00  0.00    -0.224 C  
HETATM    4  C   UNL     1      -9.682   9.872  66.442  1.00  0.00    -0.270 C  
HETATM    5  C   UNL     1     -10.637  12.231  65.829  1.00  0.00    -0.289 C  
HETATM    6  C   UNL     1     -11.874  12.165  66.749  1.00  0.00    -0.304 C  
ENDROOT
BRANCH   5   7
HETATM    7  C   UNL     1     -11.030  11.652  64.430  1.00  0.00    -0.337 C  
BRANCH   7   8
HETATM    8  O   UNL     1     -10.108  12.072  63.406  1.00  0.00    -0.428 OA 
BRANCH   8   9
HETATM    9  C   UNL     1      -9.266  11.136  62.915  1.00  0.00    -0.340 C  
HETATM   10  H2  UNL     1      -7.870  12.698  62.670  1.00  0.00     0.000 HD 
HETATM   11  O   UNL     1      -9.499   9.946  62.783  1.00  0.00    -0.273 OA 
HETATM   12  N   UNL     1      -8.090  11.707  62.572  1.00  0.00    -0.192 N  
HETATM   13  H1  UNL     1      -7.455  11.001  62.200  1.00  0.00     0.000 HD 
ENDBRANCH   8   9
ENDBRANCH   7   8
ENDBRANCH   5   7
BRANCH   5  14
HETATM   14  C   UNL     1     -10.262  13.730  65.583  1.00  0.00    -0.313 C  
BRANCH  14  15
HETATM   15  O   UNL     1     -11.333  14.500  65.013  1.00  0.00    -0.342 OA 
BRANCH  15  16
HETATM   16  C   UNL     1     -11.067  15.803  64.760  1.00  0.00    -0.400 C  
HETATM   17  H1  UNL     1      -9.940  17.238  65.450  1.00  0.00     0.000 HD 
HETATM   18  H2  UNL     1      -9.709  15.700  66.379  1.00  0.00     0.000 HD 
HETATM   19  N   UNL     1     -10.140  16.256  65.640  1.00  0.00    -0.337 N  
HETATM   20  O   UNL     1     -11.505  16.481  63.851  1.00  0.00    -1.145 OA 
ENDBRANCH  15  16
ENDBRANCH  14  15
ENDBRANCH   5  14
TORSDOF 6
ENDMDL
MODEL       57
REMARK 921   NORMALIZED FREE ENERGY PREDICTED BY IDOCK:   -3.95 KCAL/MOL
REMARK 922        TOTAL FREE ENERGY PREDICTED BY IDOCK:   -5.92 KCAL/MOL
REMARK 923 INTER-LIGAND FREE ENERGY PREDICTED BY IDOCK:   -5.54 KCAL/MOL
REMARK 924 INTRA-LIGAND FREE ENERGY PREDICTED BY IDOCK:   -0.38 KCAL/MOL
REMARK 927      BINDING AFFINITY PREDICTED BY RF-SCORE:    0.00 PKD
ROOT
HETATM    1  C   UNL     1      -6.194  16.615  69.692  1.00  0.00    -0.226 C  
HETATM    2  C   UNL     1      -7.408  15.845  69.185  1.00  0.00    -0.198 C  
HETATM    3  C   UNL     1      -8.175  16.529  68.024  1.00  0.00    -0.172 C  
HETATM    4  C   UNL     1      -7.217  16.620  66.816  1.00  0.00    -0.272 C  
HETATM    5  C   UNL     1      -9.580  15.868  67.656  1.00  0.00    -0.221 C  
HETATM    6  C   UNL     1      -9.420  14.371  67.314  1.00  0.00    -0.215 C  
ENDROOT
BRANCH   5   7
HETATM    7  C   UNL     1     -10.197  16.596  66.416  1.00  0.00    -0.315 C  
BRANCH   7   8
HETATM    8  O   UNL     1     -10.167  15.761  65.244  1.00  0.00    -0.375 OA 
BRANCH   8   9
HETATM    9  C   UNL     1     -11.238  15.816  64.422  1.00  0.00    -0.236 C  
HETATM   10  H2  UNL     1     -11.484  13.757  64.804  1.00  0.00     0.000 HD 
HETATM   11  O   UNL     1     -11.653  16.801  63.834  1.00  0.00    -1.122 OA 
HETATM   12  N   UNL     1     -11.811  14.597  64.325  1.00  0.00    -0.664 N  
HETATM   13  H1  UNL     1     -12.619  14.638  63.704  1.00  0.00     0.000 HD 
ENDBRANCH   8   9
ENDBRANCH   7   8
ENDBRANCH   5   7
BRANCH   5  14
HETATM   14  C   UNL     1     -10.628  16.020  68.808  1.00  0.00    -0.262 C  
BRANCH  14  15
HETATM   15  O   UNL     1     -10.926  14.783  69.475  1.00  0.00    -0.257 OA 
BRANCH  15  16
HETATM   16  C   UNL     1     -12.132  14.705  70.084  1.00  0.00    -0.327 C  
HETATM   17  H1  UNL     1     -13.207  13.406  71.065  1.00  0.00     0.000 HD 
HETATM   18  H2  UNL     1     -11.617  12.707  70.550  1.00  0.00     0.000 HD 
HETATM   19  N   UNL     1     -12.298  13.465  70.607  1.00  0.00    -0.360 N  
HETATM   20  O   UNL     1     -12.941  15.600  70.234  1.00  0.00    -0.315 OA 
ENDBRANCH  15  16
ENDBRANCH  14  15
ENDBRANCH   5  14
TORSDOF 6
ENDMDL
MODEL       58
REMARK 921   NORMALIZED FREE ENERGY PREDICTED BY IDOCK:   -3.94 KCAL/MOL
REMARK 922        TOTAL FREE ENERGY PREDICTED BY IDOCK:   -5.91 KCAL/MOL
REMARK 923 INTER-LIGAND FREE ENERGY PREDICTED BY IDOCK:   -5.40 KCAL/MOL
REMARK 924 INTRA-LIGAND FREE ENERGY PREDICTED BY IDOCK:   -0.51 KCAL/MOL
REMARK 927      BINDING AFFINITY PREDICTED BY RF-SCORE:    0.00 PKD
ROOT
HETATM    1  C   UNL     1     -11.722  11.724  63.640  1.00  0.00    -0.517 C  
HETATM    2  C   UNL     1     -11.348  12.083  65.074  1.00  0.00    -0.365 C  
HETATM    3  C   UNL     1     -11.414  13.597  65.404  1.00  0.00    -0.322 C  
HETATM    4  C   UNL     1     -12.880  14.052  65.239  1.00  0.00    -0.418 C  
HETATM    5  C   UNL     1     -10.788  14.011  66.812  1.00  0.00    -0.294 C  
HETATM    6  C   UNL     1     -11.453  13.235  67.969  1.00  0.00    -0.344 C  
ENDROOT
BRANCH   5   7
HETATM    7  C   UNL     1     -11.003  15.542  67.055  1.00  0.00    -0.283 C  
BRANCH   7   8
HETATM    8  O   UNL     1     -10.089  16.335  66.276  1.00  0.00    -0.288 OA 
BRANCH   8   9
HETATM    9  C   UNL     1     -10.620  17.308  65.504  1.00  0.00    -0.127 C  
HETATM   10  H2  UNL     1      -9.951  18.667  66.971  1.00  0.00     0.000 HD 
HETATM   11  O   UNL     1     -11.198  17.158  64.440  1.00  0.00    -1.143 OA 
HETATM   12  N   UNL     1     -10.428  18.514  66.083  1.00  0.00    -0.439 N  
HETATM   13  H1  UNL     1     -10.830  19.249  65.500  1.00  0.00     0.000 HD 
ENDBRANCH   8   9
ENDBRANCH   7   8
ENDBRANCH   5   7
BRANCH   5  14
HETATM   14  C   UNL     1      -9.241  13.782  66.866  1.00  0.00    -0.255 C  
BRANCH  14  15
HETATM   15  O   UNL     1      -8.806  13.100  68.053  1.00  0.00    -0.176 OA 
BRANCH  15  16
HETATM   16  C   UNL     1      -7.843  12.163  67.887  1.00  0.00    -0.147 C  
HETATM   17  H1  UNL     1      -7.349  10.415  68.599  1.00  0.00     0.000 HD 
HETATM   18  H2  UNL     1      -8.855  11.053  69.377  1.00  0.00     0.000 HD 
HETATM   19  N   UNL     1      -8.075  11.121  68.723  1.00  0.00    -0.146 N  
HETATM   20  O   UNL     1      -6.938  12.172  67.075  1.00  0.00    -0.137 OA 
ENDBRANCH  15  16
ENDBRANCH  14  15
ENDBRANCH   5  14
TORSDOF 6
ENDMDL
MODEL       59
REMARK 921   NORMALIZED FREE ENERGY PREDICTED BY IDOCK:   -3.94 KCAL/MOL
REMARK 922        TOTAL FREE ENERGY PREDICTED BY IDOCK:   -5.91 KCAL/MOL
REMARK 923 INTER-LIGAND FREE ENERGY PREDICTED BY IDOCK:   -5.28 KCAL/MOL
REMARK 924 INTRA-LIGAND FREE ENERGY PREDICTED BY IDOCK:   -0.63 KCAL/MOL
REMARK 927      BINDING AFFINITY PREDICTED BY RF-SCORE:    0.00 PKD
ROOT
HETATM    1  C   UNL     1     -12.682  15.474  71.631  1.00  0.00    -0.502 C  
HETATM    2  C   UNL     1     -12.392  15.271  70.147  1.00  0.00    -0.392 C  
HETATM    3  C   UNL     1     -11.495  14.048  69.822  1.00  0.00    -0.293 C  
HETATM    4  C   UNL     1     -12.250  12.778  70.268  1.00  0.00    -0.351 C  
HETATM    5  C   UNL     1     -10.978  13.969  68.314  1.00  0.00    -0.272 C  
HETATM    6  C   UNL     1     -12.157  13.982  67.318  1.00  0.00    -0.405 C  
ENDROOT
BRANCH   5   7
HETATM    7  C   UNL     1     -10.167  12.648  68.104  1.00  0.00    -0.240 C  
BRANCH   7   8
HETATM    8  O   UNL     1     -10.797  11.790  67.135  1.00  0.00    -0.232 OA 
BRANCH   8   9
HETATM    9  C   UNL     1     -10.049  11.401  66.079  1.00  0.00    -0.234 C  
HETATM   10  H2  UNL     1      -8.814  13.058  66.499  1.00  0.00     0.000 HD 
HETATM   11  O   UNL     1     -10.254  10.439  65.358  1.00  0.00    -0.292 OA 
HETATM   12  N   UNL     1      -9.008  12.246  65.913  1.00  0.00    -0.425 N  
HETATM   13  H1  UNL     1      -8.443  11.954  65.115  1.00  0.00     0.000 HD 
ENDBRANCH   8   9
ENDBRANCH   7   8
ENDBRANCH   5   7
BRANCH   5  14
HETATM   14  C   UNL     1      -9.997  15.136  67.960  1.00  0.00    -0.221 C  
BRANCH  14  15
HETATM   15  O   UNL     1      -9.526  15.093  66.603  1.00  0.00    -0.233 OA 
BRANCH  15  16
HETATM   16  C   UNL     1      -9.846  16.152  65.824  1.00  0.00    -0.320 C  
HETATM   17  H1  UNL     1      -9.421  18.049  65.667  1.00  0.00     0.000 HD 
HETATM   18  H2  UNL     1      -8.535  17.276  67.045  1.00  0.00     0.000 HD 
HETATM   19  N   UNL     1      -9.179  17.251  66.255  1.00  0.00    -0.242 N  
HETATM   20  O   UNL     1     -10.553  16.152  64.834  1.00  0.00    -0.622 OA 
ENDBRANCH  15  16
ENDBRANCH  14  15
ENDBRANCH   5  14
TORSDOF 6
ENDMDL
MODEL       60
REMARK 921   NORMALIZED FREE ENERGY PREDICTED BY IDOCK:   -3.93 KCAL/MOL
REMARK 922        TOTAL FREE ENERGY PREDICTED BY IDOCK:   -5.89 KCAL/MOL
REMARK 923 INTER-LIGAND FREE ENERGY PREDICTED BY IDOCK:   -5.00 KCAL/MOL
REMARK 924 INTRA-LIGAND FREE ENERGY PREDICTED BY IDOCK:   -0.90 KCAL/MOL
REMARK 927      BINDING AFFINITY PREDICTED BY RF-SCORE:    0.00 PKD
ROOT
HETATM    1  C   UNL     1     -12.216  15.795  72.895  1.00  0.00    -0.586 C  
HETATM    2  C   UNL     1     -11.782  16.100  71.465  1.00  0.00    -0.533 C  
HETATM    3  C   UNL     1     -11.397  14.856  70.623  1.00  0.00    -0.275 C  
HETATM    4  C   UNL     1     -12.655  13.972  70.487  1.00  0.00    -0.399 C  
HETATM    5  C   UNL     1     -10.705  15.174  69.221  1.00  0.00    -0.250 C  
HETATM    6  C   UNL     1     -11.595  16.089  68.353  1.00  0.00    -0.279 C  
ENDROOT
BRANCH   5   7
HETATM    7  C   UNL     1     -10.456  13.841  68.441  1.00  0.00    -0.252 C  
BRANCH   7   8
HETATM    8  O   UNL     1     -10.975  13.908  67.100  1.00  0.00    -0.284 OA 
BRANCH   8   9
HETATM    9  C   UNL     1     -10.097  13.724  66.090  1.00  0.00    -0.307 C  
HETATM   10  H2  UNL     1      -8.766  12.978  67.547  1.00  0.00     0.000 HD 
HETATM   11  O   UNL     1     -10.279  13.981  64.912  1.00  0.00    -0.405 OA 
HETATM   12  N   UNL     1      -8.946  13.201  66.568  1.00  0.00    -0.436 N  
HETATM   13  H1  UNL     1      -8.282  13.063  65.806  1.00  0.00     0.000 HD 
ENDBRANCH   8   9
ENDBRANCH   7   8
ENDBRANCH   5   7
BRANCH   5  14
HETATM   14  C   UNL     1      -9.299  15.841  69.390  1.00  0.00    -0.269 C  
BRANCH  14  15
HETATM   15  O   UNL     1      -8.224  15.048  68.860  1.00  0.00    -0.157 OA 
BRANCH  15  16
HETATM   16  C   UNL     1      -7.231  15.723  68.236  1.00  0.00    -0.116 C  
HETATM   17  H1  UNL     1      -5.968  17.162  68.608  1.00  0.00     0.000 HD 
HETATM   18  H2  UNL     1      -7.029  16.817  70.036  1.00  0.00     0.000 HD 
HETATM   19  N   UNL     1      -6.716  16.653  69.078  1.00  0.00    -0.189 N  
HETATM   20  O   UNL     1      -6.782  15.514  67.126  1.00  0.00    -0.259 OA 
ENDBRANCH  15  16
ENDBRANCH  14  15
ENDBRANCH   5  14
TORSDOF 6
ENDMDL
MODEL       61
REMARK 921   NORMALIZED FREE ENERGY PREDICTED BY IDOCK:   -3.90 KCAL/MOL
REMARK 922        TOTAL FREE ENERGY PREDICTED BY IDOCK:   -5.86 KCAL/MOL
REMARK 923 INTER-LIGAND FREE ENERGY PREDICTED BY IDOCK:   -5.43 KCAL/MOL
REMARK 924 INTRA-LIGAND FREE ENERGY PREDICTED BY IDOCK:   -0.42 KCAL/MOL
REMARK 927      BINDING AFFINITY PREDICTED BY RF-SCORE:    0.00 PKD
ROOT
HETATM    1  C   UNL     1      -6.810  11.064  69.327  1.00  0.00    -0.110 C  
HETATM    2  C   UNL     1      -8.265  10.780  68.968  1.00  0.00    -0.139 C  
HETATM    3  C   UNL     1      -8.835  11.656  67.821  1.00  0.00    -0.159 C  
HETATM    4  C   UNL     1      -8.030  11.339  66.543  1.00  0.00    -0.145 C  
HETATM    5  C   UNL     1     -10.412  11.549  67.606  1.00  0.00    -0.218 C  
HETATM    6  C   UNL     1     -10.845  10.088  67.360  1.00  0.00    -0.313 C  
ENDROOT
BRANCH   5   7
HETATM    7  C   UNL     1     -10.835  12.406  66.368  1.00  0.00    -0.258 C  
BRANCH   7   8
HETATM    8  O   UNL     1     -12.241  12.278  66.091  1.00  0.00    -0.647 OA 
BRANCH   8   9
HETATM    9  C   UNL     1     -12.740  13.020  65.078  1.00  0.00    -0.410 C  
HETATM   10  H2  UNL     1     -12.143  11.453  63.799  1.00  0.00     0.000 HD 
HETATM   11  O   UNL     1     -13.262  14.119  65.169  1.00  0.00    -0.743 OA 
HETATM   12  N   UNL     1     -12.577  12.370  63.905  1.00  0.00    -0.697 N  
HETATM   13  H1  UNL     1     -12.953  12.930  63.139  1.00  0.00     0.000 HD 
ENDBRANCH   8   9
ENDBRANCH   7   8
ENDBRANCH   5   7
BRANCH   5  14
HETATM   14  C   UNL     1     -11.217  12.123  68.820  1.00  0.00    -0.264 C  
BRANCH  14  15
HETATM   15  O   UNL     1     -12.091  11.160  69.431  1.00  0.00    -0.333 OA 
BRANCH  15  16
HETATM   16  C   UNL     1     -11.924  10.956  70.758  1.00  0.00    -0.346 C  
HETATM   17  H1  UNL     1     -12.457  11.763  72.452  1.00  0.00     0.000 HD 
HETATM   18  H2  UNL     1     -13.123  12.677  71.036  1.00  0.00     0.000 HD 
HETATM   19  N   UNL     1     -12.583  11.917  71.452  1.00  0.00    -0.295 N  
HETATM   20  O   UNL     1     -11.350  10.028  71.295  1.00  0.00    -0.357 OA 
ENDBRANCH  15  16
ENDBRANCH  14  15
ENDBRANCH   5  14
TORSDOF 6
ENDMDL
MODEL       62
REMARK 921   NORMALIZED FREE ENERGY PREDICTED BY IDOCK:   -3.90 KCAL/MOL
REMARK 922        TOTAL FREE ENERGY PREDICTED BY IDOCK:   -5.85 KCAL/MOL
REMARK 923 INTER-LIGAND FREE ENERGY PREDICTED BY IDOCK:   -5.55 KCAL/MOL
REMARK 924 INTRA-LIGAND FREE ENERGY PREDICTED BY IDOCK:   -0.30 KCAL/MOL
REMARK 927      BINDING AFFINITY PREDICTED BY RF-SCORE:    0.00 PKD
ROOT
HETATM    1  C   UNL     1     -11.330  15.775  70.395  1.00  0.00    -0.389 C  
HETATM    2  C   UNL     1     -10.984  16.205  68.973  1.00  0.00    -0.312 C  
HETATM    3  C   UNL     1     -10.671  15.039  67.999  1.00  0.00    -0.262 C  
HETATM    4  C   UNL     1     -11.947  14.181  67.867  1.00  0.00    -0.378 C  
HETATM    5  C   UNL     1     -10.066  15.478  66.590  1.00  0.00    -0.275 C  
HETATM    6  C   UNL     1     -10.998  16.474  65.867  1.00  0.00     0.029 C  
ENDROOT
BRANCH   5   7
HETATM    7  C   UNL     1      -9.886  14.219  65.679  1.00  0.00    -0.271 C  
BRANCH   7   8
HETATM    8  O   UNL     1     -10.693  14.307  64.490  1.00  0.00    -0.388 OA 
BRANCH   8   9
HETATM    9  C   UNL     1     -11.434  13.224  64.167  1.00  0.00    -0.396 C  
HETATM   10  H2  UNL     1     -12.361  14.443  62.717  1.00  0.00     0.000 HD 
HETATM   11  O   UNL     1     -11.373  12.121  64.684  1.00  0.00    -0.311 OA 
HETATM   12  N   UNL     1     -12.288  13.530  63.165  1.00  0.00    -1.024 N  
HETATM   13  H1  UNL     1     -12.848  12.713  62.922  1.00  0.00     0.000 HD 
ENDBRANCH   8   9
ENDBRANCH   7   8
ENDBRANCH   5   7
BRANCH   5  14
HETATM   14  C   UNL     1      -8.643  16.116  66.726  1.00  0.00    -0.247 C  
BRANCH  14  15
HETATM   15  O   UNL     1      -8.674  17.509  67.073  1.00  0.00    -0.227 OA 
BRANCH  15  16
HETATM   16  C   UNL     1      -8.074  18.357  66.205  1.00  0.00    -0.221 C  
HETATM   17  H1  UNL     1      -8.232  20.206  65.602  1.00  0.00     0.000 HD 
HETATM   18  H2  UNL     1      -9.474  19.802  66.858  1.00  0.00     0.000 HD 
HETATM   19  N   UNL     1      -8.684  19.567  66.257  1.00  0.00    -0.358 N  
HETATM   20  O   UNL     1      -7.091  18.140  65.523  1.00  0.00    -0.522 OA 
ENDBRANCH  15  16
ENDBRANCH  14  15
ENDBRANCH   5  14
TORSDOF 6
ENDMDL
MODEL       63
REMARK 921   NORMALIZED FREE ENERGY PREDICTED BY IDOCK:   -3.88 KCAL/MOL
REMARK 922        TOTAL FREE ENERGY PREDICTED BY IDOCK:   -5.83 KCAL/MOL
REMARK 923 INTER-LIGAND FREE ENERGY PREDICTED BY IDOCK:   -5.40 KCAL/MOL
REMARK 924 INTRA-LIGAND FREE ENERGY PREDICTED BY IDOCK:   -0.43 KCAL/MOL
REMARK 927      BINDING AFFINITY PREDICTED BY RF-SCORE:    0.00 PKD
ROOT
HETATM    1  C   UNL     1     -10.047  19.759  66.077  1.00  0.00    -0.574 C  
HETATM    2  C   UNL     1     -10.610  18.435  66.583  1.00  0.00    -0.359 C  
HETATM    3  C   UNL     1      -9.576  17.514  67.284  1.00  0.00    -0.273 C  
HETATM    4  C   UNL     1      -9.068  18.249  68.542  1.00  0.00    -0.328 C  
HETATM    5  C   UNL     1     -10.085  16.033  67.589  1.00  0.00    -0.245 C  
HETATM    6  C   UNL     1     -11.373  16.050  68.441  1.00  0.00    -0.355 C  
ENDROOT
BRANCH   5   7
HETATM    7  C   UNL     1      -8.983  15.249  68.374  1.00  0.00    -0.184 C  
BRANCH   7   8
HETATM    8  O   UNL     1      -7.898  14.857  67.513  1.00  0.00    -0.154 OA 
BRANCH   8   9
HETATM    9  C   UNL     1      -7.076  13.883  67.962  1.00  0.00    -0.144 C  
HETATM   10  H2  UNL     1      -8.006  14.133  69.839  1.00  0.00     0.000 HD 
HETATM   11  O   UNL     1      -6.235  13.285  67.313  1.00  0.00    -0.309 OA 
HETATM   12  N   UNL     1      -7.311  13.648  69.272  1.00  0.00    -0.311 N  
HETATM   13  H1  UNL     1      -6.690  12.912  69.611  1.00  0.00     0.000 HD 
ENDBRANCH   8   9
ENDBRANCH   7   8
ENDBRANCH   5   7
BRANCH   5  14
HETATM   14  C   UNL     1     -10.348  15.213  66.283  1.00  0.00    -0.294 C  
BRANCH  14  15
HETATM   15  O   UNL     1     -11.451  14.300  66.394  1.00  0.00    -0.333 OA 
BRANCH  15  16
HETATM   16  C   UNL     1     -12.194  14.118  65.278  1.00  0.00    -0.434 C  
HETATM   17  H1  UNL     1     -12.470  14.956  63.538  1.00  0.00     0.000 HD 
HETATM   18  H2  UNL     1     -11.238  15.847  64.522  1.00  0.00     0.000 HD 
HETATM   19  N   UNL     1     -11.910  15.092  64.379  1.00  0.00    -0.373 N  
HETATM   20  O   UNL     1     -12.952  13.198  65.039  1.00  0.00    -0.729 OA 
ENDBRANCH  15  16
ENDBRANCH  14  15
ENDBRANCH   5  14
TORSDOF 6
ENDMDL
MODEL       64
REMARK 921   NORMALIZED FREE ENERGY PREDICTED BY IDOCK:   -3.87 KCAL/MOL
REMARK 922        TOTAL FREE ENERGY PREDICTED BY IDOCK:   -5.81 KCAL/MOL
REMARK 923 INTER-LIGAND FREE ENERGY PREDICTED BY IDOCK:   -5.27 KCAL/MOL
REMARK 924 INTRA-LIGAND FREE ENERGY PREDICTED BY IDOCK:   -0.54 KCAL/MOL
REMARK 927      BINDING AFFINITY PREDICTED BY RF-SCORE:    0.00 PKD
ROOT
HETATM    1  C   UNL     1      -8.069  11.523  68.224  1.00  0.00    -0.148 C  
HETATM    2  C   UNL     1      -8.650  12.729  67.493  1.00  0.00    -0.187 C  
HETATM    3  C   UNL     1      -8.757  14.018  68.348  1.00  0.00    -0.179 C  
HETATM    4  C   UNL     1      -7.327  14.436  68.751  1.00  0.00    -0.131 C  
HETATM    5  C   UNL     1      -9.589  15.206  67.683  1.00  0.00    -0.206 C  
HETATM    6  C   UNL     1      -9.012  15.588  66.303  1.00  0.00    -0.362 C  
ENDROOT
BRANCH   5   7
HETATM    7  C   UNL     1      -9.539  16.467  68.606  1.00  0.00    -0.241 C  
BRANCH   7   8
HETATM    8  O   UNL     1     -10.655  17.344  68.367  1.00  0.00    -0.367 OA 
BRANCH   8   9
HETATM    9  C   UNL     1     -10.380  18.650  68.158  1.00  0.00    -0.359 C  
HETATM   10  H2  UNL     1     -11.016  18.339  66.171  1.00  0.00     0.000 HD 
HETATM   11  O   UNL     1      -9.944  19.441  68.977  1.00  0.00    -0.437 OA 
HETATM   12  N   UNL     1     -10.654  18.981  66.876  1.00  0.00    -0.427 N  
HETATM   13  H1  UNL     1     -10.445  19.967  66.718  1.00  0.00     0.000 HD 
ENDBRANCH   8   9
ENDBRANCH   7   8
ENDBRANCH   5   7
BRANCH   5  14
HETATM   14  C   UNL     1     -11.106  14.853  67.522  1.00  0.00    -0.317 C  
BRANCH  14  15
HETATM   15  O   UNL     1     -11.552  14.861  66.156  1.00  0.00    -0.324 OA 
BRANCH  15  16
HETATM   16  C   UNL     1     -12.397  13.868  65.796  1.00  0.00    -0.486 C  
HETATM   17  H1  UNL     1     -12.671  11.967  66.140  1.00  0.00     0.000 HD 
HETATM   18  H2  UNL     1     -11.243  12.613  67.049  1.00  0.00     0.000 HD 
HETATM   19  N   UNL     1     -12.034  12.716  66.412  1.00  0.00    -0.404 N  
HETATM   20  O   UNL     1     -13.388  13.961  65.097  1.00  0.00    -0.698 OA 
ENDBRANCH  15  16
ENDBRANCH  14  15
ENDBRANCH   5  14
TORSDOF 6
ENDMDL
MODEL       65
REMARK 921   NORMALIZED FREE ENERGY PREDICTED BY IDOCK:   -3.84 KCAL/MOL
REMARK 922        TOTAL FREE ENERGY PREDICTED BY IDOCK:   -5.77 KCAL/MOL
REMARK 923 INTER-LIGAND FREE ENERGY PREDICTED BY IDOCK:   -5.08 KCAL/MOL
REMARK 924 INTRA-LIGAND FREE ENERGY PREDICTED BY IDOCK:   -0.69 KCAL/MOL
REMARK 927      BINDING AFFINITY PREDICTED BY RF-SCORE:    0.00 PKD
ROOT
HETATM    1  C   UNL     1     -11.466  11.058  68.482  1.00  0.00    -0.379 C  
HETATM    2  C   UNL     1     -11.683  12.438  67.869  1.00  0.00    -0.421 C  
HETATM    3  C   UNL     1     -10.550  13.459  68.150  1.00  0.00    -0.255 C  
HETATM    4  C   UNL     1      -9.258  12.922  67.497  1.00  0.00    -0.192 C  
HETATM    5  C   UNL     1     -10.877  14.965  67.736  1.00  0.00    -0.286 C  
HETATM    6  C   UNL     1     -11.258  15.064  66.243  1.00  0.00    -0.309 C  
ENDROOT
BRANCH   5   7
HETATM    7  C   UNL     1      -9.623  15.865  67.987  1.00  0.00    -0.211 C  
BRANCH   7   8
HETATM    8  O   UNL     1      -9.686  17.086  67.227  1.00  0.00    -0.244 OA 
BRANCH   8   9
HETATM    9  C   UNL     1      -9.406  18.234  67.881  1.00  0.00    -0.276 C  
HETATM   10  H2  UNL     1     -11.122  17.847  69.044  1.00  0.00     0.000 HD 
HETATM   11  O   UNL     1      -8.470  18.985  67.663  1.00  0.00    -0.281 OA 
HETATM   12  N   UNL     1     -10.330  18.457  68.842  1.00  0.00    -0.454 N  
HETATM   13  H1  UNL     1     -10.118  19.324  69.336  1.00  0.00     0.000 HD 
ENDBRANCH   8   9
ENDBRANCH   7   8
ENDBRANCH   5   7
BRANCH   5  14
HETATM   14  C   UNL     1     -12.028  15.582  68.598  1.00  0.00    -0.210 C  
BRANCH  14  15
HETATM   15  O   UNL     1     -11.589  16.049  69.884  1.00  0.00    -0.324 OA 
BRANCH  15  16
HETATM   16  C   UNL     1     -12.334  15.667  70.947  1.00  0.00    -0.429 C  
HETATM   17  H1  UNL     1     -13.534  14.217  71.462  1.00  0.00     0.000 HD 
HETATM   18  H2  UNL     1     -12.901  13.997  69.779  1.00  0.00     0.000 HD 
HETATM   19  N   UNL     1     -12.972  14.505  70.661  1.00  0.00    -0.344 N  
HETATM   20  O   UNL     1     -12.393  16.203  72.037  1.00  0.00    -0.469 OA 
ENDBRANCH  15  16
ENDBRANCH  14  15
ENDBRANCH   5  14
TORSDOF 6
ENDMDL
MODEL       66
REMARK 921   NORMALIZED FREE ENERGY PREDICTED BY IDOCK:   -3.84 KCAL/MOL
REMARK 922        TOTAL FREE ENERGY PREDICTED BY IDOCK:   -5.77 KCAL/MOL
REMARK 923 INTER-LIGAND FREE ENERGY PREDICTED BY IDOCK:   -5.28 KCAL/MOL
REMARK 924 INTRA-LIGAND FREE ENERGY PREDICTED BY IDOCK:   -0.48 KCAL/MOL
REMARK 927      BINDING AFFINITY PREDICTED BY RF-SCORE:    0.00 PKD
ROOT
HETATM    1  C   UNL     1      -9.072   9.371  64.781  1.00  0.00    -0.248 C  
HETATM    2  C   UNL     1      -9.191  10.305  65.981  1.00  0.00    -0.200 C  
HETATM    3  C   UNL     1     -10.437  10.063  66.872  1.00  0.00    -0.284 C  
HETATM    4  C   UNL     1     -10.321   8.644  67.470  1.00  0.00    -0.336 C  
HETATM    5  C   UNL     1     -10.710  11.183  67.975  1.00  0.00    -0.254 C  
HETATM    6  C   UNL     1      -9.486  11.368  68.897  1.00  0.00    -0.064 C  
ENDROOT
BRANCH   5   7
HETATM    7  C   UNL     1     -11.934  10.769  68.856  1.00  0.00    -0.139 C  
BRANCH   7   8
HETATM    8  O   UNL     1     -11.823  11.288  70.194  1.00  0.00    -0.310 OA 
BRANCH   8   9
HETATM    9  C   UNL     1     -12.734  10.862  71.097  1.00  0.00    -0.429 C  
HETATM   10  H2  UNL     1     -12.543   8.959  70.209  1.00  0.00     0.000 HD 
HETATM   11  O   UNL     1     -13.275  11.537  71.957  1.00  0.00    -0.509 OA 
HETATM   12  N   UNL     1     -12.980   9.546  70.920  1.00  0.00    -0.543 N  
HETATM   13  H1  UNL     1     -13.668   9.224  71.601  1.00  0.00     0.000 HD 
ENDBRANCH   8   9
ENDBRANCH   7   8
ENDBRANCH   5   7
BRANCH   5  14
HETATM   14  C   UNL     1     -11.085  12.564  67.341  1.00  0.00    -0.272 C  
BRANCH  14  15
HETATM   15  O   UNL     1     -12.127  12.474  66.356  1.00  0.00    -0.576 OA 
BRANCH  15  16
HETATM   16  C   UNL     1     -11.872  13.052  65.159  1.00  0.00    -0.369 C  
HETATM   17  H1  UNL     1     -12.340  14.669  64.174  1.00  0.00     0.000 HD 
HETATM   18  H2  UNL     1     -13.129  14.627  65.804  1.00  0.00     0.000 HD 
HETATM   19  N   UNL     1     -12.532  14.234  65.076  1.00  0.00    -0.434 N  
HETATM   20  O   UNL     1     -11.116  12.653  64.294  1.00  0.00    -0.318 OA 
ENDBRANCH  15  16
ENDBRANCH  14  15
ENDBRANCH   5  14
TORSDOF 6
ENDMDL
MODEL       67
REMARK 921   NORMALIZED FREE ENERGY PREDICTED BY IDOCK:   -3.83 KCAL/MOL
REMARK 922        TOTAL FREE ENERGY PREDICTED BY IDOCK:   -5.75 KCAL/MOL
REMARK 923 INTER-LIGAND FREE ENERGY PREDICTED BY IDOCK:   -5.39 KCAL/MOL
REMARK 924 INTRA-LIGAND FREE ENERGY PREDICTED BY IDOCK:   -0.36 KCAL/MOL
REMARK 927      BINDING AFFINITY PREDICTED BY RF-SCORE:    0.00 PKD
ROOT
HETATM    1  C   UNL     1      -9.738   3.082  71.883  1.00  0.00    -0.234 C  
HETATM    2  C   UNL     1      -9.721   4.520  71.374  1.00  0.00    -0.248 C  
HETATM    3  C   UNL     1     -11.015   5.326  71.658  1.00  0.00    -0.121 C  
HETATM    4  C   UNL     1     -11.175   5.437  73.189  1.00  0.00    -0.355 C  
HETATM    5  C   UNL     1     -11.111   6.736  70.918  1.00  0.00    -0.322 C  
HETATM    6  C   UNL     1      -9.901   7.630  71.260  1.00  0.00    -0.187 C  
ENDROOT
BRANCH   5   7
HETATM    7  C   UNL     1     -12.415   7.477  71.362  1.00  0.00    -0.352 C  
BRANCH   7   8
HETATM    8  O   UNL     1     -12.116   8.680  72.094  1.00  0.00    -0.342 OA 
BRANCH   8   9
HETATM    9  C   UNL     1     -13.097   9.606  72.183  1.00  0.00    -0.431 C  
HETATM   10  H2  UNL     1     -14.197   8.159  73.254  1.00  0.00     0.000 HD 
HETATM   11  O   UNL     1     -13.072  10.737  71.728  1.00  0.00    -0.458 OA 
HETATM   12  N   UNL     1     -14.149   9.101  72.864  1.00  0.00    -0.823 N  
HETATM   13  H1  UNL     1     -14.890   9.799  72.931  1.00  0.00     0.000 HD 
ENDBRANCH   8   9
ENDBRANCH   7   8
ENDBRANCH   5   7
BRANCH   5  14
HETATM   14  C   UNL     1     -11.213   6.586  69.363  1.00  0.00    -0.356 C  
BRANCH  14  15
HETATM   15  O   UNL     1     -10.495   7.601  68.644  1.00  0.00    -0.201 OA 
BRANCH  15  16
HETATM   16  C   UNL     1     -10.615   7.581  67.296  1.00  0.00    -0.324 C  
HETATM   17  H1  UNL     1     -11.112   6.335  65.880  1.00  0.00     0.000 HD 
HETATM   18  H2  UNL     1     -11.208   5.562  67.515  1.00  0.00     0.000 HD 
HETATM   19  N   UNL     1     -11.022   6.351  66.895  1.00  0.00    -0.380 N  
HETATM   20  O   UNL     1     -10.470   8.513  66.529  1.00  0.00    -0.256 OA 
ENDBRANCH  15  16
ENDBRANCH  14  15
ENDBRANCH   5  14
TORSDOF 6
ENDMDL
MODEL       68
REMARK 921   NORMALIZED FREE ENERGY PREDICTED BY IDOCK:   -3.81 KCAL/MOL
REMARK 922        TOTAL FREE ENERGY PREDICTED BY IDOCK:   -5.74 KCAL/MOL
REMARK 923 INTER-LIGAND FREE ENERGY PREDICTED BY IDOCK:   -5.05 KCAL/MOL
REMARK 924 INTRA-LIGAND FREE ENERGY PREDICTED BY IDOCK:   -0.69 KCAL/MOL
REMARK 927      BINDING AFFINITY PREDICTED BY RF-SCORE:    0.00 PKD
ROOT
HETATM    1  C   UNL     1     -10.688   4.065  73.963  1.00  0.00    -0.298 C  
HETATM    2  C   UNL     1     -11.308   5.066  72.994  1.00  0.00    -0.374 C  
HETATM    3  C   UNL     1     -10.292   6.002  72.287  1.00  0.00    -0.223 C  
HETATM    4  C   UNL     1      -9.362   5.122  71.425  1.00  0.00    -0.189 C  
HETATM    5  C   UNL     1     -10.938   7.211  71.472  1.00  0.00    -0.261 C  
HETATM    6  C   UNL     1     -11.940   6.700  70.415  1.00  0.00    -0.342 C  
ENDROOT
BRANCH   5   7
HETATM    7  C   UNL     1      -9.813   8.014  70.740  1.00  0.00    -0.183 C  
BRANCH   7   8
HETATM    8  O   UNL     1     -10.093   8.155  69.335  1.00  0.00    -0.185 OA 
BRANCH   8   9
HETATM    9  C   UNL     1     -10.196   9.413  68.851  1.00  0.00    -0.200 C  
HETATM   10  H2  UNL     1      -9.203  10.037  70.604  1.00  0.00     0.000 HD 
HETATM   11  O   UNL     1     -10.710   9.746  67.797  1.00  0.00    -0.255 OA 
HETATM   12  N   UNL     1      -9.638  10.288  69.716  1.00  0.00    -0.387 N  
HETATM   13  H1  UNL     1      -9.716  11.238  69.351  1.00  0.00     0.000 HD 
ENDBRANCH   8   9
ENDBRANCH   7   8
ENDBRANCH   5   7
BRANCH   5  14
HETATM   14  C   UNL     1     -11.661   8.239  72.405  1.00  0.00    -0.396 C  
BRANCH  14  15
HETATM   15  O   UNL     1     -11.932   9.497  71.766  1.00  0.00    -0.370 OA 
BRANCH  15  16
HETATM   16  C   UNL     1     -13.138  10.054  72.026  1.00  0.00    -0.441 C  
HETATM   17  H1  UNL     1     -14.939   9.501  72.530  1.00  0.00     0.000 HD 
HETATM   18  H2  UNL     1     -13.825   8.082  72.366  1.00  0.00     0.000 HD 
HETATM   19  N   UNL     1     -14.030   9.081  72.335  1.00  0.00    -0.479 N  
HETATM   20  O   UNL     1     -13.408  11.239  72.068  1.00  0.00    -0.462 OA 
ENDBRANCH  15  16
ENDBRANCH  14  15
ENDBRANCH   5  14
TORSDOF 6
ENDMDL
MODEL       69
REMARK 921   NORMALIZED FREE ENERGY PREDICTED BY IDOCK:   -3.78 KCAL/MOL
REMARK 922        TOTAL FREE ENERGY PREDICTED BY IDOCK:   -5.69 KCAL/MOL
REMARK 923 INTER-LIGAND FREE ENERGY PREDICTED BY IDOCK:   -5.16 KCAL/MOL
REMARK 924 INTRA-LIGAND FREE ENERGY PREDICTED BY IDOCK:   -0.54 KCAL/MOL
REMARK 927      BINDING AFFINITY PREDICTED BY RF-SCORE:    0.00 PKD
ROOT
HETATM    1  C   UNL     1      -5.225  17.539  70.212  1.00  0.00    -0.234 C  
HETATM    2  C   UNL     1      -6.265  17.098  69.187  1.00  0.00    -0.212 C  
HETATM    3  C   UNL     1      -7.469  18.062  69.025  1.00  0.00    -0.177 C  
HETATM    4  C   UNL     1      -6.926  19.409  68.502  1.00  0.00    -0.333 C  
HETATM    5  C   UNL     1      -8.678  17.496  68.152  1.00  0.00    -0.262 C  
HETATM    6  C   UNL     1      -8.202  17.076  66.745  1.00  0.00    -0.273 C  
ENDROOT
BRANCH   5   7
HETATM    7  C   UNL     1      -9.776  18.599  67.994  1.00  0.00    -0.321 C  
BRANCH   7   8
HETATM    8  O   UNL     1     -10.429  18.517  66.714  1.00  0.00    -0.379 OA 
BRANCH   8   9
HETATM    9  C   UNL     1     -10.503  19.653  65.986  1.00  0.00    -0.523 C  
HETATM   10  H2  UNL     1      -9.182  20.497  67.398  1.00  0.00     0.000 HD 
HETATM   11  O   UNL     1     -11.155  19.824  64.971  1.00  0.00    -0.259 OA 
HETATM   12  N   UNL     1      -9.736  20.613  66.549  1.00  0.00    -0.632 N  
HETATM   13  H1  UNL     1      -9.792  21.471  66.000  1.00  0.00     0.000 HD 
ENDBRANCH   8   9
ENDBRANCH   7   8
ENDBRANCH   5   7
BRANCH   5  14
HETATM   14  C   UNL     1      -9.387  16.279  68.835  1.00  0.00    -0.248 C  
BRANCH  14  15
HETATM   15  O   UNL     1      -9.838  15.284  67.902  1.00  0.00    -0.215 OA 
BRANCH  15  16
HETATM   16  C   UNL     1     -11.178  15.117  67.805  1.00  0.00    -0.323 C  
HETATM   17  H1  UNL     1     -12.791  15.517  68.826  1.00  0.00     0.000 HD 
HETATM   18  H2  UNL     1     -11.300  16.097  69.676  1.00  0.00     0.000 HD 
HETATM   19  N   UNL     1     -11.781  15.644  68.899  1.00  0.00    -0.382 N  
HETATM   20  O   UNL     1     -11.796  14.647  66.870  1.00  0.00    -0.381 OA 
ENDBRANCH  15  16
ENDBRANCH  14  15
ENDBRANCH   5  14
TORSDOF 6
ENDMDL
MODEL       70
REMARK 921   NORMALIZED FREE ENERGY PREDICTED BY IDOCK:   -3.78 KCAL/MOL
REMARK 922        TOTAL FREE ENERGY PREDICTED BY IDOCK:   -5.69 KCAL/MOL
REMARK 923 INTER-LIGAND FREE ENERGY PREDICTED BY IDOCK:   -5.30 KCAL/MOL
REMARK 924 INTRA-LIGAND FREE ENERGY PREDICTED BY IDOCK:   -0.39 KCAL/MOL
REMARK 927      BINDING AFFINITY PREDICTED BY RF-SCORE:    0.00 PKD
ROOT
HETATM    1  C   UNL     1      -8.405   7.775  74.180  1.00  0.00    -0.297 C  
HETATM    2  C   UNL     1      -9.604   7.770  73.236  1.00  0.00    -0.346 C  
HETATM    3  C   UNL     1      -9.244   7.831  71.729  1.00  0.00    -0.177 C  
HETATM    4  C   UNL     1      -8.447   6.555  71.383  1.00  0.00    -0.125 C  
HETATM    5  C   UNL     1     -10.478   8.081  70.748  1.00  0.00    -0.221 C  
HETATM    6  C   UNL     1     -11.571   7.009  70.941  1.00  0.00    -0.370 C  
ENDROOT
BRANCH   5   7
HETATM    7  C   UNL     1      -9.989   8.027  69.263  1.00  0.00    -0.191 C  
BRANCH   7   8
HETATM    8  O   UNL     1     -10.761   7.093  68.485  1.00  0.00    -0.201 OA 
BRANCH   8   9
HETATM    9  C   UNL     1     -10.686   7.202  67.141  1.00  0.00    -0.352 C  
HETATM   10  H2  UNL     1     -11.700   5.354  67.058  1.00  0.00     0.000 HD 
HETATM   11  O   UNL     1     -10.175   8.113  66.512  1.00  0.00    -0.279 OA 
HETATM   12  N   UNL     1     -11.267   6.130  66.557  1.00  0.00    -0.744 N  
HETATM   13  H1  UNL     1     -11.210   6.212  65.542  1.00  0.00     0.000 HD 
ENDBRANCH   8   9
ENDBRANCH   7   8
ENDBRANCH   5   7
BRANCH   5  14
HETATM   14  C   UNL     1     -11.112   9.498  70.939  1.00  0.00    -0.336 C  
BRANCH  14  15
HETATM   15  O   UNL     1     -12.545   9.501  70.834  1.00  0.00    -0.269 OA 
BRANCH  15  16
HETATM   16  C   UNL     1     -13.216  10.178  71.794  1.00  0.00    -0.438 C  
HETATM   17  H1  UNL     1     -14.399   9.813  73.302  1.00  0.00     0.000 HD 
HETATM   18  H2  UNL     1     -13.896   8.289  72.462  1.00  0.00     0.000 HD 
HETATM   19  N   UNL     1     -13.893   9.303  72.578  1.00  0.00    -0.446 N  
HETATM   20  O   UNL     1     -13.186  11.374  72.010  1.00  0.00    -0.503 OA 
ENDBRANCH  15  16
ENDBRANCH  14  15
ENDBRANCH   5  14
TORSDOF 6
ENDMDL
MODEL       71
REMARK 921   NORMALIZED FREE ENERGY PREDICTED BY IDOCK:   -3.76 KCAL/MOL
REMARK 922        TOTAL FREE ENERGY PREDICTED BY IDOCK:   -5.67 KCAL/MOL
REMARK 923 INTER-LIGAND FREE ENERGY PREDICTED BY IDOCK:   -4.84 KCAL/MOL
REMARK 924 INTRA-LIGAND FREE ENERGY PREDICTED BY IDOCK:   -0.83 KCAL/MOL
REMARK 927      BINDING AFFINITY PREDICTED BY RF-SCORE:    0.00 PKD
ROOT
HETATM    1  C   UNL     1      -9.882  11.979  66.675  1.00  0.00    -0.220 C  
HETATM    2  C   UNL     1      -9.435  13.314  67.262  1.00  0.00    -0.233 C  
HETATM    3  C   UNL     1     -10.097  14.561  66.620  1.00  0.00    -0.275 C  
HETATM    4  C   UNL     1     -11.614  14.483  66.893  1.00  0.00    -0.399 C  
HETATM    5  C   UNL     1      -9.458  15.961  67.043  1.00  0.00    -0.234 C  
HETATM    6  C   UNL     1      -9.474  16.141  68.576  1.00  0.00    -0.216 C  
ENDROOT
BRANCH   5   7
HETATM    7  C   UNL     1     -10.275  17.129  66.399  1.00  0.00    -0.328 C  
BRANCH   7   8
HETATM    8  O   UNL     1     -10.795  18.025  67.398  1.00  0.00    -0.356 OA 
BRANCH   8   9
HETATM    9  C   UNL     1     -10.337  19.296  67.384  1.00  0.00    -0.438 C  
HETATM   10  H2  UNL     1      -9.538  18.857  65.482  1.00  0.00     0.000 HD 
HETATM   11  O   UNL     1     -10.479  20.130  68.263  1.00  0.00    -0.373 OA 
HETATM   12  N   UNL     1      -9.673  19.535  66.232  1.00  0.00    -0.383 N  
HETATM   13  H1  UNL     1      -9.326  20.495  66.221  1.00  0.00     0.000 HD 
ENDBRANCH   8   9
ENDBRANCH   7   8
ENDBRANCH   5   7
BRANCH   5  14
HETATM   14  C   UNL     1      -7.991  16.126  66.525  1.00  0.00    -0.259 C  
BRANCH  14  15
HETATM   15  O   UNL     1      -7.410  17.399  66.852  1.00  0.00    -0.173 OA 
BRANCH  15  16
HETATM   16  C   UNL     1      -6.557  17.921  65.941  1.00  0.00    -0.269 C  
HETATM   17  H1  UNL     1      -4.649  17.914  65.535  1.00  0.00     0.000 HD 
HETATM   18  H2  UNL     1      -5.025  16.917  67.000  1.00  0.00     0.000 HD 
HETATM   19  N   UNL     1      -5.292  17.520  66.221  1.00  0.00    -0.187 N  
HETATM   20  O   UNL     1      -6.840  18.585  64.962  1.00  0.00    -0.498 OA 
ENDBRANCH  15  16
ENDBRANCH  14  15
ENDBRANCH   5  14
TORSDOF 6
ENDMDL
MODEL       72
REMARK 921   NORMALIZED FREE ENERGY PREDICTED BY IDOCK:   -3.75 KCAL/MOL
REMARK 922        TOTAL FREE ENERGY PREDICTED BY IDOCK:   -5.65 KCAL/MOL
REMARK 923 INTER-LIGAND FREE ENERGY PREDICTED BY IDOCK:   -5.27 KCAL/MOL
REMARK 924 INTRA-LIGAND FREE ENERGY PREDICTED BY IDOCK:   -0.38 KCAL/MOL
REMARK 927      BINDING AFFINITY PREDICTED BY RF-SCORE:    0.00 PKD
ROOT
HETATM    1  C   UNL     1      -7.025  10.589  69.044  1.00  0.00    -0.076 C  
HETATM    2  C   UNL     1      -8.516  10.891  68.936  1.00  0.00    -0.142 C  
HETATM    3  C   UNL     1      -8.989  11.335  67.527  1.00  0.00    -0.140 C  
HETATM    4  C   UNL     1      -8.739  10.163  66.555  1.00  0.00    -0.139 C  
HETATM    5  C   UNL     1     -10.482  11.895  67.458  1.00  0.00    -0.233 C  
HETATM    6  C   UNL     1     -11.491  10.862  68.003  1.00  0.00    -0.356 C  
ENDROOT
BRANCH   5   7
HETATM    7  C   UNL     1     -10.856  12.217  65.974  1.00  0.00    -0.282 C  
BRANCH   7   8
HETATM    8  O   UNL     1     -12.282  12.221  65.777  1.00  0.00    -0.622 OA 
BRANCH   8   9
HETATM    9  C   UNL     1     -12.748  12.830  64.664  1.00  0.00    -0.362 C  
HETATM   10  H2  UNL     1     -12.451  14.651  65.685  1.00  0.00     0.000 HD 
HETATM   11  O   UNL     1     -13.119  12.285  63.639  1.00  0.00    -0.780 OA 
HETATM   12  N   UNL     1     -12.754  14.170  64.839  1.00  0.00    -0.685 N  
HETATM   13  H1  UNL     1     -13.107  14.630  63.999  1.00  0.00     0.000 HD 
ENDBRANCH   8   9
ENDBRANCH   7   8
ENDBRANCH   5   7
BRANCH   5  14
HETATM   14  C   UNL     1     -10.650  13.238  68.244  1.00  0.00    -0.251 C  
BRANCH  14  15
HETATM   15  O   UNL     1     -11.649  13.174  69.275  1.00  0.00    -0.281 OA 
BRANCH  15  16
HETATM   16  C   UNL     1     -11.789  14.279  70.043  1.00  0.00    -0.314 C  
HETATM   17  H1  UNL     1     -12.697  14.833  71.678  1.00  0.00     0.000 HD 
HETATM   18  H2  UNL     1     -13.022  13.094  71.287  1.00  0.00     0.000 HD 
HETATM   19  N   UNL     1     -12.591  13.999  71.100  1.00  0.00    -0.351 N  
HETATM   20  O   UNL     1     -11.241  15.354  69.894  1.00  0.00    -0.253 OA 
ENDBRANCH  15  16
ENDBRANCH  14  15
ENDBRANCH   5  14
TORSDOF 6
ENDMDL
MODEL       73
REMARK 921   NORMALIZED FREE ENERGY PREDICTED BY IDOCK:   -3.75 KCAL/MOL
REMARK 922        TOTAL FREE ENERGY PREDICTED BY IDOCK:   -5.65 KCAL/MOL
REMARK 923 INTER-LIGAND FREE ENERGY PREDICTED BY IDOCK:   -5.17 KCAL/MOL
REMARK 924 INTRA-LIGAND FREE ENERGY PREDICTED BY IDOCK:   -0.48 KCAL/MOL
REMARK 927      BINDING AFFINITY PREDICTED BY RF-SCORE:    0.00 PKD
ROOT
HETATM    1  C   UNL     1      -9.711   4.054  71.100  1.00  0.00    -0.257 C  
HETATM    2  C   UNL     1     -10.685   5.162  71.488  1.00  0.00    -0.165 C  
HETATM    3  C   UNL     1     -10.600   6.439  70.611  1.00  0.00    -0.288 C  
HETATM    4  C   UNL     1     -10.982   6.046  69.168  1.00  0.00    -0.429 C  
HETATM    5  C   UNL     1     -11.425   7.691  71.155  1.00  0.00    -0.296 C  
HETATM    6  C   UNL     1     -12.914   7.337  71.349  1.00  0.00    -0.420 C  
ENDROOT
BRANCH   5   7
HETATM    7  C   UNL     1     -11.326   8.872  70.134  1.00  0.00    -0.106 C  
BRANCH   7   8
HETATM    8  O   UNL     1     -11.853  10.093  70.684  1.00  0.00    -0.293 OA 
BRANCH   8   9
HETATM    9  C   UNL     1     -12.043  11.122  69.830  1.00  0.00    -0.344 C  
HETATM   10  H2  UNL     1     -11.795  12.392  71.496  1.00  0.00     0.000 HD 
HETATM   11  O   UNL     1     -12.255  11.042  68.631  1.00  0.00    -0.571 OA 
HETATM   12  N   UNL     1     -11.969  12.296  70.495  1.00  0.00    -0.512 N  
HETATM   13  H1  UNL     1     -12.113  13.073  69.850  1.00  0.00     0.000 HD 
ENDBRANCH   8   9
ENDBRANCH   7   8
ENDBRANCH   5   7
BRANCH   5  14
HETATM   14  C   UNL     1     -10.851   8.241  72.504  1.00  0.00    -0.351 C  
BRANCH  14  15
HETATM   15  O   UNL     1      -9.430   8.451  72.475  1.00  0.00    -0.267 OA 
BRANCH  15  16
HETATM   16  C   UNL     1      -8.754   8.131  73.603  1.00  0.00    -0.241 C  
HETATM   17  H1  UNL     1      -8.852   6.845  75.066  1.00  0.00     0.000 HD 
HETATM   18  H2  UNL     1     -10.200   6.612  73.878  1.00  0.00     0.000 HD 
HETATM   19  N   UNL     1      -9.362   7.086  74.216  1.00  0.00    -0.231 N  
HETATM   20  O   UNL     1      -7.716   8.622  74.004  1.00  0.00    -0.399 OA 
ENDBRANCH  15  16
ENDBRANCH  14  15
ENDBRANCH   5  14
TORSDOF 6
ENDMDL
MODEL       74
REMARK 921   NORMALIZED FREE ENERGY PREDICTED BY IDOCK:   -3.74 KCAL/MOL
REMARK 922        TOTAL FREE ENERGY PREDICTED BY IDOCK:   -5.64 KCAL/MOL
REMARK 923 INTER-LIGAND FREE ENERGY PREDICTED BY IDOCK:   -5.23 KCAL/MOL
REMARK 924 INTRA-LIGAND FREE ENERGY PREDICTED BY IDOCK:   -0.41 KCAL/MOL
REMARK 927      BINDING AFFINITY PREDICTED BY RF-SCORE:    0.00 PKD
ROOT
HETATM    1  C   UNL     1     -12.333  13.559  70.363  1.00  0.00    -0.397 C  
HETATM    2  C   UNL     1     -11.610  13.133  69.089  1.00  0.00    -0.368 C  
HETATM    3  C   UNL     1     -10.944  14.291  68.302  1.00  0.00    -0.261 C  
HETATM    4  C   UNL     1      -9.853  14.907  69.203  1.00  0.00    -0.200 C  
HETATM    5  C   UNL     1     -10.408  13.903  66.850  1.00  0.00    -0.266 C  
HETATM    6  C   UNL     1      -9.409  12.728  66.919  1.00  0.00    -0.234 C  
ENDROOT
BRANCH   5   7
HETATM    7  C   UNL     1      -9.682  15.132  66.210  1.00  0.00    -0.290 C  
BRANCH   7   8
HETATM    8  O   UNL     1     -10.561  16.268  66.103  1.00  0.00    -0.312 OA 
BRANCH   8   9
HETATM    9  C   UNL     1     -10.162  17.412  66.700  1.00  0.00    -0.324 C  
HETATM   10  H2  UNL     1      -8.403  17.257  65.546  1.00  0.00     0.000 HD 
HETATM   11  O   UNL     1     -10.781  18.051  67.534  1.00  0.00    -0.404 OA 
HETATM   12  N   UNL     1      -8.943  17.773  66.241  1.00  0.00    -0.218 N  
HETATM   13  H1  UNL     1      -8.642  18.637  66.692  1.00  0.00     0.000 HD 
ENDBRANCH   8   9
ENDBRANCH   7   8
ENDBRANCH   5   7
BRANCH   5  14
HETATM   14  C   UNL     1     -11.567  13.530  65.867  1.00  0.00    -0.335 C  
BRANCH  14  15
HETATM   15  O   UNL     1     -11.312  12.335  65.111  1.00  0.00    -0.311 OA 
BRANCH  15  16
HETATM   16  C   UNL     1     -11.158  12.493  63.776  1.00  0.00    -0.448 C  
HETATM   17  H1  UNL     1     -12.148  13.200  62.251  1.00  0.00     0.000 HD 
HETATM   18  H2  UNL     1     -13.087  13.363  63.792  1.00  0.00     0.000 HD 
HETATM   19  N   UNL     1     -12.264  13.082  63.257  1.00  0.00    -0.514 N  
HETATM   20  O   UNL     1     -10.172  12.236  63.112  1.00  0.00    -0.347 OA 
ENDBRANCH  15  16
ENDBRANCH  14  15
ENDBRANCH   5  14
TORSDOF 6
ENDMDL
MODEL       75
REMARK 921   NORMALIZED FREE ENERGY PREDICTED BY IDOCK:   -3.72 KCAL/MOL
REMARK 922        TOTAL FREE ENERGY PREDICTED BY IDOCK:   -5.61 KCAL/MOL
REMARK 923 INTER-LIGAND FREE ENERGY PREDICTED BY IDOCK:   -5.15 KCAL/MOL
REMARK 924 INTRA-LIGAND FREE ENERGY PREDICTED BY IDOCK:   -0.46 KCAL/MOL
REMARK 927      BINDING AFFINITY PREDICTED BY RF-SCORE:    0.00 PKD
ROOT
HETATM    1  C   UNL     1     -12.014  12.807  63.774  1.00  0.00    -0.585 C  
HETATM    2  C   UNL     1     -11.333  12.661  65.130  1.00  0.00    -0.343 C  
HETATM    3  C   UNL     1     -10.766  11.248  65.425  1.00  0.00    -0.291 C  
HETATM    4  C   UNL     1      -9.666  10.954  64.383  1.00  0.00    -0.342 C  
HETATM    5  C   UNL     1     -10.280  11.013  66.927  1.00  0.00    -0.263 C  
HETATM    6  C   UNL     1      -9.219  12.055  67.340  1.00  0.00    -0.180 C  
ENDROOT
BRANCH   5   7
HETATM    7  C   UNL     1      -9.651   9.587  67.060  1.00  0.00    -0.164 C  
BRANCH   7   8
HETATM    8  O   UNL     1     -10.535   8.569  66.553  1.00  0.00    -0.256 OA 
BRANCH   8   9
HETATM    9  C   UNL     1     -10.613   7.417  67.255  1.00  0.00    -0.323 C  
HETATM   10  H2  UNL     1     -11.409   6.549  65.505  1.00  0.00     0.000 HD 
HETATM   11  O   UNL     1     -10.284   7.249  68.417  1.00  0.00    -0.169 OA 
HETATM   12  N   UNL     1     -11.124   6.437  66.478  1.00  0.00    -0.680 N  
HETATM   13  H1  UNL     1     -11.184   5.566  67.007  1.00  0.00     0.000 HD 
ENDBRANCH   8   9
ENDBRANCH   7   8
ENDBRANCH   5   7
BRANCH   5  14
HETATM   14  C   UNL     1     -11.465  11.056  67.949  1.00  0.00    -0.282 C  
BRANCH  14  15
HETATM   15  O   UNL     1     -11.130  10.507  69.234  1.00  0.00    -0.215 OA 
BRANCH  15  16
HETATM   16  C   UNL     1     -11.812  11.002  70.293  1.00  0.00    -0.367 C  
HETATM   17  H1  UNL     1     -12.515  12.707  70.928  1.00  0.00     0.000 HD 
HETATM   18  H2  UNL     1     -11.680  12.880  69.330  1.00  0.00     0.000 HD 
HETATM   19  N   UNL     1     -12.002  12.334  70.129  1.00  0.00    -0.335 N  
HETATM   20  O   UNL     1     -12.272  10.377  71.229  1.00  0.00    -0.356 OA 
ENDBRANCH  15  16
ENDBRANCH  14  15
ENDBRANCH   5  14
TORSDOF 6
ENDMDL
MODEL       76
REMARK 921   NORMALIZED FREE ENERGY PREDICTED BY IDOCK:   -3.70 KCAL/MOL
REMARK 922        TOTAL FREE ENERGY PREDICTED BY IDOCK:   -5.58 KCAL/MOL
REMARK 923 INTER-LIGAND FREE ENERGY PREDICTED BY IDOCK:   -5.33 KCAL/MOL
REMARK 924 INTRA-LIGAND FREE ENERGY PREDICTED BY IDOCK:   -0.25 KCAL/MOL
REMARK 927      BINDING AFFINITY PREDICTED BY RF-SCORE:    0.00 PKD
ROOT
HETATM    1  C   UNL     1     -11.715  15.314  70.098  1.00  0.00    -0.342 C  
HETATM    2  C   UNL     1     -11.807  15.239  68.577  1.00  0.00    -0.305 C  
HETATM    3  C   UNL     1     -10.981  14.095  67.932  1.00  0.00    -0.264 C  
HETATM    4  C   UNL     1     -11.554  12.755  68.441  1.00  0.00    -0.365 C  
HETATM    5  C   UNL     1     -10.864  14.158  66.342  1.00  0.00    -0.304 C  
HETATM    6  C   UNL     1     -12.258  14.182  65.680  1.00  0.00    -0.449 C  
ENDROOT
BRANCH   5   7
HETATM    7  C   UNL     1     -10.089  12.904  65.820  1.00  0.00    -0.287 C  
BRANCH   7   8
HETATM    8  O   UNL     1     -10.611  12.447  64.558  1.00  0.00    -0.289 OA 
BRANCH   8   9
HETATM    9  C   UNL     1     -10.269  11.200  64.166  1.00  0.00    -0.347 C  
HETATM   10  H2  UNL     1     -11.001  11.731  62.261  1.00  0.00     0.000 HD 
HETATM   11  O   UNL     1      -9.762  10.333  64.859  1.00  0.00    -0.273 OA 
HETATM   12  N   UNL     1     -10.575  11.025  62.862  1.00  0.00    -0.803 N  
HETATM   13  H1  UNL     1     -10.318  10.083  62.566  1.00  0.00     0.000 HD 
ENDBRANCH   8   9
ENDBRANCH   7   8
ENDBRANCH   5   7
BRANCH   5  14
HETATM   14  C   UNL     1     -10.047  15.401  65.854  1.00  0.00    -0.345 C  
BRANCH  14  15
HETATM   15  O   UNL     1      -9.245  15.997  66.887  1.00  0.00    -0.206 OA 
BRANCH  15  16
HETATM   16  C   UNL     1      -7.922  16.110  66.629  1.00  0.00    -0.270 C  
HETATM   17  H1  UNL     1      -6.660  17.433  65.947  1.00  0.00     0.000 HD 
HETATM   18  H2  UNL     1      -8.351  18.081  65.992  1.00  0.00     0.000 HD 
HETATM   19  N   UNL     1      -7.658  17.348  66.142  1.00  0.00    -0.306 N  
HETATM   20  O   UNL     1      -7.054  15.289  66.855  1.00  0.00    -0.175 OA 
ENDBRANCH  15  16
ENDBRANCH  14  15
ENDBRANCH   5  14
TORSDOF 6
ENDMDL
MODEL       77
REMARK 921   NORMALIZED FREE ENERGY PREDICTED BY IDOCK:   -3.68 KCAL/MOL
REMARK 922        TOTAL FREE ENERGY PREDICTED BY IDOCK:   -5.56 KCAL/MOL
REMARK 923 INTER-LIGAND FREE ENERGY PREDICTED BY IDOCK:   -4.81 KCAL/MOL
REMARK 924 INTRA-LIGAND FREE ENERGY PREDICTED BY IDOCK:   -0.76 KCAL/MOL
REMARK 927      BINDING AFFINITY PREDICTED BY RF-SCORE:    0.00 PKD
ROOT
HETATM    1  C   UNL     1     -11.033   3.946  73.463  1.00  0.00    -0.343 C  
HETATM    2  C   UNL     1     -10.496   4.762  72.292  1.00  0.00    -0.255 C  
HETATM    3  C   UNL     1     -11.095   6.187  72.163  1.00  0.00    -0.321 C  
HETATM    4  C   UNL     1     -10.700   6.980  73.426  1.00  0.00    -0.379 C  
HETATM    5  C   UNL     1     -10.737   6.952  70.809  1.00  0.00    -0.262 C  
HETATM    6  C   UNL     1      -9.209   7.050  70.610  1.00  0.00    -0.158 C  
ENDROOT
BRANCH   5   7
HETATM    7  C   UNL     1     -11.324   8.401  70.852  1.00  0.00    -0.268 C  
BRANCH   7   8
HETATM    8  O   UNL     1     -10.550   9.310  70.048  1.00  0.00    -0.207 OA 
BRANCH   8   9
HETATM    9  C   UNL     1     -11.189  10.394  69.556  1.00  0.00    -0.269 C  
HETATM   10  H2  UNL     1     -11.140   9.422  67.685  1.00  0.00     0.000 HD 
HETATM   11  O   UNL     1     -11.527  11.385  70.182  1.00  0.00    -0.288 OA 
HETATM   12  N   UNL     1     -11.413  10.238  68.232  1.00  0.00    -0.525 N  
HETATM   13  H1  UNL     1     -11.895  11.057  67.861  1.00  0.00     0.000 HD 
ENDBRANCH   8   9
ENDBRANCH   7   8
ENDBRANCH   5   7
BRANCH   5  14
HETATM   14  C   UNL     1     -11.373   6.269  69.553  1.00  0.00    -0.404 C  
BRANCH  14  15
HETATM   15  O   UNL     1     -10.413   5.941  68.535  1.00  0.00    -0.192 OA 
BRANCH  15  16
HETATM   16  C   UNL     1     -10.647   6.453  67.304  1.00  0.00    -0.314 C  
HETATM   17  H1  UNL     1     -10.822   5.839  65.461  1.00  0.00     0.000 HD 
HETATM   18  H2  UNL     1     -10.492   4.466  66.596  1.00  0.00     0.000 HD 
HETATM   19  N   UNL     1     -10.646   5.453  66.389  1.00  0.00    -0.287 N  
HETATM   20  O   UNL     1     -10.902   7.608  67.023  1.00  0.00    -0.334 OA 
ENDBRANCH  15  16
ENDBRANCH  14  15
ENDBRANCH   5  14
TORSDOF 6
ENDMDL
MODEL       78
REMARK 921   NORMALIZED FREE ENERGY PREDICTED BY IDOCK:   -3.68 KCAL/MOL
REMARK 922        TOTAL FREE ENERGY PREDICTED BY IDOCK:   -5.55 KCAL/MOL
REMARK 923 INTER-LIGAND FREE ENERGY PREDICTED BY IDOCK:   -5.02 KCAL/MOL
REMARK 924 INTRA-LIGAND FREE ENERGY PREDICTED BY IDOCK:   -0.54 KCAL/MOL
REMARK 927      BINDING AFFINITY PREDICTED BY RF-SCORE:    0.00 PKD
ROOT
HETATM    1  C   UNL     1     -10.517   6.671  66.883  1.00  0.00    -0.349 C  
HETATM    2  C   UNL     1     -10.201   8.050  67.454  1.00  0.00    -0.330 C  
HETATM    3  C   UNL     1     -10.651   8.264  68.923  1.00  0.00    -0.160 C  
HETATM    4  C   UNL     1      -9.867   7.268  69.805  1.00  0.00    -0.177 C  
HETATM    5  C   UNL     1     -10.558   9.768  69.448  1.00  0.00    -0.248 C  
HETATM    6  C   UNL     1      -9.128  10.326  69.294  1.00  0.00    -0.206 C  
ENDROOT
BRANCH   5   7
HETATM    7  C   UNL     1     -10.951   9.823  70.961  1.00  0.00    -0.332 C  
BRANCH   7   8
HETATM    8  O   UNL     1     -12.351   9.550  71.155  1.00  0.00    -0.308 OA 
BRANCH   8   9
HETATM    9  C   UNL     1     -12.679   8.674  72.130  1.00  0.00    -0.392 C  
HETATM   10  H2  UNL     1     -14.443   9.802  72.381  1.00  0.00     0.000 HD 
HETATM   11  O   UNL     1     -12.020   7.717  72.499  1.00  0.00    -0.288 OA 
HETATM   12  N   UNL     1     -13.873   9.007  72.669  1.00  0.00    -0.801 N  
HETATM   13  H1  UNL     1     -14.120   8.346  73.406  1.00  0.00     0.000 HD 
ENDBRANCH   8   9
ENDBRANCH   7   8
ENDBRANCH   5   7
BRANCH   5  14
HETATM   14  C   UNL     1     -11.560  10.717  68.710  1.00  0.00    -0.280 C  
BRANCH  14  15
HETATM   15  O   UNL     1     -10.915  11.797  68.015  1.00  0.00    -0.202 OA 
BRANCH  15  16
HETATM   16  C   UNL     1     -11.304  12.003  66.735  1.00  0.00    -0.339 C  
HETATM   17  H1  UNL     1     -12.243  13.347  65.678  1.00  0.00     0.000 HD 
HETATM   18  H2  UNL     1     -12.116  13.833  67.419  1.00  0.00     0.000 HD 
HETATM   19  N   UNL     1     -11.949  13.192  66.642  1.00  0.00    -0.399 N  
HETATM   20  O   UNL     1     -11.067  11.301  65.771  1.00  0.00    -0.206 OA 
ENDBRANCH  15  16
ENDBRANCH  14  15
ENDBRANCH   5  14
TORSDOF 6
ENDMDL
MODEL       79
REMARK 921   NORMALIZED FREE ENERGY PREDICTED BY IDOCK:   -3.67 KCAL/MOL
REMARK 922        TOTAL FREE ENERGY PREDICTED BY IDOCK:   -5.54 KCAL/MOL
REMARK 923 INTER-LIGAND FREE ENERGY PREDICTED BY IDOCK:   -5.07 KCAL/MOL
REMARK 924 INTRA-LIGAND FREE ENERGY PREDICTED BY IDOCK:   -0.47 KCAL/MOL
REMARK 927      BINDING AFFINITY PREDICTED BY RF-SCORE:    0.00 PKD
ROOT
HETATM    1  C   UNL     1      -8.055  12.557  67.389  1.00  0.00    -0.180 C  
HETATM    2  C   UNL     1      -9.177  13.456  66.882  1.00  0.00    -0.251 C  
HETATM    3  C   UNL     1      -9.238  14.857  67.545  1.00  0.00    -0.194 C  
HETATM    4  C   UNL     1      -7.931  15.601  67.196  1.00  0.00    -0.254 C  
HETATM    5  C   UNL     1     -10.546  15.708  67.213  1.00  0.00    -0.305 C  
HETATM    6  C   UNL     1     -10.726  15.886  65.690  1.00  0.00    -0.350 C  
ENDROOT
BRANCH   5   7
HETATM    7  C   UNL     1     -10.434  17.124  67.867  1.00  0.00    -0.369 C  
BRANCH   7   8
HETATM    8  O   UNL     1     -10.860  18.160  66.963  1.00  0.00    -0.303 OA 
BRANCH   8   9
HETATM    9  C   UNL     1     -10.401  19.409  67.197  1.00  0.00    -0.438 C  
HETATM   10  H2  UNL     1     -10.871  19.069  69.225  1.00  0.00     0.000 HD 
HETATM   11  O   UNL     1      -9.958  20.188  66.370  1.00  0.00    -0.440 OA 
HETATM   12  N   UNL     1     -10.503  19.700  68.513  1.00  0.00    -0.509 N  
HETATM   13  H1  UNL     1     -10.157  20.643  68.690  1.00  0.00     0.000 HD 
ENDBRANCH   8   9
ENDBRANCH   7   8
ENDBRANCH   5   7
BRANCH   5  14
HETATM   14  C   UNL     1     -11.843  15.062  67.808  1.00  0.00    -0.204 C  
BRANCH  14  15
HETATM   15  O   UNL     1     -12.115  15.470  69.158  1.00  0.00    -0.326 OA 
BRANCH  15  16
HETATM   16  C   UNL     1     -12.402  14.481  70.037  1.00  0.00    -0.323 C  
HETATM   17  H1  UNL     1     -12.202  12.547  70.196  1.00  0.00     0.000 HD 
HETATM   18  H2  UNL     1     -11.526  13.163  68.632  1.00  0.00     0.000 HD 
HETATM   19  N   UNL     1     -11.985  13.292  69.534  1.00  0.00    -0.317 N  
HETATM   20  O   UNL     1     -12.884  14.598  71.147  1.00  0.00    -0.307 OA 
ENDBRANCH  15  16
ENDBRANCH  14  15
ENDBRANCH   5  14
TORSDOF 6
ENDMDL
MODEL       80
REMARK 921   NORMALIZED FREE ENERGY PREDICTED BY IDOCK:   -3.66 KCAL/MOL
REMARK 922        TOTAL FREE ENERGY PREDICTED BY IDOCK:   -5.53 KCAL/MOL
REMARK 923 INTER-LIGAND FREE ENERGY PREDICTED BY IDOCK:   -4.98 KCAL/MOL
REMARK 924 INTRA-LIGAND FREE ENERGY PREDICTED BY IDOCK:   -0.55 KCAL/MOL
REMARK 927      BINDING AFFINITY PREDICTED BY RF-SCORE:    0.00 PKD
ROOT
HETATM    1  C   UNL     1     -12.577  12.161  63.437  1.00  0.00    -0.584 C  
HETATM    2  C   UNL     1     -12.293  12.502  64.896  1.00  0.00    -0.539 C  
HETATM    3  C   UNL     1     -11.191  13.572  65.112  1.00  0.00    -0.320 C  
HETATM    4  C   UNL     1     -11.682  14.889  64.474  1.00  0.00    -0.388 C  
HETATM    5  C   UNL     1     -10.708  13.753  66.622  1.00  0.00    -0.277 C  
HETATM    6  C   UNL     1     -11.894  14.086  67.551  1.00  0.00    -0.442 C  
ENDROOT
BRANCH   5   7
HETATM    7  C   UNL     1      -9.670  14.920  66.707  1.00  0.00    -0.251 C  
BRANCH   7   8
HETATM    8  O   UNL     1     -10.012  15.858  67.744  1.00  0.00    -0.225 OA 
BRANCH   8   9
HETATM    9  C   UNL     1      -9.048  16.161  68.642  1.00  0.00    -0.218 C  
HETATM   10  H2  UNL     1      -9.319  14.214  69.406  1.00  0.00     0.000 HD 
HETATM   11  O   UNL     1      -8.446  17.218  68.733  1.00  0.00    -0.274 OA 
HETATM   12  N   UNL     1      -8.829  15.108  69.459  1.00  0.00    -0.416 N  
HETATM   13  H1  UNL     1      -8.103  15.337  70.137  1.00  0.00     0.000 HD 
ENDBRANCH   8   9
ENDBRANCH   7   8
ENDBRANCH   5   7
BRANCH   5  14
HETATM   14  C   UNL     1      -9.973  12.484  67.167  1.00  0.00    -0.216 C  
BRANCH  14  15
HETATM   15  O   UNL     1      -9.134  11.847  66.190  1.00  0.00    -0.214 OA 
BRANCH  15  16
HETATM   16  C   UNL     1      -9.326  10.519  66.010  1.00  0.00    -0.178 C  
HETATM   17  H1  UNL     1      -9.007   8.842  66.954  1.00  0.00     0.000 HD 
HETATM   18  H2  UNL     1      -8.435  10.269  67.912  1.00  0.00     0.000 HD 
HETATM   19  N   UNL     1      -8.863   9.842  67.090  1.00  0.00    -0.138 N  
HETATM   20  O   UNL     1      -9.891   9.976  65.080  1.00  0.00    -0.302 OA 
ENDBRANCH  15  16
ENDBRANCH  14  15
ENDBRANCH   5  14
TORSDOF 6
ENDMDL
MODEL       81
REMARK 921   NORMALIZED FREE ENERGY PREDICTED BY IDOCK:   -3.65 KCAL/MOL
REMARK 922        TOTAL FREE ENERGY PREDICTED BY IDOCK:   -5.51 KCAL/MOL
REMARK 923 INTER-LIGAND FREE ENERGY PREDICTED BY IDOCK:   -5.09 KCAL/MOL
REMARK 924 INTRA-LIGAND FREE ENERGY PREDICTED BY IDOCK:   -0.42 KCAL/MOL
REMARK 927      BINDING AFFINITY PREDICTED BY RF-SCORE:    0.00 PKD
ROOT
HETATM    1  C   UNL     1      -9.688  18.009  66.359  1.00  0.00    -0.324 C  
HETATM    2  C   UNL     1     -10.492  16.719  66.240  1.00  0.00    -0.264 C  
HETATM    3  C   UNL     1      -9.823  15.474  66.879  1.00  0.00    -0.245 C  
HETATM    4  C   UNL     1      -9.694  15.736  68.395  1.00  0.00    -0.203 C  
HETATM    5  C   UNL     1     -10.524  14.081  66.545  1.00  0.00    -0.281 C  
HETATM    6  C   UNL     1     -12.013  14.092  66.953  1.00  0.00    -0.479 C  
ENDROOT
BRANCH   5   7
HETATM    7  C   UNL     1      -9.807  12.929  67.323  1.00  0.00    -0.218 C  
BRANCH   7   8
HETATM    8  O   UNL     1      -8.540  12.596  66.726  1.00  0.00    -0.183 OA 
BRANCH   8   9
HETATM    9  C   UNL     1      -8.255  11.283  66.579  1.00  0.00    -0.165 C  
HETATM   10  H2  UNL     1      -8.565  11.110  68.658  1.00  0.00     0.000 HD 
HETATM   11  O   UNL     1      -7.968  10.713  65.541  1.00  0.00    -0.160 OA 
HETATM   12  N   UNL     1      -8.329  10.658  67.775  1.00  0.00    -0.115 N  
HETATM   13  H1  UNL     1      -8.113   9.667  67.665  1.00  0.00     0.000 HD 
ENDBRANCH   8   9
ENDBRANCH   7   8
ENDBRANCH   5   7
BRANCH   5  14
HETATM   14  C   UNL     1     -10.413  13.707  65.029  1.00  0.00    -0.391 C  
BRANCH  14  15
HETATM   15  O   UNL     1     -11.684  13.649  64.361  1.00  0.00    -0.380 OA 
BRANCH  15  16
HETATM   16  C   UNL     1     -11.977  12.487  63.732  1.00  0.00    -0.517 C  
HETATM   17  H1  UNL     1     -11.050  10.989  62.895  1.00  0.00     0.000 HD 
HETATM   18  H2  UNL     1      -9.887  12.216  63.546  1.00  0.00     0.000 HD 
HETATM   19  N   UNL     1     -10.829  11.864  63.370  1.00  0.00    -0.406 N  
HETATM   20  O   UNL     1     -13.078  11.998  63.563  1.00  0.00    -0.764 OA 
ENDBRANCH  15  16
ENDBRANCH  14  15
ENDBRANCH   5  14
TORSDOF 6
ENDMDL
MODEL       82
REMARK 921   NORMALIZED FREE ENERGY PREDICTED BY IDOCK:   -3.65 KCAL/MOL
REMARK 922        TOTAL FREE ENERGY PREDICTED BY IDOCK:   -5.51 KCAL/MOL
REMARK 923 INTER-LIGAND FREE ENERGY PREDICTED BY IDOCK:   -5.00 KCAL/MOL
REMARK 924 INTRA-LIGAND FREE ENERGY PREDICTED BY IDOCK:   -0.51 KCAL/MOL
REMARK 927      BINDING AFFINITY PREDICTED BY RF-SCORE:    0.00 PKD
ROOT
HETATM    1  C   UNL     1      -9.110   8.576  71.629  1.00  0.00    -0.296 C  
HETATM    2  C   UNL     1      -9.977   8.843  70.403  1.00  0.00    -0.230 C  
HETATM    3  C   UNL     1      -9.684  10.183  69.678  1.00  0.00    -0.250 C  
HETATM    4  C   UNL     1      -8.236  10.124  69.148  1.00  0.00    -0.145 C  
HETATM    5  C   UNL     1     -10.742  10.592  68.557  1.00  0.00    -0.252 C  
HETATM    6  C   UNL     1     -10.881   9.486  67.490  1.00  0.00    -0.239 C  
ENDROOT
BRANCH   5   7
HETATM    7  C   UNL     1     -10.278  11.907  67.849  1.00  0.00    -0.193 C  
BRANCH   7   8
HETATM    8  O   UNL     1     -11.389  12.620  67.275  1.00  0.00    -0.281 OA 
BRANCH   8   9
HETATM    9  C   UNL     1     -11.462  12.664  65.926  1.00  0.00    -0.363 C  
HETATM   10  H2  UNL     1      -9.381  13.006  65.947  1.00  0.00     0.000 HD 
HETATM   11  O   UNL     1     -12.466  12.529  65.248  1.00  0.00    -0.608 OA 
HETATM   12  N   UNL     1     -10.236  12.888  65.404  1.00  0.00    -0.293 N  
HETATM   13  H1  UNL     1     -10.290  12.921  64.386  1.00  0.00     0.000 HD 
ENDBRANCH   8   9
ENDBRANCH   7   8
ENDBRANCH   5   7
BRANCH   5  14
HETATM   14  C   UNL     1     -12.154  10.904  69.157  1.00  0.00    -0.221 C  
BRANCH  14  15
HETATM   15  O   UNL     1     -12.100  11.626  70.397  1.00  0.00    -0.355 OA 
BRANCH  15  16
HETATM   16  C   UNL     1     -12.846  11.131  71.412  1.00  0.00    -0.439 C  
HETATM   17  H1  UNL     1     -13.927  11.781  72.900  1.00  0.00     0.000 HD 
HETATM   18  H2  UNL     1     -13.216  13.145  71.943  1.00  0.00     0.000 HD 
HETATM   19  N   UNL     1     -13.365  12.154  72.135  1.00  0.00    -0.466 N  
HETATM   20  O   UNL     1     -13.105   9.964  71.635  1.00  0.00    -0.374 OA 
ENDBRANCH  15  16
ENDBRANCH  14  15
ENDBRANCH   5  14
TORSDOF 6
ENDMDL
MODEL       83
REMARK 921   NORMALIZED FREE ENERGY PREDICTED BY IDOCK:   -3.64 KCAL/MOL
REMARK 922        TOTAL FREE ENERGY PREDICTED BY IDOCK:   -5.51 KCAL/MOL
REMARK 923 INTER-LIGAND FREE ENERGY PREDICTED BY IDOCK:   -5.48 KCAL/MOL
REMARK 924 INTRA-LIGAND FREE ENERGY PREDICTED BY IDOCK:   -0.03 KCAL/MOL
REMARK 927      BINDING AFFINITY PREDICTED BY RF-SCORE:    0.00 PKD
ROOT
HETATM    1  C   UNL     1      -8.816  16.299  66.176  1.00  0.00    -0.362 C  
HETATM    2  C   UNL     1     -10.014  15.683  66.892  1.00  0.00    -0.252 C  
HETATM    3  C   UNL     1      -9.743  14.303  67.544  1.00  0.00    -0.223 C  
HETATM    4  C   UNL     1      -8.673  14.501  68.639  1.00  0.00    -0.172 C  
HETATM    5  C   UNL     1     -11.039  13.536  68.072  1.00  0.00    -0.283 C  
HETATM    6  C   UNL     1     -11.828  14.400  69.079  1.00  0.00    -0.358 C  
ENDROOT
BRANCH   5   7
HETATM    7  C   UNL     1     -10.613  12.210  68.784  1.00  0.00    -0.201 C  
BRANCH   7   8
HETATM    8  O   UNL     1     -11.757  11.413  69.145  1.00  0.00    -0.283 OA 
BRANCH   8   9
HETATM    9  C   UNL     1     -11.857  11.029  70.436  1.00  0.00    -0.367 C  
HETATM   10  H2  UNL     1     -10.101   9.907  70.112  1.00  0.00     0.000 HD 
HETATM   11  O   UNL     1     -12.725  11.358  71.227  1.00  0.00    -0.405 OA 
HETATM   12  N   UNL     1     -10.838  10.200  70.753  1.00  0.00    -0.383 N  
HETATM   13  H1  UNL     1     -10.914   9.910  71.728  1.00  0.00     0.000 HD 
ENDBRANCH   8   9
ENDBRANCH   7   8
ENDBRANCH   5   7
BRANCH   5  14
HETATM   14  C   UNL     1     -11.993  13.110  66.907  1.00  0.00    -0.362 C  
BRANCH  14  15
HETATM   15  O   UNL     1     -12.545  14.223  66.186  1.00  0.00    -0.436 OA 
BRANCH  15  16
HETATM   16  C   UNL     1     -12.533  14.128  64.836  1.00  0.00    -0.401 C  
HETATM   17  H1  UNL     1     -12.194  15.258  63.282  1.00  0.00     0.000 HD 
HETATM   18  H2  UNL     1     -11.996  16.174  64.832  1.00  0.00     0.000 HD 
HETATM   19  N   UNL     1     -12.203  15.329  64.299  1.00  0.00    -0.335 N  
HETATM   20  O   UNL     1     -12.705  13.128  64.166  1.00  0.00    -0.650 OA 
ENDBRANCH  15  16
ENDBRANCH  14  15
ENDBRANCH   5  14
TORSDOF 6
ENDMDL
MODEL       84
REMARK 921   NORMALIZED FREE ENERGY PREDICTED BY IDOCK:   -3.64 KCAL/MOL
REMARK 922        TOTAL FREE ENERGY PREDICTED BY IDOCK:   -5.51 KCAL/MOL
REMARK 923 INTER-LIGAND FREE ENERGY PREDICTED BY IDOCK:   -4.98 KCAL/MOL
REMARK 924 INTRA-LIGAND FREE ENERGY PREDICTED BY IDOCK:   -0.52 KCAL/MOL
REMARK 927      BINDING AFFINITY PREDICTED BY RF-SCORE:    0.00 PKD
ROOT
HETATM    1  C   UNL     1      -9.591  10.436  63.823  1.00  0.00    -0.366 C  
HETATM    2  C   UNL     1      -9.570  11.328  65.059  1.00  0.00    -0.267 C  
HETATM    3  C   UNL     1     -10.647  10.992  66.123  1.00  0.00    -0.288 C  
HETATM    4  C   UNL     1     -10.366   9.567  66.645  1.00  0.00    -0.280 C  
HETATM    5  C   UNL     1     -10.801  12.065  67.294  1.00  0.00    -0.290 C  
HETATM    6  C   UNL     1      -9.459  12.295  68.021  1.00  0.00    -0.206 C  
ENDROOT
BRANCH   5   7
HETATM    7  C   UNL     1     -11.849  11.558  68.339  1.00  0.00    -0.283 C  
BRANCH   7   8
HETATM    8  O   UNL     1     -11.266  11.414  69.647  1.00  0.00    -0.258 OA 
BRANCH   8   9
HETATM    9  C   UNL     1     -11.788  10.463  70.452  1.00  0.00    -0.328 C  
HETATM   10  H2  UNL     1     -11.134   9.063  69.017  1.00  0.00     0.000 HD 
HETATM   11  O   UNL     1     -12.352  10.642  71.518  1.00  0.00    -0.360 OA 
HETATM   12  N   UNL     1     -11.601   9.241  69.906  1.00  0.00    -0.445 N  
HETATM   13  H1  UNL     1     -11.995   8.523  70.513  1.00  0.00     0.000 HD 
ENDBRANCH   8   9
ENDBRANCH   7   8
ENDBRANCH   5   7
BRANCH   5  14
HETATM   14  C   UNL     1     -11.342  13.439  66.775  1.00  0.00    -0.325 C  
BRANCH  14  15
HETATM   15  O   UNL     1     -12.187  14.113  67.721  1.00  0.00    -0.334 OA 
BRANCH  15  16
HETATM   16  C   UNL     1     -11.689  15.247  68.268  1.00  0.00    -0.301 C  
HETATM   17  H1  UNL     1     -11.719  16.199  69.970  1.00  0.00     0.000 HD 
HETATM   18  H2  UNL     1     -12.683  14.667  70.043  1.00  0.00     0.000 HD 
HETATM   19  N   UNL     1     -12.094  15.345  69.558  1.00  0.00    -0.327 N  
HETATM   20  O   UNL     1     -10.930  16.043  67.750  1.00  0.00    -0.327 OA 
ENDBRANCH  15  16
ENDBRANCH  14  15
ENDBRANCH   5  14
TORSDOF 6
ENDMDL
MODEL       85
REMARK 921   NORMALIZED FREE ENERGY PREDICTED BY IDOCK:   -3.58 KCAL/MOL
REMARK 922        TOTAL FREE ENERGY PREDICTED BY IDOCK:   -5.42 KCAL/MOL
REMARK 923 INTER-LIGAND FREE ENERGY PREDICTED BY IDOCK:   -5.00 KCAL/MOL
REMARK 924 INTRA-LIGAND FREE ENERGY PREDICTED BY IDOCK:   -0.43 KCAL/MOL
REMARK 927      BINDING AFFINITY PREDICTED BY RF-SCORE:    0.00 PKD
ROOT
HETATM    1  C   UNL     1     -12.470  12.850  65.218  1.00  0.00    -0.552 C  
HETATM    2  C   UNL     1     -12.267  13.951  66.254  1.00  0.00    -0.498 C  
HETATM    3  C   UNL     1     -10.797  14.158  66.704  1.00  0.00    -0.299 C  
HETATM    4  C   UNL     1      -9.985  14.605  65.469  1.00  0.00    -0.384 C  
HETATM    5  C   UNL     1     -10.602  15.122  67.960  1.00  0.00    -0.258 C  
HETATM    6  C   UNL     1     -11.228  16.509  67.702  1.00  0.00    -0.038 C  
ENDROOT
BRANCH   5   7
HETATM    7  C   UNL     1      -9.076  15.314  68.245  1.00  0.00    -0.181 C  
BRANCH   7   8
HETATM    8  O   UNL     1      -8.645  16.653  67.943  1.00  0.00    -0.190 OA 
BRANCH   8   9
HETATM    9  C   UNL     1      -7.670  17.176  68.718  1.00  0.00    -0.259 C  
HETATM   10  H2  UNL     1      -7.429  15.237  69.511  1.00  0.00     0.000 HD 
HETATM   11  O   UNL     1      -7.299  18.338  68.736  1.00  0.00    -0.281 OA 
HETATM   12  N   UNL     1      -7.138  16.214  69.504  1.00  0.00    -0.207 N  
HETATM   13  H1  UNL     1      -6.402  16.609  70.090  1.00  0.00     0.000 HD 
ENDBRANCH   8   9
ENDBRANCH   7   8
ENDBRANCH   5   7
BRANCH   5  14
HETATM   14  C   UNL     1     -11.211  14.522  69.271  1.00  0.00    -0.281 C  
BRANCH  14  15
HETATM   15  O   UNL     1     -12.529  15.013  69.564  1.00  0.00    -0.203 OA 
BRANCH  15  16
HETATM   16  C   UNL     1     -12.761  15.380  70.846  1.00  0.00    -0.461 C  
HETATM   17  H1  UNL     1     -11.767  16.018  72.399  1.00  0.00     0.000 HD 
HETATM   18  H2  UNL     1     -10.680  15.738  70.977  1.00  0.00     0.000 HD 
HETATM   19  N   UNL     1     -11.593  15.742  71.433  1.00  0.00    -0.408 N  
HETATM   20  O   UNL     1     -13.837  15.465  71.405  1.00  0.00    -0.496 OA 
ENDBRANCH  15  16
ENDBRANCH  14  15
ENDBRANCH   5  14
TORSDOF 6
ENDMDL
MODEL       86
REMARK 921   NORMALIZED FREE ENERGY PREDICTED BY IDOCK:   -3.58 KCAL/MOL
REMARK 922        TOTAL FREE ENERGY PREDICTED BY IDOCK:   -5.42 KCAL/MOL
REMARK 923 INTER-LIGAND FREE ENERGY PREDICTED BY IDOCK:   -5.04 KCAL/MOL
REMARK 924 INTRA-LIGAND FREE ENERGY PREDICTED BY IDOCK:   -0.38 KCAL/MOL
REMARK 927      BINDING AFFINITY PREDICTED BY RF-SCORE:    0.00 PKD
ROOT
HETATM    1  C   UNL     1      -8.520  15.385  66.627  1.00  0.00    -0.296 C  
HETATM    2  C   UNL     1      -9.438  14.367  67.296  1.00  0.00    -0.215 C  
HETATM    3  C   UNL     1      -9.125  12.887  66.956  1.00  0.00    -0.228 C  
HETATM    4  C   UNL     1      -7.711  12.570  67.486  1.00  0.00    -0.165 C  
HETATM    5  C   UNL     1     -10.222  11.834  67.439  1.00  0.00    -0.220 C  
HETATM    6  C   UNL     1     -10.465  11.939  68.960  1.00  0.00    -0.103 C  
ENDROOT
BRANCH   5   7
HETATM    7  C   UNL     1      -9.738  10.382  67.114  1.00  0.00    -0.172 C  
BRANCH   7   8
HETATM    8  O   UNL     1     -10.696   9.397  67.544  1.00  0.00    -0.280 OA 
BRANCH   8   9
HETATM    9  C   UNL     1     -10.240   8.140  67.741  1.00  0.00    -0.228 C  
HETATM   10  H2  UNL     1     -11.985   7.485  66.754  1.00  0.00     0.000 HD 
HETATM   11  O   UNL     1      -9.204   7.822  68.299  1.00  0.00    -0.140 OA 
HETATM   12  N   UNL     1     -11.112   7.246  67.224  1.00  0.00    -0.583 N  
HETATM   13  H1  UNL     1     -10.768   6.297  67.373  1.00  0.00     0.000 HD 
ENDBRANCH   8   9
ENDBRANCH   7   8
ENDBRANCH   5   7
BRANCH   5  14
HETATM   14  C   UNL     1     -11.586  12.009  66.691  1.00  0.00    -0.319 C  
BRANCH  14  15
HETATM   15  O   UNL     1     -11.457  11.991  65.260  1.00  0.00    -0.338 OA 
BRANCH  15  16
HETATM   16  C   UNL     1     -12.407  12.659  64.564  1.00  0.00    -0.464 C  
HETATM   17  H1  UNL     1     -13.265  12.603  62.813  1.00  0.00     0.000 HD 
HETATM   18  H2  UNL     1     -12.021  11.298  62.992  1.00  0.00     0.000 HD 
HETATM   19  N   UNL     1     -12.549  12.100  63.338  1.00  0.00    -0.551 N  
HETATM   20  O   UNL     1     -13.106  13.572  64.961  1.00  0.00    -0.736 OA 
ENDBRANCH  15  16
ENDBRANCH  14  15
ENDBRANCH   5  14
TORSDOF 6
ENDMDL
MODEL       87
REMARK 921   NORMALIZED FREE ENERGY PREDICTED BY IDOCK:   -3.57 KCAL/MOL
REMARK 922        TOTAL FREE ENERGY PREDICTED BY IDOCK:   -5.41 KCAL/MOL
REMARK 923 INTER-LIGAND FREE ENERGY PREDICTED BY IDOCK:   -4.93 KCAL/MOL
REMARK 924 INTRA-LIGAND FREE ENERGY PREDICTED BY IDOCK:   -0.49 KCAL/MOL
REMARK 927      BINDING AFFINITY PREDICTED BY RF-SCORE:    0.00 PKD
ROOT
HETATM    1  C   UNL     1     -12.049  14.437  64.305  1.00  0.00    -0.461 C  
HETATM    2  C   UNL     1     -11.027  15.327  65.005  1.00  0.00    -0.450 C  
HETATM    3  C   UNL     1     -10.602  14.844  66.416  1.00  0.00    -0.307 C  
HETATM    4  C   UNL     1      -9.908  13.475  66.256  1.00  0.00    -0.306 C  
HETATM    5  C   UNL     1      -9.736  15.887  67.258  1.00  0.00    -0.224 C  
HETATM    6  C   UNL     1      -8.466  16.308  66.488  1.00  0.00    -0.338 C  
ENDROOT
BRANCH   5   7
HETATM    7  C   UNL     1      -9.301  15.238  68.613  1.00  0.00    -0.201 C  
BRANCH   7   8
HETATM    8  O   UNL     1      -7.875  15.301  68.797  1.00  0.00    -0.133 OA 
BRANCH   8   9
HETATM    9  C   UNL     1      -7.251  14.163  69.172  1.00  0.00    -0.086 C  
HETATM   10  H2  UNL     1      -6.659  15.205  70.908  1.00  0.00     0.000 HD 
HETATM   11  O   UNL     1      -7.215  13.115  68.550  1.00  0.00    -0.099 OA 
HETATM   12  N   UNL     1      -6.647  14.340  70.367  1.00  0.00    -0.396 N  
HETATM   13  H1  UNL     1      -6.175  13.481  70.651  1.00  0.00     0.000 HD 
ENDBRANCH   8   9
ENDBRANCH   7   8
ENDBRANCH   5   7
BRANCH   5  14
HETATM   14  C   UNL     1     -10.552  17.167  67.637  1.00  0.00    -0.343 C  
BRANCH  14  15
HETATM   15  O   UNL     1     -10.302  18.282  66.765  1.00  0.00    -0.355 OA 
BRANCH  15  16
HETATM   16  C   UNL     1     -10.217  19.497  67.355  1.00  0.00    -0.429 C  
HETATM   17  H1  UNL     1      -9.945  20.259  69.130  1.00  0.00     0.000 HD 
HETATM   18  H2  UNL     1      -9.928  18.448  69.169  1.00  0.00     0.000 HD 
HETATM   19  N   UNL     1     -10.009  19.343  68.685  1.00  0.00    -0.425 N  
HETATM   20  O   UNL     1     -10.239  20.584  66.809  1.00  0.00    -0.372 OA 
ENDBRANCH  15  16
ENDBRANCH  14  15
ENDBRANCH   5  14
TORSDOF 6
ENDMDL
MODEL       88
REMARK 921   NORMALIZED FREE ENERGY PREDICTED BY IDOCK:   -3.56 KCAL/MOL
REMARK 922        TOTAL FREE ENERGY PREDICTED BY IDOCK:   -5.40 KCAL/MOL
REMARK 923 INTER-LIGAND FREE ENERGY PREDICTED BY IDOCK:   -5.03 KCAL/MOL
REMARK 924 INTRA-LIGAND FREE ENERGY PREDICTED BY IDOCK:   -0.37 KCAL/MOL
REMARK 927      BINDING AFFINITY PREDICTED BY RF-SCORE:    0.00 PKD
ROOT
HETATM    1  C   UNL     1     -12.531  10.818  71.068  1.00  0.00    -0.522 C  
HETATM    2  C   UNL     1     -12.189  10.772  69.582  1.00  0.00    -0.325 C  
HETATM    3  C   UNL     1     -10.691  11.003  69.253  1.00  0.00    -0.263 C  
HETATM    4  C   UNL     1      -9.885   9.853  69.893  1.00  0.00    -0.285 C  
HETATM    5  C   UNL     1     -10.362  11.209  67.705  1.00  0.00    -0.215 C  
HETATM    6  C   UNL     1     -10.863  10.016  66.864  1.00  0.00    -0.152 C  
ENDROOT
BRANCH   5   7
HETATM    7  C   UNL     1      -8.816  11.339  67.508  1.00  0.00    -0.140 C  
BRANCH   7   8
HETATM    8  O   UNL     1      -8.437  11.119  66.136  1.00  0.00    -0.169 OA 
BRANCH   8   9
HETATM    9  C   UNL     1      -7.207  10.609  65.911  1.00  0.00    -0.119 C  
HETATM   10  H2  UNL     1      -7.533  11.043  63.873  1.00  0.00     0.000 HD 
HETATM   11  O   UNL     1      -6.445  10.151  66.747  1.00  0.00    -0.068 OA 
HETATM   12  N   UNL     1      -6.915  10.668  64.593  1.00  0.00    -0.358 N  
HETATM   13  H1  UNL     1      -5.986  10.282  64.423  1.00  0.00     0.000 HD 
ENDBRANCH   8   9
ENDBRANCH   7   8
ENDBRANCH   5   7
BRANCH   5  14
HETATM   14  C   UNL     1     -10.979  12.530  67.136  1.00  0.00    -0.263 C  
BRANCH  14  15
HETATM   15  O   UNL     1     -12.180  12.318  66.378  1.00  0.00    -0.613 OA 
BRANCH  15  16
HETATM   16  C   UNL     1     -12.435  13.213  65.395  1.00  0.00    -0.481 C  
HETATM   17  H1  UNL     1     -12.058  15.079  64.966  1.00  0.00     0.000 HD 
HETATM   18  H2  UNL     1     -11.328  14.596  66.552  1.00  0.00     0.000 HD 
HETATM   19  N   UNL     1     -11.866  14.404  65.706  1.00  0.00    -0.369 N  
HETATM   20  O   UNL     1     -13.009  13.009  64.343  1.00  0.00    -0.686 OA 
ENDBRANCH  15  16
ENDBRANCH  14  15
ENDBRANCH   5  14
TORSDOF 6
ENDMDL
MODEL       89
REMARK 921   NORMALIZED FREE ENERGY PREDICTED BY IDOCK:   -3.55 KCAL/MOL
REMARK 922        TOTAL FREE ENERGY PREDICTED BY IDOCK:   -5.39 KCAL/MOL
REMARK 923 INTER-LIGAND FREE ENERGY PREDICTED BY IDOCK:   -4.97 KCAL/MOL
REMARK 924 INTRA-LIGAND FREE ENERGY PREDICTED BY IDOCK:   -0.42 KCAL/MOL
REMARK 927      BINDING AFFINITY PREDICTED BY RF-SCORE:    0.00 PKD
ROOT
HETATM    1  C   UNL     1     -11.545  10.392  70.492  1.00  0.00    -0.433 C  
HETATM    2  C   UNL     1     -11.706  11.563  69.528  1.00  0.00    -0.413 C  
HETATM    3  C   UNL     1     -10.762  11.527  68.298  1.00  0.00    -0.247 C  
HETATM    4  C   UNL     1     -11.110  10.269  67.474  1.00  0.00    -0.302 C  
HETATM    5  C   UNL     1     -10.739  12.860  67.421  1.00  0.00    -0.252 C  
HETATM    6  C   UNL     1     -12.155  13.231  66.933  1.00  0.00    -0.389 C  
ENDROOT
BRANCH   5   7
HETATM    7  C   UNL     1      -9.823  12.653  66.171  1.00  0.00    -0.259 C  
BRANCH   7   8
HETATM    8  O   UNL     1     -10.581  12.684  64.948  1.00  0.00    -0.286 OA 
BRANCH   8   9
HETATM    9  C   UNL     1     -10.509  11.596  64.151  1.00  0.00    -0.351 C  
HETATM   10  H2  UNL     1     -12.239  12.332  63.195  1.00  0.00     0.000 HD 
HETATM   11  O   UNL     1      -9.669  10.712  64.201  1.00  0.00    -0.266 OA 
HETATM   12  N   UNL     1     -11.523  11.608  63.258  1.00  0.00    -0.815 N  
HETATM   13  H1  UNL     1     -11.469  10.786  62.656  1.00  0.00     0.000 HD 
ENDBRANCH   8   9
ENDBRANCH   7   8
ENDBRANCH   5   7
BRANCH   5  14
HETATM   14  C   UNL     1     -10.133  14.075  68.201  1.00  0.00    -0.244 C  
BRANCH  14  15
HETATM   15  O   UNL     1      -8.886  14.536  67.658  1.00  0.00    -0.173 OA 
BRANCH  15  16
HETATM   16  C   UNL     1      -8.301  15.575  68.299  1.00  0.00    -0.147 C  
HETATM   17  H1  UNL     1      -7.169  15.899  69.854  1.00  0.00     0.000 HD 
HETATM   18  H2  UNL     1      -7.541  14.138  69.652  1.00  0.00     0.000 HD 
HETATM   19  N   UNL     1      -7.610  15.116  69.371  1.00  0.00    -0.200 N  
HETATM   20  O   UNL     1      -8.300  16.743  67.960  1.00  0.00    -0.191 OA 
ENDBRANCH  15  16
ENDBRANCH  14  15
ENDBRANCH   5  14
TORSDOF 6
ENDMDL
MODEL       90
REMARK 921   NORMALIZED FREE ENERGY PREDICTED BY IDOCK:   -3.51 KCAL/MOL
REMARK 922        TOTAL FREE ENERGY PREDICTED BY IDOCK:   -5.32 KCAL/MOL
REMARK 923 INTER-LIGAND FREE ENERGY PREDICTED BY IDOCK:   -4.91 KCAL/MOL
REMARK 924 INTRA-LIGAND FREE ENERGY PREDICTED BY IDOCK:   -0.41 KCAL/MOL
REMARK 927      BINDING AFFINITY PREDICTED BY RF-SCORE:    0.00 PKD
ROOT
HETATM    1  C   UNL     1      -7.783  11.532  66.940  1.00  0.00    -0.157 C  
HETATM    2  C   UNL     1      -9.281  11.811  67.025  1.00  0.00    -0.187 C  
HETATM    3  C   UNL     1      -9.733  12.547  68.313  1.00  0.00    -0.220 C  
HETATM    4  C   UNL     1      -9.060  13.936  68.323  1.00  0.00    -0.191 C  
HETATM    5  C   UNL     1     -11.312  12.619  68.533  1.00  0.00    -0.333 C  
HETATM    6  C   UNL     1     -12.015  13.278  67.327  1.00  0.00    -0.393 C  
ENDROOT
BRANCH   5   7
HETATM    7  C   UNL     1     -11.628  13.462  69.812  1.00  0.00    -0.235 C  
BRANCH   7   8
HETATM    8  O   UNL     1     -12.410  14.629  69.496  1.00  0.00    -0.280 OA 
BRANCH   8   9
HETATM    9  C   UNL     1     -12.500  15.586  70.446  1.00  0.00    -0.402 C  
HETATM   10  H2  UNL     1     -10.600  16.235  69.798  1.00  0.00     0.000 HD 
HETATM   11  O   UNL     1     -13.426  15.757  71.220  1.00  0.00    -0.555 OA 
HETATM   12  N   UNL     1     -11.390  16.356  70.433  1.00  0.00    -0.488 N  
HETATM   13  H1  UNL     1     -11.457  17.078  71.150  1.00  0.00     0.000 HD 
ENDBRANCH   8   9
ENDBRANCH   7   8
ENDBRANCH   5   7
BRANCH   5  14
HETATM   14  C   UNL     1     -11.943  11.208  68.783  1.00  0.00    -0.268 C  
BRANCH  14  15
HETATM   15  O   UNL     1     -11.031  10.275  69.385  1.00  0.00    -0.219 OA 
BRANCH  15  16
HETATM   16  C   UNL     1     -11.296   9.917  70.663  1.00  0.00    -0.339 C  
HETATM   17  H1  UNL     1     -10.366   9.175  72.209  1.00  0.00     0.000 HD 
HETATM   18  H2  UNL     1      -9.256   9.369  70.790  1.00  0.00     0.000 HD 
HETATM   19  N   UNL     1     -10.167   9.444  71.245  1.00  0.00    -0.308 N  
HETATM   20  O   UNL     1     -12.344  10.054  71.264  1.00  0.00    -0.337 OA 
ENDBRANCH  15  16
ENDBRANCH  14  15
ENDBRANCH   5  14
TORSDOF 6
ENDMDL
MODEL       91
REMARK 921   NORMALIZED FREE ENERGY PREDICTED BY IDOCK:   -3.49 KCAL/MOL
REMARK 922        TOTAL FREE ENERGY PREDICTED BY IDOCK:   -5.30 KCAL/MOL
REMARK 923 INTER-LIGAND FREE ENERGY PREDICTED BY IDOCK:   -4.83 KCAL/MOL
REMARK 924 INTRA-LIGAND FREE ENERGY PREDICTED BY IDOCK:   -0.47 KCAL/MOL
REMARK 927      BINDING AFFINITY PREDICTED BY RF-SCORE:    0.00 PKD
ROOT
HETATM    1  C   UNL     1      -9.187   4.200  69.071  1.00  0.00    -0.213 C  
HETATM    2  C   UNL     1     -10.064   5.069  69.965  1.00  0.00    -0.342 C  
HETATM    3  C   UNL     1     -10.238   6.533  69.482  1.00  0.00    -0.219 C  
HETATM    4  C   UNL     1     -10.958   6.496  68.117  1.00  0.00    -0.365 C  
HETATM    5  C   UNL     1     -10.936   7.514  70.529  1.00  0.00    -0.266 C  
HETATM    6  C   UNL     1     -12.319   6.979  70.959  1.00  0.00    -0.402 C  
ENDROOT
BRANCH   5   7
HETATM    7  C   UNL     1     -11.130   8.924  69.881  1.00  0.00    -0.136 C  
BRANCH   7   8
HETATM    8  O   UNL     1     -11.086   9.971  70.868  1.00  0.00    -0.328 OA 
BRANCH   8   9
HETATM    9  C   UNL     1     -12.190  10.737  71.003  1.00  0.00    -0.380 C  
HETATM   10  H2  UNL     1     -11.029  12.328  70.248  1.00  0.00     0.000 HD 
HETATM   11  O   UNL     1     -13.278  10.379  71.423  1.00  0.00    -0.380 OA 
HETATM   12  N   UNL     1     -11.928  12.001  70.601  1.00  0.00    -0.485 N  
HETATM   13  H1  UNL     1     -12.761  12.580  70.703  1.00  0.00     0.000 HD 
ENDBRANCH   8   9
ENDBRANCH   7   8
ENDBRANCH   5   7
BRANCH   5  14
HETATM   14  C   UNL     1     -10.059   7.745  71.804  1.00  0.00    -0.179 C  
BRANCH  14  15
HETATM   15  O   UNL     1     -10.754   7.472  73.032  1.00  0.00    -0.317 OA 
BRANCH  15  16
HETATM   16  C   UNL     1     -10.077   6.754  73.957  1.00  0.00    -0.359 C  
HETATM   17  H1  UNL     1      -8.467   6.901  75.049  1.00  0.00     0.000 HD 
HETATM   18  H2  UNL     1      -8.703   8.362  74.004  1.00  0.00     0.000 HD 
HETATM   19  N   UNL     1      -8.978   7.442  74.352  1.00  0.00    -0.192 N  
HETATM   20  O   UNL     1     -10.404   5.690  74.448  1.00  0.00    -0.270 OA 
ENDBRANCH  15  16
ENDBRANCH  14  15
ENDBRANCH   5  14
TORSDOF 6
ENDMDL
MODEL       92
REMARK 921   NORMALIZED FREE ENERGY PREDICTED BY IDOCK:   -3.48 KCAL/MOL
REMARK 922        TOTAL FREE ENERGY PREDICTED BY IDOCK:   -5.28 KCAL/MOL
REMARK 923 INTER-LIGAND FREE ENERGY PREDICTED BY IDOCK:   -4.90 KCAL/MOL
REMARK 924 INTRA-LIGAND FREE ENERGY PREDICTED BY IDOCK:   -0.38 KCAL/MOL
REMARK 927      BINDING AFFINITY PREDICTED BY RF-SCORE:    0.00 PKD
ROOT
HETATM    1  C   UNL     1     -12.599  14.702  71.439  1.00  0.00    -0.404 C  
HETATM    2  C   UNL     1     -12.355  14.918  69.949  1.00  0.00    -0.322 C  
HETATM    3  C   UNL     1     -11.269  14.001  69.328  1.00  0.00    -0.304 C  
HETATM    4  C   UNL     1     -11.757  12.542  69.454  1.00  0.00    -0.383 C  
HETATM    5  C   UNL     1     -10.827  14.384  67.844  1.00  0.00    -0.256 C  
HETATM    6  C   UNL     1     -12.039  14.413  66.889  1.00  0.00    -0.386 C  
ENDROOT
BRANCH   5   7
HETATM    7  C   UNL     1      -9.802  13.330  67.310  1.00  0.00    -0.233 C  
BRANCH   7   8
HETATM    8  O   UNL     1      -8.617  13.284  68.127  1.00  0.00    -0.166 OA 
BRANCH   8   9
HETATM    9  C   UNL     1      -7.847  12.178  68.033  1.00  0.00    -0.145 C  
HETATM   10  H2  UNL     1      -7.338  12.844  66.098  1.00  0.00     0.000 HD 
HETATM   11  O   UNL     1      -7.704  11.318  68.886  1.00  0.00    -0.133 OA 
HETATM   12  N   UNL     1      -7.235  12.140  66.829  1.00  0.00    -0.378 N  
HETATM   13  H1  UNL     1      -6.655  11.304  66.758  1.00  0.00     0.000 HD 
ENDBRANCH   8   9
ENDBRANCH   7   8
ENDBRANCH   5   7
BRANCH   5  14
HETATM   14  C   UNL     1     -10.094  15.766  67.779  1.00  0.00    -0.238 C  
BRANCH  14  15
HETATM   15  O   UNL     1     -10.471  16.560  66.643  1.00  0.00    -0.297 OA 
BRANCH  15  16
HETATM   16  C   UNL     1     -10.137  17.870  66.690  1.00  0.00    -0.362 C  
HETATM   17  H1  UNL     1     -10.213  19.368  67.938  1.00  0.00     0.000 HD 
HETATM   18  H2  UNL     1     -10.897  17.856  68.664  1.00  0.00     0.000 HD 
HETATM   19  N   UNL     1     -10.464  18.380  67.903  1.00  0.00    -0.399 N  
HETATM   20  O   UNL     1      -9.560  18.515  65.835  1.00  0.00    -0.494 OA 
ENDBRANCH  15  16
ENDBRANCH  14  15
ENDBRANCH   5  14
TORSDOF 6
ENDMDL
MODEL       93
REMARK 921   NORMALIZED FREE ENERGY PREDICTED BY IDOCK:   -3.47 KCAL/MOL
REMARK 922        TOTAL FREE ENERGY PREDICTED BY IDOCK:   -5.27 KCAL/MOL
REMARK 923 INTER-LIGAND FREE ENERGY PREDICTED BY IDOCK:   -4.75 KCAL/MOL
REMARK 924 INTRA-LIGAND FREE ENERGY PREDICTED BY IDOCK:   -0.52 KCAL/MOL
REMARK 927      BINDING AFFINITY PREDICTED BY RF-SCORE:    0.00 PKD
ROOT
HETATM    1  C   UNL     1     -11.910  12.636  66.883  1.00  0.00    -0.425 C  
HETATM    2  C   UNL     1     -11.032  11.886  67.879  1.00  0.00    -0.270 C  
HETATM    3  C   UNL     1     -10.727  10.414  67.498  1.00  0.00    -0.339 C  
HETATM    4  C   UNL     1      -9.928  10.425  66.177  1.00  0.00    -0.290 C  
HETATM    5  C   UNL     1     -10.029   9.548  68.641  1.00  0.00    -0.181 C  
HETATM    6  C   UNL     1      -8.716  10.206  69.116  1.00  0.00    -0.173 C  
ENDROOT
BRANCH   5   7
HETATM    7  C   UNL     1      -9.698   8.121  68.094  1.00  0.00    -0.161 C  
BRANCH   7   8
HETATM    8  O   UNL     1     -10.873   7.464  67.583  1.00  0.00    -0.215 OA 
BRANCH   8   9
HETATM    9  C   UNL     1     -10.886   6.114  67.612  1.00  0.00    -0.332 C  
HETATM   10  H2  UNL     1     -11.515   6.200  65.600  1.00  0.00     0.000 HD 
HETATM   11  O   UNL     1     -10.601   5.404  68.561  1.00  0.00    -0.167 OA 
HETATM   12  N   UNL     1     -11.270   5.630  66.410  1.00  0.00    -0.727 N  
HETATM   13  H1  UNL     1     -11.280   4.610  66.431  1.00  0.00     0.000 HD 
ENDBRANCH   8   9
ENDBRANCH   7   8
ENDBRANCH   5   7
BRANCH   5  14
HETATM   14  C   UNL     1     -10.966   9.328  69.876  1.00  0.00    -0.213 C  
BRANCH  14  15
HETATM   15  O   UNL     1     -10.599   8.191  70.674  1.00  0.00    -0.208 OA 
BRANCH  15  16
HETATM   16  C   UNL     1     -11.594   7.612  71.386  1.00  0.00    -0.274 C  
HETATM   17  H1  UNL     1     -12.411   7.741  73.152  1.00  0.00     0.000 HD 
HETATM   18  H2  UNL     1     -11.054   8.925  72.954  1.00  0.00     0.000 HD 
HETATM   19  N   UNL     1     -11.661   8.177  72.616  1.00  0.00    -0.398 N  
HETATM   20  O   UNL     1     -12.382   6.770  71.000  1.00  0.00    -0.378 OA 
ENDBRANCH  15  16
ENDBRANCH  14  15
ENDBRANCH   5  14
TORSDOF 6
ENDMDL
MODEL       94
REMARK 921   NORMALIZED FREE ENERGY PREDICTED BY IDOCK:   -3.47 KCAL/MOL
REMARK 922        TOTAL FREE ENERGY PREDICTED BY IDOCK:   -5.27 KCAL/MOL
REMARK 923 INTER-LIGAND FREE ENERGY PREDICTED BY IDOCK:   -4.52 KCAL/MOL
REMARK 924 INTRA-LIGAND FREE ENERGY PREDICTED BY IDOCK:   -0.76 KCAL/MOL
REMARK 927      BINDING AFFINITY PREDICTED BY RF-SCORE:    0.00 PKD
ROOT
HETATM    1  C   UNL     1      -5.625  20.045  71.481  1.00  0.00    -0.420 C  
HETATM    2  C   UNL     1      -5.768  19.052  70.332  1.00  0.00    -0.234 C  
HETATM    3  C   UNL     1      -6.691  19.521  69.178  1.00  0.00    -0.373 C  
HETATM    4  C   UNL     1      -6.057  20.782  68.551  1.00  0.00    -0.373 C  
HETATM    5  C   UNL     1      -7.050  18.402  68.099  1.00  0.00    -0.256 C  
HETATM    6  C   UNL     1      -5.773  17.793  67.480  1.00  0.00    -0.151 C  
ENDROOT
BRANCH   5   7
HETATM    7  C   UNL     1      -7.905  19.032  66.950  1.00  0.00    -0.245 C  
BRANCH   7   8
HETATM    8  O   UNL     1      -9.298  19.103  67.306  1.00  0.00    -0.294 OA 
BRANCH   8   9
HETATM    9  C   UNL     1     -10.194  19.043  66.296  1.00  0.00    -0.446 C  
HETATM   10  H2  UNL     1     -10.019  16.945  66.429  1.00  0.00     0.000 HD 
HETATM   11  O   UNL     1     -10.719  19.988  65.733  1.00  0.00    -0.432 OA 
HETATM   12  N   UNL     1     -10.444  17.754  65.976  1.00  0.00    -0.351 N  
HETATM   13  H1  UNL     1     -11.121  17.708  65.213  1.00  0.00     0.000 HD 
ENDBRANCH   8   9
ENDBRANCH   7   8
ENDBRANCH   5   7
BRANCH   5  14
HETATM   14  C   UNL     1      -7.923  17.252  68.703  1.00  0.00    -0.267 C  
BRANCH  14  15
HETATM   15  O   UNL     1      -7.707  15.980  68.071  1.00  0.00    -0.129 OA 
BRANCH  15  16
HETATM   16  C   UNL     1      -8.774  15.150  68.014  1.00  0.00    -0.165 C  
HETATM   17  H1  UNL     1      -9.206  13.278  68.352  1.00  0.00     0.000 HD 
HETATM   18  H2  UNL     1      -7.460  13.633  68.682  1.00  0.00     0.000 HD 
HETATM   19  N   UNL     1      -8.402  13.904  68.395  1.00  0.00    -0.157 N  
HETATM   20  O   UNL     1      -9.923  15.445  67.745  1.00  0.00    -0.224 OA 
ENDBRANCH  15  16
ENDBRANCH  14  15
ENDBRANCH   5  14
TORSDOF 6
ENDMDL
MODEL       95
REMARK 921   NORMALIZED FREE ENERGY PREDICTED BY IDOCK:   -3.47 KCAL/MOL
REMARK 922        TOTAL FREE ENERGY PREDICTED BY IDOCK:   -5.27 KCAL/MOL
REMARK 923 INTER-LIGAND FREE ENERGY PREDICTED BY IDOCK:   -5.09 KCAL/MOL
REMARK 924 INTRA-LIGAND FREE ENERGY PREDICTED BY IDOCK:   -0.18 KCAL/MOL
REMARK 927      BINDING AFFINITY PREDICTED BY RF-SCORE:    0.00 PKD
ROOT
HETATM    1  C   UNL     1     -12.533  12.818  63.371  1.00  0.00    -0.438 C  
HETATM    2  C   UNL     1     -12.454  12.887  64.893  1.00  0.00    -0.540 C  
HETATM    3  C   UNL     1     -11.040  13.180  65.458  1.00  0.00    -0.299 C  
HETATM    4  C   UNL     1     -10.615  14.579  64.964  1.00  0.00    -0.458 C  
HETATM    5  C   UNL     1     -10.891  13.005  67.037  1.00  0.00    -0.278 C  
HETATM    6  C   UNL     1     -11.906  13.887  67.794  1.00  0.00    -0.415 C  
ENDROOT
BRANCH   5   7
HETATM    7  C   UNL     1      -9.449  13.419  67.480  1.00  0.00    -0.219 C  
BRANCH   7   8
HETATM    8  O   UNL     1      -8.830  12.398  68.285  1.00  0.00    -0.185 OA 
BRANCH   8   9
HETATM    9  C   UNL     1      -7.743  11.783  67.770  1.00  0.00    -0.133 C  
HETATM   10  H2  UNL     1      -7.589  13.424  66.455  1.00  0.00     0.000 HD 
HETATM   11  O   UNL     1      -7.277  10.713  68.125  1.00  0.00    -0.083 OA 
HETATM   12  N   UNL     1      -7.219  12.528  66.773  1.00  0.00    -0.351 N  
HETATM   13  H1  UNL     1      -6.398  12.064  66.383  1.00  0.00     0.000 HD 
ENDBRANCH   8   9
ENDBRANCH   7   8
ENDBRANCH   5   7
BRANCH   5  14
HETATM   14  C   UNL     1     -11.069  11.518  67.490  1.00  0.00    -0.272 C  
BRANCH  14  15
HETATM   15  O   UNL     1     -12.166  11.325  68.398  1.00  0.00    -0.604 OA 
BRANCH  15  16
HETATM   16  C   UNL     1     -11.842  11.129  69.697  1.00  0.00    -0.348 C  
HETATM   17  H1  UNL     1     -12.413  11.725  71.465  1.00  0.00     0.000 HD 
HETATM   18  H2  UNL     1     -13.401  12.485  70.151  1.00  0.00     0.000 HD 
HETATM   19  N   UNL     1     -12.657  11.872  70.486  1.00  0.00    -0.184 N  
HETATM   20  O   UNL     1     -11.012  10.359  70.142  1.00  0.00    -0.284 OA 
ENDBRANCH  15  16
ENDBRANCH  14  15
ENDBRANCH   5  14
TORSDOF 6
ENDMDL
MODEL       96
REMARK 921   NORMALIZED FREE ENERGY PREDICTED BY IDOCK:   -3.46 KCAL/MOL
REMARK 922        TOTAL FREE ENERGY PREDICTED BY IDOCK:   -5.26 KCAL/MOL
REMARK 923 INTER-LIGAND FREE ENERGY PREDICTED BY IDOCK:   -4.90 KCAL/MOL
REMARK 924 INTRA-LIGAND FREE ENERGY PREDICTED BY IDOCK:   -0.37 KCAL/MOL
REMARK 927      BINDING AFFINITY PREDICTED BY RF-SCORE:    0.00 PKD
ROOT
HETATM    1  C   UNL     1      -7.714  12.038  68.318  1.00  0.00    -0.127 C  
HETATM    2  C   UNL     1      -9.218  12.273  68.222  1.00  0.00    -0.189 C  
HETATM    3  C   UNL     1      -9.638  13.761  68.103  1.00  0.00    -0.216 C  
HETATM    4  C   UNL     1      -9.055  14.311  66.784  1.00  0.00    -0.269 C  
HETATM    5  C   UNL     1     -11.202  14.038  68.257  1.00  0.00    -0.293 C  
HETATM    6  C   UNL     1     -12.017  13.222  67.231  1.00  0.00    -0.393 C  
ENDROOT
BRANCH   5   7
HETATM    7  C   UNL     1     -11.493  15.557  68.025  1.00  0.00    -0.308 C  
BRANCH   7   8
HETATM    8  O   UNL     1     -10.693  16.387  68.887  1.00  0.00    -0.277 OA 
BRANCH   8   9
HETATM    9  C   UNL     1     -10.337  17.602  68.415  1.00  0.00    -0.375 C  
HETATM   10  H2  UNL     1     -10.890  16.888  66.509  1.00  0.00     0.000 HD 
HETATM   11  O   UNL     1      -9.901  18.536  69.067  1.00  0.00    -0.358 OA 
HETATM   12  N   UNL     1     -10.529  17.653  67.079  1.00  0.00    -0.329 N  
HETATM   13  H1  UNL     1     -10.260  18.571  66.722  1.00  0.00     0.000 HD 
ENDBRANCH   8   9
ENDBRANCH   7   8
ENDBRANCH   5   7
BRANCH   5  14
HETATM   14  C   UNL     1     -11.724  13.716  69.697  1.00  0.00    -0.320 C  
BRANCH  14  15
HETATM   15  O   UNL     1     -12.851  14.517  70.087  1.00  0.00    -0.290 OA 
BRANCH  15  16
HETATM   16  C   UNL     1     -13.188  14.481  71.397  1.00  0.00    -0.355 C  
HETATM   17  H1  UNL     1     -13.446  13.168  72.817  1.00  0.00     0.000 HD 
HETATM   18  H2  UNL     1     -12.975  12.381  71.255  1.00  0.00     0.000 HD 
HETATM   19  N   UNL     1     -13.192  13.196  71.830  1.00  0.00    -0.421 N  
HETATM   20  O   UNL     1     -13.386  15.428  72.134  1.00  0.00    -0.375 OA 
ENDBRANCH  15  16
ENDBRANCH  14  15
ENDBRANCH   5  14
TORSDOF 6
ENDMDL
MODEL       97
REMARK 921   NORMALIZED FREE ENERGY PREDICTED BY IDOCK:   -3.45 KCAL/MOL
REMARK 922        TOTAL FREE ENERGY PREDICTED BY IDOCK:   -5.25 KCAL/MOL
REMARK 923 INTER-LIGAND FREE ENERGY PREDICTED BY IDOCK:   -4.78 KCAL/MOL
REMARK 924 INTRA-LIGAND FREE ENERGY PREDICTED BY IDOCK:   -0.47 KCAL/MOL
REMARK 927      BINDING AFFINITY PREDICTED BY RF-SCORE:    0.00 PKD
ROOT
HETATM    1  C   UNL     1     -12.909  11.026  71.517  1.00  0.00    -0.555 C  
HETATM    2  C   UNL     1     -11.554  10.444  71.129  1.00  0.00    -0.315 C  
HETATM    3  C   UNL     1     -11.453   9.955  69.661  1.00  0.00    -0.160 C  
HETATM    4  C   UNL     1     -11.649  11.179  68.742  1.00  0.00    -0.389 C  
HETATM    5  C   UNL     1     -10.139   9.119  69.314  1.00  0.00    -0.196 C  
HETATM    6  C   UNL     1      -8.863   9.921  69.645  1.00  0.00    -0.224 C  
ENDROOT
BRANCH   5   7
HETATM    7  C   UNL     1     -10.123   8.771  67.789  1.00  0.00    -0.207 C  
BRANCH   7   8
HETATM    8  O   UNL     1      -9.351   7.585  67.525  1.00  0.00    -0.136 OA 
BRANCH   8   9
HETATM    9  C   UNL     1      -9.960   6.595  66.836  1.00  0.00    -0.180 C  
HETATM   10  H2  UNL     1     -11.785   7.438  67.474  1.00  0.00     0.000 HD 
HETATM   11  O   UNL     1      -9.414   5.710  66.198  1.00  0.00    -0.158 OA 
HETATM   12  N   UNL     1     -11.302   6.710  66.947  1.00  0.00    -0.824 N  
HETATM   13  H1  UNL     1     -11.762   5.963  66.428  1.00  0.00     0.000 HD 
ENDBRANCH   8   9
ENDBRANCH   7   8
ENDBRANCH   5   7
BRANCH   5  14
HETATM   14  C   UNL     1     -10.090   7.748  70.067  1.00  0.00    -0.201 C  
BRANCH  14  15
HETATM   15  O   UNL     1     -11.361   7.081  70.120  1.00  0.00    -0.287 OA 
BRANCH  15  16
HETATM   16  C   UNL     1     -11.921   6.953  71.346  1.00  0.00    -0.349 C  
HETATM   17  H1  UNL     1     -11.437   6.327  73.129  1.00  0.00     0.000 HD 
HETATM   18  H2  UNL     1     -10.059   6.161  71.965  1.00  0.00     0.000 HD 
HETATM   19  N   UNL     1     -11.015   6.423  72.206  1.00  0.00    -0.241 N  
HETATM   20  O   UNL     1     -13.029   7.316  71.692  1.00  0.00    -0.357 OA 
ENDBRANCH  15  16
ENDBRANCH  14  15
ENDBRANCH   5  14
TORSDOF 6
ENDMDL
MODEL       98
REMARK 921   NORMALIZED FREE ENERGY PREDICTED BY IDOCK:   -3.44 KCAL/MOL
REMARK 922        TOTAL FREE ENERGY PREDICTED BY IDOCK:   -5.23 KCAL/MOL
REMARK 923 INTER-LIGAND FREE ENERGY PREDICTED BY IDOCK:   -4.98 KCAL/MOL
REMARK 924 INTRA-LIGAND FREE ENERGY PREDICTED BY IDOCK:   -0.26 KCAL/MOL
REMARK 927      BINDING AFFINITY PREDICTED BY RF-SCORE:    0.00 PKD
ROOT
HETATM    1  C   UNL     1     -11.294  10.321  69.774  1.00  0.00    -0.334 C  
HETATM    2  C   UNL     1     -11.850  11.605  69.167  1.00  0.00    -0.390 C  
HETATM    3  C   UNL     1     -10.829  12.766  69.053  1.00  0.00    -0.192 C  
HETATM    4  C   UNL     1      -9.707  12.315  68.094  1.00  0.00    -0.213 C  
HETATM    5  C   UNL     1     -11.453  14.181  68.660  1.00  0.00    -0.332 C  
HETATM    6  C   UNL     1     -12.238  14.096  67.334  1.00  0.00    -0.278 C  
ENDROOT
BRANCH   5   7
HETATM    7  C   UNL     1     -10.308  15.234  68.491  1.00  0.00    -0.231 C  
BRANCH   7   8
HETATM    8  O   UNL     1      -9.468  15.293  69.658  1.00  0.00    -0.237 OA 
BRANCH   8   9
HETATM    9  C   UNL     1      -8.156  15.549  69.460  1.00  0.00    -0.202 C  
HETATM   10  H2  UNL     1      -8.759  17.437  68.738  1.00  0.00     0.000 HD 
HETATM   11  O   UNL     1      -7.225  14.797  69.695  1.00  0.00    -0.169 OA 
HETATM   12  N   UNL     1      -7.999  16.788  68.945  1.00  0.00    -0.249 N  
HETATM   13  H1  UNL     1      -7.009  16.982  68.795  1.00  0.00     0.000 HD 
ENDBRANCH   8   9
ENDBRANCH   7   8
ENDBRANCH   5   7
BRANCH   5  14
HETATM   14  C   UNL     1     -12.394  14.747  69.776  1.00  0.00    -0.249 C  
BRANCH  14  15
HETATM   15  O   UNL     1     -12.248  14.078  71.039  1.00  0.00    -0.335 OA 
BRANCH  15  16
HETATM   16  C   UNL     1     -13.288  14.184  71.897  1.00  0.00    -0.393 C  
HETATM   17  H1  UNL     1     -14.639  15.490  72.423  1.00  0.00     0.000 HD 
HETATM   18  H2  UNL     1     -13.544  16.141  71.135  1.00  0.00     0.000 HD 
HETATM   19  N   UNL     1     -13.855  15.410  71.776  1.00  0.00    -0.499 N  
HETATM   20  O   UNL     1     -13.734  13.318  72.625  1.00  0.00    -0.674 OA 
ENDBRANCH  15  16
ENDBRANCH  14  15
ENDBRANCH   5  14
TORSDOF 6
ENDMDL
MODEL       99
REMARK 921   NORMALIZED FREE ENERGY PREDICTED BY IDOCK:   -3.43 KCAL/MOL
REMARK 922        TOTAL FREE ENERGY PREDICTED BY IDOCK:   -5.22 KCAL/MOL
REMARK 923 INTER-LIGAND FREE ENERGY PREDICTED BY IDOCK:   -4.79 KCAL/MOL
REMARK 924 INTRA-LIGAND FREE ENERGY PREDICTED BY IDOCK:   -0.43 KCAL/MOL
REMARK 927      BINDING AFFINITY PREDICTED BY RF-SCORE:    0.00 PKD
ROOT
HETATM    1  C   UNL     1      -7.043   7.407  73.661  1.00  0.00    -0.095 C  
HETATM    2  C   UNL     1      -8.266   7.270  72.760  1.00  0.00    -0.125 C  
HETATM    3  C   UNL     1      -8.615   8.539  71.940  1.00  0.00    -0.254 C  
HETATM    4  C   UNL     1      -7.436   8.822  70.986  1.00  0.00    -0.105 C  
HETATM    5  C   UNL     1     -10.025   8.496  71.193  1.00  0.00    -0.265 C  
HETATM    6  C   UNL     1     -10.124   7.273  70.257  1.00  0.00    -0.196 C  
ENDROOT
BRANCH   5   7
HETATM    7  C   UNL     1     -10.206   9.792  70.335  1.00  0.00    -0.281 C  
BRANCH   7   8
HETATM    8  O   UNL     1     -10.506   9.480  68.962  1.00  0.00    -0.202 OA 
BRANCH   8   9
HETATM    9  C   UNL     1     -11.001  10.478  68.198  1.00  0.00    -0.277 C  
HETATM   10  H2  UNL     1      -9.196  10.375  67.111  1.00  0.00     0.000 HD 
HETATM   11  O   UNL     1     -12.084  11.022  68.325  1.00  0.00    -0.604 OA 
HETATM   12  N   UNL     1     -10.109  10.812  67.239  1.00  0.00    -0.190 N  
HETATM   13  H1  UNL     1     -10.482  11.566  66.662  1.00  0.00     0.000 HD 
ENDBRANCH   8   9
ENDBRANCH   7   8
ENDBRANCH   5   7
BRANCH   5  14
HETATM   14  C   UNL     1     -11.228   8.473  72.194  1.00  0.00    -0.362 C  
BRANCH  14  15
HETATM   15  O   UNL     1     -12.508   8.572  71.549  1.00  0.00    -0.303 OA 
BRANCH  15  16
HETATM   16  C   UNL     1     -13.436   9.335  72.172  1.00  0.00    -0.473 C  
HETATM   17  H1  UNL     1     -13.901  11.219  72.375  1.00  0.00     0.000 HD 
HETATM   18  H2  UNL     1     -12.442  10.999  71.323  1.00  0.00     0.000 HD 
HETATM   19  N   UNL     1     -13.202  10.644  71.905  1.00  0.00    -0.462 N  
HETATM   20  O   UNL     1     -14.394   8.952  72.816  1.00  0.00    -0.600 OA 
ENDBRANCH  15  16
ENDBRANCH  14  15
ENDBRANCH   5  14
TORSDOF 6
ENDMDL
MODEL      100
REMARK 921   NORMALIZED FREE ENERGY PREDICTED BY IDOCK:   -3.43 KCAL/MOL
REMARK 922        TOTAL FREE ENERGY PREDICTED BY IDOCK:   -5.22 KCAL/MOL
REMARK 923 INTER-LIGAND FREE ENERGY PREDICTED BY IDOCK:   -4.72 KCAL/MOL
REMARK 924 INTRA-LIGAND FREE ENERGY PREDICTED BY IDOCK:   -0.49 KCAL/MOL
REMARK 927      BINDING AFFINITY PREDICTED BY RF-SCORE:    0.00 PKD
ROOT
HETATM    1  C   UNL     1     -12.628  12.853  65.160  1.00  0.00    -0.536 C  
HETATM    2  C   UNL     1     -12.406  13.741  66.381  1.00  0.00    -0.460 C  
HETATM    3  C   UNL     1     -10.921  13.939  66.780  1.00  0.00    -0.301 C  
HETATM    4  C   UNL     1     -10.213  14.664  65.615  1.00  0.00    -0.382 C  
HETATM    5  C   UNL     1     -10.686  14.648  68.190  1.00  0.00    -0.242 C  
HETATM    6  C   UNL     1     -11.390  16.021  68.248  1.00  0.00    -0.326 C  
ENDROOT
BRANCH   5   7
HETATM    7  C   UNL     1      -9.155  14.867  68.422  1.00  0.00    -0.185 C  
BRANCH   7   8
HETATM    8  O   UNL     1      -8.419  13.637  68.286  1.00  0.00    -0.161 OA 
BRANCH   8   9
HETATM    9  C   UNL     1      -7.192  13.713  67.725  1.00  0.00    -0.164 C  
HETATM   10  H2  UNL     1      -7.545  15.783  67.528  1.00  0.00     0.000 HD 
HETATM   11  O   UNL     1      -6.420  12.788  67.536  1.00  0.00    -0.141 OA 
HETATM   12  N   UNL     1      -6.918  14.992  67.383  1.00  0.00    -0.190 N  
HETATM   13  H1  UNL     1      -5.992  15.049  66.959  1.00  0.00     0.000 HD 
ENDBRANCH   8   9
ENDBRANCH   7   8
ENDBRANCH   5   7
BRANCH   5  14
HETATM   14  C   UNL     1     -11.181  13.770  69.387  1.00  0.00    -0.207 C  
BRANCH  14  15
HETATM   15  O   UNL     1     -12.457  14.178  69.905  1.00  0.00    -0.341 OA 
BRANCH  15  16
HETATM   16  C   UNL     1     -12.597  14.145  71.251  1.00  0.00    -0.363 C  
HETATM   17  H1  UNL     1     -11.737  14.881  72.840  1.00  0.00     0.000 HD 
HETATM   18  H2  UNL     1     -10.913  15.424  71.322  1.00  0.00     0.000 HD 
HETATM   19  N   UNL     1     -11.633  14.906  71.826  1.00  0.00    -0.341 N  
HETATM   20  O   UNL     1     -13.477  13.600  71.887  1.00  0.00    -0.383 OA 
ENDBRANCH  15  16
ENDBRANCH  14  15
ENDBRANCH   5  14
TORSDOF 6
ENDMDL
MODEL      101
REMARK 921   NORMALIZED FREE ENERGY PREDICTED BY IDOCK:   -3.42 KCAL/MOL
REMARK 922        TOTAL FREE ENERGY PREDICTED BY IDOCK:   -5.21 KCAL/MOL
REMARK 923 INTER-LIGAND FREE ENERGY PREDICTED BY IDOCK:   -4.71 KCAL/MOL
REMARK 924 INTRA-LIGAND FREE ENERGY PREDICTED BY IDOCK:   -0.49 KCAL/MOL
REMARK 927      BINDING AFFINITY PREDICTED BY RF-SCORE:    0.00 PKD
ROOT
HETATM    1  C   UNL     1      -6.447  14.547  67.808  1.00  0.00    -0.181 C  
HETATM    2  C   UNL     1      -7.425  15.651  67.416  1.00  0.00    -0.235 C  
HETATM    3  C   UNL     1      -7.025  17.072  67.890  1.00  0.00    -0.169 C  
HETATM    4  C   UNL     1      -5.695  17.442  67.198  1.00  0.00    -0.169 C  
HETATM    5  C   UNL     1      -8.151  18.188  67.711  1.00  0.00    -0.240 C  
HETATM    6  C   UNL     1      -8.617  18.281  66.243  1.00  0.00    -0.208 C  
ENDROOT
BRANCH   5   7
HETATM    7  C   UNL     1      -7.585  19.582  68.140  1.00  0.00    -0.303 C  
BRANCH   7   8
HETATM    8  O   UNL     1      -7.267  19.615  69.543  1.00  0.00    -0.328 OA 
BRANCH   8   9
HETATM    9  C   UNL     1      -6.149  20.282  69.906  1.00  0.00    -0.345 C  
HETATM   10  H2  UNL     1      -6.751  19.958  71.901  1.00  0.00     0.000 HD 
HETATM   11  O   UNL     1      -5.316  20.766  69.158  1.00  0.00    -0.289 OA 
HETATM   12  N   UNL     1      -6.069  20.352  71.253  1.00  0.00    -0.609 N  
HETATM   13  H1  UNL     1      -5.225  20.856  71.527  1.00  0.00     0.000 HD 
ENDBRANCH   8   9
ENDBRANCH   7   8
ENDBRANCH   5   7
BRANCH   5  14
HETATM   14  C   UNL     1      -9.394  17.930  68.627  1.00  0.00    -0.277 C  
BRANCH  14  15
HETATM   15  O   UNL     1     -10.475  17.270  67.949  1.00  0.00    -0.351 OA 
BRANCH  15  16
HETATM   16  C   UNL     1     -11.077  16.261  68.621  1.00  0.00    -0.356 C  
HETATM   17  H1  UNL     1     -11.896  14.529  68.255  1.00  0.00     0.000 HD 
HETATM   18  H2  UNL     1     -11.286  15.314  66.741  1.00  0.00     0.000 HD 
HETATM   19  N   UNL     1     -11.441  15.289  67.749  1.00  0.00    -0.329 N  
HETATM   20  O   UNL     1     -11.220  16.160  69.824  1.00  0.00    -0.323 OA 
ENDBRANCH  15  16
ENDBRANCH  14  15
ENDBRANCH   5  14
TORSDOF 6
ENDMDL
MODEL      102
REMARK 921   NORMALIZED FREE ENERGY PREDICTED BY IDOCK:   -3.41 KCAL/MOL
REMARK 922        TOTAL FREE ENERGY PREDICTED BY IDOCK:   -5.19 KCAL/MOL
REMARK 923 INTER-LIGAND FREE ENERGY PREDICTED BY IDOCK:   -4.87 KCAL/MOL
REMARK 924 INTRA-LIGAND FREE ENERGY PREDICTED BY IDOCK:   -0.32 KCAL/MOL
REMARK 927      BINDING AFFINITY PREDICTED BY RF-SCORE:    0.00 PKD
ROOT
HETATM    1  C   UNL     1     -12.409  15.268  63.905  1.00  0.00     0.199 C  
HETATM    2  C   UNL     1     -11.464  15.261  65.102  1.00  0.00    -0.260 C  
HETATM    3  C   UNL     1     -11.954  14.424  66.312  1.00  0.00    -0.391 C  
HETATM    4  C   UNL     1     -12.048  12.951  65.859  1.00  0.00    -0.503 C  
HETATM    5  C   UNL     1     -11.108  14.610  67.652  1.00  0.00    -0.311 C  
HETATM    6  C   UNL     1      -9.615  14.295  67.419  1.00  0.00    -0.214 C  
ENDROOT
BRANCH   5   7
HETATM    7  C   UNL     1     -11.651  13.645  68.757  1.00  0.00    -0.324 C  
BRANCH   7   8
HETATM    8  O   UNL     1     -10.785  12.510  68.939  1.00  0.00    -0.227 OA 
BRANCH   8   9
HETATM    9  C   UNL     1     -11.372  11.326  69.221  1.00  0.00    -0.287 C  
HETATM   10  H2  UNL     1      -9.744  10.964  70.511  1.00  0.00     0.000 HD 
HETATM   11  O   UNL     1     -12.420  10.906  68.759  1.00  0.00    -0.431 OA 
HETATM   12  N   UNL     1     -10.623  10.638  70.111  1.00  0.00    -0.458 N  
HETATM   13  H1  UNL     1     -11.066   9.744  70.323  1.00  0.00     0.000 HD 
ENDBRANCH   8   9
ENDBRANCH   7   8
ENDBRANCH   5   7
BRANCH   5  14
HETATM   14  C   UNL     1     -11.239  16.054  68.242  1.00  0.00    -0.350 C  
BRANCH  14  15
HETATM   15  O   UNL     1     -10.311  16.990  67.671  1.00  0.00    -0.310 OA 
BRANCH  15  16
HETATM   16  C   UNL     1      -9.672  17.807  68.540  1.00  0.00    -0.343 C  
HETATM   17  H1  UNL     1      -7.953  17.933  69.454  1.00  0.00     0.000 HD 
HETATM   18  H2  UNL     1      -8.045  16.463  68.399  1.00  0.00     0.000 HD 
HETATM   19  N   UNL     1      -8.435  17.317  68.799  1.00  0.00    -0.263 N  
HETATM   20  O   UNL     1     -10.071  18.866  68.986  1.00  0.00    -0.395 OA 
ENDBRANCH  15  16
ENDBRANCH  14  15
ENDBRANCH   5  14
TORSDOF 6
ENDMDL
MODEL      103
REMARK 921   NORMALIZED FREE ENERGY PREDICTED BY IDOCK:   -3.40 KCAL/MOL
REMARK 922        TOTAL FREE ENERGY PREDICTED BY IDOCK:   -5.18 KCAL/MOL
REMARK 923 INTER-LIGAND FREE ENERGY PREDICTED BY IDOCK:   -4.73 KCAL/MOL
REMARK 924 INTRA-LIGAND FREE ENERGY PREDICTED BY IDOCK:   -0.45 KCAL/MOL
REMARK 927      BINDING AFFINITY PREDICTED BY RF-SCORE:    0.00 PKD
ROOT
HETATM    1  C   UNL     1     -11.954  13.470  64.117  1.00  0.00    -0.498 C  
HETATM    2  C   UNL     1     -11.816  13.963  65.554  1.00  0.00    -0.372 C  
HETATM    3  C   UNL     1     -10.679  14.993  65.782  1.00  0.00    -0.351 C  
HETATM    4  C   UNL     1     -11.009  16.250  64.949  1.00  0.00    -0.321 C  
HETATM    5  C   UNL     1     -10.359  15.323  67.309  1.00  0.00    -0.264 C  
HETATM    6  C   UNL     1     -11.619  15.823  68.048  1.00  0.00    -0.213 C  
ENDROOT
BRANCH   5   7
HETATM    7  C   UNL     1      -9.264  16.437  67.390  1.00  0.00    -0.208 C  
BRANCH   7   8
HETATM    8  O   UNL     1      -9.442  17.271  68.550  1.00  0.00    -0.268 OA 
BRANCH   8   9
HETATM    9  C   UNL     1      -9.341  18.606  68.369  1.00  0.00    -0.337 C  
HETATM   10  H2  UNL     1     -11.276  18.517  67.535  1.00  0.00     0.000 HD 
HETATM   11  O   UNL     1      -8.390  19.310  68.665  1.00  0.00    -0.357 OA 
HETATM   12  N   UNL     1     -10.468  19.082  67.795  1.00  0.00    -0.413 N  
HETATM   13  H1  UNL     1     -10.392  20.090  67.658  1.00  0.00     0.000 HD 
ENDBRANCH   8   9
ENDBRANCH   7   8
ENDBRANCH   5   7
BRANCH   5  14
HETATM   14  C   UNL     1      -9.774  14.090  68.075  1.00  0.00    -0.221 C  
BRANCH  14  15
HETATM   15  O   UNL     1     -10.759  13.367  68.830  1.00  0.00    -0.242 OA 
BRANCH  15  16
HETATM   16  C   UNL     1     -10.742  12.020  68.703  1.00  0.00    -0.236 C  
HETATM   17  H1  UNL     1     -10.008  10.661  67.512  1.00  0.00     0.000 HD 
HETATM   18  H2  UNL     1      -9.559  12.332  66.977  1.00  0.00     0.000 HD 
HETATM   19  N   UNL     1     -10.020  11.676  67.608  1.00  0.00    -0.186 N  
HETATM   20  O   UNL     1     -11.218  11.201  69.466  1.00  0.00    -0.244 OA 
ENDBRANCH  15  16
ENDBRANCH  14  15
ENDBRANCH   5  14
TORSDOF 6
ENDMDL
MODEL      104
REMARK 921   NORMALIZED FREE ENERGY PREDICTED BY IDOCK:   -3.38 KCAL/MOL
REMARK 922        TOTAL FREE ENERGY PREDICTED BY IDOCK:   -5.16 KCAL/MOL
REMARK 923 INTER-LIGAND FREE ENERGY PREDICTED BY IDOCK:   -4.73 KCAL/MOL
REMARK 924 INTRA-LIGAND FREE ENERGY PREDICTED BY IDOCK:   -0.42 KCAL/MOL
REMARK 927      BINDING AFFINITY PREDICTED BY RF-SCORE:    0.00 PKD
ROOT
HETATM    1  C   UNL     1     -13.009  10.363  71.916  1.00  0.00    -0.555 C  
HETATM    2  C   UNL     1     -12.540  10.259  70.468  1.00  0.00    -0.338 C  
HETATM    3  C   UNL     1     -11.009  10.404  70.269  1.00  0.00    -0.353 C  
HETATM    4  C   UNL     1     -10.324   9.232  71.005  1.00  0.00    -0.388 C  
HETATM    5  C   UNL     1     -10.534  10.550  68.753  1.00  0.00    -0.216 C  
HETATM    6  C   UNL     1     -11.022   9.362  67.897  1.00  0.00    -0.122 C  
ENDROOT
BRANCH   5   7
HETATM    7  C   UNL     1      -8.971  10.595  68.692  1.00  0.00    -0.170 C  
BRANCH   7   8
HETATM    8  O   UNL     1      -8.493  11.906  68.338  1.00  0.00    -0.162 OA 
BRANCH   8   9
HETATM    9  C   UNL     1      -7.371  12.339  68.954  1.00  0.00    -0.041 C  
HETATM   10  H2  UNL     1      -8.091  14.294  68.624  1.00  0.00     0.000 HD 
HETATM   11  O   UNL     1      -6.478  11.645  69.410  1.00  0.00    -0.091 OA 
HETATM   12  N   UNL     1      -7.360  13.689  68.999  1.00  0.00    -0.254 N  
HETATM   13  H1  UNL     1      -6.512  14.017  69.463  1.00  0.00     0.000 HD 
ENDBRANCH   8   9
ENDBRANCH   7   8
ENDBRANCH   5   7
BRANCH   5  14
HETATM   14  C   UNL     1     -11.027  11.885  68.101  1.00  0.00    -0.227 C  
BRANCH  14  15
HETATM   15  O   UNL     1     -12.075  11.696  67.137  1.00  0.00    -0.575 OA 
BRANCH  15  16
HETATM   16  C   UNL     1     -12.196  12.653  66.188  1.00  0.00    -0.209 C  
HETATM   17  H1  UNL     1     -11.445  14.400  65.751  1.00  0.00     0.000 HD 
HETATM   18  H2  UNL     1     -10.723  13.721  67.268  1.00  0.00     0.000 HD 
HETATM   19  N   UNL     1     -11.353  13.678  66.466  1.00  0.00    -0.311 N  
HETATM   20  O   UNL     1     -12.880  12.612  65.183  1.00  0.00    -0.721 OA 
ENDBRANCH  15  16
ENDBRANCH  14  15
ENDBRANCH   5  14
TORSDOF 6
ENDMDL
MODEL      105
REMARK 921   NORMALIZED FREE ENERGY PREDICTED BY IDOCK:   -3.37 KCAL/MOL
REMARK 922        TOTAL FREE ENERGY PREDICTED BY IDOCK:   -5.15 KCAL/MOL
REMARK 923 INTER-LIGAND FREE ENERGY PREDICTED BY IDOCK:   -4.62 KCAL/MOL
REMARK 924 INTRA-LIGAND FREE ENERGY PREDICTED BY IDOCK:   -0.53 KCAL/MOL
REMARK 927      BINDING AFFINITY PREDICTED BY RF-SCORE:    0.00 PKD
ROOT
HETATM    1  C   UNL     1     -10.398   5.369  67.874  1.00  0.00    -0.222 C  
HETATM    2  C   UNL     1     -10.767   6.707  68.507  1.00  0.00    -0.308 C  
HETATM    3  C   UNL     1     -10.136   6.964  69.900  1.00  0.00    -0.200 C  
HETATM    4  C   UNL     1      -8.604   7.006  69.723  1.00  0.00    -0.141 C  
HETATM    5  C   UNL     1     -10.708   8.233  70.680  1.00  0.00    -0.240 C  
HETATM    6  C   UNL     1     -10.561   9.519  69.838  1.00  0.00    -0.269 C  
ENDROOT
BRANCH   5   7
HETATM    7  C   UNL     1      -9.925   8.426  72.020  1.00  0.00    -0.284 C  
BRANCH   7   8
HETATM    8  O   UNL     1     -10.639   7.863  73.136  1.00  0.00    -0.359 OA 
BRANCH   8   9
HETATM    9  C   UNL     1     -10.023   6.880  73.828  1.00  0.00    -0.312 C  
HETATM   10  H2  UNL     1      -8.522   8.296  74.266  1.00  0.00     0.000 HD 
HETATM   11  O   UNL     1     -10.414   5.733  73.966  1.00  0.00    -0.261 OA 
HETATM   12  N   UNL     1      -8.873   7.343  74.367  1.00  0.00    -0.350 N  
HETATM   13  H1  UNL     1      -8.408   6.601  74.889  1.00  0.00     0.000 HD 
ENDBRANCH   8   9
ENDBRANCH   7   8
ENDBRANCH   5   7
BRANCH   5  14
HETATM   14  C   UNL     1     -12.210   8.056  71.083  1.00  0.00    -0.245 C  
BRANCH  14  15
HETATM   15  O   UNL     1     -13.000   9.238  70.876  1.00  0.00    -0.172 OA 
BRANCH  15  16
HETATM   16  C   UNL     1     -13.564   9.783  71.979  1.00  0.00    -0.349 C  
HETATM   17  H1  UNL     1     -13.750  11.528  72.831  1.00  0.00     0.000 HD 
HETATM   18  H2  UNL     1     -12.801  11.632  71.292  1.00  0.00     0.000 HD 
HETATM   19  N   UNL     1     -13.325  11.117  72.000  1.00  0.00    -0.401 N  
HETATM   20  O   UNL     1     -14.253   9.221  72.809  1.00  0.00    -0.502 OA 
ENDBRANCH  15  16
ENDBRANCH  14  15
ENDBRANCH   5  14
TORSDOF 6
ENDMDL
MODEL      106
REMARK 921   NORMALIZED FREE ENERGY PREDICTED BY IDOCK:   -3.37 KCAL/MOL
REMARK 922        TOTAL FREE ENERGY PREDICTED BY IDOCK:   -5.14 KCAL/MOL
REMARK 923 INTER-LIGAND FREE ENERGY PREDICTED BY IDOCK:   -4.70 KCAL/MOL
REMARK 924 INTRA-LIGAND FREE ENERGY PREDICTED BY IDOCK:   -0.44 KCAL/MOL
REMARK 927      BINDING AFFINITY PREDICTED BY RF-SCORE:    0.00 PKD
ROOT
HETATM    1  C   UNL     1     -11.834  14.662  67.143  1.00  0.00    -0.367 C  
HETATM    2  C   UNL     1     -11.135  13.559  67.931  1.00  0.00    -0.288 C  
HETATM    3  C   UNL     1     -11.211  12.150  67.286  1.00  0.00    -0.366 C  
HETATM    4  C   UNL     1     -10.474  12.212  65.931  1.00  0.00    -0.288 C  
HETATM    5  C   UNL     1     -10.710  10.952  68.213  1.00  0.00    -0.244 C  
HETATM    6  C   UNL     1      -9.263  11.186  68.695  1.00  0.00    -0.173 C  
ENDROOT
BRANCH   5   7
HETATM    7  C   UNL     1     -10.754   9.611  67.410  1.00  0.00    -0.241 C  
BRANCH   7   8
HETATM    8  O   UNL     1      -9.431   9.108  67.147  1.00  0.00    -0.144 OA 
BRANCH   8   9
HETATM    9  C   UNL     1      -9.198   8.604  65.916  1.00  0.00    -0.202 C  
HETATM   10  H2  UNL     1      -9.755   6.731  66.710  1.00  0.00     0.000 HD 
HETATM   11  O   UNL     1      -8.821   9.224  64.936  1.00  0.00    -0.187 OA 
HETATM   12  N   UNL     1      -9.440   7.275  65.906  1.00  0.00    -0.396 N  
HETATM   13  H1  UNL     1      -9.264   6.894  64.977  1.00  0.00     0.000 HD 
ENDBRANCH   8   9
ENDBRANCH   7   8
ENDBRANCH   5   7
BRANCH   5  14
HETATM   14  C   UNL     1     -11.634  10.738  69.458  1.00  0.00    -0.303 C  
BRANCH  14  15
HETATM   15  O   UNL     1     -10.943  10.195  70.595  1.00  0.00    -0.308 OA 
BRANCH  15  16
HETATM   16  C   UNL     1     -11.714   9.623  71.549  1.00  0.00    -0.400 C  
HETATM   17  H1  UNL     1     -13.494   9.824  72.322  1.00  0.00     0.000 HD 
HETATM   18  H2  UNL     1     -13.191  11.041  71.015  1.00  0.00     0.000 HD 
HETATM   19  N   UNL     1     -12.913  10.255  71.603  1.00  0.00    -0.430 N  
HETATM   20  O   UNL     1     -11.450   8.646  72.222  1.00  0.00    -0.365 OA 
ENDBRANCH  15  16
ENDBRANCH  14  15
ENDBRANCH   5  14
TORSDOF 6
ENDMDL
MODEL      107
REMARK 921   NORMALIZED FREE ENERGY PREDICTED BY IDOCK:   -3.37 KCAL/MOL
REMARK 922        TOTAL FREE ENERGY PREDICTED BY IDOCK:   -5.14 KCAL/MOL
REMARK 923 INTER-LIGAND FREE ENERGY PREDICTED BY IDOCK:   -4.62 KCAL/MOL
REMARK 924 INTRA-LIGAND FREE ENERGY PREDICTED BY IDOCK:   -0.52 KCAL/MOL
REMARK 927      BINDING AFFINITY PREDICTED BY RF-SCORE:    0.00 PKD
ROOT
HETATM    1  C   UNL     1     -10.189  19.992  65.953  1.00  0.00    -0.527 C  
HETATM    2  C   UNL     1     -10.605  18.616  66.462  1.00  0.00    -0.409 C  
HETATM    3  C   UNL     1      -9.663  18.006  67.532  1.00  0.00    -0.289 C  
HETATM    4  C   UNL     1      -9.698  18.927  68.770  1.00  0.00    -0.454 C  
HETATM    5  C   UNL     1      -9.940  16.475  67.886  1.00  0.00    -0.245 C  
HETATM    6  C   UNL     1     -11.397  16.264  68.348  1.00  0.00    -0.312 C  
ENDROOT
BRANCH   5   7
HETATM    7  C   UNL     1      -8.984  16.019  69.037  1.00  0.00    -0.244 C  
BRANCH   7   8
HETATM    8  O   UNL     1      -7.629  15.877  68.574  1.00  0.00    -0.134 OA 
BRANCH   8   9
HETATM    9  C   UNL     1      -6.665  16.492  69.293  1.00  0.00    -0.218 C  
HETATM   10  H2  UNL     1      -6.171  14.581  70.037  1.00  0.00     0.000 HD 
HETATM   11  O   UNL     1      -6.417  17.686  69.306  1.00  0.00    -0.230 OA 
HETATM   12  N   UNL     1      -5.985  15.584  70.028  1.00  0.00    -0.144 N  
HETATM   13  H1  UNL     1      -5.258  16.048  70.572  1.00  0.00     0.000 HD 
ENDBRANCH   8   9
ENDBRANCH   7   8
ENDBRANCH   5   7
BRANCH   5  14
HETATM   14  C   UNL     1      -9.644  15.523  66.679  1.00  0.00    -0.253 C  
BRANCH  14  15
HETATM   15  O   UNL     1     -10.773  14.724  66.292  1.00  0.00    -0.299 OA 
BRANCH  15  16
HETATM   16  C   UNL     1     -10.687  13.398  66.553  1.00  0.00    -0.286 C  
HETATM   17  H1  UNL     1      -9.324  12.055  66.926  1.00  0.00     0.000 HD 
HETATM   18  H2  UNL     1      -8.596  13.695  66.675  1.00  0.00     0.000 HD 
HETATM   19  N   UNL     1      -9.388  13.053  66.730  1.00  0.00    -0.240 N  
HETATM   20  O   UNL     1     -11.606  12.614  66.695  1.00  0.00    -0.339 OA 
ENDBRANCH  15  16
ENDBRANCH  14  15
ENDBRANCH   5  14
TORSDOF 6
ENDMDL
MODEL      108
REMARK 921   NORMALIZED FREE ENERGY PREDICTED BY IDOCK:   -3.36 KCAL/MOL
REMARK 922        TOTAL FREE ENERGY PREDICTED BY IDOCK:   -5.13 KCAL/MOL
REMARK 923 INTER-LIGAND FREE ENERGY PREDICTED BY IDOCK:   -4.64 KCAL/MOL
REMARK 924 INTRA-LIGAND FREE ENERGY PREDICTED BY IDOCK:   -0.49 KCAL/MOL
REMARK 927      BINDING AFFINITY PREDICTED BY RF-SCORE:    0.00 PKD
ROOT
HETATM    1  C   UNL     1      -6.997  11.152  69.287  1.00  0.00    -0.118 C  
HETATM    2  C   UNL     1      -7.885  10.562  68.196  1.00  0.00    -0.109 C  
HETATM    3  C   UNL     1      -8.998  11.511  67.679  1.00  0.00    -0.160 C  
HETATM    4  C   UNL     1      -8.312  12.732  67.031  1.00  0.00    -0.123 C  
HETATM    5  C   UNL     1     -10.083  10.828  66.729  1.00  0.00    -0.267 C  
HETATM    6  C   UNL     1      -9.415  10.157  65.510  1.00  0.00    -0.286 C  
ENDROOT
BRANCH   5   7
HETATM    7  C   UNL     1     -11.085  11.912  66.211  1.00  0.00    -0.314 C  
BRANCH   7   8
HETATM    8  O   UNL     1     -11.159  11.919  64.773  1.00  0.00    -0.303 OA 
BRANCH   8   9
HETATM    9  C   UNL     1     -12.389  12.010  64.220  1.00  0.00    -0.302 C  
HETATM   10  H2  UNL     1     -11.554  11.095  62.513  1.00  0.00     0.000 HD 
HETATM   11  O   UNL     1     -13.386  12.482  64.739  1.00  0.00    -0.773 OA 
HETATM   12  N   UNL     1     -12.373  11.494  62.971  1.00  0.00    -0.935 N  
HETATM   13  H1  UNL     1     -13.301  11.563  62.553  1.00  0.00     0.000 HD 
ENDBRANCH   8   9
ENDBRANCH   7   8
ENDBRANCH   5   7
BRANCH   5  14
HETATM   14  C   UNL     1     -10.951   9.767  67.484  1.00  0.00    -0.138 C  
BRANCH  14  15
HETATM   15  O   UNL     1     -10.710   8.419  67.050  1.00  0.00    -0.289 OA 
BRANCH  15  16
HETATM   16  C   UNL     1     -10.366   7.532  68.012  1.00  0.00    -0.204 C  
HETATM   17  H1  UNL     1      -9.080   6.093  68.299  1.00  0.00     0.000 HD 
HETATM   18  H2  UNL     1      -8.895   6.840  66.659  1.00  0.00     0.000 HD 
HETATM   19  N   UNL     1      -9.340   6.762  67.574  1.00  0.00    -0.124 N  
HETATM   20  O   UNL     1     -10.822   7.451  69.137  1.00  0.00    -0.199 OA 
ENDBRANCH  15  16
ENDBRANCH  14  15
ENDBRANCH   5  14
TORSDOF 6
ENDMDL
MODEL      109
REMARK 921   NORMALIZED FREE ENERGY PREDICTED BY IDOCK:   -3.33 KCAL/MOL
REMARK 922        TOTAL FREE ENERGY PREDICTED BY IDOCK:   -5.09 KCAL/MOL
REMARK 923 INTER-LIGAND FREE ENERGY PREDICTED BY IDOCK:   -4.78 KCAL/MOL
REMARK 924 INTRA-LIGAND FREE ENERGY PREDICTED BY IDOCK:   -0.30 KCAL/MOL
REMARK 927      BINDING AFFINITY PREDICTED BY RF-SCORE:    0.00 PKD
ROOT
HETATM    1  C   UNL     1     -13.023  10.693  71.576  1.00  0.00    -0.566 C  
HETATM    2  C   UNL     1     -11.807  10.361  70.718  1.00  0.00    -0.466 C  
HETATM    3  C   UNL     1     -11.828  10.977  69.294  1.00  0.00    -0.411 C  
HETATM    4  C   UNL     1     -11.813  12.513  69.445  1.00  0.00    -0.368 C  
HETATM    5  C   UNL     1     -10.697  10.437  68.306  1.00  0.00    -0.275 C  
HETATM    6  C   UNL     1      -9.289  10.645  68.902  1.00  0.00    -0.191 C  
ENDROOT
BRANCH   5   7
HETATM    7  C   UNL     1     -10.777  11.204  66.945  1.00  0.00    -0.274 C  
BRANCH   7   8
HETATM    8  O   UNL     1      -9.467  11.495  66.424  1.00  0.00    -0.200 OA 
BRANCH   8   9
HETATM    9  C   UNL     1      -9.085  10.831  65.311  1.00  0.00    -0.195 C  
HETATM   10  H2  UNL     1      -7.135  11.528  65.713  1.00  0.00     0.000 HD 
HETATM   11  O   UNL     1      -9.803  10.180  64.571  1.00  0.00    -0.324 OA 
HETATM   12  N   UNL     1      -7.758  10.988  65.111  1.00  0.00    -0.340 N  
HETATM   13  H1  UNL     1      -7.470  10.487  64.270  1.00  0.00     0.000 HD 
ENDBRANCH   8   9
ENDBRANCH   7   8
ENDBRANCH   5   7
BRANCH   5  14
HETATM   14  C   UNL     1     -10.886   8.923  67.956  1.00  0.00    -0.016 C  
BRANCH  14  15
HETATM   15  O   UNL     1     -10.395   8.037  68.975  1.00  0.00    -0.214 OA 
BRANCH  15  16
HETATM   16  C   UNL     1     -10.913   6.787  68.983  1.00  0.00    -0.233 C  
HETATM   17  H1  UNL     1     -11.409   5.389  67.716  1.00  0.00     0.000 HD 
HETATM   18  H2  UNL     1     -10.749   6.851  66.874  1.00  0.00     0.000 HD 
HETATM   19  N   UNL     1     -11.018   6.331  67.710  1.00  0.00    -0.334 N  
HETATM   20  O   UNL     1     -11.182   6.107  69.954  1.00  0.00    -0.375 OA 
ENDBRANCH  15  16
ENDBRANCH  14  15
ENDBRANCH   5  14
TORSDOF 6
ENDMDL
MODEL      110
REMARK 921   NORMALIZED FREE ENERGY PREDICTED BY IDOCK:   -3.30 KCAL/MOL
REMARK 922        TOTAL FREE ENERGY PREDICTED BY IDOCK:   -5.04 KCAL/MOL
REMARK 923 INTER-LIGAND FREE ENERGY PREDICTED BY IDOCK:   -4.73 KCAL/MOL
REMARK 924 INTRA-LIGAND FREE ENERGY PREDICTED BY IDOCK:   -0.32 KCAL/MOL
REMARK 927      BINDING AFFINITY PREDICTED BY RF-SCORE:    0.00 PKD
ROOT
HETATM    1  C   UNL     1      -7.368  11.423  67.702  1.00  0.00    -0.102 C  
HETATM    2  C   UNL     1      -8.193  12.599  67.191  1.00  0.00    -0.159 C  
HETATM    3  C   UNL     1      -8.658  13.593  68.287  1.00  0.00    -0.170 C  
HETATM    4  C   UNL     1      -7.398  14.222  68.918  1.00  0.00    -0.126 C  
HETATM    5  C   UNL     1      -9.724  14.679  67.808  1.00  0.00    -0.215 C  
HETATM    6  C   UNL     1      -9.192  15.495  66.611  1.00  0.00    -0.299 C  
ENDROOT
BRANCH   5   7
HETATM    7  C   UNL     1     -10.034  15.666  68.981  1.00  0.00    -0.233 C  
BRANCH   7   8
HETATM    8  O   UNL     1     -10.191  14.970  70.231  1.00  0.00    -0.090 OA 
BRANCH   8   9
HETATM    9  C   UNL     1     -11.301  15.240  70.952  1.00  0.00    -0.342 C  
HETATM   10  H2  UNL     1     -11.876  13.244  70.585  1.00  0.00     0.000 HD 
HETATM   11  O   UNL     1     -11.586  16.303  71.477  1.00  0.00    -0.457 OA 
HETATM   12  N   UNL     1     -12.089  14.144  71.016  1.00  0.00    -0.395 N  
HETATM   13  H1  UNL     1     -12.928  14.348  71.559  1.00  0.00     0.000 HD 
ENDBRANCH   8   9
ENDBRANCH   7   8
ENDBRANCH   5   7
BRANCH   5  14
HETATM   14  C   UNL     1     -11.096  14.034  67.417  1.00  0.00    -0.303 C  
BRANCH  14  15
HETATM   15  O   UNL     1     -11.418  14.179  66.025  1.00  0.00    -0.327 OA 
BRANCH  15  16
HETATM   16  C   UNL     1     -11.960  13.096  65.419  1.00  0.00    -0.406 C  
HETATM   17  H1  UNL     1     -11.449  11.287  64.899  1.00  0.00     0.000 HD 
HETATM   18  H2  UNL     1     -10.085  12.162  65.709  1.00  0.00     0.000 HD 
HETATM   19  N   UNL     1     -11.040  12.103  65.355  1.00  0.00    -0.308 N  
HETATM   20  O   UNL     1     -13.110  12.960  65.046  1.00  0.00    -0.794 OA 
ENDBRANCH  15  16
ENDBRANCH  14  15
ENDBRANCH   5  14
TORSDOF 6
ENDMDL
MODEL      111
REMARK 921   NORMALIZED FREE ENERGY PREDICTED BY IDOCK:   -3.29 KCAL/MOL
REMARK 922        TOTAL FREE ENERGY PREDICTED BY IDOCK:   -5.04 KCAL/MOL
REMARK 923 INTER-LIGAND FREE ENERGY PREDICTED BY IDOCK:   -4.47 KCAL/MOL
REMARK 924 INTRA-LIGAND FREE ENERGY PREDICTED BY IDOCK:   -0.57 KCAL/MOL
REMARK 927      BINDING AFFINITY PREDICTED BY RF-SCORE:    0.00 PKD
ROOT
HETATM    1  C   UNL     1     -12.455  13.996  70.619  1.00  0.00    -0.435 C  
HETATM    2  C   UNL     1     -12.059  13.705  69.176  1.00  0.00    -0.361 C  
HETATM    3  C   UNL     1     -11.253  12.395  68.973  1.00  0.00    -0.320 C  
HETATM    4  C   UNL     1     -12.157  11.216  69.394  1.00  0.00    -0.396 C  
HETATM    5  C   UNL     1     -10.619  12.206  67.522  1.00  0.00    -0.240 C  
HETATM    6  C   UNL     1     -11.702  12.282  66.425  1.00  0.00    -0.431 C  
ENDROOT
BRANCH   5   7
HETATM    7  C   UNL     1      -9.917  10.811  67.430  1.00  0.00    -0.184 C  
BRANCH   7   8
HETATM    8  O   UNL     1      -8.777  10.734  68.305  1.00  0.00    -0.125 OA 
BRANCH   8   9
HETATM    9  C   UNL     1      -8.726   9.686  69.157  1.00  0.00    -0.151 C  
HETATM   10  H2  UNL     1      -7.992   8.559  67.533  1.00  0.00     0.000 HD 
HETATM   11  O   UNL     1      -9.044   9.690  70.335  1.00  0.00    -0.246 OA 
HETATM   12  N   UNL     1      -8.263   8.591  68.516  1.00  0.00    -0.122 N  
HETATM   13  H1  UNL     1      -8.225   7.799  69.159  1.00  0.00     0.000 HD 
ENDBRANCH   8   9
ENDBRANCH   7   8
ENDBRANCH   5   7
BRANCH   5  14
HETATM   14  C   UNL     1      -9.508  13.266  67.216  1.00  0.00    -0.233 C  
BRANCH  14  15
HETATM   15  O   UNL     1      -9.767  14.039  66.033  1.00  0.00    -0.294 OA 
BRANCH  15  16
HETATM   16  C   UNL     1      -9.659  15.382  66.159  1.00  0.00    -0.329 C  
HETATM   17  H1  UNL     1     -10.740  16.900  66.736  1.00  0.00     0.000 HD 
HETATM   18  H2  UNL     1     -11.650  15.339  66.875  1.00  0.00     0.000 HD 
HETATM   19  N   UNL     1     -10.821  15.888  66.642  1.00  0.00    -0.266 N  
HETATM   20  O   UNL     1      -8.673  16.064  65.959  1.00  0.00    -0.331 OA 
ENDBRANCH  15  16
ENDBRANCH  14  15
ENDBRANCH   5  14
TORSDOF 6
ENDMDL
MODEL      112
REMARK 921   NORMALIZED FREE ENERGY PREDICTED BY IDOCK:   -3.29 KCAL/MOL
REMARK 922        TOTAL FREE ENERGY PREDICTED BY IDOCK:   -5.03 KCAL/MOL
REMARK 923 INTER-LIGAND FREE ENERGY PREDICTED BY IDOCK:   -4.58 KCAL/MOL
REMARK 924 INTRA-LIGAND FREE ENERGY PREDICTED BY IDOCK:   -0.45 KCAL/MOL
REMARK 927      BINDING AFFINITY PREDICTED BY RF-SCORE:    0.00 PKD
ROOT
HETATM    1  C   UNL     1      -9.308   3.692  71.330  1.00  0.00    -0.214 C  
HETATM    2  C   UNL     1      -9.193   5.185  71.620  1.00  0.00    -0.174 C  
HETATM    3  C   UNL     1     -10.547   5.937  71.701  1.00  0.00    -0.295 C  
HETATM    4  C   UNL     1     -11.342   5.351  72.888  1.00  0.00    -0.365 C  
HETATM    5  C   UNL     1     -10.437   7.528  71.751  1.00  0.00    -0.222 C  
HETATM    6  C   UNL     1      -9.555   7.990  72.931  1.00  0.00    -0.348 C  
ENDROOT
BRANCH   5   7
HETATM    7  C   UNL     1     -11.861   8.150  71.924  1.00  0.00    -0.317 C  
BRANCH   7   8
HETATM    8  O   UNL     1     -11.817   9.589  71.896  1.00  0.00    -0.373 OA 
BRANCH   8   9
HETATM    9  C   UNL     1     -12.972  10.235  71.623  1.00  0.00    -0.465 C  
HETATM   10  H2  UNL     1     -13.507   8.543  70.484  1.00  0.00     0.000 HD 
HETATM   11  O   UNL     1     -13.295  11.343  72.016  1.00  0.00    -0.467 OA 
HETATM   12  N   UNL     1     -13.753   9.471  70.828  1.00  0.00    -0.530 N  
HETATM   13  H1  UNL     1     -14.624   9.959  70.621  1.00  0.00     0.000 HD 
ENDBRANCH   8   9
ENDBRANCH   7   8
ENDBRANCH   5   7
BRANCH   5  14
HETATM   14  C   UNL     1      -9.866   8.126  70.422  1.00  0.00    -0.186 C  
BRANCH  14  15
HETATM   15  O   UNL     1      -8.657   8.880  70.609  1.00  0.00    -0.155 OA 
BRANCH  15  16
HETATM   16  C   UNL     1      -8.521   9.992  69.849  1.00  0.00    -0.150 C  
HETATM   17  H1  UNL     1      -7.172  11.340  69.437  1.00  0.00     0.000 HD 
HETATM   18  H2  UNL     1      -6.551  10.107  70.610  1.00  0.00     0.000 HD 
HETATM   19  N   UNL     1      -7.275  10.501  70.009  1.00  0.00    -0.144 N  
HETATM   20  O   UNL     1      -9.331  10.456  69.070  1.00  0.00    -0.175 OA 
ENDBRANCH  15  16
ENDBRANCH  14  15
ENDBRANCH   5  14
TORSDOF 6
ENDMDL
MODEL      113
REMARK 921   NORMALIZED FREE ENERGY PREDICTED BY IDOCK:   -3.29 KCAL/MOL
REMARK 922        TOTAL FREE ENERGY PREDICTED BY IDOCK:   -5.03 KCAL/MOL
REMARK 923 INTER-LIGAND FREE ENERGY PREDICTED BY IDOCK:   -4.48 KCAL/MOL
REMARK 924 INTRA-LIGAND FREE ENERGY PREDICTED BY IDOCK:   -0.55 KCAL/MOL
REMARK 927      BINDING AFFINITY PREDICTED BY RF-SCORE:    0.00 PKD
ROOT
HETATM    1  C   UNL     1      -9.614   7.607  66.647  1.00  0.00    -0.271 C  
HETATM    2  C   UNL     1     -10.432   8.801  67.129  1.00  0.00    -0.354 C  
HETATM    3  C   UNL     1      -9.611  10.092  67.383  1.00  0.00    -0.182 C  
HETATM    4  C   UNL     1      -8.999  10.534  66.037  1.00  0.00    -0.185 C  
HETATM    5  C   UNL     1     -10.403  11.264  68.122  1.00  0.00    -0.205 C  
HETATM    6  C   UNL     1     -11.682  11.649  67.348  1.00  0.00    -0.278 C  
ENDROOT
BRANCH   5   7
HETATM    7  C   UNL     1      -9.490  12.529  68.231  1.00  0.00    -0.201 C  
BRANCH   7   8
HETATM    8  O   UNL     1     -10.233  13.739  67.990  1.00  0.00    -0.235 OA 
BRANCH   8   9
HETATM    9  C   UNL     1      -9.656  14.667  67.195  1.00  0.00    -0.233 C  
HETATM   10  H2  UNL     1      -9.452  13.135  65.761  1.00  0.00     0.000 HD 
HETATM   11  O   UNL     1      -9.463  15.840  67.469  1.00  0.00    -0.216 OA 
HETATM   12  N   UNL     1      -9.304  14.112  66.015  1.00  0.00    -0.514 N  
HETATM   13  H1  UNL     1      -8.868  14.812  65.415  1.00  0.00     0.000 HD 
ENDBRANCH   8   9
ENDBRANCH   7   8
ENDBRANCH   5   7
BRANCH   5  14
HETATM   14  C   UNL     1     -10.789  10.886  69.591  1.00  0.00    -0.216 C  
BRANCH  14  15
HETATM   15  O   UNL     1     -12.178  11.104  69.890  1.00  0.00    -0.314 OA 
BRANCH  15  16
HETATM   16  C   UNL     1     -12.448  12.016  70.852  1.00  0.00    -0.288 C  
HETATM   17  H1  UNL     1     -13.169  12.079  72.664  1.00  0.00     0.000 HD 
HETATM   18  H2  UNL     1     -13.125  10.386  72.018  1.00  0.00     0.000 HD 
HETATM   19  N   UNL     1     -12.964  11.391  71.938  1.00  0.00    -0.433 N  
HETATM   20  O   UNL     1     -12.210  13.209  70.825  1.00  0.00    -0.361 OA 
ENDBRANCH  15  16
ENDBRANCH  14  15
ENDBRANCH   5  14
TORSDOF 6
ENDMDL
MODEL      114
REMARK 921   NORMALIZED FREE ENERGY PREDICTED BY IDOCK:   -3.27 KCAL/MOL
REMARK 922        TOTAL FREE ENERGY PREDICTED BY IDOCK:   -5.01 KCAL/MOL
REMARK 923 INTER-LIGAND FREE ENERGY PREDICTED BY IDOCK:   -4.76 KCAL/MOL
REMARK 924 INTRA-LIGAND FREE ENERGY PREDICTED BY IDOCK:   -0.25 KCAL/MOL
REMARK 927      BINDING AFFINITY PREDICTED BY RF-SCORE:    0.00 PKD
ROOT
HETATM    1  C   UNL     1     -12.583  13.331  71.504  1.00  0.00    -0.311 C  
HETATM    2  C   UNL     1     -12.274  13.539  70.025  1.00  0.00    -0.381 C  
HETATM    3  C   UNL     1     -11.305  12.496  69.410  1.00  0.00    -0.275 C  
HETATM    4  C   UNL     1     -11.985  11.113  69.493  1.00  0.00    -0.425 C  
HETATM    5  C   UNL     1     -10.777  12.843  67.945  1.00  0.00    -0.235 C  
HETATM    6  C   UNL     1     -11.950  13.051  66.963  1.00  0.00    -0.409 C  
ENDROOT
BRANCH   5   7
HETATM    7  C   UNL     1      -9.888  11.671  67.413  1.00  0.00    -0.183 C  
BRANCH   7   8
HETATM    8  O   UNL     1     -10.576  10.895  66.415  1.00  0.00    -0.254 OA 
BRANCH   8   9
HETATM    9  C   UNL     1      -9.855  10.485  65.349  1.00  0.00    -0.274 C  
HETATM   10  H2  UNL     1      -9.912   8.559  66.206  1.00  0.00     0.000 HD 
HETATM   11  O   UNL     1      -9.469  11.177  64.422  1.00  0.00    -0.232 OA 
HETATM   12  N   UNL     1      -9.603   9.161  65.443  1.00  0.00    -0.457 N  
HETATM   13  H1  UNL     1      -9.058   8.851  64.638  1.00  0.00     0.000 HD 
ENDBRANCH   8   9
ENDBRANCH   7   8
ENDBRANCH   5   7
BRANCH   5  14
HETATM   14  C   UNL     1      -9.865  14.115  67.927  1.00  0.00    -0.224 C  
BRANCH  14  15
HETATM   15  O   UNL     1     -10.603  15.345  67.850  1.00  0.00    -0.255 OA 
BRANCH  15  16
HETATM   16  C   UNL     1      -9.950  16.462  68.247  1.00  0.00    -0.243 C  
HETATM   17  H1  UNL     1     -10.274  18.379  68.413  1.00  0.00     0.000 HD 
HETATM   18  H2  UNL     1     -11.726  17.508  67.767  1.00  0.00     0.000 HD 
HETATM   19  N   UNL     1     -10.766  17.537  68.114  1.00  0.00    -0.368 N  
HETATM   20  O   UNL     1      -8.836  16.533  68.729  1.00  0.00    -0.235 OA 
ENDBRANCH  15  16
ENDBRANCH  14  15
ENDBRANCH   5  14
TORSDOF 6
ENDMDL
MODEL      115
REMARK 921   NORMALIZED FREE ENERGY PREDICTED BY IDOCK:   -3.25 KCAL/MOL
REMARK 922        TOTAL FREE ENERGY PREDICTED BY IDOCK:   -4.98 KCAL/MOL
REMARK 923 INTER-LIGAND FREE ENERGY PREDICTED BY IDOCK:   -4.51 KCAL/MOL
REMARK 924 INTRA-LIGAND FREE ENERGY PREDICTED BY IDOCK:   -0.47 KCAL/MOL
REMARK 927      BINDING AFFINITY PREDICTED BY RF-SCORE:    0.00 PKD
ROOT
HETATM    1  C   UNL     1     -10.423  14.538  66.640  1.00  0.00    -0.274 C  
HETATM    2  C   UNL     1      -9.219  15.469  66.536  1.00  0.00    -0.324 C  
HETATM    3  C   UNL     1      -8.954  16.334  67.795  1.00  0.00    -0.193 C  
HETATM    4  C   UNL     1      -8.631  15.378  68.964  1.00  0.00    -0.227 C  
HETATM    5  C   UNL     1      -7.863  17.484  67.611  1.00  0.00    -0.207 C  
HETATM    6  C   UNL     1      -6.516  16.904  67.131  1.00  0.00    -0.223 C  
ENDROOT
BRANCH   5   7
HETATM    7  C   UNL     1      -7.631  18.213  68.975  1.00  0.00    -0.142 C  
BRANCH   7   8
HETATM    8  O   UNL     1      -6.293  18.735  69.075  1.00  0.00    -0.236 OA 
BRANCH   8   9
HETATM    9  C   UNL     1      -6.139  19.918  69.708  1.00  0.00    -0.341 C  
HETATM   10  H2  UNL     1      -4.963  20.508  68.059  1.00  0.00     0.000 HD 
HETATM   11  O   UNL     1      -6.607  20.230  70.790  1.00  0.00    -0.415 OA 
HETATM   12  N   UNL     1      -5.369  20.744  68.965  1.00  0.00    -0.313 N  
HETATM   13  H1  UNL     1      -5.252  21.637  69.444  1.00  0.00     0.000 HD 
ENDBRANCH   8   9
ENDBRANCH   7   8
ENDBRANCH   5   7
BRANCH   5  14
HETATM   14  C   UNL     1      -8.330  18.590  66.607  1.00  0.00    -0.272 C  
BRANCH  14  15
HETATM   15  O   UNL     1      -9.651  19.084  66.876  1.00  0.00    -0.300 OA 
BRANCH  15  16
HETATM   16  C   UNL     1     -10.524  19.056  65.842  1.00  0.00    -0.399 C  
HETATM   17  H1  UNL     1     -11.458  20.303  64.667  1.00  0.00     0.000 HD 
HETATM   18  H2  UNL     1     -10.409  21.169  65.864  1.00  0.00     0.000 HD 
HETATM   19  N   UNL     1     -10.800  20.324  65.446  1.00  0.00    -0.067 N  
HETATM   20  O   UNL     1     -10.959  18.075  65.271  1.00  0.00    -0.575 OA 
ENDBRANCH  15  16
ENDBRANCH  14  15
ENDBRANCH   5  14
TORSDOF 6
ENDMDL
MODEL      116
REMARK 921   NORMALIZED FREE ENERGY PREDICTED BY IDOCK:   -3.22 KCAL/MOL
REMARK 922        TOTAL FREE ENERGY PREDICTED BY IDOCK:   -4.93 KCAL/MOL
REMARK 923 INTER-LIGAND FREE ENERGY PREDICTED BY IDOCK:   -4.77 KCAL/MOL
REMARK 924 INTRA-LIGAND FREE ENERGY PREDICTED BY IDOCK:   -0.17 KCAL/MOL
REMARK 927      BINDING AFFINITY PREDICTED BY RF-SCORE:    0.00 PKD
ROOT
HETATM    1  C   UNL     1     -11.620  10.415  69.815  1.00  0.00    -0.339 C  
HETATM    2  C   UNL     1     -11.903  11.559  68.847  1.00  0.00    -0.406 C  
HETATM    3  C   UNL     1     -10.650  12.353  68.395  1.00  0.00    -0.251 C  
HETATM    4  C   UNL     1      -9.731  11.383  67.622  1.00  0.00    -0.183 C  
HETATM    5  C   UNL     1     -10.954  13.697  67.591  1.00  0.00    -0.283 C  
HETATM    6  C   UNL     1     -11.825  13.420  66.347  1.00  0.00    -0.441 C  
ENDROOT
BRANCH   5   7
HETATM    7  C   UNL     1      -9.610  14.344  67.119  1.00  0.00    -0.250 C  
BRANCH   7   8
HETATM    8  O   UNL     1      -9.549  15.743  67.455  1.00  0.00    -0.221 OA 
BRANCH   8   9
HETATM    9  C   UNL     1      -8.476  16.436  67.016  1.00  0.00    -0.197 C  
HETATM   10  H2  UNL     1      -9.851  17.845  66.258  1.00  0.00     0.000 HD 
HETATM   11  O   UNL     1      -7.305  16.123  67.147  1.00  0.00    -0.173 OA 
HETATM   12  N   UNL     1      -8.879  17.560  66.384  1.00  0.00    -0.257 N  
HETATM   13  H1  UNL     1      -8.069  18.084  66.051  1.00  0.00     0.000 HD 
ENDBRANCH   8   9
ENDBRANCH   7   8
ENDBRANCH   5   7
BRANCH   5  14
HETATM   14  C   UNL     1     -11.660  14.775  68.479  1.00  0.00    -0.321 C  
BRANCH  14  15
HETATM   15  O   UNL     1     -11.591  14.489  69.885  1.00  0.00    -0.262 OA 
BRANCH  15  16
HETATM   16  C   UNL     1     -12.731  14.674  70.591  1.00  0.00    -0.357 C  
HETATM   17  H1  UNL     1     -13.879  13.688  71.822  1.00  0.00     0.000 HD 
HETATM   18  H2  UNL     1     -12.462  12.694  71.287  1.00  0.00     0.000 HD 
HETATM   19  N   UNL     1     -13.019  13.549  71.291  1.00  0.00    -0.328 N  
HETATM   20  O   UNL     1     -13.386  15.695  70.679  1.00  0.00    -0.494 OA 
ENDBRANCH  15  16
ENDBRANCH  14  15
ENDBRANCH   5  14
TORSDOF 6
ENDMDL
MODEL      117
REMARK 921   NORMALIZED FREE ENERGY PREDICTED BY IDOCK:   -3.21 KCAL/MOL
REMARK 922        TOTAL FREE ENERGY PREDICTED BY IDOCK:   -4.93 KCAL/MOL
REMARK 923 INTER-LIGAND FREE ENERGY PREDICTED BY IDOCK:   -4.26 KCAL/MOL
REMARK 924 INTRA-LIGAND FREE ENERGY PREDICTED BY IDOCK:   -0.66 KCAL/MOL
REMARK 927      BINDING AFFINITY PREDICTED BY RF-SCORE:    0.00 PKD
ROOT
HETATM    1  C   UNL     1      -7.249   9.965  64.760  1.00  0.00    -0.136 C  
HETATM    2  C   UNL     1      -8.127   9.291  65.810  1.00  0.00    -0.115 C  
HETATM    3  C   UNL     1      -9.286  10.169  66.349  1.00  0.00    -0.209 C  
HETATM    4  C   UNL     1     -10.230  10.479  65.168  1.00  0.00    -0.358 C  
HETATM    5  C   UNL     1     -10.051   9.577  67.618  1.00  0.00    -0.254 C  
HETATM    6  C   UNL     1     -10.607   8.167  67.328  1.00  0.00    -0.344 C  
ENDROOT
BRANCH   5   7
HETATM    7  C   UNL     1     -11.246  10.512  67.997  1.00  0.00    -0.294 C  
BRANCH   7   8
HETATM    8  O   UNL     1     -10.988  11.233  69.215  1.00  0.00    -0.232 OA 
BRANCH   8   9
HETATM    9  C   UNL     1     -12.022  11.383  70.073  1.00  0.00    -0.363 C  
HETATM   10  H2  UNL     1     -12.545   9.396  69.596  1.00  0.00     0.000 HD 
HETATM   11  O   UNL     1     -12.293  12.382  70.718  1.00  0.00    -0.377 OA 
HETATM   12  N   UNL     1     -12.748  10.245  70.125  1.00  0.00    -0.557 N  
HETATM   13  H1  UNL     1     -13.529  10.358  70.772  1.00  0.00     0.000 HD 
ENDBRANCH   8   9
ENDBRANCH   7   8
ENDBRANCH   5   7
BRANCH   5  14
HETATM   14  C   UNL     1      -9.137   9.515  68.887  1.00  0.00    -0.141 C  
BRANCH  14  15
HETATM   15  O   UNL     1      -9.261   8.285  69.620  1.00  0.00    -0.156 OA 
BRANCH  15  16
HETATM   16  C   UNL     1      -9.723   8.386  70.887  1.00  0.00    -0.174 C  
HETATM   17  H1  UNL     1     -11.064   7.558  72.038  1.00  0.00     0.000 HD 
HETATM   18  H2  UNL     1     -11.059   6.825  70.381  1.00  0.00     0.000 HD 
HETATM   19  N   UNL     1     -10.715   7.481  71.082  1.00  0.00    -0.226 N  
HETATM   20  O   UNL     1      -9.297   9.103  71.772  1.00  0.00    -0.328 OA 
ENDBRANCH  15  16
ENDBRANCH  14  15
ENDBRANCH   5  14
TORSDOF 6
ENDMDL
MODEL      118
REMARK 921   NORMALIZED FREE ENERGY PREDICTED BY IDOCK:   -3.21 KCAL/MOL
REMARK 922        TOTAL FREE ENERGY PREDICTED BY IDOCK:   -4.92 KCAL/MOL
REMARK 923 INTER-LIGAND FREE ENERGY PREDICTED BY IDOCK:   -4.49 KCAL/MOL
REMARK 924 INTRA-LIGAND FREE ENERGY PREDICTED BY IDOCK:   -0.43 KCAL/MOL
REMARK 927      BINDING AFFINITY PREDICTED BY RF-SCORE:    0.00 PKD
ROOT
HETATM    1  C   UNL     1      -7.979   5.396  71.622  1.00  0.00    -0.116 C  
HETATM    2  C   UNL     1      -8.298   6.645  70.806  1.00  0.00    -0.129 C  
HETATM    3  C   UNL     1      -9.342   7.594  71.450  1.00  0.00    -0.157 C  
HETATM    4  C   UNL     1      -8.750   8.114  72.777  1.00  0.00    -0.281 C  
HETATM    5  C   UNL     1      -9.870   8.763  70.502  1.00  0.00    -0.224 C  
HETATM    6  C   UNL     1      -8.702   9.620  69.969  1.00  0.00    -0.256 C  
ENDROOT
BRANCH   5   7
HETATM    7  C   UNL     1     -10.840   9.693  71.303  1.00  0.00    -0.296 C  
BRANCH   7   8
HETATM    8  O   UNL     1     -12.087   9.033  71.591  1.00  0.00    -0.307 OA 
BRANCH   8   9
HETATM    9  C   UNL     1     -13.104   9.804  72.034  1.00  0.00    -0.452 C  
HETATM   10  H2  UNL     1     -13.839   8.073  72.988  1.00  0.00     0.000 HD 
HETATM   11  O   UNL     1     -13.268  10.992  71.808  1.00  0.00    -0.446 OA 
HETATM   12  N   UNL     1     -13.951   9.067  72.785  1.00  0.00    -0.867 N  
HETATM   13  H1  UNL     1     -14.719   9.649  73.120  1.00  0.00     0.000 HD 
ENDBRANCH   8   9
ENDBRANCH   7   8
ENDBRANCH   5   7
BRANCH   5  14
HETATM   14  C   UNL     1     -10.699   8.219  69.291  1.00  0.00    -0.128 C  
BRANCH  14  15
HETATM   15  O   UNL     1      -9.931   8.099  68.083  1.00  0.00    -0.173 OA 
BRANCH  15  16
HETATM   16  C   UNL     1     -10.084   6.948  67.387  1.00  0.00    -0.183 C  
HETATM   17  H1  UNL     1      -9.005   5.703  66.343  1.00  0.00     0.000 HD 
HETATM   18  H2  UNL     1      -8.011   7.076  66.982  1.00  0.00     0.000 HD 
HETATM   19  N   UNL     1      -8.890   6.570  66.867  1.00  0.00    -0.117 N  
HETATM   20  O   UNL     1     -11.094   6.279  67.283  1.00  0.00    -0.353 OA 
ENDBRANCH  15  16
ENDBRANCH  14  15
ENDBRANCH   5  14
TORSDOF 6
ENDMDL
MODEL      119
REMARK 921   NORMALIZED FREE ENERGY PREDICTED BY IDOCK:   -3.19 KCAL/MOL
REMARK 922        TOTAL FREE ENERGY PREDICTED BY IDOCK:   -4.90 KCAL/MOL
REMARK 923 INTER-LIGAND FREE ENERGY PREDICTED BY IDOCK:   -4.51 KCAL/MOL
REMARK 924 INTRA-LIGAND FREE ENERGY PREDICTED BY IDOCK:   -0.39 KCAL/MOL
REMARK 927      BINDING AFFINITY PREDICTED BY RF-SCORE:    0.00 PKD
ROOT
HETATM    1  C   UNL     1     -12.925  12.306  63.889  1.00  0.00    -0.309 C  
HETATM    2  C   UNL     1     -12.188  12.853  65.108  1.00  0.00    -0.519 C  
HETATM    3  C   UNL     1     -11.223  11.849  65.790  1.00  0.00    -0.365 C  
HETATM    4  C   UNL     1     -10.118  11.492  64.772  1.00  0.00    -0.316 C  
HETATM    5  C   UNL     1     -10.643  12.317  67.200  1.00  0.00    -0.250 C  
HETATM    6  C   UNL     1      -9.923  13.677  67.084  1.00  0.00    -0.247 C  
ENDROOT
BRANCH   5   7
HETATM    7  C   UNL     1      -9.619  11.258  67.727  1.00  0.00    -0.174 C  
BRANCH   7   8
HETATM    8  O   UNL     1      -8.267  11.744  67.647  1.00  0.00    -0.131 OA 
BRANCH   8   9
HETATM    9  C   UNL     1      -7.443  11.445  68.675  1.00  0.00    -0.119 C  
HETATM   10  H2  UNL     1      -7.565  13.482  69.206  1.00  0.00     0.000 HD 
HETATM   11  O   UNL     1      -6.975  10.349  68.937  1.00  0.00    -0.060 OA 
HETATM   12  N   UNL     1      -7.189  12.555  69.403  1.00  0.00    -0.322 N  
HETATM   13  H1  UNL     1      -6.566  12.329  70.179  1.00  0.00     0.000 HD 
ENDBRANCH   8   9
ENDBRANCH   7   8
ENDBRANCH   5   7
BRANCH   5  14
HETATM   14  C   UNL     1     -11.756  12.420  68.296  1.00  0.00    -0.345 C  
BRANCH  14  15
HETATM   15  O   UNL     1     -12.079  13.773  68.656  1.00  0.00    -0.359 OA 
BRANCH  15  16
HETATM   16  C   UNL     1     -12.117  14.048  69.980  1.00  0.00    -0.348 C  
HETATM   17  H1  UNL     1     -11.757  15.538  71.187  1.00  0.00     0.000 HD 
HETATM   18  H2  UNL     1     -11.448  15.987  69.460  1.00  0.00     0.000 HD 
HETATM   19  N   UNL     1     -11.728  15.330  70.189  1.00  0.00    -0.286 N  
HETATM   20  O   UNL     1     -12.508  13.321  70.873  1.00  0.00    -0.362 OA 
ENDBRANCH  15  16
ENDBRANCH  14  15
ENDBRANCH   5  14
TORSDOF 6
ENDMDL
MODEL      120
REMARK 921   NORMALIZED FREE ENERGY PREDICTED BY IDOCK:   -3.19 KCAL/MOL
REMARK 922        TOTAL FREE ENERGY PREDICTED BY IDOCK:   -4.90 KCAL/MOL
REMARK 923 INTER-LIGAND FREE ENERGY PREDICTED BY IDOCK:   -4.52 KCAL/MOL
REMARK 924 INTRA-LIGAND FREE ENERGY PREDICTED BY IDOCK:   -0.37 KCAL/MOL
REMARK 927      BINDING AFFINITY PREDICTED BY RF-SCORE:    0.00 PKD
ROOT
HETATM    1  C   UNL     1      -8.473   9.790  69.973  1.00  0.00    -0.229 C  
HETATM    2  C   UNL     1      -9.002   8.361  70.035  1.00  0.00    -0.138 C  
HETATM    3  C   UNL     1      -9.536   7.807  68.688  1.00  0.00    -0.154 C  
HETATM    4  C   UNL     1      -8.355   7.762  67.696  1.00  0.00    -0.121 C  
HETATM    5  C   UNL     1     -10.318   6.420  68.789  1.00  0.00    -0.232 C  
HETATM    6  C   UNL     1      -9.444   5.332  69.447  1.00  0.00    -0.190 C  
ENDROOT
BRANCH   5   7
HETATM    7  C   UNL     1     -10.718   5.935  67.356  1.00  0.00    -0.287 C  
BRANCH   7   8
HETATM    8  O   UNL     1     -10.088   4.683  67.027  1.00  0.00    -0.203 OA 
BRANCH   8   9
HETATM    9  C   UNL     1     -10.116   4.303  65.731  1.00  0.00    -0.212 C  
HETATM   10  H2  UNL     1     -12.108   4.995  65.697  1.00  0.00     0.000 HD 
HETATM   11  O   UNL     1      -9.204   3.790  65.104  1.00  0.00    -0.134 OA 
HETATM   12  N   UNL     1     -11.328   4.569  65.196  1.00  0.00    -0.949 N  
HETATM   13  H1  UNL     1     -11.349   4.281  64.218  1.00  0.00     0.000 HD 
ENDBRANCH   8   9
ENDBRANCH   7   8
ENDBRANCH   5   7
BRANCH   5  14
HETATM   14  C   UNL     1     -11.659   6.550  69.587  1.00  0.00    -0.283 C  
BRANCH  14  15
HETATM   15  O   UNL     1     -11.497   6.381  71.004  1.00  0.00    -0.313 OA 
BRANCH  15  16
HETATM   16  C   UNL     1     -12.122   7.288  71.791  1.00  0.00    -0.319 C  
HETATM   17  H1  UNL     1     -13.935   7.867  72.219  1.00  0.00     0.000 HD 
HETATM   18  H2  UNL     1     -13.931   6.523  71.005  1.00  0.00     0.000 HD 
HETATM   19  N   UNL     1     -13.464   7.183  71.627  1.00  0.00    -0.368 N  
HETATM   20  O   UNL     1     -11.610   8.044  72.595  1.00  0.00    -0.388 OA 
ENDBRANCH  15  16
ENDBRANCH  14  15
ENDBRANCH   5  14
TORSDOF 6
ENDMDL
MODEL      121
REMARK 921   NORMALIZED FREE ENERGY PREDICTED BY IDOCK:   -3.19 KCAL/MOL
REMARK 922        TOTAL FREE ENERGY PREDICTED BY IDOCK:   -4.89 KCAL/MOL
REMARK 923 INTER-LIGAND FREE ENERGY PREDICTED BY IDOCK:   -4.38 KCAL/MOL
REMARK 924 INTRA-LIGAND FREE ENERGY PREDICTED BY IDOCK:   -0.51 KCAL/MOL
REMARK 927      BINDING AFFINITY PREDICTED BY RF-SCORE:    0.00 PKD
ROOT
HETATM    1  C   UNL     1     -12.806  10.740  71.446  1.00  0.00    -0.557 C  
HETATM    2  C   UNL     1     -12.525  11.467  70.134  1.00  0.00    -0.271 C  
HETATM    3  C   UNL     1     -11.055  11.385  69.647  1.00  0.00    -0.241 C  
HETATM    4  C   UNL     1     -10.734   9.901  69.367  1.00  0.00    -0.255 C  
HETATM    5  C   UNL     1     -10.693  12.342  68.423  1.00  0.00    -0.254 C  
HETATM    6  C   UNL     1     -11.618  12.080  67.215  1.00  0.00    -0.383 C  
ENDROOT
BRANCH   5   7
HETATM    7  C   UNL     1      -9.215  12.092  67.977  1.00  0.00    -0.192 C  
BRANCH   7   8
HETATM    8  O   UNL     1      -9.150  11.495  66.669  1.00  0.00    -0.178 OA 
BRANCH   8   9
HETATM    9  C   UNL     1      -8.115  10.664  66.421  1.00  0.00    -0.148 C  
HETATM   10  H2  UNL     1      -8.153  11.401  64.446  1.00  0.00     0.000 HD 
HETATM   11  O   UNL     1      -7.584   9.906  67.216  1.00  0.00    -0.088 OA 
HETATM   12  N   UNL     1      -7.727  10.778  65.132  1.00  0.00    -0.353 N  
HETATM   13  H1  UNL     1      -6.946  10.150  64.944  1.00  0.00     0.000 HD 
ENDBRANCH   8   9
ENDBRANCH   7   8
ENDBRANCH   5   7
BRANCH   5  14
HETATM   14  C   UNL     1     -10.774  13.857  68.808  1.00  0.00    -0.262 C  
BRANCH  14  15
HETATM   15  O   UNL     1     -10.000  14.707  67.946  1.00  0.00    -0.218 OA 
BRANCH  15  16
HETATM   16  C   UNL     1     -10.654  15.755  67.394  1.00  0.00    -0.313 C  
HETATM   17  H1  UNL     1     -11.277  16.347  65.643  1.00  0.00     0.000 HD 
HETATM   18  H2  UNL     1     -10.443  14.742  65.549  1.00  0.00     0.000 HD 
HETATM   19  N   UNL     1     -10.785  15.557  66.059  1.00  0.00    -0.323 N  
HETATM   20  O   UNL     1     -11.138  16.710  67.972  1.00  0.00    -0.343 OA 
ENDBRANCH  15  16
ENDBRANCH  14  15
ENDBRANCH   5  14
TORSDOF 6
ENDMDL
MODEL      122
REMARK 921   NORMALIZED FREE ENERGY PREDICTED BY IDOCK:   -3.17 KCAL/MOL
REMARK 922        TOTAL FREE ENERGY PREDICTED BY IDOCK:   -4.87 KCAL/MOL
REMARK 923 INTER-LIGAND FREE ENERGY PREDICTED BY IDOCK:   -4.62 KCAL/MOL
REMARK 924 INTRA-LIGAND FREE ENERGY PREDICTED BY IDOCK:   -0.25 KCAL/MOL
REMARK 927      BINDING AFFINITY PREDICTED BY RF-SCORE:    0.00 PKD
ROOT
HETATM    1  C   UNL     1     -13.270  10.153  71.932  1.00  0.00    -0.557 C  
HETATM    2  C   UNL     1     -12.941  10.633  70.522  1.00  0.00    -0.277 C  
HETATM    3  C   UNL     1     -11.442  10.942  70.273  1.00  0.00    -0.391 C  
HETATM    4  C   UNL     1     -10.654   9.626  70.449  1.00  0.00    -0.354 C  
HETATM    5  C   UNL     1     -11.121  11.680  68.895  1.00  0.00    -0.287 C  
HETATM    6  C   UNL     1     -11.655  10.874  67.692  1.00  0.00    -0.171 C  
ENDROOT
BRANCH   5   7
HETATM    7  C   UNL     1      -9.574  11.846  68.733  1.00  0.00    -0.012 C  
BRANCH   7   8
HETATM    8  O   UNL     1      -9.228  12.321  67.419  1.00  0.00    -0.172 OA 
BRANCH   8   9
HETATM    9  C   UNL     1      -7.942  12.175  67.031  1.00  0.00    -0.138 C  
HETATM   10  H2  UNL     1      -7.662  14.178  67.630  1.00  0.00     0.000 HD 
HETATM   11  O   UNL     1      -7.435  11.172  66.557  1.00  0.00    -0.143 OA 
HETATM   12  N   UNL     1      -7.263  13.325  67.238  1.00  0.00    -0.347 N  
HETATM   13  H1  UNL     1      -6.292  13.215  66.944  1.00  0.00     0.000 HD 
ENDBRANCH   8   9
ENDBRANCH   7   8
ENDBRANCH   5   7
BRANCH   5  14
HETATM   14  C   UNL     1     -11.715  13.127  68.844  1.00  0.00    -0.326 C  
BRANCH  14  15
HETATM   15  O   UNL     1     -11.909  13.711  70.142  1.00  0.00    -0.299 OA 
BRANCH  15  16
HETATM   16  C   UNL     1     -12.402  14.971  70.166  1.00  0.00    -0.333 C  
HETATM   17  H1  UNL     1     -12.123  16.680  69.269  1.00  0.00     0.000 HD 
HETATM   18  H2  UNL     1     -11.004  15.402  68.638  1.00  0.00     0.000 HD 
HETATM   19  N   UNL     1     -11.751  15.730  69.251  1.00  0.00    -0.373 N  
HETATM   20  O   UNL     1     -13.334  15.385  70.828  1.00  0.00    -0.436 OA 
ENDBRANCH  15  16
ENDBRANCH  14  15
ENDBRANCH   5  14
TORSDOF 6
ENDMDL
MODEL      123
REMARK 921   NORMALIZED FREE ENERGY PREDICTED BY IDOCK:   -3.17 KCAL/MOL
REMARK 922        TOTAL FREE ENERGY PREDICTED BY IDOCK:   -4.87 KCAL/MOL
REMARK 923 INTER-LIGAND FREE ENERGY PREDICTED BY IDOCK:   -4.59 KCAL/MOL
REMARK 924 INTRA-LIGAND FREE ENERGY PREDICTED BY IDOCK:   -0.28 KCAL/MOL
REMARK 927      BINDING AFFINITY PREDICTED BY RF-SCORE:    0.00 PKD
ROOT
HETATM    1  C   UNL     1     -11.825  14.538  64.564  1.00  0.00    -0.459 C  
HETATM    2  C   UNL     1     -11.397  14.557  66.028  1.00  0.00    -0.341 C  
HETATM    3  C   UNL     1     -10.989  13.176  66.604  1.00  0.00    -0.301 C  
HETATM    4  C   UNL     1      -9.750  12.687  65.823  1.00  0.00    -0.183 C  
HETATM    5  C   UNL     1     -10.784  13.135  68.185  1.00  0.00    -0.258 C  
HETATM    6  C   UNL     1      -9.740  14.176  68.641  1.00  0.00    -0.196 C  
ENDROOT
BRANCH   5   7
HETATM    7  C   UNL     1     -10.288  11.715  68.616  1.00  0.00    -0.215 C  
BRANCH   7   8
HETATM    8  O   UNL     1     -11.042  10.673  67.970  1.00  0.00    -0.259 OA 
BRANCH   8   9
HETATM    9  C   UNL     1     -10.382   9.533  67.669  1.00  0.00    -0.244 C  
HETATM   10  H2  UNL     1      -8.628  10.703  67.630  1.00  0.00     0.000 HD 
HETATM   11  O   UNL     1     -10.871   8.424  67.535  1.00  0.00    -0.191 OA 
HETATM   12  N   UNL     1      -9.063   9.786  67.525  1.00  0.00    -0.131 N  
HETATM   13  H1  UNL     1      -8.565   8.925  67.297  1.00  0.00     0.000 HD 
ENDBRANCH   8   9
ENDBRANCH   7   8
ENDBRANCH   5   7
BRANCH   5  14
HETATM   14  C   UNL     1     -12.120  13.377  68.964  1.00  0.00    -0.259 C  
BRANCH  14  15
HETATM   15  O   UNL     1     -12.005  13.150  70.378  1.00  0.00    -0.332 OA 
BRANCH  15  16
HETATM   16  C   UNL     1     -12.896  13.798  71.164  1.00  0.00    -0.335 C  
HETATM   17  H1  UNL     1     -14.092  13.421  72.659  1.00  0.00     0.000 HD 
HETATM   18  H2  UNL     1     -13.179  11.944  72.143  1.00  0.00     0.000 HD 
HETATM   19  N   UNL     1     -13.420  12.933  72.067  1.00  0.00    -0.507 N  
HETATM   20  O   UNL     1     -13.161  14.985  71.154  1.00  0.00    -0.376 OA 
ENDBRANCH  15  16
ENDBRANCH  14  15
ENDBRANCH   5  14
TORSDOF 6
ENDMDL
MODEL      124
REMARK 921   NORMALIZED FREE ENERGY PREDICTED BY IDOCK:   -3.16 KCAL/MOL
REMARK 922        TOTAL FREE ENERGY PREDICTED BY IDOCK:   -4.86 KCAL/MOL
REMARK 923 INTER-LIGAND FREE ENERGY PREDICTED BY IDOCK:   -4.35 KCAL/MOL
REMARK 924 INTRA-LIGAND FREE ENERGY PREDICTED BY IDOCK:   -0.51 KCAL/MOL
REMARK 927      BINDING AFFINITY PREDICTED BY RF-SCORE:    0.00 PKD
ROOT
HETATM    1  C   UNL     1      -7.279   6.235  68.630  1.00  0.00    -0.085 C  
HETATM    2  C   UNL     1      -7.817   7.663  68.629  1.00  0.00    -0.121 C  
HETATM    3  C   UNL     1      -8.893   7.954  69.707  1.00  0.00    -0.141 C  
HETATM    4  C   UNL     1      -8.235   7.767  71.091  1.00  0.00    -0.099 C  
HETATM    5  C   UNL     1      -9.642   9.354  69.557  1.00  0.00    -0.188 C  
HETATM    6  C   UNL     1      -8.638  10.526  69.548  1.00  0.00    -0.047 C  
ENDROOT
BRANCH   5   7
HETATM    7  C   UNL     1     -10.627   9.557  70.755  1.00  0.00    -0.317 C  
BRANCH   7   8
HETATM    8  O   UNL     1     -11.367  10.785  70.630  1.00  0.00    -0.298 OA 
BRANCH   8   9
HETATM    9  C   UNL     1     -12.613  10.810  71.151  1.00  0.00    -0.428 C  
HETATM   10  H2  UNL     1     -12.938   8.986  70.142  1.00  0.00     0.000 HD 
HETATM   11  O   UNL     1     -13.081  11.671  71.877  1.00  0.00    -0.478 OA 
HETATM   12  N   UNL     1     -13.303   9.720  70.749  1.00  0.00    -0.606 N  
HETATM   13  H1  UNL     1     -14.245   9.738  71.142  1.00  0.00     0.000 HD 
ENDBRANCH   8   9
ENDBRANCH   7   8
ENDBRANCH   5   7
BRANCH   5  14
HETATM   14  C   UNL     1     -10.520   9.424  68.263  1.00  0.00    -0.217 C  
BRANCH  14  15
HETATM   15  O   UNL     1     -10.118  10.463  67.356  1.00  0.00    -0.180 OA 
BRANCH  15  16
HETATM   16  C   UNL     1     -11.020  11.448  67.135  1.00  0.00    -0.285 C  
HETATM   17  H1  UNL     1     -11.199  13.071  66.069  1.00  0.00     0.000 HD 
HETATM   18  H2  UNL     1      -9.603  12.260  65.791  1.00  0.00     0.000 HD 
HETATM   19  N   UNL     1     -10.519  12.329  66.235  1.00  0.00    -0.233 N  
HETATM   20  O   UNL     1     -12.146  11.531  67.588  1.00  0.00    -0.623 OA 
ENDBRANCH  15  16
ENDBRANCH  14  15
ENDBRANCH   5  14
TORSDOF 6
ENDMDL
MODEL      125
REMARK 921   NORMALIZED FREE ENERGY PREDICTED BY IDOCK:   -3.16 KCAL/MOL
REMARK 922        TOTAL FREE ENERGY PREDICTED BY IDOCK:   -4.86 KCAL/MOL
REMARK 923 INTER-LIGAND FREE ENERGY PREDICTED BY IDOCK:   -4.28 KCAL/MOL
REMARK 924 INTRA-LIGAND FREE ENERGY PREDICTED BY IDOCK:   -0.58 KCAL/MOL
REMARK 927      BINDING AFFINITY PREDICTED BY RF-SCORE:    0.00 PKD
ROOT
HETATM    1  C   UNL     1     -11.056  12.257  63.462  1.00  0.00    -0.533 C  
HETATM    2  C   UNL     1     -11.029  11.768  64.906  1.00  0.00    -0.358 C  
HETATM    3  C   UNL     1     -10.912  12.890  65.971  1.00  0.00    -0.301 C  
HETATM    4  C   UNL     1     -12.173  13.774  65.864  1.00  0.00    -0.501 C  
HETATM    5  C   UNL     1     -10.629  12.386  67.458  1.00  0.00    -0.240 C  
HETATM    6  C   UNL     1     -11.710  11.387  67.925  1.00  0.00    -0.300 C  
ENDROOT
BRANCH   5   7
HETATM    7  C   UNL     1     -10.627  13.606  68.436  1.00  0.00    -0.251 C  
BRANCH   7   8
HETATM    8  O   UNL     1      -9.807  14.680  67.941  1.00  0.00    -0.213 OA 
BRANCH   8   9
HETATM    9  C   UNL     1      -9.355  15.578  68.844  1.00  0.00    -0.222 C  
HETATM   10  H2  UNL     1      -8.472  13.943  69.842  1.00  0.00     0.000 HD 
HETATM   11  O   UNL     1      -9.544  16.782  68.829  1.00  0.00    -0.244 OA 
HETATM   12  N   UNL     1      -8.643  14.948  69.805  1.00  0.00    -0.434 N  
HETATM   13  H1  UNL     1      -8.302  15.625  70.488  1.00  0.00     0.000 HD 
ENDBRANCH   8   9
ENDBRANCH   7   8
ENDBRANCH   5   7
BRANCH   5  14
HETATM   14  C   UNL     1      -9.221  11.718  67.602  1.00  0.00    -0.180 C  
BRANCH  14  15
HETATM   15  O   UNL     1      -8.171  12.455  66.954  1.00  0.00    -0.164 OA 
BRANCH  15  16
HETATM   16  C   UNL     1      -6.970  12.462  67.577  1.00  0.00    -0.142 C  
HETATM   17  H1  UNL     1      -5.134  11.891  67.247  1.00  0.00     0.000 HD 
HETATM   18  H2  UNL     1      -6.218  11.506  65.846  1.00  0.00     0.000 HD 
HETATM   19  N   UNL     1      -6.040  11.886  66.777  1.00  0.00    -0.114 N  
HETATM   20  O   UNL     1      -6.700  12.964  68.651  1.00  0.00    -0.083 OA 
ENDBRANCH  15  16
ENDBRANCH  14  15
ENDBRANCH   5  14
TORSDOF 6
ENDMDL
MODEL      126
REMARK 921   NORMALIZED FREE ENERGY PREDICTED BY IDOCK:   -3.14 KCAL/MOL
REMARK 922        TOTAL FREE ENERGY PREDICTED BY IDOCK:   -4.82 KCAL/MOL
REMARK 923 INTER-LIGAND FREE ENERGY PREDICTED BY IDOCK:   -4.89 KCAL/MOL
REMARK 924 INTRA-LIGAND FREE ENERGY PREDICTED BY IDOCK:    0.06 KCAL/MOL
REMARK 927      BINDING AFFINITY PREDICTED BY RF-SCORE:    0.00 PKD
ROOT
HETATM    1  C   UNL     1      -8.737  15.030  69.193  1.00  0.00    -0.188 C  
HETATM    2  C   UNL     1      -8.965  14.308  67.869  1.00  0.00    -0.186 C  
HETATM    3  C   UNL     1     -10.453  14.042  67.521  1.00  0.00    -0.252 C  
HETATM    4  C   UNL     1     -11.152  15.410  67.366  1.00  0.00    -0.311 C  
HETATM    5  C   UNL     1     -10.696  13.074  66.277  1.00  0.00    -0.290 C  
HETATM    6  C   UNL     1      -9.990  13.604  65.011  1.00  0.00    -0.205 C  
ENDROOT
BRANCH   5   7
HETATM    7  C   UNL     1     -12.228  12.968  65.982  1.00  0.00    -0.399 C  
BRANCH   7   8
HETATM    8  O   UNL     1     -12.493  12.096  64.868  1.00  0.00    -0.467 OA 
BRANCH   8   9
HETATM    9  C   UNL     1     -12.723  12.679  63.671  1.00  0.00    -0.223 C  
HETATM   10  H2  UNL     1     -12.958  10.728  62.904  1.00  0.00     0.000 HD 
HETATM   11  O   UNL     1     -12.726  13.875  63.433  1.00  0.00    -0.806 OA 
HETATM   12  N   UNL     1     -12.955  11.734  62.733  1.00  0.00    -0.641 N  
HETATM   13  H1  UNL     1     -13.129  12.173  61.829  1.00  0.00     0.000 HD 
ENDBRANCH   8   9
ENDBRANCH   7   8
ENDBRANCH   5   7
BRANCH   5  14
HETATM   14  C   UNL     1     -10.211  11.612  66.557  1.00  0.00    -0.214 C  
BRANCH  14  15
HETATM   15  O   UNL     1     -10.532  11.148  67.879  1.00  0.00    -0.178 OA 
BRANCH  15  16
HETATM   16  C   UNL     1      -9.990   9.964  68.247  1.00  0.00    -0.151 C  
HETATM   17  H1  UNL     1      -8.490   9.293  69.298  1.00  0.00     0.000 HD 
HETATM   18  H2  UNL     1      -8.541  11.103  69.285  1.00  0.00     0.000 HD 
HETATM   19  N   UNL     1      -8.899  10.185  69.021  1.00  0.00    -0.155 N  
HETATM   20  O   UNL     1     -10.422   8.852  68.013  1.00  0.00    -0.220 OA 
ENDBRANCH  15  16
ENDBRANCH  14  15
ENDBRANCH   5  14
TORSDOF 6
ENDMDL
MODEL      127
REMARK 921   NORMALIZED FREE ENERGY PREDICTED BY IDOCK:   -3.13 KCAL/MOL
REMARK 922        TOTAL FREE ENERGY PREDICTED BY IDOCK:   -4.81 KCAL/MOL
REMARK 923 INTER-LIGAND FREE ENERGY PREDICTED BY IDOCK:   -4.37 KCAL/MOL
REMARK 924 INTRA-LIGAND FREE ENERGY PREDICTED BY IDOCK:   -0.44 KCAL/MOL
REMARK 927      BINDING AFFINITY PREDICTED BY RF-SCORE:    0.00 PKD
ROOT
HETATM    1  C   UNL     1      -7.765  10.611  68.226  1.00  0.00    -0.107 C  
HETATM    2  C   UNL     1      -8.545  10.159  69.456  1.00  0.00    -0.177 C  
HETATM    3  C   UNL     1      -9.012   8.681  69.424  1.00  0.00    -0.145 C  
HETATM    4  C   UNL     1      -7.753   7.789  69.389  1.00  0.00    -0.106 C  
HETATM    5  C   UNL     1     -10.036   8.268  70.576  1.00  0.00    -0.210 C  
HETATM    6  C   UNL     1      -9.451   8.559  71.974  1.00  0.00    -0.364 C  
ENDROOT
BRANCH   5   7
HETATM    7  C   UNL     1     -10.350   6.739  70.479  1.00  0.00    -0.201 C  
BRANCH   7   8
HETATM    8  O   UNL     1     -11.346   6.466  69.476  1.00  0.00    -0.390 OA 
BRANCH   8   9
HETATM    9  C   UNL     1     -10.905   6.103  68.252  1.00  0.00    -0.306 C  
HETATM   10  H2  UNL     1      -9.610   4.770  69.249  1.00  0.00     0.000 HD 
HETATM   11  O   UNL     1     -11.286   6.546  67.181  1.00  0.00    -0.388 OA 
HETATM   12  N   UNL     1      -9.948   5.156  68.367  1.00  0.00    -0.158 N  
HETATM   13  H1  UNL     1      -9.614   4.882  67.443  1.00  0.00     0.000 HD 
ENDBRANCH   8   9
ENDBRANCH   7   8
ENDBRANCH   5   7
BRANCH   5  14
HETATM   14  C   UNL     1     -11.414   8.998  70.437  1.00  0.00    -0.173 C  
BRANCH  14  15
HETATM   15  O   UNL     1     -11.522  10.174  71.256  1.00  0.00    -0.353 OA 
BRANCH  15  16
HETATM   16  C   UNL     1     -12.709  10.365  71.876  1.00  0.00    -0.357 C  
HETATM   17  H1  UNL     1     -14.055   9.329  72.835  1.00  0.00     0.000 HD 
HETATM   18  H2  UNL     1     -12.678   8.289  72.283  1.00  0.00     0.000 HD 
HETATM   19  N   UNL     1     -13.160   9.185  72.368  1.00  0.00    -0.429 N  
HETATM   20  O   UNL     1     -13.283  11.421  72.060  1.00  0.00    -0.503 OA 
ENDBRANCH  15  16
ENDBRANCH  14  15
ENDBRANCH   5  14
TORSDOF 6
ENDMDL
MODEL      128
REMARK 921   NORMALIZED FREE ENERGY PREDICTED BY IDOCK:   -3.11 KCAL/MOL
REMARK 922        TOTAL FREE ENERGY PREDICTED BY IDOCK:   -4.79 KCAL/MOL
REMARK 923 INTER-LIGAND FREE ENERGY PREDICTED BY IDOCK:   -3.95 KCAL/MOL
REMARK 924 INTRA-LIGAND FREE ENERGY PREDICTED BY IDOCK:   -0.84 KCAL/MOL
REMARK 927      BINDING AFFINITY PREDICTED BY RF-SCORE:    0.00 PKD
ROOT
HETATM    1  C   UNL     1      -6.560   7.853  68.777  1.00  0.00    -0.053 C  
HETATM    2  C   UNL     1      -7.951   8.316  68.355  1.00  0.00    -0.119 C  
HETATM    3  C   UNL     1      -7.985   9.185  67.071  1.00  0.00    -0.102 C  
HETATM    4  C   UNL     1      -7.472   8.318  65.902  1.00  0.00    -0.081 C  
HETATM    5  C   UNL     1      -9.387   9.882  66.762  1.00  0.00    -0.187 C  
HETATM    6  C   UNL     1     -10.521   8.839  66.670  1.00  0.00    -0.240 C  
ENDROOT
BRANCH   5   7
HETATM    7  C   UNL     1      -9.306  10.646  65.400  1.00  0.00    -0.210 C  
BRANCH   7   8
HETATM    8  O   UNL     1     -10.523  10.508  64.643  1.00  0.00    -0.311 OA 
BRANCH   8   9
HETATM    9  C   UNL     1     -11.016  11.624  64.061  1.00  0.00    -0.387 C  
HETATM   10  H2  UNL     1      -9.156  12.521  64.488  1.00  0.00     0.000 HD 
HETATM   11  O   UNL     1     -12.126  11.760  63.576  1.00  0.00    -0.491 OA 
HETATM   12  N   UNL     1     -10.090  12.607  64.088  1.00  0.00    -0.581 N  
HETATM   13  H1  UNL     1     -10.462  13.450  63.649  1.00  0.00     0.000 HD 
ENDBRANCH   8   9
ENDBRANCH   7   8
ENDBRANCH   5   7
BRANCH   5  14
HETATM   14  C   UNL     1      -9.767  10.956  67.835  1.00  0.00    -0.165 C  
BRANCH  14  15
HETATM   15  O   UNL     1      -9.684  12.305  67.346  1.00  0.00    -0.182 OA 
BRANCH  15  16
HETATM   16  C   UNL     1     -10.693  13.134  67.700  1.00  0.00    -0.238 C  
HETATM   17  H1  UNL     1     -12.643  13.134  67.777  1.00  0.00     0.000 HD 
HETATM   18  H2  UNL     1     -11.998  11.560  67.155  1.00  0.00     0.000 HD 
HETATM   19  N   UNL     1     -11.882  12.509  67.511  1.00  0.00    -0.367 N  
HETATM   20  O   UNL     1     -10.599  14.243  68.190  1.00  0.00    -0.237 OA 
ENDBRANCH  15  16
ENDBRANCH  14  15
ENDBRANCH   5  14
TORSDOF 6
ENDMDL
MODEL      129
REMARK 921   NORMALIZED FREE ENERGY PREDICTED BY IDOCK:   -3.10 KCAL/MOL
REMARK 922        TOTAL FREE ENERGY PREDICTED BY IDOCK:   -4.77 KCAL/MOL
REMARK 923 INTER-LIGAND FREE ENERGY PREDICTED BY IDOCK:   -4.33 KCAL/MOL
REMARK 924 INTRA-LIGAND FREE ENERGY PREDICTED BY IDOCK:   -0.44 KCAL/MOL
REMARK 927      BINDING AFFINITY PREDICTED BY RF-SCORE:    0.00 PKD
ROOT
HETATM    1  C   UNL     1      -6.952   9.736  70.415  1.00  0.00    -0.139 C  
HETATM    2  C   UNL     1      -8.354   9.393  69.922  1.00  0.00    -0.174 C  
HETATM    3  C   UNL     1      -9.249  10.619  69.604  1.00  0.00     0.114 C  
HETATM    4  C   UNL     1      -8.589  11.397  68.446  1.00  0.00    -0.156 C  
HETATM    5  C   UNL     1     -10.786  10.285  69.333  1.00  0.00    -0.272 C  
HETATM    6  C   UNL     1     -10.941   9.262  68.187  1.00  0.00    -0.060 C  
ENDROOT
BRANCH   5   7
HETATM    7  C   UNL     1     -11.548  11.592  68.937  1.00  0.00    -0.314 C  
BRANCH   7   8
HETATM    8  O   UNL     1     -12.147  11.480  67.633  1.00  0.00    -0.623 OA 
BRANCH   8   9
HETATM    9  C   UNL     1     -12.026  12.542  66.806  1.00  0.00    -0.257 C  
HETATM   10  H2  UNL     1     -11.716  13.701  68.540  1.00  0.00     0.000 HD 
HETATM   11  O   UNL     1     -12.111  12.530  65.590  1.00  0.00    -0.480 OA 
HETATM   12  N   UNL     1     -11.791  13.663  67.524  1.00  0.00    -0.371 N  
HETATM   13  H1  UNL     1     -11.700  14.465  66.900  1.00  0.00     0.000 HD 
ENDBRANCH   8   9
ENDBRANCH   7   8
ENDBRANCH   5   7
BRANCH   5  14
HETATM   14  C   UNL     1     -11.509   9.737  70.608  1.00  0.00    -0.324 C  
BRANCH  14  15
HETATM   15  O   UNL     1     -11.698   8.313  70.589  1.00  0.00    -0.254 OA 
BRANCH  15  16
HETATM   16  C   UNL     1     -12.221   7.763  71.710  1.00  0.00    -0.306 C  
HETATM   17  H1  UNL     1     -11.962   7.825  73.642  1.00  0.00     0.000 HD 
HETATM   18  H2  UNL     1     -10.799   8.911  72.775  1.00  0.00     0.000 HD 
HETATM   19  N   UNL     1     -11.568   8.240  72.798  1.00  0.00    -0.354 N  
HETATM   20  O   UNL     1     -13.177   7.015  71.787  1.00  0.00    -0.358 OA 
ENDBRANCH  15  16
ENDBRANCH  14  15
ENDBRANCH   5  14
TORSDOF 6
ENDMDL
MODEL      130
REMARK 921   NORMALIZED FREE ENERGY PREDICTED BY IDOCK:   -3.09 KCAL/MOL
REMARK 922        TOTAL FREE ENERGY PREDICTED BY IDOCK:   -4.77 KCAL/MOL
REMARK 923 INTER-LIGAND FREE ENERGY PREDICTED BY IDOCK:   -4.33 KCAL/MOL
REMARK 924 INTRA-LIGAND FREE ENERGY PREDICTED BY IDOCK:   -0.44 KCAL/MOL
REMARK 927      BINDING AFFINITY PREDICTED BY RF-SCORE:    0.00 PKD
ROOT
HETATM    1  C   UNL     1      -7.577  10.078  68.515  1.00  0.00    -0.087 C  
HETATM    2  C   UNL     1      -8.166   9.809  69.896  1.00  0.00    -0.196 C  
HETATM    3  C   UNL     1      -9.030   8.525  69.996  1.00  0.00    -0.142 C  
HETATM    4  C   UNL     1      -8.116   7.317  69.701  1.00  0.00    -0.129 C  
HETATM    5  C   UNL     1      -9.853   8.366  71.354  1.00  0.00    -0.259 C  
HETATM    6  C   UNL     1      -8.920   8.417  72.582  1.00  0.00    -0.304 C  
ENDROOT
BRANCH   5   7
HETATM    7  C   UNL     1     -10.602   6.993  71.358  1.00  0.00    -0.217 C  
BRANCH   7   8
HETATM    8  O   UNL     1     -10.554   6.368  72.654  1.00  0.00    -0.207 OA 
BRANCH   8   9
HETATM    9  C   UNL     1     -11.343   5.288  72.847  1.00  0.00    -0.301 C  
HETATM   10  H2  UNL     1     -12.981   6.599  72.630  1.00  0.00     0.000 HD 
HETATM   11  O   UNL     1     -10.973   4.144  73.046  1.00  0.00    -0.190 OA 
HETATM   12  N   UNL     1     -12.644   5.650  72.793  1.00  0.00    -0.339 N  
HETATM   13  H1  UNL     1     -13.240   4.835  72.939  1.00  0.00     0.000 HD 
ENDBRANCH   8   9
ENDBRANCH   7   8
ENDBRANCH   5   7
BRANCH   5  14
HETATM   14  C   UNL     1     -10.962   9.460  71.509  1.00  0.00    -0.359 C  
BRANCH  14  15
HETATM   15  O   UNL     1     -12.096   9.019  72.273  1.00  0.00    -0.346 OA 
BRANCH  15  16
HETATM   16  C   UNL     1     -13.270   9.641  72.018  1.00  0.00    -0.453 C  
HETATM   17  H1  UNL     1     -15.126   9.184  71.627  1.00  0.00     0.000 HD 
HETATM   18  H2  UNL     1     -14.107   7.704  71.858  1.00  0.00     0.000 HD 
HETATM   19  N   UNL     1     -14.241   8.715  71.820  1.00  0.00    -0.421 N  
HETATM   20  O   UNL     1     -13.488  10.837  72.031  1.00  0.00    -0.373 OA 
ENDBRANCH  15  16
ENDBRANCH  14  15
ENDBRANCH   5  14
TORSDOF 6
ENDMDL
MODEL      131
REMARK 921   NORMALIZED FREE ENERGY PREDICTED BY IDOCK:   -3.08 KCAL/MOL
REMARK 922        TOTAL FREE ENERGY PREDICTED BY IDOCK:   -4.75 KCAL/MOL
REMARK 923 INTER-LIGAND FREE ENERGY PREDICTED BY IDOCK:   -4.28 KCAL/MOL
REMARK 924 INTRA-LIGAND FREE ENERGY PREDICTED BY IDOCK:   -0.47 KCAL/MOL
REMARK 927      BINDING AFFINITY PREDICTED BY RF-SCORE:    0.00 PKD
ROOT
HETATM    1  C   UNL     1      -9.243  15.387  68.429  1.00  0.00    -0.192 C  
HETATM    2  C   UNL     1      -9.589  13.988  67.930  1.00  0.00    -0.221 C  
HETATM    3  C   UNL     1     -10.694  13.263  68.741  1.00  0.00    -0.253 C  
HETATM    4  C   UNL     1     -11.996  14.080  68.599  1.00  0.00    -0.389 C  
HETATM    5  C   UNL     1     -10.887  11.718  68.392  1.00  0.00    -0.260 C  
HETATM    6  C   UNL     1     -11.179  11.517  66.890  1.00  0.00    -0.363 C  
ENDROOT
BRANCH   5   7
HETATM    7  C   UNL     1     -12.086  11.138  69.211  1.00  0.00    -0.308 C  
BRANCH   7   8
HETATM    8  O   UNL     1     -11.802  11.117  70.622  1.00  0.00    -0.335 OA 
BRANCH   8   9
HETATM    9  C   UNL     1     -12.818  11.416  71.460  1.00  0.00    -0.403 C  
HETATM   10  H2  UNL     1     -12.844   9.368  71.964  1.00  0.00     0.000 HD 
HETATM   11  O   UNL     1     -13.312  12.517  71.640  1.00  0.00    -0.358 OA 
HETATM   12  N   UNL     1     -13.238  10.300  72.096  1.00  0.00    -0.555 N  
HETATM   13  H1  UNL     1     -14.006  10.526  72.728  1.00  0.00     0.000 HD 
ENDBRANCH   8   9
ENDBRANCH   7   8
ENDBRANCH   5   7
BRANCH   5  14
HETATM   14  C   UNL     1      -9.641  10.858  68.789  1.00  0.00    -0.189 C  
BRANCH  14  15
HETATM   15  O   UNL     1      -8.996  10.235  67.667  1.00  0.00    -0.134 OA 
BRANCH  15  16
HETATM   16  C   UNL     1      -8.357   9.068  67.914  1.00  0.00    -0.117 C  
HETATM   17  H1  UNL     1      -6.568   8.434  68.365  1.00  0.00     0.000 HD 
HETATM   18  H2  UNL     1      -6.615  10.237  68.189  1.00  0.00     0.000 HD 
HETATM   19  N   UNL     1      -7.050   9.314  68.179  1.00  0.00    -0.076 N  
HETATM   20  O   UNL     1      -8.848   7.958  67.980  1.00  0.00    -0.125 OA 
ENDBRANCH  15  16
ENDBRANCH  14  15
ENDBRANCH   5  14
TORSDOF 6
ENDMDL
MODEL      132
REMARK 921   NORMALIZED FREE ENERGY PREDICTED BY IDOCK:   -3.07 KCAL/MOL
REMARK 922        TOTAL FREE ENERGY PREDICTED BY IDOCK:   -4.73 KCAL/MOL
REMARK 923 INTER-LIGAND FREE ENERGY PREDICTED BY IDOCK:   -4.72 KCAL/MOL
REMARK 924 INTRA-LIGAND FREE ENERGY PREDICTED BY IDOCK:   -0.01 KCAL/MOL
REMARK 927      BINDING AFFINITY PREDICTED BY RF-SCORE:    0.00 PKD
ROOT
HETATM    1  C   UNL     1     -11.908  15.977  71.764  1.00  0.00    -0.599 C  
HETATM    2  C   UNL     1     -11.040  15.048  70.921  1.00  0.00    -0.225 C  
HETATM    3  C   UNL     1     -11.710  14.534  69.620  1.00  0.00    -0.356 C  
HETATM    4  C   UNL     1     -11.993  15.757  68.720  1.00  0.00    -0.226 C  
HETATM    5  C   UNL     1     -10.920  13.373  68.863  1.00  0.00    -0.284 C  
HETATM    6  C   UNL     1      -9.478  13.808  68.525  1.00  0.00    -0.162 C  
ENDROOT
BRANCH   5   7
HETATM    7  C   UNL     1     -11.655  13.017  67.530  1.00  0.00    -0.356 C  
BRANCH   7   8
HETATM    8  O   UNL     1     -11.702  11.594  67.315  1.00  0.00    -0.568 OA 
BRANCH   8   9
HETATM    9  C   UNL     1     -10.623  11.024  66.735  1.00  0.00    -0.266 C  
HETATM   10  H2  UNL     1     -10.809   9.496  68.177  1.00  0.00     0.000 HD 
HETATM   11  O   UNL     1     -10.000  11.452  65.778  1.00  0.00    -0.211 OA 
HETATM   12  N   UNL     1     -10.307   9.876  67.375  1.00  0.00    -0.229 N  
HETATM   13  H1  UNL     1      -9.492   9.445  66.937  1.00  0.00     0.000 HD 
ENDBRANCH   8   9
ENDBRANCH   7   8
ENDBRANCH   5   7
BRANCH   5  14
HETATM   14  C   UNL     1     -10.872  12.047  69.694  1.00  0.00     0.205 C  
BRANCH  14  15
HETATM   15  O   UNL     1     -12.098  11.763  70.386  1.00  0.00    -0.350 OA 
BRANCH  15  16
HETATM   16  C   UNL     1     -12.251  10.497  70.840  1.00  0.00    -0.388 C  
HETATM   17  H1  UNL     1     -13.155   9.549  72.285  1.00  0.00     0.000 HD 
HETATM   18  H2  UNL     1     -13.456  11.333  72.364  1.00  0.00     0.000 HD 
HETATM   19  N   UNL     1     -13.041  10.503  71.942  1.00  0.00    -0.479 N  
HETATM   20  O   UNL     1     -11.832   9.476  70.330  1.00  0.00    -0.228 OA 
ENDBRANCH  15  16
ENDBRANCH  14  15
ENDBRANCH   5  14
TORSDOF 6
ENDMDL
MODEL      133
REMARK 921   NORMALIZED FREE ENERGY PREDICTED BY IDOCK:   -3.07 KCAL/MOL
REMARK 922        TOTAL FREE ENERGY PREDICTED BY IDOCK:   -4.73 KCAL/MOL
REMARK 923 INTER-LIGAND FREE ENERGY PREDICTED BY IDOCK:   -4.35 KCAL/MOL
REMARK 924 INTRA-LIGAND FREE ENERGY PREDICTED BY IDOCK:   -0.38 KCAL/MOL
REMARK 927      BINDING AFFINITY PREDICTED BY RF-SCORE:    0.00 PKD
ROOT
HETATM    1  C   UNL     1     -10.858   6.954  67.064  1.00  0.00    -0.436 C  
HETATM    2  C   UNL     1     -10.118   8.274  66.874  1.00  0.00    -0.366 C  
HETATM    3  C   UNL     1     -10.711   9.472  67.660  1.00  0.00    -0.314 C  
HETATM    4  C   UNL     1     -10.595   9.152  69.166  1.00  0.00    -0.224 C  
HETATM    5  C   UNL     1     -10.109  10.899  67.278  1.00  0.00    -0.225 C  
HETATM    6  C   UNL     1      -8.575  10.921  67.449  1.00  0.00    -0.127 C  
ENDROOT
BRANCH   5   7
HETATM    7  C   UNL     1     -10.726  11.997  68.205  1.00  0.00    -0.224 C  
BRANCH   7   8
HETATM    8  O   UNL     1     -10.448  13.321  67.714  1.00  0.00    -0.232 OA 
BRANCH   8   9
HETATM    9  C   UNL     1     -11.383  14.271  67.939  1.00  0.00    -0.297 C  
HETATM   10  H2  UNL     1     -11.729  13.318  69.788  1.00  0.00     0.000 HD 
HETATM   11  O   UNL     1     -11.688  15.183  67.190  1.00  0.00    -0.275 OA 
HETATM   12  N   UNL     1     -11.963  14.072  69.143  1.00  0.00    -0.348 N  
HETATM   13  H1  UNL     1     -12.669  14.788  69.313  1.00  0.00     0.000 HD 
ENDBRANCH   8   9
ENDBRANCH   7   8
ENDBRANCH   5   7
BRANCH   5  14
HETATM   14  C   UNL     1     -10.466  11.323  65.814  1.00  0.00    -0.254 C  
BRANCH  14  15
HETATM   15  O   UNL     1      -9.323  11.401  64.948  1.00  0.00    -0.203 OA 
BRANCH  15  16
HETATM   16  C   UNL     1      -9.577  11.416  63.619  1.00  0.00    -0.257 C  
HETATM   17  H1  UNL     1      -9.430  10.231  62.076  1.00  0.00     0.000 HD 
HETATM   18  H2  UNL     1      -8.851   9.429  63.594  1.00  0.00     0.000 HD 
HETATM   19  N   UNL     1      -9.238  10.220  63.078  1.00  0.00    -0.266 N  
HETATM   20  O   UNL     1     -10.100  12.308  62.979  1.00  0.00    -0.300 OA 
ENDBRANCH  15  16
ENDBRANCH  14  15
ENDBRANCH   5  14
TORSDOF 6
ENDMDL
MODEL      134
REMARK 921   NORMALIZED FREE ENERGY PREDICTED BY IDOCK:   -3.06 KCAL/MOL
REMARK 922        TOTAL FREE ENERGY PREDICTED BY IDOCK:   -4.72 KCAL/MOL
REMARK 923 INTER-LIGAND FREE ENERGY PREDICTED BY IDOCK:   -4.26 KCAL/MOL
REMARK 924 INTRA-LIGAND FREE ENERGY PREDICTED BY IDOCK:   -0.46 KCAL/MOL
REMARK 927      BINDING AFFINITY PREDICTED BY RF-SCORE:    0.00 PKD
ROOT
HETATM    1  C   UNL     1      -8.173  10.511  66.647  1.00  0.00    -0.129 C  
HETATM    2  C   UNL     1      -9.097  11.715  66.496  1.00  0.00    -0.200 C  
HETATM    3  C   UNL     1      -8.874  12.841  67.539  1.00  0.00    -0.187 C  
HETATM    4  C   UNL     1      -7.447  13.394  67.338  1.00  0.00    -0.134 C  
HETATM    5  C   UNL     1      -9.988  13.983  67.553  1.00  0.00    -0.236 C  
HETATM    6  C   UNL     1     -10.137  14.635  66.163  1.00  0.00    -0.316 C  
ENDROOT
BRANCH   5   7
HETATM    7  C   UNL     1      -9.592  15.093  68.581  1.00  0.00    -0.213 C  
BRANCH   7   8
HETATM    8  O   UNL     1      -9.598  16.400  67.977  1.00  0.00    -0.221 OA 
BRANCH   8   9
HETATM    9  C   UNL     1     -10.190  17.396  68.672  1.00  0.00    -0.361 C  
HETATM   10  H2  UNL     1     -10.977  15.891  69.923  1.00  0.00     0.000 HD 
HETATM   11  O   UNL     1     -10.120  18.590  68.433  1.00  0.00    -0.358 OA 
HETATM   12  N   UNL     1     -10.900  16.884  69.702  1.00  0.00    -0.381 N  
HETATM   13  H1  UNL     1     -11.347  17.636  70.226  1.00  0.00     0.000 HD 
ENDBRANCH   8   9
ENDBRANCH   7   8
ENDBRANCH   5   7
BRANCH   5  14
HETATM   14  C   UNL     1     -11.383  13.447  68.018  1.00  0.00    -0.286 C  
BRANCH  14  15
HETATM   15  O   UNL     1     -11.294  12.373  68.969  1.00  0.00    -0.249 OA 
BRANCH  15  16
HETATM   16  C   UNL     1     -12.006  12.523  70.110  1.00  0.00    -0.301 C  
HETATM   17  H1  UNL     1     -12.968  13.919  71.076  1.00  0.00     0.000 HD 
HETATM   18  H2  UNL     1     -12.243  14.546  69.538  1.00  0.00     0.000 HD 
HETATM   19  N   UNL     1     -12.431  13.806  70.215  1.00  0.00    -0.316 N  
HETATM   20  O   UNL     1     -12.312  11.656  70.906  1.00  0.00    -0.374 OA 
ENDBRANCH  15  16
ENDBRANCH  14  15
ENDBRANCH   5  14
TORSDOF 6
ENDMDL
MODEL      135
REMARK 921   NORMALIZED FREE ENERGY PREDICTED BY IDOCK:   -3.05 KCAL/MOL
REMARK 922        TOTAL FREE ENERGY PREDICTED BY IDOCK:   -4.71 KCAL/MOL
REMARK 923 INTER-LIGAND FREE ENERGY PREDICTED BY IDOCK:   -3.93 KCAL/MOL
REMARK 924 INTRA-LIGAND FREE ENERGY PREDICTED BY IDOCK:   -0.77 KCAL/MOL
REMARK 927      BINDING AFFINITY PREDICTED BY RF-SCORE:    0.00 PKD
ROOT
HETATM    1  C   UNL     1     -10.323   5.964  68.553  1.00  0.00    -0.268 C  
HETATM    2  C   UNL     1     -10.589   7.283  67.835  1.00  0.00    -0.266 C  
HETATM    3  C   UNL     1      -9.543   8.395  68.107  1.00  0.00    -0.158 C  
HETATM    4  C   UNL     1      -8.182   7.904  67.567  1.00  0.00    -0.124 C  
HETATM    5  C   UNL     1      -9.939   9.845  67.572  1.00  0.00    -0.229 C  
HETATM    6  C   UNL     1     -10.234   9.820  66.057  1.00  0.00    -0.263 C  
ENDROOT
BRANCH   5   7
HETATM    7  C   UNL     1      -8.762  10.842  67.830  1.00  0.00    -0.131 C  
BRANCH   7   8
HETATM    8  O   UNL     1      -8.849  11.996  66.974  1.00  0.00    -0.183 OA 
BRANCH   8   9
HETATM    9  C   UNL     1      -8.605  13.200  67.537  1.00  0.00    -0.196 C  
HETATM   10  H2  UNL     1      -9.143  12.313  69.374  1.00  0.00     0.000 HD 
HETATM   11  O   UNL     1      -8.237  14.210  66.962  1.00  0.00    -0.170 OA 
HETATM   12  N   UNL     1      -8.833  13.143  68.868  1.00  0.00    -0.359 N  
HETATM   13  H1  UNL     1      -8.650  14.052  69.293  1.00  0.00     0.000 HD 
ENDBRANCH   8   9
ENDBRANCH   7   8
ENDBRANCH   5   7
BRANCH   5  14
HETATM   14  C   UNL     1     -11.177  10.438  68.324  1.00  0.00    -0.267 C  
BRANCH  14  15
HETATM   15  O   UNL     1     -10.868  10.917  69.642  1.00  0.00    -0.245 OA 
BRANCH  15  16
HETATM   16  C   UNL     1     -11.651  10.458  70.646  1.00  0.00    -0.349 C  
HETATM   17  H1  UNL     1     -11.584   9.141  72.084  1.00  0.00     0.000 HD 
HETATM   18  H2  UNL     1     -10.053   9.154  71.116  1.00  0.00     0.000 HD 
HETATM   19  N   UNL     1     -10.994   9.487  71.328  1.00  0.00    -0.363 N  
HETATM   20  O   UNL     1     -12.746  10.872  70.974  1.00  0.00    -0.363 OA 
ENDBRANCH  15  16
ENDBRANCH  14  15
ENDBRANCH   5  14
TORSDOF 6
ENDMDL
MODEL      136
REMARK 921   NORMALIZED FREE ENERGY PREDICTED BY IDOCK:   -3.01 KCAL/MOL
REMARK 922        TOTAL FREE ENERGY PREDICTED BY IDOCK:   -4.65 KCAL/MOL
REMARK 923 INTER-LIGAND FREE ENERGY PREDICTED BY IDOCK:   -3.89 KCAL/MOL
REMARK 924 INTRA-LIGAND FREE ENERGY PREDICTED BY IDOCK:   -0.75 KCAL/MOL
REMARK 927      BINDING AFFINITY PREDICTED BY RF-SCORE:    0.00 PKD
ROOT
HETATM    1  C   UNL     1     -11.951   6.363  71.816  1.00  0.00    -0.370 C  
HETATM    2  C   UNL     1     -11.764   6.674  70.334  1.00  0.00    -0.446 C  
HETATM    3  C   UNL     1     -10.324   6.453  69.800  1.00  0.00    -0.246 C  
HETATM    4  C   UNL     1      -9.992   4.953  69.947  1.00  0.00    -0.317 C  
HETATM    5  C   UNL     1     -10.054   7.010  68.330  1.00  0.00    -0.185 C  
HETATM    6  C   UNL     1     -11.045   6.405  67.313  1.00  0.00    -0.416 C  
ENDROOT
BRANCH   5   7
HETATM    7  C   UNL     1      -8.601   6.641  67.885  1.00  0.00    -0.118 C  
BRANCH   7   8
HETATM    8  O   UNL     1      -8.588   6.011  66.591  1.00  0.00    -0.110 OA 
BRANCH   8   9
HETATM    9  C   UNL     1      -7.778   6.549  65.652  1.00  0.00    -0.094 C  
HETATM   10  H2  UNL     1      -9.513   7.433  64.840  1.00  0.00     0.000 HD 
HETATM   11  O   UNL     1      -6.571   6.404  65.563  1.00  0.00    -0.041 OA 
HETATM   12  N   UNL     1      -8.503   7.295  64.790  1.00  0.00    -0.348 N  
HETATM   13  H1  UNL     1      -7.893   7.702  64.080  1.00  0.00     0.000 HD 
ENDBRANCH   8   9
ENDBRANCH   7   8
ENDBRANCH   5   7
BRANCH   5  14
HETATM   14  C   UNL     1     -10.140   8.572  68.260  1.00  0.00    -0.192 C  
BRANCH  14  15
HETATM   15  O   UNL     1      -9.788   9.105  66.974  1.00  0.00    -0.176 OA 
BRANCH  15  16
HETATM   16  C   UNL     1     -10.489  10.187  66.561  1.00  0.00    -0.166 C  
HETATM   17  H1  UNL     1     -10.639  11.335  64.991  1.00  0.00     0.000 HD 
HETATM   18  H2  UNL     1      -9.405  10.030  64.751  1.00  0.00     0.000 HD 
HETATM   19  N   UNL     1     -10.110  10.520  65.302  1.00  0.00    -0.297 N  
HETATM   20  O   UNL     1     -11.383  10.756  67.156  1.00  0.00    -0.372 OA 
ENDBRANCH  15  16
ENDBRANCH  14  15
ENDBRANCH   5  14
TORSDOF 6
ENDMDL
MODEL      137
REMARK 921   NORMALIZED FREE ENERGY PREDICTED BY IDOCK:   -2.99 KCAL/MOL
REMARK 922        TOTAL FREE ENERGY PREDICTED BY IDOCK:   -4.63 KCAL/MOL
REMARK 923 INTER-LIGAND FREE ENERGY PREDICTED BY IDOCK:   -4.23 KCAL/MOL
REMARK 924 INTRA-LIGAND FREE ENERGY PREDICTED BY IDOCK:   -0.40 KCAL/MOL
REMARK 927      BINDING AFFINITY PREDICTED BY RF-SCORE:    0.00 PKD
ROOT
HETATM    1  C   UNL     1     -12.405  11.809  70.684  1.00  0.00    -0.421 C  
HETATM    2  C   UNL     1     -11.759  10.446  70.456  1.00  0.00    -0.434 C  
HETATM    3  C   UNL     1     -11.730   9.524  71.703  1.00  0.00    -0.460 C  
HETATM    4  C   UNL     1     -13.191   9.221  72.099  1.00  0.00    -0.535 C  
HETATM    5  C   UNL     1     -10.840   8.208  71.552  1.00  0.00    -0.290 C  
HETATM    6  C   UNL     1     -11.288   7.367  70.338  1.00  0.00    -0.273 C  
ENDROOT
BRANCH   5   7
HETATM    7  C   UNL     1     -10.974   7.330  72.839  1.00  0.00    -0.337 C  
BRANCH   7   8
HETATM    8  O   UNL     1      -9.958   6.312  72.894  1.00  0.00    -0.167 OA 
BRANCH   8   9
HETATM    9  C   UNL     1     -10.362   5.030  72.757  1.00  0.00    -0.195 C  
HETATM   10  H2  UNL     1     -11.399   5.293  74.575  1.00  0.00     0.000 HD 
HETATM   11  O   UNL     1     -10.079   4.272  71.845  1.00  0.00    -0.181 OA 
HETATM   12  N   UNL     1     -11.148   4.680  73.800  1.00  0.00    -0.291 N  
HETATM   13  H1  UNL     1     -11.453   3.712  73.697  1.00  0.00     0.000 HD 
ENDBRANCH   8   9
ENDBRANCH   7   8
ENDBRANCH   5   7
BRANCH   5  14
HETATM   14  C   UNL     1      -9.315   8.534  71.412  1.00  0.00    -0.211 C  
BRANCH  14  15
HETATM   15  O   UNL     1      -8.708   7.936  70.256  1.00  0.00    -0.136 OA 
BRANCH  15  16
HETATM   16  C   UNL     1      -8.016   8.768  69.443  1.00  0.00    -0.100 C  
HETATM   17  H1  UNL     1      -7.787   9.114  67.537  1.00  0.00     0.000 HD 
HETATM   18  H2  UNL     1      -8.952   7.759  67.837  1.00  0.00     0.000 HD 
HETATM   19  N   UNL     1      -8.309   8.487  68.150  1.00  0.00    -0.126 N  
HETATM   20  O   UNL     1      -7.295   9.690  69.774  1.00  0.00    -0.077 OA 
ENDBRANCH  15  16
ENDBRANCH  14  15
ENDBRANCH   5  14
TORSDOF 6
ENDMDL
MODEL      138
REMARK 921   NORMALIZED FREE ENERGY PREDICTED BY IDOCK:   -2.99 KCAL/MOL
REMARK 922        TOTAL FREE ENERGY PREDICTED BY IDOCK:   -4.63 KCAL/MOL
REMARK 923 INTER-LIGAND FREE ENERGY PREDICTED BY IDOCK:   -4.20 KCAL/MOL
REMARK 924 INTRA-LIGAND FREE ENERGY PREDICTED BY IDOCK:   -0.42 KCAL/MOL
REMARK 927      BINDING AFFINITY PREDICTED BY RF-SCORE:    0.00 PKD
ROOT
HETATM    1  C   UNL     1     -11.279   5.893  71.804  1.00  0.00    -0.311 C  
HETATM    2  C   UNL     1     -11.321   6.877  70.639  1.00  0.00    -0.366 C  
HETATM    3  C   UNL     1     -10.136   7.876  70.588  1.00  0.00    -0.197 C  
HETATM    4  C   UNL     1      -8.840   7.061  70.387  1.00  0.00    -0.155 C  
HETATM    5  C   UNL     1     -10.295   9.063  69.534  1.00  0.00    -0.211 C  
HETATM    6  C   UNL     1     -10.528   8.517  68.109  1.00  0.00    -0.236 C  
ENDROOT
BRANCH   5   7
HETATM    7  C   UNL     1      -8.997   9.936  69.523  1.00  0.00    -0.211 C  
BRANCH   7   8
HETATM    8  O   UNL     1      -9.056  10.959  68.513  1.00  0.00    -0.159 OA 
BRANCH   8   9
HETATM    9  C   UNL     1      -8.019  11.033  67.650  1.00  0.00    -0.115 C  
HETATM   10  H2  UNL     1      -9.372  11.915  66.292  1.00  0.00     0.000 HD 
HETATM   11  O   UNL     1      -6.877  10.657  67.851  1.00  0.00    -0.071 OA 
HETATM   12  N   UNL     1      -8.424  11.594  66.488  1.00  0.00    -0.243 N  
HETATM   13  H1  UNL     1      -7.641  11.649  65.836  1.00  0.00     0.000 HD 
ENDBRANCH   8   9
ENDBRANCH   7   8
ENDBRANCH   5   7
BRANCH   5  14
HETATM   14  C   UNL     1     -11.463  10.036  69.906  1.00  0.00    -0.215 C  
BRANCH  14  15
HETATM   15  O   UNL     1     -11.582  10.271  71.318  1.00  0.00    -0.344 OA 
BRANCH  15  16
HETATM   16  C   UNL     1     -12.833  10.491  71.786  1.00  0.00    -0.454 C  
HETATM   17  H1  UNL     1     -14.355   9.474  72.460  1.00  0.00     0.000 HD 
HETATM   18  H2  UNL     1     -12.973   8.392  72.012  1.00  0.00     0.000 HD 
HETATM   19  N   UNL     1     -13.412   9.308  72.108  1.00  0.00    -0.442 N  
HETATM   20  O   UNL     1     -13.368  11.565  71.981  1.00  0.00    -0.476 OA 
ENDBRANCH  15  16
ENDBRANCH  14  15
ENDBRANCH   5  14
TORSDOF 6
ENDMDL
MODEL      139
REMARK 921   NORMALIZED FREE ENERGY PREDICTED BY IDOCK:   -2.97 KCAL/MOL
REMARK 922        TOTAL FREE ENERGY PREDICTED BY IDOCK:   -4.60 KCAL/MOL
REMARK 923 INTER-LIGAND FREE ENERGY PREDICTED BY IDOCK:   -4.49 KCAL/MOL
REMARK 924 INTRA-LIGAND FREE ENERGY PREDICTED BY IDOCK:   -0.11 KCAL/MOL
REMARK 927      BINDING AFFINITY PREDICTED BY RF-SCORE:    0.00 PKD
ROOT
HETATM    1  C   UNL     1      -7.990  16.251  66.402  1.00  0.00    -0.299 C  
HETATM    2  C   UNL     1      -9.208  15.344  66.546  1.00  0.00    -0.323 C  
HETATM    3  C   UNL     1     -10.047  15.580  67.828  1.00  0.00    -0.232 C  
HETATM    4  C   UNL     1     -10.613  17.015  67.764  1.00  0.00    -0.350 C  
HETATM    5  C   UNL     1     -11.167  14.482  68.117  1.00  0.00    -0.301 C  
HETATM    6  C   UNL     1     -12.136  14.345  66.923  1.00  0.00    -0.386 C  
ENDROOT
BRANCH   5   7
HETATM    7  C   UNL     1     -11.993  14.890  69.381  1.00  0.00    -0.301 C  
BRANCH   7   8
HETATM    8  O   UNL     1     -12.125  13.793  70.304  1.00  0.00    -0.318 OA 
BRANCH   8   9
HETATM    9  C   UNL     1     -13.146  13.851  71.187  1.00  0.00    -0.281 C  
HETATM   10  H2  UNL     1     -12.445  12.006  71.931  1.00  0.00     0.000 HD 
HETATM   11  O   UNL     1     -13.980  14.736  71.278  1.00  0.00    -0.408 OA 
HETATM   12  N   UNL     1     -13.129  12.761  71.986  1.00  0.00    -0.395 N  
HETATM   13  H1  UNL     1     -13.900  12.804  72.652  1.00  0.00     0.000 HD 
ENDBRANCH   8   9
ENDBRANCH   7   8
ENDBRANCH   5   7
BRANCH   5  14
HETATM   14  C   UNL     1     -10.554  13.078  68.441  1.00  0.00    -0.251 C  
BRANCH  14  15
HETATM   15  O   UNL     1      -9.118  13.062  68.407  1.00  0.00    -0.191 OA 
BRANCH  15  16
HETATM   16  C   UNL     1      -8.544  11.976  67.839  1.00  0.00    -0.165 C  
HETATM   17  H1  UNL     1      -8.633  10.962  66.175  1.00  0.00     0.000 HD 
HETATM   18  H2  UNL     1      -9.781  12.364  66.167  1.00  0.00     0.000 HD 
HETATM   19  N   UNL     1      -9.065  11.781  66.603  1.00  0.00    -0.189 N  
HETATM   20  O   UNL     1      -7.643  11.297  68.292  1.00  0.00    -0.101 OA 
ENDBRANCH  15  16
ENDBRANCH  14  15
ENDBRANCH   5  14
TORSDOF 6
ENDMDL
MODEL      140
REMARK 921   NORMALIZED FREE ENERGY PREDICTED BY IDOCK:   -2.97 KCAL/MOL
REMARK 922        TOTAL FREE ENERGY PREDICTED BY IDOCK:   -4.59 KCAL/MOL
REMARK 923 INTER-LIGAND FREE ENERGY PREDICTED BY IDOCK:   -4.16 KCAL/MOL
REMARK 924 INTRA-LIGAND FREE ENERGY PREDICTED BY IDOCK:   -0.44 KCAL/MOL
REMARK 927      BINDING AFFINITY PREDICTED BY RF-SCORE:    0.00 PKD
ROOT
HETATM    1  C   UNL     1     -10.201   9.035  66.260  1.00  0.00    -0.237 C  
HETATM    2  C   UNL     1      -9.667   8.586  67.616  1.00  0.00    -0.201 C  
HETATM    3  C   UNL     1     -10.508   7.486  68.314  1.00  0.00    -0.223 C  
HETATM    4  C   UNL     1     -10.468   6.226  67.423  1.00  0.00    -0.308 C  
HETATM    5  C   UNL     1     -10.111   7.189  69.831  1.00  0.00    -0.197 C  
HETATM    6  C   UNL     1      -8.621   6.809  69.954  1.00  0.00    -0.141 C  
ENDROOT
BRANCH   5   7
HETATM    7  C   UNL     1     -10.972   6.003  70.379  1.00  0.00    -0.328 C  
BRANCH   7   8
HETATM    8  O   UNL     1     -11.257   6.160  71.781  1.00  0.00    -0.262 OA 
BRANCH   8   9
HETATM    9  C   UNL     1     -10.872   5.159  72.603  1.00  0.00    -0.247 C  
HETATM   10  H2  UNL     1      -9.865   4.344  70.939  1.00  0.00     0.000 HD 
HETATM   11  O   UNL     1     -11.151   5.040  73.784  1.00  0.00    -0.308 OA 
HETATM   12  N   UNL     1     -10.112   4.270  71.925  1.00  0.00    -0.182 N  
HETATM   13  H1  UNL     1      -9.822   3.514  72.546  1.00  0.00     0.000 HD 
ENDBRANCH   8   9
ENDBRANCH   7   8
ENDBRANCH   5   7
BRANCH   5  14
HETATM   14  C   UNL     1     -10.408   8.404  70.772  1.00  0.00    -0.195 C  
BRANCH  14  15
HETATM   15  O   UNL     1     -11.458   9.258  70.288  1.00  0.00    -0.243 OA 
BRANCH  15  16
HETATM   16  C   UNL     1     -12.349   9.693  71.209  1.00  0.00    -0.360 C  
HETATM   17  H1  UNL     1     -13.351  11.310  71.640  1.00  0.00     0.000 HD 
HETATM   18  H2  UNL     1     -12.314  11.537  70.172  1.00  0.00     0.000 HD 
HETATM   19  N   UNL     1     -12.680  10.981  70.946  1.00  0.00    -0.363 N  
HETATM   20  O   UNL     1     -12.861   9.046  72.102  1.00  0.00    -0.361 OA 
ENDBRANCH  15  16
ENDBRANCH  14  15
ENDBRANCH   5  14
TORSDOF 6
ENDMDL
MODEL      141
REMARK 921   NORMALIZED FREE ENERGY PREDICTED BY IDOCK:   -2.94 KCAL/MOL
REMARK 922        TOTAL FREE ENERGY PREDICTED BY IDOCK:   -4.56 KCAL/MOL
REMARK 923 INTER-LIGAND FREE ENERGY PREDICTED BY IDOCK:   -3.79 KCAL/MOL
REMARK 924 INTRA-LIGAND FREE ENERGY PREDICTED BY IDOCK:   -0.77 KCAL/MOL
REMARK 927      BINDING AFFINITY PREDICTED BY RF-SCORE:    0.00 PKD
ROOT
HETATM    1  C   UNL     1     -10.236   9.791  67.597  1.00  0.00    -0.261 C  
HETATM    2  C   UNL     1     -10.663   8.702  68.575  1.00  0.00    -0.091 C  
HETATM    3  C   UNL     1     -10.381   9.019  70.067  1.00  0.00    -0.226 C  
HETATM    4  C   UNL     1     -11.215  10.260  70.450  1.00  0.00    -0.407 C  
HETATM    5  C   UNL     1     -10.586   7.796  71.071  1.00  0.00    -0.226 C  
HETATM    6  C   UNL     1     -12.013   7.217  70.961  1.00  0.00    -0.362 C  
ENDROOT
BRANCH   5   7
HETATM    7  C   UNL     1     -10.359   8.278  72.542  1.00  0.00    -0.331 C  
BRANCH   7   8
HETATM    8  O   UNL     1      -9.029   8.794  72.730  1.00  0.00    -0.361 OA 
BRANCH   8   9
HETATM    9  C   UNL     1      -8.359   8.384  73.829  1.00  0.00    -0.107 C  
HETATM   10  H2  UNL     1      -9.998   7.110  74.202  1.00  0.00     0.000 HD 
HETATM   11  O   UNL     1      -7.266   8.775  74.203  1.00  0.00    -0.377 OA 
HETATM   12  N   UNL     1      -9.081   7.453  74.491  1.00  0.00    -0.433 N  
HETATM   13  H1  UNL     1      -8.576   7.144  75.321  1.00  0.00     0.000 HD 
ENDBRANCH   8   9
ENDBRANCH   7   8
ENDBRANCH   5   7
BRANCH   5  14
HETATM   14  C   UNL     1      -9.549   6.649  70.831  1.00  0.00    -0.175 C  
BRANCH  14  15
HETATM   15  O   UNL     1      -9.516   5.679  71.890  1.00  0.00    -0.151 OA 
BRANCH  15  16
HETATM   16  C   UNL     1      -8.537   4.747  71.819  1.00  0.00    -0.122 C  
HETATM   17  H1  UNL     1      -6.630   4.581  72.194  1.00  0.00     0.000 HD 
HETATM   18  H2  UNL     1      -7.244   6.242  72.573  1.00  0.00     0.000 HD 
HETATM   19  N   UNL     1      -7.368   5.283  72.247  1.00  0.00    -0.091 N  
HETATM   20  O   UNL     1      -8.654   3.578  71.504  1.00  0.00    -0.074 OA 
ENDBRANCH  15  16
ENDBRANCH  14  15
ENDBRANCH   5  14
TORSDOF 6
ENDMDL
MODEL      142
REMARK 921   NORMALIZED FREE ENERGY PREDICTED BY IDOCK:   -2.91 KCAL/MOL
REMARK 922        TOTAL FREE ENERGY PREDICTED BY IDOCK:   -4.52 KCAL/MOL
REMARK 923 INTER-LIGAND FREE ENERGY PREDICTED BY IDOCK:   -4.22 KCAL/MOL
REMARK 924 INTRA-LIGAND FREE ENERGY PREDICTED BY IDOCK:   -0.30 KCAL/MOL
REMARK 927      BINDING AFFINITY PREDICTED BY RF-SCORE:    0.00 PKD
ROOT
HETATM    1  C   UNL     1     -10.940  15.404  66.492  1.00  0.00    -0.271 C  
HETATM    2  C   UNL     1      -9.746  16.338  66.326  1.00  0.00    -0.329 C  
HETATM    3  C   UNL     1      -8.609  16.131  67.360  1.00  0.00    -0.196 C  
HETATM    4  C   UNL     1      -8.044  14.708  67.160  1.00  0.00    -0.213 C  
HETATM    5  C   UNL     1      -7.478  17.256  67.359  1.00  0.00    -0.191 C  
HETATM    6  C   UNL     1      -6.839  17.404  65.962  1.00  0.00    -0.220 C  
ENDROOT
BRANCH   5   7
HETATM    7  C   UNL     1      -6.354  16.875  68.379  1.00  0.00    -0.140 C  
BRANCH   7   8
HETATM    8  O   UNL     1      -6.213  17.873  69.407  1.00  0.00    -0.233 OA 
BRANCH   8   9
HETATM    9  C   UNL     1      -5.499  17.532  70.502  1.00  0.00    -0.232 C  
HETATM   10  H2  UNL     1      -5.393  15.593  69.678  1.00  0.00     0.000 HD 
HETATM   11  O   UNL     1      -5.196  18.263  71.430  1.00  0.00    -0.415 OA 
HETATM   12  N   UNL     1      -5.152  16.227  70.440  1.00  0.00    -0.169 N  
HETATM   13  H1  UNL     1      -4.613  15.969  71.267  1.00  0.00     0.000 HD 
ENDBRANCH   8   9
ENDBRANCH   7   8
ENDBRANCH   5   7
BRANCH   5  14
HETATM   14  C   UNL     1      -8.023  18.648  67.822  1.00  0.00    -0.250 C  
BRANCH  14  15
HETATM   15  O   UNL     1      -9.230  18.559  68.595  1.00  0.00    -0.322 OA 
BRANCH  15  16
HETATM   16  C   UNL     1     -10.080  19.609  68.503  1.00  0.00    -0.453 C  
HETATM   17  H1  UNL     1     -11.267  20.433  67.193  1.00  0.00     0.000 HD 
HETATM   18  H2  UNL     1     -10.428  18.979  66.514  1.00  0.00     0.000 HD 
HETATM   19  N   UNL     1     -10.627  19.642  67.263  1.00  0.00    -0.471 N  
HETATM   20  O   UNL     1     -10.397  20.380  69.388  1.00  0.00    -0.112 OA 
ENDBRANCH  15  16
ENDBRANCH  14  15
ENDBRANCH   5  14
TORSDOF 6
ENDMDL
MODEL      143
REMARK 921   NORMALIZED FREE ENERGY PREDICTED BY IDOCK:   -2.91 KCAL/MOL
REMARK 922        TOTAL FREE ENERGY PREDICTED BY IDOCK:   -4.52 KCAL/MOL
REMARK 923 INTER-LIGAND FREE ENERGY PREDICTED BY IDOCK:   -4.11 KCAL/MOL
REMARK 924 INTRA-LIGAND FREE ENERGY PREDICTED BY IDOCK:   -0.40 KCAL/MOL
REMARK 927      BINDING AFFINITY PREDICTED BY RF-SCORE:    0.00 PKD
ROOT
HETATM    1  C   UNL     1     -10.882   6.551  67.603  1.00  0.00    -0.419 C  
HETATM    2  C   UNL     1     -10.428   7.781  68.383  1.00  0.00    -0.207 C  
HETATM    3  C   UNL     1      -9.938   7.491  69.826  1.00  0.00    -0.186 C  
HETATM    4  C   UNL     1      -8.691   6.587  69.727  1.00  0.00    -0.143 C  
HETATM    5  C   UNL     1      -9.702   8.782  70.733  1.00  0.00    -0.257 C  
HETATM    6  C   UNL     1      -8.704   9.756  70.070  1.00  0.00    -0.237 C  
ENDROOT
BRANCH   5   7
HETATM    7  C   UNL     1      -9.125   8.352  72.122  1.00  0.00    -0.239 C  
BRANCH   7   8
HETATM    8  O   UNL     1      -7.804   8.884  72.334  1.00  0.00    -0.368 OA 
BRANCH   8   9
HETATM    9  C   UNL     1      -6.853   8.021  72.756  1.00  0.00    -0.084 C  
HETATM   10  H2  UNL     1      -6.059   9.631  73.864  1.00  0.00     0.000 HD 
HETATM   11  O   UNL     1      -6.750   6.846  72.449  1.00  0.00    -0.061 OA 
HETATM   12  N   UNL     1      -5.997   8.650  73.592  1.00  0.00    -0.111 N  
HETATM   13  H1  UNL     1      -5.279   7.999  73.910  1.00  0.00     0.000 HD 
ENDBRANCH   8   9
ENDBRANCH   7   8
ENDBRANCH   5   7
BRANCH   5  14
HETATM   14  C   UNL     1     -11.033   9.545  71.040  1.00  0.00    -0.353 C  
BRANCH  14  15
HETATM   15  O   UNL     1     -11.988   8.757  71.769  1.00  0.00    -0.303 OA 
BRANCH  15  16
HETATM   16  C   UNL     1     -13.243   9.257  71.849  1.00  0.00    -0.423 C  
HETATM   17  H1  UNL     1     -14.466  10.346  70.788  1.00  0.00     0.000 HD 
HETATM   18  H2  UNL     1     -12.880  10.107  69.945  1.00  0.00     0.000 HD 
HETATM   19  N   UNL     1     -13.520   9.969  70.728  1.00  0.00    -0.201 N  
HETATM   20  O   UNL     1     -14.060   9.061  72.728  1.00  0.00    -0.524 OA 
ENDBRANCH  15  16
ENDBRANCH  14  15
ENDBRANCH   5  14
TORSDOF 6
ENDMDL
MODEL      144
REMARK 921   NORMALIZED FREE ENERGY PREDICTED BY IDOCK:   -2.90 KCAL/MOL
REMARK 922        TOTAL FREE ENERGY PREDICTED BY IDOCK:   -4.50 KCAL/MOL
REMARK 923 INTER-LIGAND FREE ENERGY PREDICTED BY IDOCK:   -4.02 KCAL/MOL
REMARK 924 INTRA-LIGAND FREE ENERGY PREDICTED BY IDOCK:   -0.48 KCAL/MOL
REMARK 927      BINDING AFFINITY PREDICTED BY RF-SCORE:    0.00 PKD
ROOT
HETATM    1  C   UNL     1     -10.165  13.226  66.895  1.00  0.00    -0.250 C  
HETATM    2  C   UNL     1     -10.015  11.742  67.212  1.00  0.00    -0.208 C  
HETATM    3  C   UNL     1     -10.376  11.348  68.668  1.00  0.00    -0.219 C  
HETATM    4  C   UNL     1     -11.872  11.662  68.884  1.00  0.00    -0.392 C  
HETATM    5  C   UNL     1      -9.986   9.858  69.084  1.00  0.00    -0.205 C  
HETATM    6  C   UNL     1     -10.627   8.826  68.132  1.00  0.00    -0.203 C  
ENDROOT
BRANCH   5   7
HETATM    7  C   UNL     1     -10.487   9.568  70.537  1.00  0.00    -0.296 C  
BRANCH   7   8
HETATM    8  O   UNL     1     -11.280   8.368  70.594  1.00  0.00    -0.256 OA 
BRANCH   8   9
HETATM    9  C   UNL     1     -12.191   8.278  71.588  1.00  0.00    -0.313 C  
HETATM   10  H2  UNL     1     -13.304   7.042  70.292  1.00  0.00     0.000 HD 
HETATM   11  O   UNL     1     -12.126   8.811  72.684  1.00  0.00    -0.313 OA 
HETATM   12  N   UNL     1     -13.223   7.498  71.201  1.00  0.00    -0.578 N  
HETATM   13  H1  UNL     1     -13.911   7.430  71.951  1.00  0.00     0.000 HD 
ENDBRANCH   8   9
ENDBRANCH   7   8
ENDBRANCH   5   7
BRANCH   5  14
HETATM   14  C   UNL     1      -8.437   9.634  69.112  1.00  0.00    -0.143 C  
BRANCH  14  15
HETATM   15  O   UNL     1      -7.823  10.046  70.344  1.00  0.00    -0.216 OA 
BRANCH  15  16
HETATM   16  C   UNL     1      -6.742  10.853  70.235  1.00  0.00     0.017 C  
HETATM   17  H1  UNL     1      -5.875  11.984  68.903  1.00  0.00     0.000 HD 
HETATM   18  H2  UNL     1      -7.363  11.190  68.241  1.00  0.00     0.000 HD 
HETATM   19  N   UNL     1      -6.690  11.376  68.985  1.00  0.00    -0.083 N  
HETATM   20  O   UNL     1      -5.957  11.155  71.113  1.00  0.00    -0.364 OA 
ENDBRANCH  15  16
ENDBRANCH  14  15
ENDBRANCH   5  14
TORSDOF 6
ENDMDL
MODEL      145
REMARK 921   NORMALIZED FREE ENERGY PREDICTED BY IDOCK:   -2.89 KCAL/MOL
REMARK 922        TOTAL FREE ENERGY PREDICTED BY IDOCK:   -4.49 KCAL/MOL
REMARK 923 INTER-LIGAND FREE ENERGY PREDICTED BY IDOCK:   -4.22 KCAL/MOL
REMARK 924 INTRA-LIGAND FREE ENERGY PREDICTED BY IDOCK:   -0.26 KCAL/MOL
REMARK 927      BINDING AFFINITY PREDICTED BY RF-SCORE:    0.00 PKD
ROOT
HETATM    1  C   UNL     1      -7.667   5.483  71.731  1.00  0.00    -0.107 C  
HETATM    2  C   UNL     1      -8.278   6.616  70.913  1.00  0.00    -0.124 C  
HETATM    3  C   UNL     1      -9.260   7.527  71.696  1.00  0.00    -0.152 C  
HETATM    4  C   UNL     1      -8.464   8.220  72.821  1.00  0.00    -0.248 C  
HETATM    5  C   UNL     1     -10.095   8.550  70.801  1.00  0.00    -0.237 C  
HETATM    6  C   UNL     1      -9.161   9.452  69.966  1.00  0.00    -0.244 C  
ENDROOT
BRANCH   5   7
HETATM    7  C   UNL     1     -10.970   9.463  71.721  1.00  0.00    -0.217 C  
BRANCH   7   8
HETATM    8  O   UNL     1     -11.597  10.522  70.974  1.00  0.00    -0.330 OA 
BRANCH   8   9
HETATM    9  C   UNL     1     -12.659  11.132  71.544  1.00  0.00    -0.325 C  
HETATM   10  H2  UNL     1     -13.023   9.305  72.533  1.00  0.00     0.000 HD 
HETATM   11  O   UNL     1     -13.018  12.284  71.366  1.00  0.00    -0.366 OA 
HETATM   12  N   UNL     1     -13.300  10.273  72.367  1.00  0.00    -0.573 N  
HETATM   13  H1  UNL     1     -14.102  10.733  72.797  1.00  0.00     0.000 HD 
ENDBRANCH   8   9
ENDBRANCH   7   8
ENDBRANCH   5   7
BRANCH   5  14
HETATM   14  C   UNL     1     -11.095   7.823  69.842  1.00  0.00    -0.136 C  
BRANCH  14  15
HETATM   15  O   UNL     1     -11.547   6.555  70.343  1.00  0.00    -0.375 OA 
BRANCH  15  16
HETATM   16  C   UNL     1     -12.516   6.595  71.287  1.00  0.00    -0.228 C  
HETATM   17  H1  UNL     1     -12.857   5.903  73.079  1.00  0.00     0.000 HD 
HETATM   18  H2  UNL     1     -11.239   5.378  72.456  1.00  0.00     0.000 HD 
HETATM   19  N   UNL     1     -12.127   5.874  72.368  1.00  0.00    -0.193 N  
HETATM   20  O   UNL     1     -13.554   7.227  71.252  1.00  0.00    -0.365 OA 
ENDBRANCH  15  16
ENDBRANCH  14  15
ENDBRANCH   5  14
TORSDOF 6
ENDMDL
MODEL      146
REMARK 921   NORMALIZED FREE ENERGY PREDICTED BY IDOCK:   -2.87 KCAL/MOL
REMARK 922        TOTAL FREE ENERGY PREDICTED BY IDOCK:   -4.46 KCAL/MOL
REMARK 923 INTER-LIGAND FREE ENERGY PREDICTED BY IDOCK:   -4.05 KCAL/MOL
REMARK 924 INTRA-LIGAND FREE ENERGY PREDICTED BY IDOCK:   -0.41 KCAL/MOL
REMARK 927      BINDING AFFINITY PREDICTED BY RF-SCORE:    0.00 PKD
ROOT
HETATM    1  C   UNL     1      -9.095   8.810  65.883  1.00  0.00    -0.271 C  
HETATM    2  C   UNL     1      -9.677   8.030  67.058  1.00  0.00    -0.275 C  
HETATM    3  C   UNL     1     -10.043   8.893  68.294  1.00  0.00    -0.219 C  
HETATM    4  C   UNL     1     -11.152   9.878  67.870  1.00  0.00    -0.216 C  
HETATM    5  C   UNL     1     -10.411   8.069  69.610  1.00  0.00    -0.220 C  
HETATM    6  C   UNL     1     -11.570   7.085  69.347  1.00  0.00     0.064 C  
ENDROOT
BRANCH   5   7
HETATM    7  C   UNL     1     -10.845   9.054  70.744  1.00  0.00    -0.251 C  
BRANCH   7   8
HETATM    8  O   UNL     1     -11.961   8.539  71.494  1.00  0.00    -0.279 OA 
BRANCH   8   9
HETATM    9  C   UNL     1     -12.889   9.430  71.907  1.00  0.00    -0.412 C  
HETATM   10  H2  UNL     1     -13.607   7.907  73.178  1.00  0.00     0.000 HD 
HETATM   11  O   UNL     1     -13.017  10.579  71.519  1.00  0.00    -0.396 OA 
HETATM   12  N   UNL     1     -13.691   8.865  72.837  1.00  0.00    -0.906 N  
HETATM   13  H1  UNL     1     -14.392   9.537  73.148  1.00  0.00     0.000 HD 
ENDBRANCH   8   9
ENDBRANCH   7   8
ENDBRANCH   5   7
BRANCH   5  14
HETATM   14  C   UNL     1      -9.186   7.276  70.177  1.00  0.00    -0.152 C  
BRANCH  14  15
HETATM   15  O   UNL     1      -9.550   6.288  71.155  1.00  0.00    -0.173 OA 
BRANCH  15  16
HETATM   16  C   UNL     1      -8.673   6.096  72.168  1.00  0.00    -0.131 C  
HETATM   17  H1  UNL     1      -8.185   4.712  73.453  1.00  0.00     0.000 HD 
HETATM   18  H2  UNL     1      -9.533   4.174  72.368  1.00  0.00     0.000 HD 
HETATM   19  N   UNL     1      -8.846   4.857  72.690  1.00  0.00    -0.121 N  
HETATM   20  O   UNL     1      -7.795   6.853  72.536  1.00  0.00    -0.095 OA 
ENDBRANCH  15  16
ENDBRANCH  14  15
ENDBRANCH   5  14
TORSDOF 6
ENDMDL
MODEL      147
REMARK 921   NORMALIZED FREE ENERGY PREDICTED BY IDOCK:   -2.86 KCAL/MOL
REMARK 922        TOTAL FREE ENERGY PREDICTED BY IDOCK:   -4.45 KCAL/MOL
REMARK 923 INTER-LIGAND FREE ENERGY PREDICTED BY IDOCK:   -4.04 KCAL/MOL
REMARK 924 INTRA-LIGAND FREE ENERGY PREDICTED BY IDOCK:   -0.40 KCAL/MOL
REMARK 927      BINDING AFFINITY PREDICTED BY RF-SCORE:    0.00 PKD
ROOT
HETATM    1  C   UNL     1     -13.459   9.750  72.082  1.00  0.00    -0.491 C  
HETATM    2  C   UNL     1     -12.601   9.550  70.838  1.00  0.00    -0.251 C  
HETATM    3  C   UNL     1     -11.071   9.580  71.091  1.00  0.00    -0.450 C  
HETATM    4  C   UNL     1     -10.724   8.397  72.019  1.00  0.00    -0.387 C  
HETATM    5  C   UNL     1     -10.167   9.626  69.777  1.00  0.00    -0.262 C  
HETATM    6  C   UNL     1     -10.479   8.439  68.842  1.00  0.00    -0.208 C  
ENDROOT
BRANCH   5   7
HETATM    7  C   UNL     1      -8.656   9.560  70.174  1.00  0.00    -0.224 C  
BRANCH   7   8
HETATM    8  O   UNL     1      -7.809  10.037  69.112  1.00  0.00    -0.093 OA 
BRANCH   8   9
HETATM    9  C   UNL     1      -6.846   9.200  68.669  1.00  0.00    -0.062 C  
HETATM   10  H2  UNL     1      -6.142   9.153  70.657  1.00  0.00     0.000 HD 
HETATM   11  O   UNL     1      -6.694   8.808  67.524  1.00  0.00    -0.065 OA 
HETATM   12  N   UNL     1      -6.039   8.839  69.691  1.00  0.00    -0.032 N  
HETATM   13  H1  UNL     1      -5.312   8.207  69.357  1.00  0.00     0.000 HD 
ENDBRANCH   8   9
ENDBRANCH   7   8
ENDBRANCH   5   7
BRANCH   5  14
HETATM   14  C   UNL     1     -10.343  10.963  68.981  1.00  0.00    -0.211 C  
BRANCH  14  15
HETATM   15  O   UNL     1     -11.191  10.833  67.828  1.00  0.00    -0.297 OA 
BRANCH  15  16
HETATM   16  C   UNL     1     -11.288  11.921  67.030  1.00  0.00    -0.329 C  
HETATM   17  H1  UNL     1     -10.283  12.800  65.607  1.00  0.00     0.000 HD 
HETATM   18  H2  UNL     1      -9.444  11.306  66.195  1.00  0.00     0.000 HD 
HETATM   19  N   UNL     1     -10.210  11.980  66.209  1.00  0.00    -0.217 N  
HETATM   20  O   UNL     1     -12.213  12.708  66.965  1.00  0.00    -0.466 OA 
ENDBRANCH  15  16
ENDBRANCH  14  15
ENDBRANCH   5  14
TORSDOF 6
ENDMDL
MODEL      148
REMARK 921   NORMALIZED FREE ENERGY PREDICTED BY IDOCK:   -2.86 KCAL/MOL
REMARK 922        TOTAL FREE ENERGY PREDICTED BY IDOCK:   -4.45 KCAL/MOL
REMARK 923 INTER-LIGAND FREE ENERGY PREDICTED BY IDOCK:   -4.03 KCAL/MOL
REMARK 924 INTRA-LIGAND FREE ENERGY PREDICTED BY IDOCK:   -0.42 KCAL/MOL
REMARK 927      BINDING AFFINITY PREDICTED BY RF-SCORE:    0.00 PKD
ROOT
HETATM    1  C   UNL     1     -10.162   5.573  68.933  1.00  0.00    -0.284 C  
HETATM    2  C   UNL     1     -10.647   7.017  68.855  1.00  0.00    -0.233 C  
HETATM    3  C   UNL     1      -9.522   8.084  68.885  1.00  0.00    -0.151 C  
HETATM    4  C   UNL     1      -8.646   7.879  67.630  1.00  0.00    -0.127 C  
HETATM    5  C   UNL     1     -10.019   9.589  69.059  1.00  0.00    -0.185 C  
HETATM    6  C   UNL     1     -11.024   9.977  67.952  1.00  0.00    -0.311 C  
ENDROOT
BRANCH   5   7
HETATM    7  C   UNL     1      -8.796  10.561  68.980  1.00  0.00    -0.169 C  
BRANCH   7   8
HETATM    8  O   UNL     1      -9.087  11.712  68.164  1.00  0.00    -0.170 OA 
BRANCH   8   9
HETATM    9  C   UNL     1      -8.179  12.041  67.219  1.00  0.00    -0.173 C  
HETATM   10  H2  UNL     1      -9.813  12.272  65.906  1.00  0.00     0.000 HD 
HETATM   11  O   UNL     1      -6.969  12.095  67.361  1.00  0.00    -0.121 OA 
HETATM   12  N   UNL     1      -8.804  12.311  66.052  1.00  0.00    -0.415 N  
HETATM   13  H1  UNL     1      -8.119  12.560  65.338  1.00  0.00     0.000 HD 
ENDBRANCH   8   9
ENDBRANCH   7   8
ENDBRANCH   5   7
BRANCH   5  14
HETATM   14  C   UNL     1     -10.677   9.841  70.456  1.00  0.00    -0.317 C  
BRANCH  14  15
HETATM   15  O   UNL     1     -10.104   9.047  71.508  1.00  0.00    -0.301 OA 
BRANCH  15  16
HETATM   16  C   UNL     1     -10.977   8.427  72.335  1.00  0.00    -0.355 C  
HETATM   17  H1  UNL     1     -12.891   8.403  72.709  1.00  0.00     0.000 HD 
HETATM   18  H2  UNL     1     -12.483   9.565  71.380  1.00  0.00     0.000 HD 
HETATM   19  N   UNL     1     -12.233   8.870  72.085  1.00  0.00    -0.369 N  
HETATM   20  O   UNL     1     -10.732   7.547  73.139  1.00  0.00    -0.348 OA 
ENDBRANCH  15  16
ENDBRANCH  14  15
ENDBRANCH   5  14
TORSDOF 6
ENDMDL
MODEL      149
REMARK 921   NORMALIZED FREE ENERGY PREDICTED BY IDOCK:   -2.84 KCAL/MOL
REMARK 922        TOTAL FREE ENERGY PREDICTED BY IDOCK:   -4.42 KCAL/MOL
REMARK 923 INTER-LIGAND FREE ENERGY PREDICTED BY IDOCK:   -3.93 KCAL/MOL
REMARK 924 INTRA-LIGAND FREE ENERGY PREDICTED BY IDOCK:   -0.49 KCAL/MOL
REMARK 927      BINDING AFFINITY PREDICTED BY RF-SCORE:    0.00 PKD
ROOT
HETATM    1  C   UNL     1      -7.589  10.328  69.710  1.00  0.00    -0.168 C  
HETATM    2  C   UNL     1      -8.268   9.025  70.122  1.00  0.00    -0.140 C  
HETATM    3  C   UNL     1      -9.464   9.194  71.094  1.00  0.00    -0.331 C  
HETATM    4  C   UNL     1     -10.554  10.008  70.365  1.00  0.00    -0.343 C  
HETATM    5  C   UNL     1     -10.019   7.839  71.728  1.00  0.00    -0.219 C  
HETATM    6  C   UNL     1     -10.427   6.834  70.629  1.00  0.00    -0.243 C  
ENDROOT
BRANCH   5   7
HETATM    7  C   UNL     1     -11.274   8.144  72.611  1.00  0.00    -0.378 C  
BRANCH   7   8
HETATM    8  O   UNL     1     -12.396   7.325  72.236  1.00  0.00    -0.227 OA 
BRANCH   8   9
HETATM    9  C   UNL     1     -13.582   7.948  72.059  1.00  0.00    -0.213 C  
HETATM   10  H2  UNL     1     -13.071   9.128  73.731  1.00  0.00     0.000 HD 
HETATM   11  O   UNL     1     -14.408   7.707  71.195  1.00  0.00    -0.352 OA 
HETATM   12  N   UNL     1     -13.745   8.907  72.997  1.00  0.00    -0.894 N  
HETATM   13  H1  UNL     1     -14.640   9.377  72.865  1.00  0.00     0.000 HD 
ENDBRANCH   8   9
ENDBRANCH   7   8
ENDBRANCH   5   7
BRANCH   5  14
HETATM   14  C   UNL     1      -8.980   7.158  72.681  1.00  0.00    -0.126 C  
BRANCH  14  15
HETATM   15  O   UNL     1      -8.441   5.934  72.156  1.00  0.00    -0.124 OA 
BRANCH  15  16
HETATM   16  C   UNL     1      -7.093   5.867  72.056  1.00  0.00    -0.087 C  
HETATM   17  H1  UNL     1      -5.682   4.520  72.024  1.00  0.00     0.000 HD 
HETATM   18  H2  UNL     1      -7.322   3.769  72.194  1.00  0.00     0.000 HD 
HETATM   19  N   UNL     1      -6.698   4.571  72.100  1.00  0.00    -0.040 N  
HETATM   20  O   UNL     1      -6.320   6.789  71.874  1.00  0.00    -0.047 OA 
ENDBRANCH  15  16
ENDBRANCH  14  15
ENDBRANCH   5  14
TORSDOF 6
ENDMDL
MODEL      150
REMARK 921   NORMALIZED FREE ENERGY PREDICTED BY IDOCK:   -2.82 KCAL/MOL
REMARK 922        TOTAL FREE ENERGY PREDICTED BY IDOCK:   -4.40 KCAL/MOL
REMARK 923 INTER-LIGAND FREE ENERGY PREDICTED BY IDOCK:   -4.08 KCAL/MOL
REMARK 924 INTRA-LIGAND FREE ENERGY PREDICTED BY IDOCK:   -0.32 KCAL/MOL
REMARK 927      BINDING AFFINITY PREDICTED BY RF-SCORE:    0.00 PKD
ROOT
HETATM    1  C   UNL     1      -8.174   8.901  69.032  1.00  0.00    -0.116 C  
HETATM    2  C   UNL     1      -9.083  10.115  69.195  1.00  0.00    -0.189 C  
HETATM    3  C   UNL     1      -9.919  10.475  67.940  1.00  0.00    -0.193 C  
HETATM    4  C   UNL     1     -10.868   9.292  67.650  1.00  0.00    -0.188 C  
HETATM    5  C   UNL     1     -10.676  11.878  68.009  1.00  0.00    -0.242 C  
HETATM    6  C   UNL     1     -11.600  11.953  69.243  1.00  0.00    -0.376 C  
ENDROOT
BRANCH   5   7
HETATM    7  C   UNL     1     -11.549  12.070  66.725  1.00  0.00    -0.321 C  
BRANCH   7   8
HETATM    8  O   UNL     1     -10.804  11.771  65.530  1.00  0.00    -0.284 OA 
BRANCH   8   9
HETATM    9  C   UNL     1     -11.181  12.401  64.396  1.00  0.00    -0.332 C  
HETATM   10  H2  UNL     1      -9.502  13.646  64.674  1.00  0.00     0.000 HD 
HETATM   11  O   UNL     1     -12.151  12.136  63.705  1.00  0.00    -0.478 OA 
HETATM   12  N   UNL     1     -10.319  13.402  64.114  1.00  0.00    -0.638 N  
HETATM   13  H1  UNL     1     -10.603  13.878  63.258  1.00  0.00     0.000 HD 
ENDBRANCH   8   9
ENDBRANCH   7   8
ENDBRANCH   5   7
BRANCH   5  14
HETATM   14  C   UNL     1      -9.684  13.088  68.039  1.00  0.00    -0.224 C  
BRANCH  14  15
HETATM   15  O   UNL     1      -8.415  12.801  67.430  1.00  0.00    -0.172 OA 
BRANCH  15  16
HETATM   16  C   UNL     1      -7.317  13.185  68.122  1.00  0.00    -0.119 C  
HETATM   17  H1  UNL     1      -5.443  12.679  68.313  1.00  0.00     0.000 HD 
HETATM   18  H2  UNL     1      -6.305  11.619  67.123  1.00  0.00     0.000 HD 
HETATM   19  N   UNL     1      -6.270  12.390  67.792  1.00  0.00    -0.095 N  
HETATM   20  O   UNL     1      -7.215  14.136  68.873  1.00  0.00    -0.112 OA 
ENDBRANCH  15  16
ENDBRANCH  14  15
ENDBRANCH   5  14
TORSDOF 6
ENDMDL
MODEL      151
REMARK 921   NORMALIZED FREE ENERGY PREDICTED BY IDOCK:   -2.82 KCAL/MOL
REMARK 922        TOTAL FREE ENERGY PREDICTED BY IDOCK:   -4.40 KCAL/MOL
REMARK 923 INTER-LIGAND FREE ENERGY PREDICTED BY IDOCK:   -3.70 KCAL/MOL
REMARK 924 INTRA-LIGAND FREE ENERGY PREDICTED BY IDOCK:   -0.70 KCAL/MOL
REMARK 927      BINDING AFFINITY PREDICTED BY RF-SCORE:    0.00 PKD
ROOT
HETATM    1  C   UNL     1      -9.891   4.819  65.693  1.00  0.00    -0.193 C  
HETATM    2  C   UNL     1     -10.315   5.034  67.143  1.00  0.00    -0.217 C  
HETATM    3  C   UNL     1      -9.827   6.365  67.772  1.00  0.00    -0.136 C  
HETATM    4  C   UNL     1     -10.472   7.524  66.982  1.00  0.00    -0.409 C  
HETATM    5  C   UNL     1     -10.043   6.489  69.348  1.00  0.00    -0.198 C  
HETATM    6  C   UNL     1     -11.526   6.291  69.726  1.00  0.00    -0.449 C  
ENDROOT
BRANCH   5   7
HETATM    7  C   UNL     1      -9.594   7.907  69.831  1.00  0.00    -0.168 C  
BRANCH   7   8
HETATM    8  O   UNL     1     -10.436   8.396  70.891  1.00  0.00    -0.190 OA 
BRANCH   8   9
HETATM    9  C   UNL     1      -9.919   8.394  72.139  1.00  0.00    -0.306 C  
HETATM   10  H2  UNL     1     -11.787   7.654  72.781  1.00  0.00     0.000 HD 
HETATM   11  O   UNL     1      -8.794   8.740  72.461  1.00  0.00    -0.402 OA 
HETATM   12  N   UNL     1     -10.840   7.948  73.022  1.00  0.00    -0.385 N  
HETATM   13  H1  UNL     1     -10.450   7.947  73.964  1.00  0.00     0.000 HD 
ENDBRANCH   8   9
ENDBRANCH   7   8
ENDBRANCH   5   7
BRANCH   5  14
HETATM   14  C   UNL     1      -9.170   5.467  70.150  1.00  0.00    -0.140 C  
BRANCH  14  15
HETATM   15  O   UNL     1      -9.834   4.937  71.309  1.00  0.00    -0.167 OA 
BRANCH  15  16
HETATM   16  C   UNL     1      -9.059   4.725  72.398  1.00  0.00    -0.126 C  
HETATM   17  H1  UNL     1      -7.253   5.117  73.022  1.00  0.00     0.000 HD 
HETATM   18  H2  UNL     1      -7.545   5.775  71.359  1.00  0.00     0.000 HD 
HETATM   19  N   UNL     1      -7.836   5.277  72.201  1.00  0.00    -0.103 N  
HETATM   20  O   UNL     1      -9.387   4.199  73.445  1.00  0.00    -0.110 OA 
ENDBRANCH  15  16
ENDBRANCH  14  15
ENDBRANCH   5  14
TORSDOF 6
ENDMDL
MODEL      152
REMARK 921   NORMALIZED FREE ENERGY PREDICTED BY IDOCK:   -2.81 KCAL/MOL
REMARK 922        TOTAL FREE ENERGY PREDICTED BY IDOCK:   -4.38 KCAL/MOL
REMARK 923 INTER-LIGAND FREE ENERGY PREDICTED BY IDOCK:   -3.87 KCAL/MOL
REMARK 924 INTRA-LIGAND FREE ENERGY PREDICTED BY IDOCK:   -0.51 KCAL/MOL
REMARK 927      BINDING AFFINITY PREDICTED BY RF-SCORE:    0.00 PKD
ROOT
HETATM    1  C   UNL     1      -9.257   9.073  65.722  1.00  0.00    -0.293 C  
HETATM    2  C   UNL     1      -8.932   8.574  67.126  1.00  0.00    -0.145 C  
HETATM    3  C   UNL     1     -10.168   8.210  67.990  1.00  0.00    -0.263 C  
HETATM    4  C   UNL     1     -10.897   7.037  67.299  1.00  0.00    -0.403 C  
HETATM    5  C   UNL     1      -9.861   7.932  69.530  1.00  0.00    -0.176 C  
HETATM    6  C   UNL     1      -8.809   6.814  69.697  1.00  0.00    -0.144 C  
ENDROOT
BRANCH   5   7
HETATM    7  C   UNL     1     -11.173   7.489  70.258  1.00  0.00    -0.236 C  
BRANCH   7   8
HETATM    8  O   UNL     1     -11.935   8.623  70.710  1.00  0.00    -0.240 OA 
BRANCH   8   9
HETATM    9  C   UNL     1     -12.688   8.457  71.820  1.00  0.00    -0.342 C  
HETATM   10  H2  UNL     1     -11.421   6.836  72.287  1.00  0.00     0.000 HD 
HETATM   11  O   UNL     1     -13.651   9.126  72.153  1.00  0.00    -0.413 OA 
HETATM   12  N   UNL     1     -12.223   7.413  72.542  1.00  0.00    -0.525 N  
HETATM   13  H1  UNL     1     -12.791   7.286  73.379  1.00  0.00     0.000 HD 
ENDBRANCH   8   9
ENDBRANCH   7   8
ENDBRANCH   5   7
BRANCH   5  14
HETATM   14  C   UNL     1      -9.367   9.214  70.279  1.00  0.00    -0.220 C  
BRANCH  14  15
HETATM   15  O   UNL     1      -7.948   9.231  70.507  1.00  0.00    -0.135 OA 
BRANCH  15  16
HETATM   16  C   UNL     1      -7.263  10.253  69.946  1.00  0.00    -0.159 C  
HETATM   17  H1  UNL     1      -5.428  10.904  69.818  1.00  0.00     0.000 HD 
HETATM   18  H2  UNL     1      -5.533   9.385  70.800  1.00  0.00     0.000 HD 
HETATM   19  N   UNL     1      -5.945  10.133  70.241  1.00  0.00    -0.069 N  
HETATM   20  O   UNL     1      -7.702  11.123  69.217  1.00  0.00    -0.109 OA 
ENDBRANCH  15  16
ENDBRANCH  14  15
ENDBRANCH   5  14
TORSDOF 6
ENDMDL
MODEL      153
REMARK 921   NORMALIZED FREE ENERGY PREDICTED BY IDOCK:   -2.80 KCAL/MOL
REMARK 922        TOTAL FREE ENERGY PREDICTED BY IDOCK:   -4.37 KCAL/MOL
REMARK 923 INTER-LIGAND FREE ENERGY PREDICTED BY IDOCK:   -4.12 KCAL/MOL
REMARK 924 INTRA-LIGAND FREE ENERGY PREDICTED BY IDOCK:   -0.24 KCAL/MOL
REMARK 927      BINDING AFFINITY PREDICTED BY RF-SCORE:    0.00 PKD
ROOT
HETATM    1  C   UNL     1     -11.897  10.606  69.239  1.00  0.00    -0.309 C  
HETATM    2  C   UNL     1     -10.905  10.708  68.085  1.00  0.00    -0.291 C  
HETATM    3  C   UNL     1     -10.384  12.141  67.800  1.00  0.00    -0.217 C  
HETATM    4  C   UNL     1      -9.609  12.617  69.047  1.00  0.00     0.369 C  
HETATM    5  C   UNL     1      -9.551  12.303  66.449  1.00  0.00    -0.242 C  
HETATM    6  C   UNL     1      -8.348  11.335  66.415  1.00  0.00    -0.159 C  
ENDROOT
BRANCH   5   7
HETATM    7  C   UNL     1      -9.011  13.767  66.335  1.00  0.00     0.021 C  
BRANCH   7   8
HETATM    8  O   UNL     1     -10.085  14.722  66.257  1.00  0.00    -0.262 OA 
BRANCH   8   9
HETATM    9  C   UNL     1      -9.819  15.983  66.663  1.00  0.00    -0.260 C  
HETATM   10  H2  UNL     1      -7.880  15.693  65.885  1.00  0.00     0.000 HD 
HETATM   11  O   UNL     1     -10.588  16.742  67.228  1.00  0.00    -0.320 OA 
HETATM   12  N   UNL     1      -8.544  16.308  66.355  1.00  0.00    -0.299 N  
HETATM   13  H1  UNL     1      -8.343  17.260  66.663  1.00  0.00     0.000 HD 
ENDBRANCH   8   9
ENDBRANCH   7   8
ENDBRANCH   5   7
BRANCH   5  14
HETATM   14  C   UNL     1     -10.430  12.070  65.176  1.00  0.00    -0.289 C  
BRANCH  14  15
HETATM   15  O   UNL     1     -11.840  12.043  65.454  1.00  0.00    -0.338 OA 
BRANCH  15  16
HETATM   16  C   UNL     1     -12.635  12.710  64.585  1.00  0.00    -0.440 C  
HETATM   17  H1  UNL     1     -13.530  14.436  64.433  1.00  0.00     0.000 HD 
HETATM   18  H2  UNL     1     -12.604  14.296  65.984  1.00  0.00     0.000 HD 
HETATM   19  N   UNL     1     -12.930  13.934  65.088  1.00  0.00    -0.338 N  
HETATM   20  O   UNL     1     -12.990  12.344  63.481  1.00  0.00    -0.750 OA 
ENDBRANCH  15  16
ENDBRANCH  14  15
ENDBRANCH   5  14
TORSDOF 6
ENDMDL
MODEL      154
REMARK 921   NORMALIZED FREE ENERGY PREDICTED BY IDOCK:   -2.77 KCAL/MOL
REMARK 922        TOTAL FREE ENERGY PREDICTED BY IDOCK:   -4.33 KCAL/MOL
REMARK 923 INTER-LIGAND FREE ENERGY PREDICTED BY IDOCK:   -3.71 KCAL/MOL
REMARK 924 INTRA-LIGAND FREE ENERGY PREDICTED BY IDOCK:   -0.61 KCAL/MOL
REMARK 927      BINDING AFFINITY PREDICTED BY RF-SCORE:    0.00 PKD
ROOT
HETATM    1  C   UNL     1      -6.282  10.729  69.414  1.00  0.00    -0.059 C  
HETATM    2  C   UNL     1      -7.232   9.608  69.824  1.00  0.00    -0.094 C  
HETATM    3  C   UNL     1      -8.690  10.058  70.099  1.00  0.00    -0.032 C  
HETATM    4  C   UNL     1      -9.266  10.620  68.782  1.00  0.00    -0.182 C  
HETATM    5  C   UNL     1      -9.626   8.953  70.767  1.00  0.00    -0.283 C  
HETATM    6  C   UNL     1      -9.670   7.668  69.914  1.00  0.00    -0.175 C  
ENDROOT
BRANCH   5   7
HETATM    7  C   UNL     1     -11.082   9.507  70.903  1.00  0.00    -0.336 C  
BRANCH   7   8
HETATM    8  O   UNL     1     -11.782   8.894  72.002  1.00  0.00    -0.350 OA 
BRANCH   8   9
HETATM    9  C   UNL     1     -12.813   8.076  71.695  1.00  0.00    -0.329 C  
HETATM   10  H2  UNL     1     -13.882   9.820  71.179  1.00  0.00     0.000 HD 
HETATM   11  O   UNL     1     -12.829   6.860  71.786  1.00  0.00    -0.362 OA 
HETATM   12  N   UNL     1     -13.867   8.803  71.263  1.00  0.00    -0.576 N  
HETATM   13  H1  UNL     1     -14.646   8.187  71.032  1.00  0.00     0.000 HD 
ENDBRANCH   8   9
ENDBRANCH   7   8
ENDBRANCH   5   7
BRANCH   5  14
HETATM   14  C   UNL     1      -9.170   8.586  72.219  1.00  0.00    -0.272 C  
BRANCH  14  15
HETATM   15  O   UNL     1      -8.798   7.206  72.369  1.00  0.00    -0.127 OA 
BRANCH  15  16
HETATM   16  C   UNL     1      -9.579   6.459  73.183  1.00  0.00    -0.150 C  
HETATM   17  H1  UNL     1     -10.432   6.589  74.933  1.00  0.00     0.000 HD 
HETATM   18  H2  UNL     1      -9.507   8.093  74.526  1.00  0.00     0.000 HD 
HETATM   19  N   UNL     1      -9.844   7.152  74.318  1.00  0.00    -0.217 N  
HETATM   20  O   UNL     1     -10.058   5.367  72.947  1.00  0.00    -0.169 OA 
ENDBRANCH  15  16
ENDBRANCH  14  15
ENDBRANCH   5  14
TORSDOF 6
ENDMDL
MODEL      155
REMARK 921   NORMALIZED FREE ENERGY PREDICTED BY IDOCK:   -2.75 KCAL/MOL
REMARK 922        TOTAL FREE ENERGY PREDICTED BY IDOCK:   -4.30 KCAL/MOL
REMARK 923 INTER-LIGAND FREE ENERGY PREDICTED BY IDOCK:   -3.80 KCAL/MOL
REMARK 924 INTRA-LIGAND FREE ENERGY PREDICTED BY IDOCK:   -0.50 KCAL/MOL
REMARK 927      BINDING AFFINITY PREDICTED BY RF-SCORE:    0.00 PKD
ROOT
HETATM    1  C   UNL     1      -9.297   4.397  66.893  1.00  0.00    -0.167 C  
HETATM    2  C   UNL     1      -9.933   5.003  68.139  1.00  0.00    -0.190 C  
HETATM    3  C   UNL     1      -9.987   6.553  68.154  1.00  0.00    -0.145 C  
HETATM    4  C   UNL     1     -10.881   7.005  66.979  1.00  0.00    -0.413 C  
HETATM    5  C   UNL     1     -10.413   7.203  69.547  1.00  0.00    -0.236 C  
HETATM    6  C   UNL     1     -11.782   6.668  70.018  1.00  0.00    -0.378 C  
ENDROOT
BRANCH   5   7
HETATM    7  C   UNL     1     -10.516   8.757  69.394  1.00  0.00    -0.222 C  
BRANCH   7   8
HETATM    8  O   UNL     1     -10.904   9.385  70.630  1.00  0.00    -0.236 OA 
BRANCH   8   9
HETATM    9  C   UNL     1     -11.829  10.368  70.556  1.00  0.00    -0.337 C  
HETATM   10  H2  UNL     1     -12.544   9.665  72.412  1.00  0.00     0.000 HD 
HETATM   11  O   UNL     1     -11.957  11.180  69.656  1.00  0.00    -0.308 OA 
HETATM   12  N   UNL     1     -12.627  10.334  71.646  1.00  0.00    -0.421 N  
HETATM   13  H1  UNL     1     -13.326  11.075  71.591  1.00  0.00     0.000 HD 
ENDBRANCH   8   9
ENDBRANCH   7   8
ENDBRANCH   5   7
BRANCH   5  14
HETATM   14  C   UNL     1      -9.353   6.952  70.670  1.00  0.00    -0.162 C  
BRANCH  14  15
HETATM   15  O   UNL     1      -9.837   6.117  71.735  1.00  0.00    -0.165 OA 
BRANCH  15  16
HETATM   16  C   UNL     1      -9.183   4.947  71.924  1.00  0.00    -0.140 C  
HETATM   17  H1  UNL     1      -9.516   3.031  71.772  1.00  0.00     0.000 HD 
HETATM   18  H2  UNL     1     -10.975   4.003  71.313  1.00  0.00     0.000 HD 
HETATM   19  N   UNL     1     -10.009   3.913  71.629  1.00  0.00    -0.179 N  
HETATM   20  O   UNL     1      -8.016   4.796  72.231  1.00  0.00    -0.101 OA 
ENDBRANCH  15  16
ENDBRANCH  14  15
ENDBRANCH   5  14
TORSDOF 6
ENDMDL
MODEL      156
REMARK 921   NORMALIZED FREE ENERGY PREDICTED BY IDOCK:   -2.74 KCAL/MOL
REMARK 922        TOTAL FREE ENERGY PREDICTED BY IDOCK:   -4.29 KCAL/MOL
REMARK 923 INTER-LIGAND FREE ENERGY PREDICTED BY IDOCK:   -3.97 KCAL/MOL
REMARK 924 INTRA-LIGAND FREE ENERGY PREDICTED BY IDOCK:   -0.33 KCAL/MOL
REMARK 927      BINDING AFFINITY PREDICTED BY RF-SCORE:    0.00 PKD
ROOT
HETATM    1  C   UNL     1     -13.123  10.557  71.708  1.00  0.00    -0.570 C  
HETATM    2  C   UNL     1     -12.629  10.463  70.268  1.00  0.00    -0.262 C  
HETATM    3  C   UNL     1     -11.107  10.698  70.086  1.00  0.00    -0.341 C  
HETATM    4  C   UNL     1     -10.363   9.579  70.846  1.00  0.00    -0.372 C  
HETATM    5  C   UNL     1     -10.621  10.853  68.574  1.00  0.00    -0.219 C  
HETATM    6  C   UNL     1     -11.025   9.627  67.729  1.00  0.00    -0.203 C  
ENDROOT
BRANCH   5   7
HETATM    7  C   UNL     1      -9.063  10.991  68.533  1.00  0.00    -0.173 C  
BRANCH   7   8
HETATM    8  O   UNL     1      -8.482  10.130  67.537  1.00  0.00    -0.118 OA 
BRANCH   8   9
HETATM    9  C   UNL     1      -7.688   9.128  67.976  1.00  0.00    -0.092 C  
HETATM   10  H2  UNL     1      -7.656   8.445  65.981  1.00  0.00     0.000 HD 
HETATM   11  O   UNL     1      -7.312   8.948  69.121  1.00  0.00    -0.069 OA 
HETATM   12  N   UNL     1      -7.354   8.319  66.947  1.00  0.00    -0.083 N  
HETATM   13  H1  UNL     1      -6.756   7.562  67.278  1.00  0.00     0.000 HD 
ENDBRANCH   8   9
ENDBRANCH   7   8
ENDBRANCH   5   7
BRANCH   5  14
HETATM   14  C   UNL     1     -11.184  12.148  67.899  1.00  0.00    -0.272 C  
BRANCH  14  15
HETATM   15  O   UNL     1     -10.270  12.749  66.968  1.00  0.00    -0.238 OA 
BRANCH  15  16
HETATM   16  C   UNL     1     -10.567  14.006  66.562  1.00  0.00    -0.279 C  
HETATM   17  H1  UNL     1     -11.636  15.529  67.147  1.00  0.00     0.000 HD 
HETATM   18  H2  UNL     1     -11.768  14.138  68.299  1.00  0.00     0.000 HD 
HETATM   19  N   UNL     1     -11.411  14.582  67.453  1.00  0.00    -0.352 N  
HETATM   20  O   UNL     1     -10.113  14.597  65.601  1.00  0.00    -0.323 OA 
ENDBRANCH  15  16
ENDBRANCH  14  15
ENDBRANCH   5  14
TORSDOF 6
ENDMDL
MODEL      157
REMARK 921   NORMALIZED FREE ENERGY PREDICTED BY IDOCK:   -2.74 KCAL/MOL
REMARK 922        TOTAL FREE ENERGY PREDICTED BY IDOCK:   -4.29 KCAL/MOL
REMARK 923 INTER-LIGAND FREE ENERGY PREDICTED BY IDOCK:   -3.80 KCAL/MOL
REMARK 924 INTRA-LIGAND FREE ENERGY PREDICTED BY IDOCK:   -0.50 KCAL/MOL
REMARK 927      BINDING AFFINITY PREDICTED BY RF-SCORE:    0.00 PKD
ROOT
HETATM    1  C   UNL     1      -6.580   6.465  70.597  1.00  0.00    -0.052 C  
HETATM    2  C   UNL     1      -7.940   7.125  70.395  1.00  0.00    -0.112 C  
HETATM    3  C   UNL     1      -8.877   6.393  69.399  1.00  0.00    -0.132 C  
HETATM    4  C   UNL     1      -9.184   4.996  69.980  1.00  0.00    -0.182 C  
HETATM    5  C   UNL     1     -10.191   7.199  68.988  1.00  0.00    -0.191 C  
HETATM    6  C   UNL     1     -11.018   7.590  70.230  1.00  0.00    -0.264 C  
ENDROOT
BRANCH   5   7
HETATM    7  C   UNL     1     -11.084   6.313  68.058  1.00  0.00    -0.265 C  
BRANCH   7   8
HETATM    8  O   UNL     1     -10.613   6.332  66.698  1.00  0.00    -0.235 OA 
BRANCH   8   9
HETATM    9  C   UNL     1     -10.346   5.139  66.122  1.00  0.00    -0.236 C  
HETATM   10  H2  UNL     1     -12.286   5.241  65.299  1.00  0.00     0.000 HD 
HETATM   11  O   UNL     1      -9.313   4.499  66.220  1.00  0.00    -0.131 OA 
HETATM   12  N   UNL     1     -11.410   4.727  65.397  1.00  0.00    -0.977 N  
HETATM   13  H1  UNL     1     -11.209   3.826  64.962  1.00  0.00     0.000 HD 
ENDBRANCH   8   9
ENDBRANCH   7   8
ENDBRANCH   5   7
BRANCH   5  14
HETATM   14  C   UNL     1      -9.864   8.490  68.164  1.00  0.00    -0.165 C  
BRANCH  14  15
HETATM   15  O   UNL     1     -10.941   9.440  68.143  1.00  0.00    -0.166 OA 
BRANCH  15  16
HETATM   16  C   UNL     1     -10.777  10.513  67.334  1.00  0.00    -0.281 C  
HETATM   17  H1  UNL     1     -11.640  12.222  66.960  1.00  0.00     0.000 HD 
HETATM   18  H2  UNL     1     -12.514  11.300  68.251  1.00  0.00     0.000 HD 
HETATM   19  N   UNL     1     -11.764  11.414  67.569  1.00  0.00    -0.217 N  
HETATM   20  O   UNL     1      -9.862  10.720  66.560  1.00  0.00    -0.190 OA 
ENDBRANCH  15  16
ENDBRANCH  14  15
ENDBRANCH   5  14
TORSDOF 6
ENDMDL
MODEL      158
REMARK 921   NORMALIZED FREE ENERGY PREDICTED BY IDOCK:   -2.74 KCAL/MOL
REMARK 922        TOTAL FREE ENERGY PREDICTED BY IDOCK:   -4.28 KCAL/MOL
REMARK 923 INTER-LIGAND FREE ENERGY PREDICTED BY IDOCK:   -3.75 KCAL/MOL
REMARK 924 INTRA-LIGAND FREE ENERGY PREDICTED BY IDOCK:   -0.54 KCAL/MOL
REMARK 927      BINDING AFFINITY PREDICTED BY RF-SCORE:    0.00 PKD
ROOT
HETATM    1  C   UNL     1     -10.637  11.856  63.432  1.00  0.00    -0.485 C  
HETATM    2  C   UNL     1     -10.398  10.759  64.465  1.00  0.00    -0.401 C  
HETATM    3  C   UNL     1     -10.151  11.268  65.909  1.00  0.00    -0.291 C  
HETATM    4  C   UNL     1     -11.429  11.997  66.377  1.00  0.00    -0.417 C  
HETATM    5  C   UNL     1      -9.652  10.160  66.942  1.00  0.00    -0.219 C  
HETATM    6  C   UNL     1     -10.639   8.975  67.010  1.00  0.00    -0.270 C  
ENDROOT
BRANCH   5   7
HETATM    7  C   UNL     1      -9.533  10.787  68.371  1.00  0.00    -0.174 C  
BRANCH   7   8
HETATM    8  O   UNL     1      -8.688   9.995  69.227  1.00  0.00    -0.151 OA 
BRANCH   8   9
HETATM    9  C   UNL     1      -9.216   9.579  70.399  1.00  0.00    -0.253 C  
HETATM   10  H2  UNL     1     -10.918  10.720  69.895  1.00  0.00     0.000 HD 
HETATM   11  O   UNL     1      -8.686   8.845  71.215  1.00  0.00    -0.196 OA 
HETATM   12  N   UNL     1     -10.452  10.102  70.560  1.00  0.00    -0.408 N  
HETATM   13  H1  UNL     1     -10.851   9.789  71.445  1.00  0.00     0.000 HD 
ENDBRANCH   8   9
ENDBRANCH   7   8
ENDBRANCH   5   7
BRANCH   5  14
HETATM   14  C   UNL     1      -8.226   9.618  66.591  1.00  0.00    -0.120 C  
BRANCH  14  15
HETATM   15  O   UNL     1      -8.173   8.187  66.472  1.00  0.00    -0.102 OA 
BRANCH  15  16
HETATM   16  C   UNL     1      -7.445   7.698  65.442  1.00  0.00    -0.078 C  
HETATM   17  H1  UNL     1      -7.449   7.721  63.491  1.00  0.00     0.000 HD 
HETATM   18  H2  UNL     1      -8.836   8.665  64.175  1.00  0.00     0.000 HD 
HETATM   19  N   UNL     1      -7.998   8.090  64.268  1.00  0.00    -0.143 N  
HETATM   20  O   UNL     1      -6.406   7.069  65.507  1.00  0.00    -0.041 OA 
ENDBRANCH  15  16
ENDBRANCH  14  15
ENDBRANCH   5  14
TORSDOF 6
ENDMDL
MODEL      159
REMARK 921   NORMALIZED FREE ENERGY PREDICTED BY IDOCK:   -2.73 KCAL/MOL
REMARK 922        TOTAL FREE ENERGY PREDICTED BY IDOCK:   -4.28 KCAL/MOL
REMARK 923 INTER-LIGAND FREE ENERGY PREDICTED BY IDOCK:   -3.73 KCAL/MOL
REMARK 924 INTRA-LIGAND FREE ENERGY PREDICTED BY IDOCK:   -0.55 KCAL/MOL
REMARK 927      BINDING AFFINITY PREDICTED BY RF-SCORE:    0.00 PKD
ROOT
HETATM    1  C   UNL     1      -8.211   7.156  66.889  1.00  0.00    -0.117 C  
HETATM    2  C   UNL     1      -8.393   6.641  68.312  1.00  0.00    -0.117 C  
HETATM    3  C   UNL     1      -9.837   6.759  68.867  1.00  0.00    -0.146 C  
HETATM    4  C   UNL     1     -10.751   5.873  67.993  1.00  0.00    -0.332 C  
HETATM    5  C   UNL     1      -9.990   6.463  70.427  1.00  0.00    -0.213 C  
HETATM    6  C   UNL     1      -9.447   5.063  70.786  1.00  0.00    -0.230 C  
ENDROOT
BRANCH   5   7
HETATM    7  C   UNL     1     -11.500   6.526  70.830  1.00  0.00    -0.360 C  
BRANCH   7   8
HETATM    8  O   UNL     1     -12.047   7.842  70.627  1.00  0.00    -0.165 OA 
BRANCH   8   9
HETATM    9  C   UNL     1     -12.831   8.341  71.609  1.00  0.00    -0.329 C  
HETATM   10  H2  UNL     1     -11.377   7.631  72.962  1.00  0.00     0.000 HD 
HETATM   11  O   UNL     1     -13.897   8.916  71.466  1.00  0.00    -0.385 OA 
HETATM   12  N   UNL     1     -12.265   8.111  72.814  1.00  0.00    -0.611 N  
HETATM   13  H1  UNL     1     -12.857   8.487  73.555  1.00  0.00     0.000 HD 
ENDBRANCH   8   9
ENDBRANCH   7   8
ENDBRANCH   5   7
BRANCH   5  14
HETATM   14  C   UNL     1      -9.266   7.533  71.310  1.00  0.00    -0.149 C  
BRANCH  14  15
HETATM   15  O   UNL     1      -8.258   6.977  72.169  1.00  0.00    -0.100 OA 
BRANCH  15  16
HETATM   16  C   UNL     1      -8.556   6.926  73.488  1.00  0.00    -0.131 C  
HETATM   17  H1  UNL     1      -7.647   6.677  75.196  1.00  0.00     0.000 HD 
HETATM   18  H2  UNL     1      -6.488   6.611  73.805  1.00  0.00     0.000 HD 
HETATM   19  N   UNL     1      -7.422   6.716  74.202  1.00  0.00    -0.097 N  
HETATM   20  O   UNL     1      -9.639   7.114  74.006  1.00  0.00    -0.248 OA 
ENDBRANCH  15  16
ENDBRANCH  14  15
ENDBRANCH   5  14
TORSDOF 6
ENDMDL
MODEL      160
REMARK 921   NORMALIZED FREE ENERGY PREDICTED BY IDOCK:   -2.71 KCAL/MOL
REMARK 922        TOTAL FREE ENERGY PREDICTED BY IDOCK:   -4.25 KCAL/MOL
REMARK 923 INTER-LIGAND FREE ENERGY PREDICTED BY IDOCK:   -3.91 KCAL/MOL
REMARK 924 INTRA-LIGAND FREE ENERGY PREDICTED BY IDOCK:   -0.34 KCAL/MOL
REMARK 927      BINDING AFFINITY PREDICTED BY RF-SCORE:    0.00 PKD
ROOT
HETATM    1  C   UNL     1     -10.812   6.103  68.080  1.00  0.00    -0.389 C  
HETATM    2  C   UNL     1     -11.585   6.376  69.366  1.00  0.00    -0.238 C  
HETATM    3  C   UNL     1     -10.766   7.075  70.482  1.00  0.00    -0.262 C  
HETATM    4  C   UNL     1     -10.345   8.464  69.958  1.00  0.00    -0.211 C  
HETATM    5  C   UNL     1     -11.478   7.137  71.908  1.00  0.00    -0.305 C  
HETATM    6  C   UNL     1     -12.856   7.828  71.815  1.00  0.00    -0.352 C  
ENDROOT
BRANCH   5   7
HETATM    7  C   UNL     1     -10.587   7.944  72.908  1.00  0.00    -0.368 C  
BRANCH   7   8
HETATM    8  O   UNL     1      -9.291   7.338  73.070  1.00  0.00    -0.143 OA 
BRANCH   8   9
HETATM    9  C   UNL     1      -8.225   8.167  73.117  1.00  0.00    -0.193 C  
HETATM   10  H2  UNL     1      -7.954   7.507  75.101  1.00  0.00     0.000 HD 
HETATM   11  O   UNL     1      -7.824   8.886  72.218  1.00  0.00    -0.361 OA 
HETATM   12  N   UNL     1      -7.639   8.098  74.332  1.00  0.00    -0.202 N  
HETATM   13  H1  UNL     1      -6.834   8.724  74.368  1.00  0.00     0.000 HD 
ENDBRANCH   8   9
ENDBRANCH   7   8
ENDBRANCH   5   7
BRANCH   5  14
HETATM   14  C   UNL     1     -11.660   5.719  72.545  1.00  0.00    -0.267 C  
BRANCH  14  15
HETATM   15  O   UNL     1     -10.711   4.753  72.066  1.00  0.00    -0.155 OA 
BRANCH  15  16
HETATM   16  C   UNL     1     -10.089   4.005  73.008  1.00  0.00    -0.152 C  
HETATM   17  H1  UNL     1     -10.518   3.061  74.660  1.00  0.00     0.000 HD 
HETATM   18  H2  UNL     1     -11.978   3.864  73.949  1.00  0.00     0.000 HD 
HETATM   19  N   UNL     1     -10.986   3.624  73.950  1.00  0.00    -0.215 N  
HETATM   20  O   UNL     1      -8.929   3.640  73.011  1.00  0.00    -0.095 OA 
ENDBRANCH  15  16
ENDBRANCH  14  15
ENDBRANCH   5  14
TORSDOF 6
ENDMDL
MODEL      161
REMARK 921   NORMALIZED FREE ENERGY PREDICTED BY IDOCK:   -2.70 KCAL/MOL
REMARK 922        TOTAL FREE ENERGY PREDICTED BY IDOCK:   -4.23 KCAL/MOL
REMARK 923 INTER-LIGAND FREE ENERGY PREDICTED BY IDOCK:   -3.77 KCAL/MOL
REMARK 924 INTRA-LIGAND FREE ENERGY PREDICTED BY IDOCK:   -0.47 KCAL/MOL
REMARK 927      BINDING AFFINITY PREDICTED BY RF-SCORE:    0.00 PKD
ROOT
HETATM    1  C   UNL     1      -6.660   6.569  68.837  1.00  0.00    -0.048 C  
HETATM    2  C   UNL     1      -7.553   7.800  68.728  1.00  0.00    -0.101 C  
HETATM    3  C   UNL     1      -8.727   7.844  69.741  1.00  0.00    -0.137 C  
HETATM    4  C   UNL     1      -8.124   7.902  71.160  1.00  0.00    -0.093 C  
HETATM    5  C   UNL     1      -9.809   8.987  69.476  1.00  0.00    -0.181 C  
HETATM    6  C   UNL     1      -9.149  10.382  69.441  1.00  0.00    -0.170 C  
ENDROOT
BRANCH   5   7
HETATM    7  C   UNL     1     -10.879   8.974  70.616  1.00  0.00    -0.243 C  
BRANCH   7   8
HETATM    8  O   UNL     1     -11.643   7.753  70.611  1.00  0.00    -0.281 OA 
BRANCH   8   9
HETATM    9  C   UNL     1     -12.542   7.585  71.606  1.00  0.00    -0.348 C  
HETATM   10  H2  UNL     1     -11.093   8.423  72.890  1.00  0.00     0.000 HD 
HETATM   11  O   UNL     1     -13.660   7.110  71.503  1.00  0.00    -0.380 OA 
HETATM   12  N   UNL     1     -12.025   8.023  72.775  1.00  0.00    -0.608 N  
HETATM   13  H1  UNL     1     -12.703   7.896  73.527  1.00  0.00     0.000 HD 
ENDBRANCH   8   9
ENDBRANCH   7   8
ENDBRANCH   5   7
BRANCH   5  14
HETATM   14  C   UNL     1     -10.599   8.761  68.144  1.00  0.00    -0.147 C  
BRANCH  14  15
HETATM   15  O   UNL     1     -10.448   9.836  67.202  1.00  0.00    -0.243 OA 
BRANCH  15  16
HETATM   16  C   UNL     1      -9.914   9.511  66.002  1.00  0.00    -0.278 C  
HETATM   17  H1  UNL     1      -9.735  10.271  64.214  1.00  0.00     0.000 HD 
HETATM   18  H2  UNL     1     -10.630  11.385  65.328  1.00  0.00     0.000 HD 
HETATM   19  N   UNL     1     -10.136  10.516  65.119  1.00  0.00    -0.310 N  
HETATM   20  O   UNL     1      -9.262   8.522  65.729  1.00  0.00    -0.198 OA 
ENDBRANCH  15  16
ENDBRANCH  14  15
ENDBRANCH   5  14
TORSDOF 6
ENDMDL
MODEL      162
REMARK 921   NORMALIZED FREE ENERGY PREDICTED BY IDOCK:   -2.70 KCAL/MOL
REMARK 922        TOTAL FREE ENERGY PREDICTED BY IDOCK:   -4.23 KCAL/MOL
REMARK 923 INTER-LIGAND FREE ENERGY PREDICTED BY IDOCK:   -3.94 KCAL/MOL
REMARK 924 INTRA-LIGAND FREE ENERGY PREDICTED BY IDOCK:   -0.29 KCAL/MOL
REMARK 927      BINDING AFFINITY PREDICTED BY RF-SCORE:    0.00 PKD
ROOT
HETATM    1  C   UNL     1     -10.438  17.399  65.473  1.00  0.00    -0.112 C  
HETATM    2  C   UNL     1     -10.358  16.721  66.837  1.00  0.00    -0.294 C  
HETATM    3  C   UNL     1      -9.125  15.802  67.035  1.00  0.00    -0.240 C  
HETATM    4  C   UNL     1      -7.861  16.684  66.944  1.00  0.00    -0.261 C  
HETATM    5  C   UNL     1      -9.159  14.895  68.348  1.00  0.00    -0.185 C  
HETATM    6  C   UNL     1      -9.329  15.756  69.617  1.00  0.00    -0.176 C  
ENDROOT
BRANCH   5   7
HETATM    7  C   UNL     1      -7.821  14.093  68.469  1.00  0.00    -0.140 C  
BRANCH   7   8
HETATM    8  O   UNL     1      -7.602  13.254  67.320  1.00  0.00    -0.146 OA 
BRANCH   8   9
HETATM    9  C   UNL     1      -7.267  11.966  67.554  1.00  0.00    -0.125 C  
HETATM   10  H2  UNL     1      -6.237  12.027  65.715  1.00  0.00     0.000 HD 
HETATM   11  O   UNL     1      -7.583  11.297  68.524  1.00  0.00    -0.107 OA 
HETATM   12  N   UNL     1      -6.514  11.492  66.538  1.00  0.00    -0.322 N  
HETATM   13  H1  UNL     1      -6.262  10.519  66.713  1.00  0.00     0.000 HD 
ENDBRANCH   8   9
ENDBRANCH   7   8
ENDBRANCH   5   7
BRANCH   5  14
HETATM   14  C   UNL     1     -10.299  13.823  68.301  1.00  0.00    -0.247 C  
BRANCH  14  15
HETATM   15  O   UNL     1     -10.702  13.478  66.966  1.00  0.00    -0.273 OA 
BRANCH  15  16
HETATM   16  C   UNL     1     -11.626  12.496  66.854  1.00  0.00    -0.370 C  
HETATM   17  H1  UNL     1     -12.467  11.130  67.964  1.00  0.00     0.000 HD 
HETATM   18  H2  UNL     1     -11.261  12.104  68.901  1.00  0.00     0.000 HD 
HETATM   19  N   UNL     1     -11.771  11.870  68.048  1.00  0.00    -0.326 N  
HETATM   20  O   UNL     1     -12.304  12.229  65.880  1.00  0.00    -0.618 OA 
ENDBRANCH  15  16
ENDBRANCH  14  15
ENDBRANCH   5  14
TORSDOF 6
ENDMDL
MODEL      163
REMARK 921   NORMALIZED FREE ENERGY PREDICTED BY IDOCK:   -2.70 KCAL/MOL
REMARK 922        TOTAL FREE ENERGY PREDICTED BY IDOCK:   -4.23 KCAL/MOL
REMARK 923 INTER-LIGAND FREE ENERGY PREDICTED BY IDOCK:   -3.54 KCAL/MOL
REMARK 924 INTRA-LIGAND FREE ENERGY PREDICTED BY IDOCK:   -0.69 KCAL/MOL
REMARK 927      BINDING AFFINITY PREDICTED BY RF-SCORE:    0.00 PKD
ROOT
HETATM    1  C   UNL     1     -13.740   9.702  71.883  1.00  0.00    -0.376 C  
HETATM    2  C   UNL     1     -12.422   9.000  72.195  1.00  0.00    -0.450 C  
HETATM    3  C   UNL     1     -11.578   8.620  70.950  1.00  0.00    -0.307 C  
HETATM    4  C   UNL     1     -11.184   9.928  70.231  1.00  0.00    -0.364 C  
HETATM    5  C   UNL     1     -10.330   7.670  71.242  1.00  0.00    -0.215 C  
HETATM    6  C   UNL     1      -9.387   8.293  72.294  1.00  0.00    -0.323 C  
ENDROOT
BRANCH   5   7
HETATM    7  C   UNL     1      -9.520   7.443  69.924  1.00  0.00    -0.153 C  
BRANCH   7   8
HETATM    8  O   UNL     1     -10.322   6.807  68.912  1.00  0.00    -0.173 OA 
BRANCH   8   9
HETATM    9  C   UNL     1      -9.710   5.898  68.122  1.00  0.00    -0.127 C  
HETATM   10  H2  UNL     1      -9.988   4.523  69.697  1.00  0.00     0.000 HD 
HETATM   11  O   UNL     1      -9.275   6.087  66.999  1.00  0.00    -0.118 OA 
HETATM   12  N   UNL     1      -9.634   4.708  68.759  1.00  0.00    -0.154 N  
HETATM   13  H1  UNL     1      -9.171   4.022  68.163  1.00  0.00     0.000 HD 
ENDBRANCH   8   9
ENDBRANCH   7   8
ENDBRANCH   5   7
BRANCH   5  14
HETATM   14  C   UNL     1     -10.767   6.247  71.727  1.00  0.00    -0.236 C  
BRANCH  14  15
HETATM   15  O   UNL     1      -9.670   5.328  71.858  1.00  0.00    -0.152 OA 
BRANCH  15  16
HETATM   16  C   UNL     1      -9.636   4.593  72.994  1.00  0.00    -0.129 C  
HETATM   17  H1  UNL     1     -10.068   2.788  73.596  1.00  0.00     0.000 HD 
HETATM   18  H2  UNL     1     -10.414   3.006  71.831  1.00  0.00     0.000 HD 
HETATM   19  N   UNL     1     -10.093   3.342  72.740  1.00  0.00    -0.151 N  
HETATM   20  O   UNL     1      -9.200   4.931  74.077  1.00  0.00    -0.115 OA 
ENDBRANCH  15  16
ENDBRANCH  14  15
ENDBRANCH   5  14
TORSDOF 6
ENDMDL
MODEL      164
REMARK 921   NORMALIZED FREE ENERGY PREDICTED BY IDOCK:   -2.69 KCAL/MOL
REMARK 922        TOTAL FREE ENERGY PREDICTED BY IDOCK:   -4.23 KCAL/MOL
REMARK 923 INTER-LIGAND FREE ENERGY PREDICTED BY IDOCK:   -3.80 KCAL/MOL
REMARK 924 INTRA-LIGAND FREE ENERGY PREDICTED BY IDOCK:   -0.42 KCAL/MOL
REMARK 927      BINDING AFFINITY PREDICTED BY RF-SCORE:    0.00 PKD
ROOT
HETATM    1  C   UNL     1      -6.124  11.093  69.647  1.00  0.00    -0.093 C  
HETATM    2  C   UNL     1      -7.378  11.361  68.822  1.00  0.00    -0.114 C  
HETATM    3  C   UNL     1      -7.598  12.847  68.436  1.00  0.00    -0.133 C  
HETATM    4  C   UNL     1      -6.419  13.280  67.539  1.00  0.00    -0.143 C  
HETATM    5  C   UNL     1      -9.022  13.178  67.797  1.00  0.00    -0.194 C  
HETATM    6  C   UNL     1      -9.289  12.310  66.549  1.00  0.00    -0.230 C  
ENDROOT
BRANCH   5   7
HETATM    7  C   UNL     1      -9.073  14.683  67.374  1.00  0.00    -0.197 C  
BRANCH   7   8
HETATM    8  O   UNL     1      -9.384  14.828  65.976  1.00  0.00    -0.284 OA 
BRANCH   8   9
HETATM    9  C   UNL     1     -10.476  15.559  65.661  1.00  0.00    -0.374 C  
HETATM   10  H2  UNL     1     -11.445  14.568  67.251  1.00  0.00     0.000 HD 
HETATM   11  O   UNL     1     -10.569  16.380  64.765  1.00  0.00    -0.676 OA 
HETATM   12  N   UNL     1     -11.494  15.251  66.495  1.00  0.00    -0.176 N  
HETATM   13  H1  UNL     1     -12.320  15.802  66.258  1.00  0.00     0.000 HD 
ENDBRANCH   8   9
ENDBRANCH   7   8
ENDBRANCH   5   7
BRANCH   5  14
HETATM   14  C   UNL     1     -10.192  12.980  68.818  1.00  0.00    -0.089 C  
BRANCH  14  15
HETATM   15  O   UNL     1     -10.949  11.780  68.592  1.00  0.00    -0.199 OA 
BRANCH  15  16
HETATM   16  C   UNL     1     -11.338  11.099  69.695  1.00  0.00    -0.294 C  
HETATM   17  H1  UNL     1     -10.806   9.529  70.722  1.00  0.00     0.000 HD 
HETATM   18  H2  UNL     1      -9.719   9.796  69.298  1.00  0.00     0.000 HD 
HETATM   19  N   UNL     1     -10.513  10.042  69.891  1.00  0.00    -0.257 N  
HETATM   20  O   UNL     1     -12.230  11.395  70.466  1.00  0.00    -0.352 OA 
ENDBRANCH  15  16
ENDBRANCH  14  15
ENDBRANCH   5  14
TORSDOF 6
ENDMDL
MODEL      165
REMARK 921   NORMALIZED FREE ENERGY PREDICTED BY IDOCK:   -2.68 KCAL/MOL
REMARK 922        TOTAL FREE ENERGY PREDICTED BY IDOCK:   -4.20 KCAL/MOL
REMARK 923 INTER-LIGAND FREE ENERGY PREDICTED BY IDOCK:   -3.79 KCAL/MOL
REMARK 924 INTRA-LIGAND FREE ENERGY PREDICTED BY IDOCK:   -0.41 KCAL/MOL
REMARK 927      BINDING AFFINITY PREDICTED BY RF-SCORE:    0.00 PKD
ROOT
HETATM    1  C   UNL     1      -6.311   9.459  68.860  1.00  0.00    -0.043 C  
HETATM    2  C   UNL     1      -7.310   9.141  67.752  1.00  0.00    -0.084 C  
HETATM    3  C   UNL     1      -8.340  10.264  67.464  1.00  0.00    -0.114 C  
HETATM    4  C   UNL     1      -7.562  11.501  66.968  1.00  0.00    -0.154 C  
HETATM    5  C   UNL     1      -9.538   9.851  66.494  1.00  0.00    -0.243 C  
HETATM    6  C   UNL     1      -9.007   9.324  65.144  1.00  0.00    -0.257 C  
ENDROOT
BRANCH   5   7
HETATM    7  C   UNL     1     -10.444  11.096  66.217  1.00  0.00    -0.259 C  
BRANCH   7   8
HETATM    8  O   UNL     1     -11.176  11.489  67.393  1.00  0.00    -0.271 OA 
BRANCH   8   9
HETATM    9  C   UNL     1     -11.393  12.811  67.569  1.00  0.00    -0.312 C  
HETATM   10  H2  UNL     1     -12.281  12.295  69.411  1.00  0.00     0.000 HD 
HETATM   11  O   UNL     1     -11.089  13.707  66.799  1.00  0.00    -0.299 OA 
HETATM   12  N   UNL     1     -12.015  13.025  68.750  1.00  0.00    -0.306 N  
HETATM   13  H1  UNL     1     -12.179  14.023  68.883  1.00  0.00     0.000 HD 
ENDBRANCH   8   9
ENDBRANCH   7   8
ENDBRANCH   5   7
BRANCH   5  14
HETATM   14  C   UNL     1     -10.475   8.772  67.131  1.00  0.00    -0.283 C  
BRANCH  14  15
HETATM   15  O   UNL     1     -10.261   7.451  66.609  1.00  0.00    -0.240 OA 
BRANCH  15  16
HETATM   16  C   UNL     1     -10.858   6.437  67.279  1.00  0.00    -0.385 C  
HETATM   17  H1  UNL     1     -11.302   4.556  67.016  1.00  0.00     0.000 HD 
HETATM   18  H2  UNL     1     -10.459   5.253  65.572  1.00  0.00     0.000 HD 
HETATM   19  N   UNL     1     -10.852   5.320  66.511  1.00  0.00    -0.226 N  
HETATM   20  O   UNL     1     -11.276   6.454  68.421  1.00  0.00    -0.320 OA 
ENDBRANCH  15  16
ENDBRANCH  14  15
ENDBRANCH   5  14
TORSDOF 6
ENDMDL
MODEL      166
REMARK 921   NORMALIZED FREE ENERGY PREDICTED BY IDOCK:   -2.63 KCAL/MOL
REMARK 922        TOTAL FREE ENERGY PREDICTED BY IDOCK:   -4.13 KCAL/MOL
REMARK 923 INTER-LIGAND FREE ENERGY PREDICTED BY IDOCK:   -3.72 KCAL/MOL
REMARK 924 INTRA-LIGAND FREE ENERGY PREDICTED BY IDOCK:   -0.41 KCAL/MOL
REMARK 927      BINDING AFFINITY PREDICTED BY RF-SCORE:    0.00 PKD
ROOT
HETATM    1  C   UNL     1     -12.074   6.447  71.853  1.00  0.00    -0.362 C  
HETATM    2  C   UNL     1     -11.805   6.914  70.426  1.00  0.00    -0.351 C  
HETATM    3  C   UNL     1     -10.326   6.801  69.972  1.00  0.00    -0.225 C  
HETATM    4  C   UNL     1      -9.940   5.307  69.991  1.00  0.00    -0.315 C  
HETATM    5  C   UNL     1      -9.986   7.515  68.587  1.00  0.00    -0.178 C  
HETATM    6  C   UNL     1     -10.883   6.982  67.449  1.00  0.00    -0.371 C  
ENDROOT
BRANCH   5   7
HETATM    7  C   UNL     1      -8.492   7.245  68.207  1.00  0.00    -0.124 C  
BRANCH   7   8
HETATM    8  O   UNL     1      -7.590   7.958  69.073  1.00  0.00    -0.095 OA 
BRANCH   8   9
HETATM    9  C   UNL     1      -6.374   8.270  68.573  1.00  0.00    -0.054 C  
HETATM   10  H2  UNL     1      -6.518   6.494  67.444  1.00  0.00     0.000 HD 
HETATM   11  O   UNL     1      -5.703   9.250  68.852  1.00  0.00    -0.039 OA 
HETATM   12  N   UNL     1      -5.979   7.323  67.694  1.00  0.00    -0.032 N  
HETATM   13  H1  UNL     1      -5.061   7.559  67.316  1.00  0.00     0.000 HD 
ENDBRANCH   8   9
ENDBRANCH   7   8
ENDBRANCH   5   7
BRANCH   5  14
HETATM   14  C   UNL     1     -10.133   9.071  68.667  1.00  0.00    -0.189 C  
BRANCH  14  15
HETATM   15  O   UNL     1     -11.008   9.614  67.665  1.00  0.00    -0.268 OA 
BRANCH  15  16
HETATM   16  C   UNL     1     -11.534  10.834  67.924  1.00  0.00    -0.227 C  
HETATM   17  H1  UNL     1     -11.990  11.945  69.461  1.00  0.00     0.000 HD 
HETATM   18  H2  UNL     1     -11.289  10.355  69.970  1.00  0.00     0.000 HD 
HETATM   19  N   UNL     1     -11.594  11.026  69.265  1.00  0.00    -0.285 N  
HETATM   20  O   UNL     1     -11.845  11.689  67.118  1.00  0.00    -0.608 OA 
ENDBRANCH  15  16
ENDBRANCH  14  15
ENDBRANCH   5  14
TORSDOF 6
ENDMDL
MODEL      167
REMARK 921   NORMALIZED FREE ENERGY PREDICTED BY IDOCK:   -2.60 KCAL/MOL
REMARK 922        TOTAL FREE ENERGY PREDICTED BY IDOCK:   -4.11 KCAL/MOL
REMARK 923 INTER-LIGAND FREE ENERGY PREDICTED BY IDOCK:   -4.03 KCAL/MOL
REMARK 924 INTRA-LIGAND FREE ENERGY PREDICTED BY IDOCK:   -0.08 KCAL/MOL
REMARK 927      BINDING AFFINITY PREDICTED BY RF-SCORE:    0.00 PKD
ROOT
HETATM    1  C   UNL     1      -6.272  13.709  67.944  1.00  0.00    -0.158 C  
HETATM    2  C   UNL     1      -7.687  13.453  67.436  1.00  0.00    -0.146 C  
HETATM    3  C   UNL     1      -8.587  14.713  67.355  1.00  0.00    -0.212 C  
HETATM    4  C   UNL     1      -7.954  15.679  66.331  1.00  0.00     0.057 C  
HETATM    5  C   UNL     1     -10.130  14.426  67.070  1.00  0.00    -0.256 C  
HETATM    6  C   UNL     1     -10.317  13.615  65.770  1.00  0.00    -0.304 C  
ENDROOT
BRANCH   5   7
HETATM    7  C   UNL     1     -10.900  15.780  66.923  1.00  0.00    -0.265 C  
BRANCH   7   8
HETATM    8  O   UNL     1     -10.953  16.496  68.171  1.00  0.00    -0.346 OA 
BRANCH   8   9
HETATM    9  C   UNL     1     -10.579  17.794  68.153  1.00  0.00    -0.344 C  
HETATM   10  H2  UNL     1     -11.270  17.838  66.160  1.00  0.00     0.000 HD 
HETATM   11  O   UNL     1     -10.071  18.417  69.069  1.00  0.00    -0.379 OA 
HETATM   12  N   UNL     1     -10.847  18.336  66.944  1.00  0.00    -0.230 N  
HETATM   13  H1  UNL     1     -10.564  19.316  66.929  1.00  0.00     0.000 HD 
ENDBRANCH   8   9
ENDBRANCH   7   8
ENDBRANCH   5   7
BRANCH   5  14
HETATM   14  C   UNL     1     -10.822  13.666  68.250  1.00  0.00    -0.251 C  
BRANCH  14  15
HETATM   15  O   UNL     1     -10.134  12.465  68.636  1.00  0.00    -0.210 OA 
BRANCH  15  16
HETATM   16  C   UNL     1     -10.777  11.300  68.390  1.00  0.00    -0.203 C  
HETATM   17  H1  UNL     1     -10.413   9.384  68.407  1.00  0.00     0.000 HD 
HETATM   18  H2  UNL     1      -8.954  10.346  68.884  1.00  0.00     0.000 HD 
HETATM   19  N   UNL     1      -9.929  10.262  68.592  1.00  0.00    -0.166 N  
HETATM   20  O   UNL     1     -11.950  11.151  68.109  1.00  0.00    -0.615 OA 
ENDBRANCH  15  16
ENDBRANCH  14  15
ENDBRANCH   5  14
TORSDOF 6
ENDMDL
MODEL      168
REMARK 921   NORMALIZED FREE ENERGY PREDICTED BY IDOCK:   -2.56 KCAL/MOL
REMARK 922        TOTAL FREE ENERGY PREDICTED BY IDOCK:   -4.05 KCAL/MOL
REMARK 923 INTER-LIGAND FREE ENERGY PREDICTED BY IDOCK:   -3.63 KCAL/MOL
REMARK 924 INTRA-LIGAND FREE ENERGY PREDICTED BY IDOCK:   -0.42 KCAL/MOL
REMARK 927      BINDING AFFINITY PREDICTED BY RF-SCORE:    0.00 PKD
ROOT
HETATM    1  C   UNL     1      -9.257   4.292  67.294  1.00  0.00    -0.169 C  
HETATM    2  C   UNL     1      -9.878   5.037  68.470  1.00  0.00    -0.216 C  
HETATM    3  C   UNL     1     -10.046   6.565  68.258  1.00  0.00    -0.171 C  
HETATM    4  C   UNL     1     -11.024   6.772  67.082  1.00  0.00    -0.458 C  
HETATM    5  C   UNL     1     -10.455   7.389  69.561  1.00  0.00    -0.236 C  
HETATM    6  C   UNL     1     -11.757   6.842  70.183  1.00  0.00    -0.370 C  
ENDROOT
BRANCH   5   7
HETATM    7  C   UNL     1     -10.678   8.891  69.186  1.00  0.00    -0.143 C  
BRANCH   7   8
HETATM    8  O   UNL     1     -11.103   9.663  70.325  1.00  0.00    -0.243 OA 
BRANCH   8   9
HETATM    9  C   UNL     1     -11.852  10.761  70.080  1.00  0.00    -0.344 C  
HETATM   10  H2  UNL     1     -11.937  11.019  72.171  1.00  0.00     0.000 HD 
HETATM   11  O   UNL     1     -12.186  11.183  68.986  1.00  0.00    -0.469 OA 
HETATM   12  N   UNL     1     -12.201  11.352  71.244  1.00  0.00    -0.219 N  
HETATM   13  H1  UNL     1     -12.767  12.180  71.059  1.00  0.00     0.000 HD 
ENDBRANCH   8   9
ENDBRANCH   7   8
ENDBRANCH   5   7
BRANCH   5  14
HETATM   14  C   UNL     1      -9.328   7.382  70.648  1.00  0.00    -0.160 C  
BRANCH  14  15
HETATM   15  O   UNL     1      -8.015   7.607  70.109  1.00  0.00    -0.105 OA 
BRANCH  15  16
HETATM   16  C   UNL     1      -7.352   8.689  70.579  1.00  0.00    -0.058 C  
HETATM   17  H1  UNL     1      -6.729  10.426  69.947  1.00  0.00     0.000 HD 
HETATM   18  H2  UNL     1      -7.583   9.506  68.641  1.00  0.00     0.000 HD 
HETATM   19  N   UNL     1      -7.229   9.611  69.593  1.00  0.00    -0.073 N  
HETATM   20  O   UNL     1      -6.975   8.885  71.719  1.00  0.00    -0.190 OA 
ENDBRANCH  15  16
ENDBRANCH  14  15
ENDBRANCH   5  14
TORSDOF 6
ENDMDL
MODEL      169
REMARK 921   NORMALIZED FREE ENERGY PREDICTED BY IDOCK:   -2.52 KCAL/MOL
REMARK 922        TOTAL FREE ENERGY PREDICTED BY IDOCK:   -3.99 KCAL/MOL
REMARK 923 INTER-LIGAND FREE ENERGY PREDICTED BY IDOCK:   -3.64 KCAL/MOL
REMARK 924 INTRA-LIGAND FREE ENERGY PREDICTED BY IDOCK:   -0.36 KCAL/MOL
REMARK 927      BINDING AFFINITY PREDICTED BY RF-SCORE:    0.00 PKD
ROOT
HETATM    1  C   UNL     1      -5.467  13.192  67.821  1.00  0.00    -0.110 C  
HETATM    2  C   UNL     1      -6.970  13.339  67.605  1.00  0.00    -0.164 C  
HETATM    3  C   UNL     1      -7.785  12.034  67.794  1.00  0.00    -0.139 C  
HETATM    4  C   UNL     1      -7.627  11.588  69.263  1.00  0.00     0.075 C  
HETATM    5  C   UNL     1      -9.309  12.112  67.328  1.00  0.00    -0.183 C  
HETATM    6  C   UNL     1     -10.055  13.256  68.047  1.00  0.00    -0.235 C  
ENDROOT
BRANCH   5   7
HETATM    7  C   UNL     1     -10.032  10.765  67.658  1.00  0.00    -0.173 C  
BRANCH   7   8
HETATM    8  O   UNL     1     -11.439  10.962  67.888  1.00  0.00    -0.412 OA 
BRANCH   8   9
HETATM    9  C   UNL     1     -11.944  10.501  69.053  1.00  0.00    -0.023 C  
HETATM   10  H2  UNL     1     -10.671   8.838  68.804  1.00  0.00     0.000 HD 
HETATM   11  O   UNL     1     -12.787  11.045  69.746  1.00  0.00    -0.133 OA 
HETATM   12  N   UNL     1     -11.377   9.315  69.365  1.00  0.00    -0.436 N  
HETATM   13  H1  UNL     1     -11.758   8.966  70.245  1.00  0.00     0.000 HD 
ENDBRANCH   8   9
ENDBRANCH   7   8
ENDBRANCH   5   7
BRANCH   5  14
HETATM   14  C   UNL     1      -9.448  12.305  65.781  1.00  0.00    -0.121 C  
BRANCH  14  15
HETATM   15  O   UNL     1     -10.247  13.443  65.417  1.00  0.00    -0.302 OA 
BRANCH  15  16
HETATM   16  C   UNL     1     -11.113  13.265  64.392  1.00  0.00    -0.384 C  
HETATM   17  H1  UNL     1     -12.733  14.077  63.673  1.00  0.00     0.000 HD 
HETATM   18  H2  UNL     1     -12.148  14.946  65.151  1.00  0.00     0.000 HD 
HETATM   19  N   UNL     1     -12.081  14.212  64.445  1.00  0.00    -0.461 N  
HETATM   20  O   UNL     1     -11.033  12.449  63.493  1.00  0.00    -0.437 OA 
ENDBRANCH  15  16
ENDBRANCH  14  15
ENDBRANCH   5  14
TORSDOF 6
ENDMDL
MODEL      170
REMARK 921   NORMALIZED FREE ENERGY PREDICTED BY IDOCK:   -2.52 KCAL/MOL
REMARK 922        TOTAL FREE ENERGY PREDICTED BY IDOCK:   -3.99 KCAL/MOL
REMARK 923 INTER-LIGAND FREE ENERGY PREDICTED BY IDOCK:   -3.53 KCAL/MOL
REMARK 924 INTRA-LIGAND FREE ENERGY PREDICTED BY IDOCK:   -0.45 KCAL/MOL
REMARK 927      BINDING AFFINITY PREDICTED BY RF-SCORE:    0.00 PKD
ROOT
HETATM    1  C   UNL     1      -6.374  13.127  67.685  1.00  0.00    -0.163 C  
HETATM    2  C   UNL     1      -7.234  12.180  68.516  1.00  0.00    -0.102 C  
HETATM    3  C   UNL     1      -7.407  10.761  67.915  1.00  0.00    -0.088 C  
HETATM    4  C   UNL     1      -6.013  10.101  67.857  1.00  0.00    -0.041 C  
HETATM    5  C   UNL     1      -8.499   9.848  68.636  1.00  0.00    -0.114 C  
HETATM    6  C   UNL     1      -8.198   9.701  70.143  1.00  0.00    -0.206 C  
ENDROOT
BRANCH   5   7
HETATM    7  C   UNL     1      -8.504   8.423  67.991  1.00  0.00    -0.132 C  
BRANCH   7   8
HETATM    8  O   UNL     1      -9.832   7.871  67.937  1.00  0.00    -0.154 OA 
BRANCH   8   9
HETATM    9  C   UNL     1     -10.117   7.053  66.900  1.00  0.00    -0.226 C  
HETATM   10  H2  UNL     1     -12.019   6.806  67.777  1.00  0.00     0.000 HD 
HETATM   11  O   UNL     1      -9.373   6.759  65.980  1.00  0.00    -0.109 OA 
HETATM   12  N   UNL     1     -11.377   6.579  67.018  1.00  0.00    -0.780 N  
HETATM   13  H1  UNL     1     -11.592   5.960  66.236  1.00  0.00     0.000 HD 
ENDBRANCH   8   9
ENDBRANCH   7   8
ENDBRANCH   5   7
BRANCH   5  14
HETATM   14  C   UNL     1      -9.951  10.404  68.458  1.00  0.00    -0.167 C  
BRANCH  14  15
HETATM   15  O   UNL     1     -10.214  10.896  67.134  1.00  0.00    -0.194 OA 
BRANCH  15  16
HETATM   16  C   UNL     1     -10.867  12.079  67.053  1.00  0.00    -0.253 C  
HETATM   17  H1  UNL     1     -10.590  13.869  66.327  1.00  0.00     0.000 HD 
HETATM   18  H2  UNL     1      -9.170  12.790  66.008  1.00  0.00     0.000 HD 
HETATM   19  N   UNL     1     -10.099  12.977  66.388  1.00  0.00    -0.272 N  
HETATM   20  O   UNL     1     -11.997  12.325  67.430  1.00  0.00    -0.530 OA 
ENDBRANCH  15  16
ENDBRANCH  14  15
ENDBRANCH   5  14
TORSDOF 6
ENDMDL
MODEL      171
REMARK 921   NORMALIZED FREE ENERGY PREDICTED BY IDOCK:   -2.48 KCAL/MOL
REMARK 922        TOTAL FREE ENERGY PREDICTED BY IDOCK:   -3.94 KCAL/MOL
REMARK 923 INTER-LIGAND FREE ENERGY PREDICTED BY IDOCK:   -3.70 KCAL/MOL
REMARK 924 INTRA-LIGAND FREE ENERGY PREDICTED BY IDOCK:   -0.24 KCAL/MOL
REMARK 927      BINDING AFFINITY PREDICTED BY RF-SCORE:    0.00 PKD
ROOT
HETATM    1  C   UNL     1      -6.562  12.470  67.656  1.00  0.00    -0.136 C  
HETATM    2  C   UNL     1      -7.400  11.700  68.672  1.00  0.00    -0.111 C  
HETATM    3  C   UNL     1      -7.887  10.308  68.192  1.00  0.00    -0.104 C  
HETATM    4  C   UNL     1      -6.641   9.432  67.944  1.00  0.00    -0.063 C  
HETATM    5  C   UNL     1      -8.965   9.606  69.135  1.00  0.00    -0.154 C  
HETATM    6  C   UNL     1      -8.436   9.461  70.578  1.00  0.00    -0.251 C  
ENDROOT
BRANCH   5   7
HETATM    7  C   UNL     1      -9.297   8.179  68.585  1.00  0.00    -0.143 C  
BRANCH   7   8
HETATM    8  O   UNL     1     -10.717   7.978  68.461  1.00  0.00    -0.142 OA 
BRANCH   8   9
HETATM    9  C   UNL     1     -11.157   6.701  68.433  1.00  0.00    -0.198 C  
HETATM   10  H2  UNL     1     -11.230   6.900  66.335  1.00  0.00     0.000 HD 
HETATM   11  O   UNL     1     -11.344   5.975  69.396  1.00  0.00    -0.398 OA 
HETATM   12  N   UNL     1     -11.376   6.314  67.157  1.00  0.00    -0.673 N  
HETATM   13  H1  UNL     1     -11.709   5.350  67.136  1.00  0.00     0.000 HD 
ENDBRANCH   8   9
ENDBRANCH   7   8
ENDBRANCH   5   7
BRANCH   5  14
HETATM   14  C   UNL     1     -10.325  10.381  69.166  1.00  0.00    -0.222 C  
BRANCH  14  15
HETATM   15  O   UNL     1     -11.031  10.246  70.409  1.00  0.00    -0.296 OA 
BRANCH  15  16
HETATM   16  C   UNL     1     -12.328  10.631  70.407  1.00  0.00    -0.343 C  
HETATM   17  H1  UNL     1     -13.860  10.656  71.614  1.00  0.00     0.000 HD 
HETATM   18  H2  UNL     1     -12.396   9.942  72.406  1.00  0.00     0.000 HD 
HETATM   19  N   UNL     1     -12.883  10.366  71.616  1.00  0.00    -0.440 N  
HETATM   20  O   UNL     1     -12.926  11.200  69.515  1.00  0.00    -0.031 OA 
ENDBRANCH  15  16
ENDBRANCH  14  15
ENDBRANCH   5  14
TORSDOF 6
ENDMDL
MODEL      172
REMARK 921   NORMALIZED FREE ENERGY PREDICTED BY IDOCK:   -2.48 KCAL/MOL
REMARK 922        TOTAL FREE ENERGY PREDICTED BY IDOCK:   -3.93 KCAL/MOL
REMARK 923 INTER-LIGAND FREE ENERGY PREDICTED BY IDOCK:   -3.56 KCAL/MOL
REMARK 924 INTRA-LIGAND FREE ENERGY PREDICTED BY IDOCK:   -0.37 KCAL/MOL
REMARK 927      BINDING AFFINITY PREDICTED BY RF-SCORE:    0.00 PKD
ROOT
HETATM    1  C   UNL     1     -10.800  13.534  68.222  1.00  0.00    -0.277 C  
HETATM    2  C   UNL     1      -9.673  12.510  68.305  1.00  0.00    -0.220 C  
HETATM    3  C   UNL     1      -9.993  11.136  67.661  1.00  0.00    -0.195 C  
HETATM    4  C   UNL     1     -10.224  11.366  66.152  1.00  0.00    -0.282 C  
HETATM    5  C   UNL     1      -8.931   9.983  67.960  1.00  0.00    -0.128 C  
HETATM    6  C   UNL     1      -7.512  10.403  67.522  1.00  0.00    -0.093 C  
ENDROOT
BRANCH   5   7
HETATM    7  C   UNL     1      -9.327   8.687  67.179  1.00  0.00    -0.151 C  
BRANCH   7   8
HETATM    8  O   UNL     1     -10.615   8.192  67.592  1.00  0.00    -0.233 OA 
BRANCH   8   9
HETATM    9  C   UNL     1     -10.729   6.860  67.786  1.00  0.00    -0.254 C  
HETATM   10  H2  UNL     1     -11.501   6.765  65.825  1.00  0.00     0.000 HD 
HETATM   11  O   UNL     1     -10.430   6.244  68.795  1.00  0.00    -0.186 OA 
HETATM   12  N   UNL     1     -11.240   6.274  66.681  1.00  0.00    -0.753 N  
HETATM   13  H1  UNL     1     -11.328   5.268  66.827  1.00  0.00     0.000 HD 
ENDBRANCH   8   9
ENDBRANCH   7   8
ENDBRANCH   5   7
BRANCH   5  14
HETATM   14  C   UNL     1      -8.901   9.580  69.472  1.00  0.00    -0.179 C  
BRANCH  14  15
HETATM   15  O   UNL     1      -7.573   9.493  70.012  1.00  0.00    -0.096 OA 
BRANCH  15  16
HETATM   16  C   UNL     1      -7.460   8.934  71.240  1.00  0.00    -0.103 C  
HETATM   17  H1  UNL     1      -6.138   7.976  72.308  1.00  0.00     0.000 HD 
HETATM   18  H2  UNL     1      -5.489   8.413  70.674  1.00  0.00     0.000 HD 
HETATM   19  N   UNL     1      -6.223   8.398  71.383  1.00  0.00    -0.039 N  
HETATM   20  O   UNL     1      -8.281   8.953  72.136  1.00  0.00    -0.373 OA 
ENDBRANCH  15  16
ENDBRANCH  14  15
ENDBRANCH   5  14
TORSDOF 6
ENDMDL
MODEL      173
REMARK 921   NORMALIZED FREE ENERGY PREDICTED BY IDOCK:   -2.46 KCAL/MOL
REMARK 922        TOTAL FREE ENERGY PREDICTED BY IDOCK:   -3.91 KCAL/MOL
REMARK 923 INTER-LIGAND FREE ENERGY PREDICTED BY IDOCK:   -3.63 KCAL/MOL
REMARK 924 INTRA-LIGAND FREE ENERGY PREDICTED BY IDOCK:   -0.28 KCAL/MOL
REMARK 927      BINDING AFFINITY PREDICTED BY RF-SCORE:    0.00 PKD
ROOT
HETATM    1  C   UNL     1     -10.112   9.936  67.489  1.00  0.00    -0.244 C  
HETATM    2  C   UNL     1     -10.429   8.646  68.238  1.00  0.00    -0.234 C  
HETATM    3  C   UNL     1     -10.344   8.754  69.783  1.00  0.00    -0.214 C  
HETATM    4  C   UNL     1     -11.414   9.766  70.245  1.00  0.00    -0.317 C  
HETATM    5  C   UNL     1     -10.422   7.365  70.564  1.00  0.00    -0.227 C  
HETATM    6  C   UNL     1     -11.710   6.593  70.204  1.00  0.00    -0.412 C  
ENDROOT
BRANCH   5   7
HETATM    7  C   UNL     1     -10.418   7.626  72.106  1.00  0.00    -0.221 C  
BRANCH   7   8
HETATM    8  O   UNL     1      -9.191   8.246  72.534  1.00  0.00    -0.219 OA 
BRANCH   8   9
HETATM    9  C   UNL     1      -8.833   8.077  73.826  1.00  0.00    -0.247 C  
HETATM   10  H2  UNL     1     -10.356   6.621  73.929  1.00  0.00     0.000 HD 
HETATM   11  O   UNL     1      -7.950   8.672  74.420  1.00  0.00    -0.366 OA 
HETATM   12  N   UNL     1      -9.610   7.132  74.401  1.00  0.00    -0.436 N  
HETATM   13  H1  UNL     1      -9.341   7.005  75.377  1.00  0.00     0.000 HD 
ENDBRANCH   8   9
ENDBRANCH   7   8
ENDBRANCH   5   7
BRANCH   5  14
HETATM   14  C   UNL     1      -9.183   6.452  70.281  1.00  0.00    -0.155 C  
BRANCH  14  15
HETATM   15  O   UNL     1      -8.112   7.136  69.610  1.00  0.00    -0.125 OA 
BRANCH  15  16
HETATM   16  C   UNL     1      -7.262   6.363  68.895  1.00  0.00    -0.084 C  
HETATM   17  H1  UNL     1      -7.202   5.432  67.182  1.00  0.00     0.000 HD 
HETATM   18  H2  UNL     1      -8.778   6.293  67.421  1.00  0.00     0.000 HD 
HETATM   19  N   UNL     1      -7.843   6.015  67.720  1.00  0.00    -0.104 N  
HETATM   20  O   UNL     1      -6.118   6.066  69.181  1.00  0.00    -0.026 OA 
ENDBRANCH  15  16
ENDBRANCH  14  15
ENDBRANCH   5  14
TORSDOF 6
ENDMDL
MODEL      174
REMARK 921   NORMALIZED FREE ENERGY PREDICTED BY IDOCK:   -2.45 KCAL/MOL
REMARK 922        TOTAL FREE ENERGY PREDICTED BY IDOCK:   -3.90 KCAL/MOL
REMARK 923 INTER-LIGAND FREE ENERGY PREDICTED BY IDOCK:   -3.54 KCAL/MOL
REMARK 924 INTRA-LIGAND FREE ENERGY PREDICTED BY IDOCK:   -0.37 KCAL/MOL
REMARK 927      BINDING AFFINITY PREDICTED BY RF-SCORE:    0.00 PKD
ROOT
HETATM    1  C   UNL     1      -8.319   6.699  73.401  1.00  0.00    -0.127 C  
HETATM    2  C   UNL     1      -9.104   5.872  72.388  1.00  0.00    -0.140 C  
HETATM    3  C   UNL     1      -8.818   6.219  70.904  1.00  0.00    -0.136 C  
HETATM    4  C   UNL     1      -7.333   5.906  70.623  1.00  0.00    -0.085 C  
HETATM    5  C   UNL     1      -9.807   5.546  69.848  1.00  0.00    -0.259 C  
HETATM    6  C   UNL     1      -9.816   4.010  69.991  1.00  0.00    -0.198 C  
ENDROOT
BRANCH   5   7
HETATM    7  C   UNL     1      -9.351   5.905  68.395  1.00  0.00    -0.120 C  
BRANCH   7   8
HETATM    8  O   UNL     1     -10.212   5.308  67.408  1.00  0.00    -0.185 OA 
BRANCH   8   9
HETATM    9  C   UNL     1      -9.640   4.918  66.248  1.00  0.00    -0.174 C  
HETATM   10  H2  UNL     1      -9.643   6.956  65.704  1.00  0.00     0.000 HD 
HETATM   11  O   UNL     1      -9.357   3.777  65.924  1.00  0.00    -0.151 OA 
HETATM   12  N   UNL     1      -9.415   5.992  65.459  1.00  0.00    -0.359 N  
HETATM   13  H1  UNL     1      -8.983   5.698  64.583  1.00  0.00     0.000 HD 
ENDBRANCH   8   9
ENDBRANCH   7   8
ENDBRANCH   5   7
BRANCH   5  14
HETATM   14  C   UNL     1     -11.273   6.080  69.981  1.00  0.00    -0.355 C  
BRANCH  14  15
HETATM   15  O   UNL     1     -11.344   7.451  70.404  1.00  0.00    -0.276 OA 
BRANCH  15  16
HETATM   16  C   UNL     1     -12.341   7.762  71.265  1.00  0.00    -0.293 C  
HETATM   17  H1  UNL     1     -13.173   9.343  72.048  1.00  0.00     0.000 HD 
HETATM   18  H2  UNL     1     -11.823   9.784  70.923  1.00  0.00     0.000 HD 
HETATM   19  N   UNL     1     -12.422   9.109  71.399  1.00  0.00    -0.318 N  
HETATM   20  O   UNL     1     -13.120   6.995  71.798  1.00  0.00    -0.361 OA 
ENDBRANCH  15  16
ENDBRANCH  14  15
ENDBRANCH   5  14
TORSDOF 6
ENDMDL
MODEL      175
REMARK 921   NORMALIZED FREE ENERGY PREDICTED BY IDOCK:   -2.38 KCAL/MOL
REMARK 922        TOTAL FREE ENERGY PREDICTED BY IDOCK:   -3.80 KCAL/MOL
REMARK 923 INTER-LIGAND FREE ENERGY PREDICTED BY IDOCK:   -3.47 KCAL/MOL
REMARK 924 INTRA-LIGAND FREE ENERGY PREDICTED BY IDOCK:   -0.33 KCAL/MOL
REMARK 927      BINDING AFFINITY PREDICTED BY RF-SCORE:    0.00 PKD
ROOT
HETATM    1  C   UNL     1      -7.595   8.537  72.454  1.00  0.00    -0.088 C  
HETATM    2  C   UNL     1      -8.353   8.315  71.150  1.00  0.00    -0.149 C  
HETATM    3  C   UNL     1      -8.240   9.476  70.126  1.00  0.00    -0.192 C  
HETATM    4  C   UNL     1      -6.757   9.603  69.720  1.00  0.00    -0.062 C  
HETATM    5  C   UNL     1      -9.223   9.372  68.874  1.00  0.00    -0.140 C  
HETATM    6  C   UNL     1      -9.027   8.041  68.118  1.00  0.00    -0.135 C  
ENDROOT
BRANCH   5   7
HETATM    7  C   UNL     1      -8.941  10.550  67.884  1.00  0.00    -0.137 C  
BRANCH   7   8
HETATM    8  O   UNL     1      -9.068  11.829  68.533  1.00  0.00    -0.190 OA 
BRANCH   8   9
HETATM    9  C   UNL     1      -9.126  12.920  67.738  1.00  0.00    -0.197 C  
HETATM   10  H2  UNL     1      -7.362  12.200  66.831  1.00  0.00     0.000 HD 
HETATM   11  O   UNL     1      -9.973  13.797  67.766  1.00  0.00    -0.232 OA 
HETATM   12  N   UNL     1      -8.085  12.919  66.876  1.00  0.00    -0.398 N  
HETATM   13  H1  UNL     1      -8.127  13.743  66.276  1.00  0.00     0.000 HD 
ENDBRANCH   8   9
ENDBRANCH   7   8
ENDBRANCH   5   7
BRANCH   5  14
HETATM   14  C   UNL     1     -10.727   9.510  69.285  1.00  0.00    -0.222 C  
BRANCH  14  15
HETATM   15  O   UNL     1     -10.927  10.314  70.459  1.00  0.00    -0.307 OA 
BRANCH  15  16
HETATM   16  C   UNL     1     -11.971  11.174  70.427  1.00  0.00    -0.378 C  
HETATM   17  H1  UNL     1     -12.981  12.218  69.124  1.00  0.00     0.000 HD 
HETATM   18  H2  UNL     1     -11.656  11.265  68.336  1.00  0.00     0.000 HD 
HETATM   19  N   UNL     1     -12.194  11.569  69.149  1.00  0.00    -0.242 N  
HETATM   20  O   UNL     1     -12.680  11.508  71.357  1.00  0.00    -0.397 OA 
ENDBRANCH  15  16
ENDBRANCH  14  15
ENDBRANCH   5  14
TORSDOF 6
ENDMDL
MODEL      176
REMARK 921   NORMALIZED FREE ENERGY PREDICTED BY IDOCK:   -2.37 KCAL/MOL
REMARK 922        TOTAL FREE ENERGY PREDICTED BY IDOCK:   -3.78 KCAL/MOL
REMARK 923 INTER-LIGAND FREE ENERGY PREDICTED BY IDOCK:   -3.24 KCAL/MOL
REMARK 924 INTRA-LIGAND FREE ENERGY PREDICTED BY IDOCK:   -0.55 KCAL/MOL
REMARK 927      BINDING AFFINITY PREDICTED BY RF-SCORE:    0.00 PKD
ROOT
HETATM    1  C   UNL     1     -10.065  14.680  66.516  1.00  0.00    -0.286 C  
HETATM    2  C   UNL     1     -10.221  13.169  66.656  1.00  0.00    -0.259 C  
HETATM    3  C   UNL     1     -10.235  12.650  68.117  1.00  0.00    -0.240 C  
HETATM    4  C   UNL     1     -11.470  13.254  68.820  1.00  0.00    -0.346 C  
HETATM    5  C   UNL     1     -10.143  11.065  68.274  1.00  0.00    -0.191 C  
HETATM    6  C   UNL     1     -11.276  10.360  67.499  1.00  0.00    -0.254 C  
ENDROOT
BRANCH   5   7
HETATM    7  C   UNL     1     -10.260  10.677  69.785  1.00  0.00    -0.052 C  
BRANCH   7   8
HETATM    8  O   UNL     1     -11.453   9.913  70.044  1.00  0.00    -0.247 OA 
BRANCH   8   9
HETATM    9  C   UNL     1     -11.302   8.734  70.687  1.00  0.00    -0.254 C  
HETATM   10  H2  UNL     1     -12.009   9.724  72.410  1.00  0.00     0.000 HD 
HETATM   11  O   UNL     1     -10.896   7.690  70.205  1.00  0.00    -0.244 OA 
HETATM   12  N   UNL     1     -11.668   8.863  71.981  1.00  0.00    -0.367 N  
HETATM   13  H1  UNL     1     -11.553   7.974  72.467  1.00  0.00     0.000 HD 
ENDBRANCH   8   9
ENDBRANCH   7   8
ENDBRANCH   5   7
BRANCH   5  14
HETATM   14  C   UNL     1      -8.766  10.499  67.792  1.00  0.00    -0.122 C  
BRANCH  14  15
HETATM   15  O   UNL     1      -8.716   9.063  67.768  1.00  0.00    -0.124 OA 
BRANCH  15  16
HETATM   16  C   UNL     1      -7.654   8.490  68.381  1.00  0.00    -0.096 C  
HETATM   17  H1  UNL     1      -5.822   7.962  67.969  1.00  0.00     0.000 HD 
HETATM   18  H2  UNL     1      -6.642   8.708  66.536  1.00  0.00     0.000 HD 
HETATM   19  N   UNL     1      -6.622   8.395  67.507  1.00  0.00    -0.058 N  
HETATM   20  O   UNL     1      -7.564   8.167  69.550  1.00  0.00    -0.094 OA 
ENDBRANCH  15  16
ENDBRANCH  14  15
ENDBRANCH   5  14
TORSDOF 6
ENDMDL
MODEL      177
REMARK 921   NORMALIZED FREE ENERGY PREDICTED BY IDOCK:   -2.35 KCAL/MOL
REMARK 922        TOTAL FREE ENERGY PREDICTED BY IDOCK:   -3.76 KCAL/MOL
REMARK 923 INTER-LIGAND FREE ENERGY PREDICTED BY IDOCK:   -3.28 KCAL/MOL
REMARK 924 INTRA-LIGAND FREE ENERGY PREDICTED BY IDOCK:   -0.48 KCAL/MOL
REMARK 927      BINDING AFFINITY PREDICTED BY RF-SCORE:    0.00 PKD
ROOT
HETATM    1  C   UNL     1     -11.524   7.133  72.173  1.00  0.00    -0.306 C  
HETATM    2  C   UNL     1     -11.381   7.310  70.665  1.00  0.00    -0.311 C  
HETATM    3  C   UNL     1     -10.128   6.637  70.047  1.00  0.00    -0.199 C  
HETATM    4  C   UNL     1     -10.253   5.115  70.269  1.00  0.00    -0.342 C  
HETATM    5  C   UNL     1      -9.831   7.023  68.528  1.00  0.00    -0.147 C  
HETATM    6  C   UNL     1     -11.043   6.710  67.625  1.00  0.00    -0.357 C  
ENDROOT
BRANCH   5   7
HETATM    7  C   UNL     1      -8.601   6.208  68.007  1.00  0.00    -0.115 C  
BRANCH   7   8
HETATM    8  O   UNL     1      -8.327   6.491  66.623  1.00  0.00    -0.109 OA 
BRANCH   8   9
HETATM    9  C   UNL     1      -8.217   5.434  65.789  1.00  0.00    -0.121 C  
HETATM   10  H2  UNL     1      -9.719   6.351  64.626  1.00  0.00     0.000 HD 
HETATM   11  O   UNL     1      -7.466   4.482  65.917  1.00  0.00    -0.079 OA 
HETATM   12  N   UNL     1      -9.079   5.567  64.757  1.00  0.00    -0.360 N  
HETATM   13  H1  UNL     1      -8.997   4.769  64.127  1.00  0.00     0.000 HD 
ENDBRANCH   8   9
ENDBRANCH   7   8
ENDBRANCH   5   7
BRANCH   5  14
HETATM   14  C   UNL     1      -9.447   8.532  68.362  1.00  0.00    -0.135 C  
BRANCH  14  15
HETATM   15  O   UNL     1      -8.138   8.846  68.864  1.00  0.00    -0.109 OA 
BRANCH  15  16
HETATM   16  C   UNL     1      -8.084   9.734  69.883  1.00  0.00    -0.182 C  
HETATM   17  H1  UNL     1      -7.597  11.598  70.190  1.00  0.00     0.000 HD 
HETATM   18  H2  UNL     1      -7.383  11.127  68.453  1.00  0.00     0.000 HD 
HETATM   19  N   UNL     1      -7.638  10.929  69.421  1.00  0.00    -0.127 N  
HETATM   20  O   UNL     1      -8.443   9.561  71.032  1.00  0.00    -0.284 OA 
ENDBRANCH  15  16
ENDBRANCH  14  15
ENDBRANCH   5  14
TORSDOF 6
ENDMDL
MODEL      178
REMARK 921   NORMALIZED FREE ENERGY PREDICTED BY IDOCK:   -2.31 KCAL/MOL
REMARK 922        TOTAL FREE ENERGY PREDICTED BY IDOCK:   -3.71 KCAL/MOL
REMARK 923 INTER-LIGAND FREE ENERGY PREDICTED BY IDOCK:   -3.24 KCAL/MOL
REMARK 924 INTRA-LIGAND FREE ENERGY PREDICTED BY IDOCK:   -0.47 KCAL/MOL
REMARK 927      BINDING AFFINITY PREDICTED BY RF-SCORE:    0.00 PKD
ROOT
HETATM    1  C   UNL     1      -8.297   5.679  67.358  1.00  0.00    -0.100 C  
HETATM    2  C   UNL     1      -8.808   6.780  68.282  1.00  0.00    -0.125 C  
HETATM    3  C   UNL     1      -9.709   7.839  67.596  1.00  0.00    -0.193 C  
HETATM    4  C   UNL     1     -10.974   7.119  67.082  1.00  0.00    -0.342 C  
HETATM    5  C   UNL     1     -10.040   9.124  68.481  1.00  0.00    -0.212 C  
HETATM    6  C   UNL     1     -10.696   8.726  69.821  1.00  0.00    -0.220 C  
ENDROOT
BRANCH   5   7
HETATM    7  C   UNL     1     -11.026  10.059  67.706  1.00  0.00    -0.249 C  
BRANCH   7   8
HETATM    8  O   UNL     1     -11.983  10.668  68.592  1.00  0.00    -0.401 OA 
BRANCH   8   9
HETATM    9  C   UNL     1     -12.032  12.018  68.611  1.00  0.00    -0.235 C  
HETATM   10  H2  UNL     1     -11.493  11.944  66.573  1.00  0.00     0.000 HD 
HETATM   11  O   UNL     1     -12.305  12.723  69.568  1.00  0.00    -0.138 OA 
HETATM   12  N   UNL     1     -11.726  12.509  67.389  1.00  0.00    -0.370 N  
HETATM   13  H1  UNL     1     -11.762  13.529  67.403  1.00  0.00     0.000 HD 
ENDBRANCH   8   9
ENDBRANCH   7   8
ENDBRANCH   5   7
BRANCH   5  14
HETATM   14  C   UNL     1      -8.768   9.989  68.773  1.00  0.00    -0.136 C  
BRANCH  14  15
HETATM   15  O   UNL     1      -8.986  11.398  68.600  1.00  0.00    -0.172 OA 
BRANCH  15  16
HETATM   16  C   UNL     1      -8.203  12.018  67.687  1.00  0.00    -0.155 C  
HETATM   17  H1  UNL     1      -6.384  12.706  67.527  1.00  0.00     0.000 HD 
HETATM   18  H2  UNL     1      -6.684  11.976  69.158  1.00  0.00     0.000 HD 
HETATM   19  N   UNL     1      -6.974  12.238  68.216  1.00  0.00    -0.075 N  
HETATM   20  O   UNL     1      -8.485  12.286  66.535  1.00  0.00    -0.115 OA 
ENDBRANCH  15  16
ENDBRANCH  14  15
ENDBRANCH   5  14
TORSDOF 6
ENDMDL
MODEL      179
REMARK 921   NORMALIZED FREE ENERGY PREDICTED BY IDOCK:   -2.31 KCAL/MOL
REMARK 922        TOTAL FREE ENERGY PREDICTED BY IDOCK:   -3.71 KCAL/MOL
REMARK 923 INTER-LIGAND FREE ENERGY PREDICTED BY IDOCK:   -3.19 KCAL/MOL
REMARK 924 INTRA-LIGAND FREE ENERGY PREDICTED BY IDOCK:   -0.51 KCAL/MOL
REMARK 927      BINDING AFFINITY PREDICTED BY RF-SCORE:    0.00 PKD
ROOT
HETATM    1  C   UNL     1      -7.244   6.774  67.167  1.00  0.00    -0.085 C  
HETATM    2  C   UNL     1      -8.417   7.713  67.428  1.00  0.00    -0.122 C  
HETATM    3  C   UNL     1      -8.362   9.054  66.652  1.00  0.00    -0.118 C  
HETATM    4  C   UNL     1      -8.428   8.729  65.144  1.00  0.00    -0.192 C  
HETATM    5  C   UNL     1      -9.438  10.143  67.102  1.00  0.00    -0.185 C  
HETATM    6  C   UNL     1     -10.873   9.585  67.001  1.00  0.00    -0.125 C  
ENDROOT
BRANCH   5   7
HETATM    7  C   UNL     1      -9.331  11.403  66.181  1.00  0.00    -0.215 C  
BRANCH   7   8
HETATM    8  O   UNL     1     -10.515  11.575  65.380  1.00  0.00    -0.263 OA 
BRANCH   8   9
HETATM    9  C   UNL     1     -10.963  12.838  65.208  1.00  0.00    -0.284 C  
HETATM   10  H2  UNL     1     -12.673  12.247  66.293  1.00  0.00     0.000 HD 
HETATM   11  O   UNL     1     -10.392  13.738  64.616  1.00  0.00    -0.426 OA 
HETATM   12  N   UNL     1     -12.172  12.983  65.794  1.00  0.00    -0.454 N  
HETATM   13  H1  UNL     1     -12.512  13.936  65.664  1.00  0.00     0.000 HD 
ENDBRANCH   8   9
ENDBRANCH   7   8
ENDBRANCH   5   7
BRANCH   5  14
HETATM   14  C   UNL     1      -9.191  10.656  68.560  1.00  0.00    -0.170 C  
BRANCH  14  15
HETATM   15  O   UNL     1      -7.842  11.093  68.790  1.00  0.00    -0.129 OA 
BRANCH  15  16
HETATM   16  C   UNL     1      -7.225  10.586  69.883  1.00  0.00    -0.130 C  
HETATM   17  H1  UNL     1      -7.549   9.259  71.276  1.00  0.00     0.000 HD 
HETATM   18  H2  UNL     1      -8.932   9.356  70.109  1.00  0.00     0.000 HD 
HETATM   19  N   UNL     1      -8.014   9.641  70.452  1.00  0.00    -0.177 N  
HETATM   20  O   UNL     1      -6.108  10.846  70.285  1.00  0.00    -0.116 OA 
ENDBRANCH  15  16
ENDBRANCH  14  15
ENDBRANCH   5  14
TORSDOF 6
ENDMDL
MODEL      180
REMARK 921   NORMALIZED FREE ENERGY PREDICTED BY IDOCK:   -2.28 KCAL/MOL
REMARK 922        TOTAL FREE ENERGY PREDICTED BY IDOCK:   -3.67 KCAL/MOL
REMARK 923 INTER-LIGAND FREE ENERGY PREDICTED BY IDOCK:   -3.39 KCAL/MOL
REMARK 924 INTRA-LIGAND FREE ENERGY PREDICTED BY IDOCK:   -0.28 KCAL/MOL
REMARK 927      BINDING AFFINITY PREDICTED BY RF-SCORE:    0.00 PKD
ROOT
HETATM    1  C   UNL     1     -12.962   9.715  72.423  1.00  0.00    -0.358 C  
HETATM    2  C   UNL     1     -12.117   8.893  71.455  1.00  0.00    -0.395 C  
HETATM    3  C   UNL     1     -10.632   8.724  71.870  1.00  0.00    -0.425 C  
HETATM    4  C   UNL     1     -10.601   7.944  73.202  1.00  0.00    -0.342 C  
HETATM    5  C   UNL     1      -9.684   8.090  70.755  1.00  0.00    -0.179 C  
HETATM    6  C   UNL     1     -10.214   6.718  70.286  1.00  0.00    -0.216 C  
ENDROOT
BRANCH   5   7
HETATM    7  C   UNL     1      -8.245   7.892  71.336  1.00  0.00    -0.107 C  
BRANCH   7   8
HETATM    8  O   UNL     1      -7.288   7.618  70.296  1.00  0.00    -0.069 OA 
BRANCH   8   9
HETATM    9  C   UNL     1      -6.505   6.528  70.452  1.00  0.00    -0.044 C  
HETATM   10  H2  UNL     1      -5.982   7.324  72.334  1.00  0.00     0.000 HD 
HETATM   11  O   UNL     1      -6.357   5.619  69.653  1.00  0.00    -0.033 OA 
HETATM   12  N   UNL     1      -5.879   6.576  71.648  1.00  0.00    -0.036 N  
HETATM   13  H1  UNL     1      -5.287   5.754  71.766  1.00  0.00     0.000 HD 
ENDBRANCH   8   9
ENDBRANCH   7   8
ENDBRANCH   5   7
BRANCH   5  14
HETATM   14  C   UNL     1      -9.520   9.026  69.511  1.00  0.00    -0.164 C  
BRANCH  14  15
HETATM   15  O   UNL     1     -10.583   8.895  68.554  1.00  0.00    -0.204 OA 
BRANCH  15  16
HETATM   16  C   UNL     1     -10.539   9.731  67.491  1.00  0.00    -0.275 C  
HETATM   17  H1  UNL     1      -9.651   9.868  65.759  1.00  0.00     0.000 HD 
HETATM   18  H2  UNL     1      -9.156   8.369  66.649  1.00  0.00     0.000 HD 
HETATM   19  N   UNL     1      -9.685   9.238  66.561  1.00  0.00    -0.219 N  
HETATM   20  O   UNL     1     -11.201  10.736  67.315  1.00  0.00    -0.324 OA 
ENDBRANCH  15  16
ENDBRANCH  14  15
ENDBRANCH   5  14
TORSDOF 6
ENDMDL
MODEL      181
REMARK 921   NORMALIZED FREE ENERGY PREDICTED BY IDOCK:   -2.26 KCAL/MOL
REMARK 922        TOTAL FREE ENERGY PREDICTED BY IDOCK:   -3.64 KCAL/MOL
REMARK 923 INTER-LIGAND FREE ENERGY PREDICTED BY IDOCK:   -3.16 KCAL/MOL
REMARK 924 INTRA-LIGAND FREE ENERGY PREDICTED BY IDOCK:   -0.48 KCAL/MOL
REMARK 927      BINDING AFFINITY PREDICTED BY RF-SCORE:    0.00 PKD
ROOT
HETATM    1  C   UNL     1     -12.359  11.189  69.724  1.00  0.00    -0.315 C  
HETATM    2  C   UNL     1     -11.029  10.470  69.929  1.00  0.00    -0.359 C  
HETATM    3  C   UNL     1     -10.698   9.398  68.858  1.00  0.00    -0.203 C  
HETATM    4  C   UNL     1     -10.568  10.116  67.498  1.00  0.00    -0.327 C  
HETATM    5  C   UNL     1      -9.445   8.469  69.194  1.00  0.00    -0.154 C  
HETATM    6  C   UNL     1      -8.176   9.311  69.444  1.00  0.00    -0.114 C  
ENDROOT
BRANCH   5   7
HETATM    7  C   UNL     1      -9.169   7.502  67.996  1.00  0.00    -0.137 C  
BRANCH   7   8
HETATM    8  O   UNL     1      -7.788   7.098  67.949  1.00  0.00    -0.110 OA 
BRANCH   8   9
HETATM    9  C   UNL     1      -7.535   5.806  67.647  1.00  0.00    -0.078 C  
HETATM   10  H2  UNL     1      -9.072   5.968  66.211  1.00  0.00     0.000 HD 
HETATM   11  O   UNL     1      -6.696   5.089  68.166  1.00  0.00    -0.051 OA 
HETATM   12  N   UNL     1      -8.361   5.391  66.661  1.00  0.00    -0.108 N  
HETATM   13  H1  UNL     1      -8.171   4.415  66.433  1.00  0.00     0.000 HD 
ENDBRANCH   8   9
ENDBRANCH   7   8
ENDBRANCH   5   7
BRANCH   5  14
HETATM   14  C   UNL     1      -9.702   7.551  70.436  1.00  0.00    -0.179 C  
BRANCH  14  15
HETATM   15  O   UNL     1      -9.128   8.061  71.650  1.00  0.00    -0.133 OA 
BRANCH  15  16
HETATM   16  C   UNL     1      -9.926   8.046  72.743  1.00  0.00    -0.294 C  
HETATM   17  H1  UNL     1      -9.806   7.664  74.652  1.00  0.00     0.000 HD 
HETATM   18  H2  UNL     1      -8.210   7.442  73.823  1.00  0.00     0.000 HD 
HETATM   19  N   UNL     1      -9.204   7.675  73.829  1.00  0.00    -0.269 N  
HETATM   20  O   UNL     1     -11.093   8.382  72.807  1.00  0.00    -0.327 OA 
ENDBRANCH  15  16
ENDBRANCH  14  15
ENDBRANCH   5  14
TORSDOF 6
ENDMDL
MODEL      182
REMARK 921   NORMALIZED FREE ENERGY PREDICTED BY IDOCK:   -2.25 KCAL/MOL
REMARK 922        TOTAL FREE ENERGY PREDICTED BY IDOCK:   -3.62 KCAL/MOL
REMARK 923 INTER-LIGAND FREE ENERGY PREDICTED BY IDOCK:   -3.28 KCAL/MOL
REMARK 924 INTRA-LIGAND FREE ENERGY PREDICTED BY IDOCK:   -0.34 KCAL/MOL
REMARK 927      BINDING AFFINITY PREDICTED BY RF-SCORE:    0.00 PKD
ROOT
HETATM    1  C   UNL     1      -8.179   8.517  70.785  1.00  0.00    -0.141 C  
HETATM    2  C   UNL     1      -7.922   8.899  69.330  1.00  0.00    -0.100 C  
HETATM    3  C   UNL     1      -9.198   9.199  68.502  1.00  0.00    -0.136 C  
HETATM    4  C   UNL     1      -9.890  10.428  69.130  1.00  0.00    -0.237 C  
HETATM    5  C   UNL     1      -8.966   9.350  66.930  1.00  0.00    -0.148 C  
HETATM    6  C   UNL     1      -7.922  10.444  66.623  1.00  0.00    -0.120 C  
ENDROOT
BRANCH   5   7
HETATM    7  C   UNL     1     -10.311   9.740  66.234  1.00  0.00    -0.165 C  
BRANCH   7   8
HETATM    8  O   UNL     1     -10.117  10.044  64.840  1.00  0.00    -0.316 OA 
BRANCH   8   9
HETATM    9  C   UNL     1     -10.657  11.194  64.380  1.00  0.00    -0.343 C  
HETATM   10  H2  UNL     1     -11.369  11.501  66.341  1.00  0.00     0.000 HD 
HETATM   11  O   UNL     1     -10.596  11.620  63.239  1.00  0.00    -0.380 OA 
HETATM   12  N   UNL     1     -11.301  11.835  65.379  1.00  0.00    -0.268 N  
HETATM   13  H1  UNL     1     -11.710  12.703  65.032  1.00  0.00     0.000 HD 
ENDBRANCH   8   9
ENDBRANCH   7   8
ENDBRANCH   5   7
BRANCH   5  14
HETATM   14  C   UNL     1      -8.512   8.009  66.265  1.00  0.00    -0.133 C  
BRANCH  14  15
HETATM   15  O   UNL     1      -8.832   6.847  67.046  1.00  0.00    -0.116 OA 
BRANCH  15  16
HETATM   16  C   UNL     1      -9.898   6.122  66.633  1.00  0.00    -0.159 C  
HETATM   17  H1  UNL     1     -10.282   4.580  65.501  1.00  0.00     0.000 HD 
HETATM   18  H2  UNL     1      -8.510   4.951  65.547  1.00  0.00     0.000 HD 
HETATM   19  N   UNL     1      -9.479   5.127  65.813  1.00  0.00    -0.158 N  
HETATM   20  O   UNL     1     -11.057   6.253  66.978  1.00  0.00    -0.362 OA 
ENDBRANCH  15  16
ENDBRANCH  14  15
ENDBRANCH   5  14
TORSDOF 6
ENDMDL
MODEL      183
REMARK 921   NORMALIZED FREE ENERGY PREDICTED BY IDOCK:   -2.24 KCAL/MOL
REMARK 922        TOTAL FREE ENERGY PREDICTED BY IDOCK:   -3.62 KCAL/MOL
REMARK 923 INTER-LIGAND FREE ENERGY PREDICTED BY IDOCK:   -3.13 KCAL/MOL
REMARK 924 INTRA-LIGAND FREE ENERGY PREDICTED BY IDOCK:   -0.49 KCAL/MOL
REMARK 927      BINDING AFFINITY PREDICTED BY RF-SCORE:    0.00 PKD
ROOT
HETATM    1  C   UNL     1     -10.257  14.641  67.314  1.00  0.00    -0.241 C  
HETATM    2  C   UNL     1      -9.798  13.612  66.286  1.00  0.00    -0.310 C  
HETATM    3  C   UNL     1     -10.260  12.159  66.570  1.00  0.00    -0.230 C  
HETATM    4  C   UNL     1     -11.802  12.135  66.510  1.00  0.00    -0.322 C  
HETATM    5  C   UNL     1      -9.583  11.041  65.654  1.00  0.00    -0.265 C  
HETATM    6  C   UNL     1      -9.808  11.336  64.156  1.00  0.00    -0.323 C  
ENDROOT
BRANCH   5   7
HETATM    7  C   UNL     1     -10.204   9.644  65.982  1.00  0.00    -0.185 C  
BRANCH   7   8
HETATM    8  O   UNL     1     -10.521   9.521  67.381  1.00  0.00    -0.244 OA 
BRANCH   8   9
HETATM    9  C   UNL     1     -10.206   8.353  67.984  1.00  0.00    -0.212 C  
HETATM   10  H2  UNL     1      -8.525   9.354  68.771  1.00  0.00     0.000 HD 
HETATM   11  O   UNL     1     -10.830   7.308  67.914  1.00  0.00    -0.188 OA 
HETATM   12  N   UNL     1      -9.067   8.494  68.697  1.00  0.00    -0.139 N  
HETATM   13  H1  UNL     1      -8.829   7.612  69.152  1.00  0.00     0.000 HD 
ENDBRANCH   8   9
ENDBRANCH   7   8
ENDBRANCH   5   7
BRANCH   5  14
HETATM   14  C   UNL     1      -8.048  10.902  65.922  1.00  0.00    -0.120 C  
BRANCH  14  15
HETATM   15  O   UNL     1      -7.716  10.835  67.318  1.00  0.00    -0.104 OA 
BRANCH  15  16
HETATM   16  C   UNL     1      -6.747  11.677  67.746  1.00  0.00    -0.072 C  
HETATM   17  H1  UNL     1      -6.455  12.997  69.152  1.00  0.00     0.000 HD 
HETATM   18  H2  UNL     1      -8.106  12.258  69.259  1.00  0.00     0.000 HD 
HETATM   19  N   UNL     1      -7.185  12.362  68.830  1.00  0.00    -0.093 N  
HETATM   20  O   UNL     1      -5.616  11.781  67.309  1.00  0.00    -0.085 OA 
ENDBRANCH  15  16
ENDBRANCH  14  15
ENDBRANCH   5  14
TORSDOF 6
ENDMDL
MODEL      184
REMARK 921   NORMALIZED FREE ENERGY PREDICTED BY IDOCK:   -2.23 KCAL/MOL
REMARK 922        TOTAL FREE ENERGY PREDICTED BY IDOCK:   -3.60 KCAL/MOL
REMARK 923 INTER-LIGAND FREE ENERGY PREDICTED BY IDOCK:   -3.11 KCAL/MOL
REMARK 924 INTRA-LIGAND FREE ENERGY PREDICTED BY IDOCK:   -0.50 KCAL/MOL
REMARK 927      BINDING AFFINITY PREDICTED BY RF-SCORE:    0.00 PKD
ROOT
HETATM    1  C   UNL     1      -5.734   8.337  66.110  1.00  0.00    -0.040 C  
HETATM    2  C   UNL     1      -6.432   7.586  67.238  1.00  0.00    -0.061 C  
HETATM    3  C   UNL     1      -7.107   6.255  66.814  1.00  0.00    -0.073 C  
HETATM    4  C   UNL     1      -5.999   5.303  66.315  1.00  0.00    -0.022 C  
HETATM    5  C   UNL     1      -8.049   5.591  67.918  1.00  0.00    -0.100 C  
HETATM    6  C   UNL     1      -7.280   5.345  69.233  1.00  0.00    -0.065 C  
ENDROOT
BRANCH   5   7
HETATM    7  C   UNL     1      -8.586   4.218  67.395  1.00  0.00    -0.104 C  
BRANCH   7   8
HETATM    8  O   UNL     1      -9.923   4.338  66.874  1.00  0.00    -0.216 OA 
BRANCH   8   9
HETATM    9  C   UNL     1     -10.070   4.262  65.533  1.00  0.00    -0.223 C  
HETATM   10  H2  UNL     1     -12.100   4.738  65.852  1.00  0.00     0.000 HD 
HETATM   11  O   UNL     1      -9.200   4.000  64.720  1.00  0.00    -0.135 OA 
HETATM   12  N   UNL     1     -11.353   4.518  65.193  1.00  0.00    -0.949 N  
HETATM   13  H1  UNL     1     -11.465   4.460  64.181  1.00  0.00     0.000 HD 
ENDBRANCH   8   9
ENDBRANCH   7   8
ENDBRANCH   5   7
BRANCH   5  14
HETATM   14  C   UNL     1      -9.315   6.460  68.221  1.00  0.00    -0.109 C  
BRANCH  14  15
HETATM   15  O   UNL     1      -9.416   6.860  69.597  1.00  0.00    -0.148 OA 
BRANCH  15  16
HETATM   16  C   UNL     1     -10.608   6.642  70.199  1.00  0.00    -0.221 C  
HETATM   17  H1  UNL     1     -11.404   6.748  71.977  1.00  0.00     0.000 HD 
HETATM   18  H2  UNL     1      -9.658   7.232  71.994  1.00  0.00     0.000 HD 
HETATM   19  N   UNL     1     -10.505   6.913  71.523  1.00  0.00    -0.212 N  
HETATM   20  O   UNL     1     -11.656   6.330  69.666  1.00  0.00    -0.430 OA 
ENDBRANCH  15  16
ENDBRANCH  14  15
ENDBRANCH   5  14
TORSDOF 6
ENDMDL
MODEL      185
REMARK 921   NORMALIZED FREE ENERGY PREDICTED BY IDOCK:   -2.22 KCAL/MOL
REMARK 922        TOTAL FREE ENERGY PREDICTED BY IDOCK:   -3.58 KCAL/MOL
REMARK 923 INTER-LIGAND FREE ENERGY PREDICTED BY IDOCK:   -3.06 KCAL/MOL
REMARK 924 INTRA-LIGAND FREE ENERGY PREDICTED BY IDOCK:   -0.52 KCAL/MOL
REMARK 927      BINDING AFFINITY PREDICTED BY RF-SCORE:    0.00 PKD
ROOT
HETATM    1  C   UNL     1      -6.600   6.309  66.756  1.00  0.00    -0.055 C  
HETATM    2  C   UNL     1      -7.973   6.617  67.344  1.00  0.00    -0.114 C  
HETATM    3  C   UNL     1      -8.440   8.086  67.174  1.00  0.00    -0.124 C  
HETATM    4  C   UNL     1      -8.572   8.365  65.661  1.00  0.00    -0.197 C  
HETATM    5  C   UNL     1      -9.748   8.482  67.997  1.00  0.00    -0.180 C  
HETATM    6  C   UNL     1     -10.931   7.555  67.646  1.00  0.00    -0.093 C  
ENDROOT
BRANCH   5   7
HETATM    7  C   UNL     1     -10.156   9.954  67.662  1.00  0.00    -0.197 C  
BRANCH   7   8
HETATM    8  O   UNL     1     -11.576  10.152  67.792  1.00  0.00    -0.239 OA 
BRANCH   8   9
HETATM    9  C   UNL     1     -11.991  11.036  68.726  1.00  0.00    -0.225 C  
HETATM   10  H2  UNL     1     -12.670   9.368  69.825  1.00  0.00     0.000 HD 
HETATM   11  O   UNL     1     -11.884  12.249  68.678  1.00  0.00    -0.310 OA 
HETATM   12  N   UNL     1     -12.566  10.380  69.759  1.00  0.00    -0.548 N  
HETATM   13  H1  UNL     1     -12.880  11.047  70.465  1.00  0.00     0.000 HD 
ENDBRANCH   8   9
ENDBRANCH   7   8
ENDBRANCH   5   7
BRANCH   5  14
HETATM   14  C   UNL     1      -9.511   8.444  69.544  1.00  0.00    -0.166 C  
BRANCH  14  15
HETATM   15  O   UNL     1      -8.319   9.131  69.956  1.00  0.00    -0.120 OA 
BRANCH  15  16
HETATM   16  C   UNL     1      -7.630   8.576  70.980  1.00  0.00    -0.090 C  
HETATM   17  H1  UNL     1      -6.705   6.912  71.404  1.00  0.00     0.000 HD 
HETATM   18  H2  UNL     1      -7.409   6.880  69.735  1.00  0.00     0.000 HD 
HETATM   19  N   UNL     1      -7.224   7.330  70.632  1.00  0.00    -0.065 N  
HETATM   20  O   UNL     1      -7.328   9.100  72.035  1.00  0.00    -0.335 OA 
ENDBRANCH  15  16
ENDBRANCH  14  15
ENDBRANCH   5  14
TORSDOF 6
ENDMDL
MODEL      186
REMARK 921   NORMALIZED FREE ENERGY PREDICTED BY IDOCK:   -2.19 KCAL/MOL
REMARK 922        TOTAL FREE ENERGY PREDICTED BY IDOCK:   -3.54 KCAL/MOL
REMARK 923 INTER-LIGAND FREE ENERGY PREDICTED BY IDOCK:   -3.06 KCAL/MOL
REMARK 924 INTRA-LIGAND FREE ENERGY PREDICTED BY IDOCK:   -0.49 KCAL/MOL
REMARK 927      BINDING AFFINITY PREDICTED BY RF-SCORE:    0.00 PKD
ROOT
HETATM    1  C   UNL     1      -5.212   4.701  70.230  1.00  0.00     0.000 C  
HETATM    2  C   UNL     1      -6.714   4.824  69.995  1.00  0.00    -0.037 C  
HETATM    3  C   UNL     1      -7.226   4.152  68.695  1.00  0.00    -0.055 C  
HETATM    4  C   UNL     1      -6.954   2.637  68.809  1.00  0.00    -0.044 C  
HETATM    5  C   UNL     1      -8.738   4.486  68.309  1.00  0.00    -0.113 C  
HETATM    6  C   UNL     1      -9.702   4.117  69.457  1.00  0.00    -0.254 C  
ENDROOT
BRANCH   5   7
HETATM    7  C   UNL     1      -9.149   3.675  67.037  1.00  0.00    -0.167 C  
BRANCH   7   8
HETATM    8  O   UNL     1      -9.391   4.541  65.913  1.00  0.00    -0.139 OA 
BRANCH   8   9
HETATM    9  C   UNL     1     -10.254   4.100  64.971  1.00  0.00    -0.203 C  
HETATM   10  H2  UNL     1     -11.721   5.260  65.947  1.00  0.00     0.000 HD 
HETATM   11  O   UNL     1     -10.000   3.341  64.051  1.00  0.00    -0.156 OA 
HETATM   12  N   UNL     1     -11.481   4.624  65.186  1.00  0.00    -0.891 N  
HETATM   13  H1  UNL     1     -12.133   4.291  64.475  1.00  0.00     0.000 HD 
ENDBRANCH   8   9
ENDBRANCH   7   8
ENDBRANCH   5   7
BRANCH   5  14
HETATM   14  C   UNL     1      -8.938   5.994  67.940  1.00  0.00    -0.118 C  
BRANCH  14  15
HETATM   15  O   UNL     1      -9.802   6.694  68.849  1.00  0.00    -0.138 OA 
BRANCH  15  16
HETATM   16  C   UNL     1     -10.317   7.865  68.406  1.00  0.00    -0.199 C  
HETATM   17  H1  UNL     1     -11.057   8.623  66.768  1.00  0.00     0.000 HD 
HETATM   18  H2  UNL     1     -10.561   6.895  66.541  1.00  0.00     0.000 HD 
HETATM   19  N   UNL     1     -10.669   7.741  67.102  1.00  0.00    -0.321 N  
HETATM   20  O   UNL     1     -10.526   8.871  69.055  1.00  0.00    -0.220 OA 
ENDBRANCH  15  16
ENDBRANCH  14  15
ENDBRANCH   5  14
TORSDOF 6
ENDMDL
MODEL      187
REMARK 921   NORMALIZED FREE ENERGY PREDICTED BY IDOCK:   -2.18 KCAL/MOL
REMARK 922        TOTAL FREE ENERGY PREDICTED BY IDOCK:   -3.53 KCAL/MOL
REMARK 923 INTER-LIGAND FREE ENERGY PREDICTED BY IDOCK:   -3.11 KCAL/MOL
REMARK 924 INTRA-LIGAND FREE ENERGY PREDICTED BY IDOCK:   -0.41 KCAL/MOL
REMARK 927      BINDING AFFINITY PREDICTED BY RF-SCORE:    0.00 PKD
ROOT
HETATM    1  C   UNL     1      -9.065   5.944  66.779  1.00  0.00    -0.130 C  
HETATM    2  C   UNL     1      -8.706   7.421  66.646  1.00  0.00    -0.141 C  
HETATM    3  C   UNL     1      -9.922   8.381  66.566  1.00  0.00    -0.335 C  
HETATM    4  C   UNL     1     -10.699   8.268  67.895  1.00  0.00    -0.138 C  
HETATM    5  C   UNL     1      -9.571   9.887  66.176  1.00  0.00    -0.275 C  
HETATM    6  C   UNL     1      -8.541  10.492  67.152  1.00  0.00    -0.127 C  
ENDROOT
BRANCH   5   7
HETATM    7  C   UNL     1     -10.869  10.759  66.222  1.00  0.00    -0.073 C  
BRANCH   7   8
HETATM    8  O   UNL     1     -11.179  11.315  64.930  1.00  0.00    -0.176 OA 
BRANCH   8   9
HETATM    9  C   UNL     1     -11.465  12.634  64.880  1.00  0.00    -0.322 C  
HETATM   10  H2  UNL     1     -11.309  12.623  66.984  1.00  0.00     0.000 HD 
HETATM   11  O   UNL     1     -11.682  13.294  63.878  1.00  0.00    -0.415 OA 
HETATM   12  N   UNL     1     -11.485  13.151  66.129  1.00  0.00    -0.317 N  
HETATM   13  H1  UNL     1     -11.702  14.147  66.092  1.00  0.00     0.000 HD 
ENDBRANCH   8   9
ENDBRANCH   7   8
ENDBRANCH   5   7
BRANCH   5  14
HETATM   14  C   UNL     1      -9.023  10.011  64.714  1.00  0.00    -0.212 C  
BRANCH  14  15
HETATM   15  O   UNL     1      -7.634  10.370  64.655  1.00  0.00    -0.131 OA 
BRANCH  15  16
HETATM   16  C   UNL     1      -6.919   9.835  63.638  1.00  0.00    -0.118 C  
HETATM   17  H1  UNL     1      -7.215   9.092  61.859  1.00  0.00     0.000 HD 
HETATM   18  H2  UNL     1      -8.766   9.623  62.629  1.00  0.00     0.000 HD 
HETATM   19  N   UNL     1      -7.754   9.495  62.625  1.00  0.00    -0.113 N  
HETATM   20  O   UNL     1      -5.710   9.728  63.564  1.00  0.00    -0.092 OA 
ENDBRANCH  15  16
ENDBRANCH  14  15
ENDBRANCH   5  14
TORSDOF 6
ENDMDL
MODEL      188
REMARK 921   NORMALIZED FREE ENERGY PREDICTED BY IDOCK:   -2.17 KCAL/MOL
REMARK 922        TOTAL FREE ENERGY PREDICTED BY IDOCK:   -3.51 KCAL/MOL
REMARK 923 INTER-LIGAND FREE ENERGY PREDICTED BY IDOCK:   -2.98 KCAL/MOL
REMARK 924 INTRA-LIGAND FREE ENERGY PREDICTED BY IDOCK:   -0.53 KCAL/MOL
REMARK 927      BINDING AFFINITY PREDICTED BY RF-SCORE:    0.00 PKD
ROOT
HETATM    1  C   UNL     1      -8.025   6.389  70.601  1.00  0.00    -0.112 C  
HETATM    2  C   UNL     1      -8.962   6.523  69.405  1.00  0.00    -0.132 C  
HETATM    3  C   UNL     1      -8.439   5.882  68.094  1.00  0.00    -0.114 C  
HETATM    4  C   UNL     1      -8.298   4.364  68.335  1.00  0.00    -0.093 C  
HETATM    5  C   UNL     1      -9.283   6.230  66.785  1.00  0.00    -0.147 C  
HETATM    6  C   UNL     1     -10.766   5.837  66.957  1.00  0.00    -0.369 C  
ENDROOT
BRANCH   5   7
HETATM    7  C   UNL     1      -8.703   5.449  65.560  1.00  0.00    -0.154 C  
BRANCH   7   8
HETATM    8  O   UNL     1      -9.643   4.483  65.055  1.00  0.00    -0.164 OA 
BRANCH   8   9
HETATM    9  C   UNL     1      -9.145   3.294  64.648  1.00  0.00    -0.135 C  
HETATM   10  H2  UNL     1     -10.241   2.432  66.230  1.00  0.00     0.000 HD 
HETATM   11  O   UNL     1      -8.387   3.106  63.711  1.00  0.00    -0.085 OA 
HETATM   12  N   UNL     1      -9.608   2.303  65.441  1.00  0.00    -0.355 N  
HETATM   13  H1  UNL     1      -9.233   1.405  65.133  1.00  0.00     0.000 HD 
ENDBRANCH   8   9
ENDBRANCH   7   8
ENDBRANCH   5   7
BRANCH   5  14
HETATM   14  C   UNL     1      -9.197   7.746  66.407  1.00  0.00    -0.180 C  
BRANCH  14  15
HETATM   15  O   UNL     1     -10.405   8.473  66.684  1.00  0.00    -0.298 OA 
BRANCH  15  16
HETATM   16  C   UNL     1     -10.252   9.715  67.198  1.00  0.00    -0.243 C  
HETATM   17  H1  UNL     1     -10.649  10.691  68.840  1.00  0.00     0.000 HD 
HETATM   18  H2  UNL     1     -11.197   8.966  68.936  1.00  0.00     0.000 HD 
HETATM   19  N   UNL     1     -10.764   9.754  68.453  1.00  0.00    -0.228 N  
HETATM   20  O   UNL     1      -9.683  10.660  66.686  1.00  0.00    -0.174 OA 
ENDBRANCH  15  16
ENDBRANCH  14  15
ENDBRANCH   5  14
TORSDOF 6
ENDMDL
MODEL      189
REMARK 921   NORMALIZED FREE ENERGY PREDICTED BY IDOCK:   -2.13 KCAL/MOL
REMARK 922        TOTAL FREE ENERGY PREDICTED BY IDOCK:   -3.46 KCAL/MOL
REMARK 923 INTER-LIGAND FREE ENERGY PREDICTED BY IDOCK:   -3.18 KCAL/MOL
REMARK 924 INTRA-LIGAND FREE ENERGY PREDICTED BY IDOCK:   -0.28 KCAL/MOL
REMARK 927      BINDING AFFINITY PREDICTED BY RF-SCORE:    0.00 PKD
ROOT
HETATM    1  C   UNL     1     -10.139  20.135  68.109  1.00  0.00    -0.498 C  
HETATM    2  C   UNL     1      -9.359  18.888  67.705  1.00  0.00    -0.331 C  
HETATM    3  C   UNL     1     -10.138  17.556  67.855  1.00  0.00    -0.330 C  
HETATM    4  C   UNL     1     -11.348  17.607  66.898  1.00  0.00     0.844 C  
HETATM    5  C   UNL     1      -9.262  16.234  67.680  1.00  0.00    -0.206 C  
HETATM    6  C   UNL     1      -8.539  16.220  66.317  1.00  0.00    -0.374 C  
ENDROOT
BRANCH   5   7
HETATM    7  C   UNL     1     -10.185  14.974  67.764  1.00  0.00    -0.236 C  
BRANCH   7   8
HETATM    8  O   UNL     1     -10.754  14.822  69.077  1.00  0.00    -0.235 OA 
BRANCH   8   9
HETATM    9  C   UNL     1     -12.065  14.499  69.147  1.00  0.00    -0.264 C  
HETATM   10  H2  UNL     1     -12.088  14.657  67.043  1.00  0.00     0.000 HD 
HETATM   11  O   UNL     1     -12.704  14.269  70.159  1.00  0.00    -0.331 OA 
HETATM   12  N   UNL     1     -12.599  14.466  67.906  1.00  0.00    -0.320 N  
HETATM   13  H1  UNL     1     -13.588  14.223  67.958  1.00  0.00     0.000 HD 
ENDBRANCH   8   9
ENDBRANCH   7   8
ENDBRANCH   5   7
BRANCH   5  14
HETATM   14  C   UNL     1      -8.203  16.067  68.821  1.00  0.00    -0.211 C  
BRANCH  14  15
HETATM   15  O   UNL     1      -6.871  16.429  68.421  1.00  0.00    -0.135 OA 
BRANCH  15  16
HETATM   16  C   UNL     1      -6.026  15.405  68.158  1.00  0.00    -0.134 C  
HETATM   17  H1  UNL     1      -5.607  13.626  68.839  1.00  0.00     0.000 HD 
HETATM   18  H2  UNL     1      -6.940  14.408  69.784  1.00  0.00     0.000 HD 
HETATM   19  N   UNL     1      -6.245  14.397  69.037  1.00  0.00    -0.090 N  
HETATM   20  O   UNL     1      -5.233  15.323  67.239  1.00  0.00    -0.331 OA 
ENDBRANCH  15  16
ENDBRANCH  14  15
ENDBRANCH   5  14
TORSDOF 6
ENDMDL
MODEL      190
REMARK 921   NORMALIZED FREE ENERGY PREDICTED BY IDOCK:   -2.11 KCAL/MOL
REMARK 922        TOTAL FREE ENERGY PREDICTED BY IDOCK:   -3.44 KCAL/MOL
REMARK 923 INTER-LIGAND FREE ENERGY PREDICTED BY IDOCK:   -3.26 KCAL/MOL
REMARK 924 INTRA-LIGAND FREE ENERGY PREDICTED BY IDOCK:   -0.17 KCAL/MOL
REMARK 927      BINDING AFFINITY PREDICTED BY RF-SCORE:    0.00 PKD
ROOT
HETATM    1  C   UNL     1      -5.996   9.949  69.260  1.00  0.00    -0.037 C  
HETATM    2  C   UNL     1      -7.095   8.994  69.713  1.00  0.00    -0.055 C  
HETATM    3  C   UNL     1      -8.358   9.684  70.292  1.00  0.00    -0.216 C  
HETATM    4  C   UNL     1      -8.991  10.529  69.166  1.00  0.00    -0.171 C  
HETATM    5  C   UNL     1      -9.402   8.705  70.997  1.00  0.00    -0.254 C  
HETATM    6  C   UNL     1      -9.859   7.588  70.035  1.00  0.00    -0.180 C  
ENDROOT
BRANCH   5   7
HETATM    7  C   UNL     1     -10.661   9.515  71.450  1.00  0.00    -0.278 C  
BRANCH   7   8
HETATM    8  O   UNL     1     -11.716   9.444  70.472  1.00  0.00    -0.262 OA 
BRANCH   8   9
HETATM    9  C   UNL     1     -12.518  10.524  70.352  1.00  0.00    -0.310 C  
HETATM   10  H2  UNL     1     -13.023  10.222  72.378  1.00  0.00     0.000 HD 
HETATM   11  O   UNL     1     -12.683  11.199  69.350  1.00  0.00    -0.240 OA 
HETATM   12  N   UNL     1     -13.141  10.770  71.526  1.00  0.00    -0.419 N  
HETATM   13  H1  UNL     1     -13.747  11.586  71.435  1.00  0.00     0.000 HD 
ENDBRANCH   8   9
ENDBRANCH   7   8
ENDBRANCH   5   7
BRANCH   5  14
HETATM   14  C   UNL     1      -8.822   8.053  72.297  1.00  0.00    -0.166 C  
BRANCH  14  15
HETATM   15  O   UNL     1      -7.710   8.776  72.850  1.00  0.00    -0.373 OA 
BRANCH  15  16
HETATM   16  C   UNL     1      -6.876   8.073  73.651  1.00  0.00    -0.117 C  
HETATM   17  H1  UNL     1      -6.973   6.820  75.143  1.00  0.00     0.000 HD 
HETATM   18  H2  UNL     1      -8.621   7.337  74.595  1.00  0.00     0.000 HD 
HETATM   19  N   UNL     1      -7.602   7.350  74.539  1.00  0.00    -0.130 N  
HETATM   20  O   UNL     1      -5.665   8.005  73.574  1.00  0.00    -0.055 OA 
ENDBRANCH  15  16
ENDBRANCH  14  15
ENDBRANCH   5  14
TORSDOF 6
ENDMDL
MODEL      191
REMARK 921   NORMALIZED FREE ENERGY PREDICTED BY IDOCK:   -2.11 KCAL/MOL
REMARK 922        TOTAL FREE ENERGY PREDICTED BY IDOCK:   -3.44 KCAL/MOL
REMARK 923 INTER-LIGAND FREE ENERGY PREDICTED BY IDOCK:   -3.74 KCAL/MOL
REMARK 924 INTRA-LIGAND FREE ENERGY PREDICTED BY IDOCK:    0.30 KCAL/MOL
REMARK 927      BINDING AFFINITY PREDICTED BY RF-SCORE:    0.00 PKD
ROOT
HETATM    1  C   UNL     1      -8.366  15.281  68.064  1.00  0.00    -0.146 C  
HETATM    2  C   UNL     1      -9.430  14.473  67.327  1.00  0.00    -0.218 C  
HETATM    3  C   UNL     1     -10.172  13.427  68.199  1.00  0.00    -0.246 C  
HETATM    4  C   UNL     1     -10.933  14.189  69.305  1.00  0.00    -0.252 C  
HETATM    5  C   UNL     1     -11.100  12.409  67.393  1.00  0.00    -0.320 C  
HETATM    6  C   UNL     1     -12.146  13.160  66.543  1.00  0.00    -0.423 C  
ENDROOT
BRANCH   5   7
HETATM    7  C   UNL     1     -11.854  11.476  68.397  1.00  0.00    -0.283 C  
BRANCH   7   8
HETATM    8  O   UNL     1     -11.048  11.180  69.552  1.00  0.00    -0.243 OA 
BRANCH   8   9
HETATM    9  C   UNL     1     -10.525   9.937  69.636  1.00  0.00    -0.249 C  
HETATM   10  H2  UNL     1      -9.578  10.588  71.405  1.00  0.00     0.000 HD 
HETATM   11  O   UNL     1     -10.704   9.018  68.855  1.00  0.00    -0.205 OA 
HETATM   12  N   UNL     1      -9.746   9.836  70.736  1.00  0.00    -0.320 N  
HETATM   13  H1  UNL     1      -9.351   8.898  70.799  1.00  0.00     0.000 HD 
ENDBRANCH   8   9
ENDBRANCH   7   8
ENDBRANCH   5   7
BRANCH   5  14
HETATM   14  C   UNL     1     -10.273  11.459  66.463  1.00  0.00    -0.221 C  
BRANCH  14  15
HETATM   15  O   UNL     1      -8.943  11.935  66.199  1.00  0.00    -0.195 OA 
BRANCH  15  16
HETATM   16  C   UNL     1      -7.936  11.064  66.440  1.00  0.00    -0.161 C  
HETATM   17  H1  UNL     1      -7.669   9.145  66.670  1.00  0.00     0.000 HD 
HETATM   18  H2  UNL     1      -9.409   9.548  66.363  1.00  0.00     0.000 HD 
HETATM   19  N   UNL     1      -8.428   9.802  66.489  1.00  0.00    -0.123 N  
HETATM   20  O   UNL     1      -6.749  11.316  66.527  1.00  0.00    -0.137 OA 
ENDBRANCH  15  16
ENDBRANCH  14  15
ENDBRANCH   5  14
TORSDOF 6
ENDMDL
MODEL      192
REMARK 921   NORMALIZED FREE ENERGY PREDICTED BY IDOCK:   -2.10 KCAL/MOL
REMARK 922        TOTAL FREE ENERGY PREDICTED BY IDOCK:   -3.42 KCAL/MOL
REMARK 923 INTER-LIGAND FREE ENERGY PREDICTED BY IDOCK:   -3.16 KCAL/MOL
REMARK 924 INTRA-LIGAND FREE ENERGY PREDICTED BY IDOCK:   -0.26 KCAL/MOL
REMARK 927      BINDING AFFINITY PREDICTED BY RF-SCORE:    0.00 PKD
ROOT
HETATM    1  C   UNL     1      -9.097   7.970  66.529  1.00  0.00    -0.213 C  
HETATM    2  C   UNL     1      -8.904   6.891  67.589  1.00  0.00    -0.118 C  
HETATM    3  C   UNL     1      -9.959   6.900  68.727  1.00  0.00    -0.153 C  
HETATM    4  C   UNL     1     -11.337   6.609  68.094  1.00  0.00    -0.079 C  
HETATM    5  C   UNL     1      -9.629   5.950  69.965  1.00  0.00    -0.200 C  
HETATM    6  C   UNL     1      -9.423   4.490  69.509  1.00  0.00    -0.244 C  
ENDROOT
BRANCH   5   7
HETATM    7  C   UNL     1     -10.811   5.987  70.988  1.00  0.00    -0.282 C  
BRANCH   7   8
HETATM    8  O   UNL     1     -10.343   6.219  72.329  1.00  0.00    -0.187 OA 
BRANCH   8   9
HETATM    9  C   UNL     1     -10.854   7.284  72.984  1.00  0.00    -0.355 C  
HETATM   10  H2  UNL     1      -9.569   6.769  74.575  1.00  0.00     0.000 HD 
HETATM   11  O   UNL     1     -11.707   8.052  72.570  1.00  0.00    -0.367 OA 
HETATM   12  N   UNL     1     -10.282   7.396  74.203  1.00  0.00    -0.361 N  
HETATM   13  H1  UNL     1     -10.668   8.200  74.698  1.00  0.00     0.000 HD 
ENDBRANCH   8   9
ENDBRANCH   7   8
ENDBRANCH   5   7
BRANCH   5  14
HETATM   14  C   UNL     1      -8.363   6.421  70.756  1.00  0.00    -0.126 C  
BRANCH  14  15
HETATM   15  O   UNL     1      -8.131   7.836  70.669  1.00  0.00    -0.100 OA 
BRANCH  15  16
HETATM   16  C   UNL     1      -6.955   8.283  71.169  1.00  0.00    -0.057 C  
HETATM   17  H1  UNL     1      -5.080   7.747  71.229  1.00  0.00     0.000 HD 
HETATM   18  H2  UNL     1      -6.090   6.549  70.318  1.00  0.00     0.000 HD 
HETATM   19  N   UNL     1      -5.966   7.410  70.852  1.00  0.00    -0.035 N  
HETATM   20  O   UNL     1      -6.751   9.332  71.749  1.00  0.00    -0.285 OA 
ENDBRANCH  15  16
ENDBRANCH  14  15
ENDBRANCH   5  14
TORSDOF 6
ENDMDL
MODEL      193
REMARK 921   NORMALIZED FREE ENERGY PREDICTED BY IDOCK:   -2.10 KCAL/MOL
REMARK 922        TOTAL FREE ENERGY PREDICTED BY IDOCK:   -3.42 KCAL/MOL
REMARK 923 INTER-LIGAND FREE ENERGY PREDICTED BY IDOCK:   -3.06 KCAL/MOL
REMARK 924 INTRA-LIGAND FREE ENERGY PREDICTED BY IDOCK:   -0.37 KCAL/MOL
REMARK 927      BINDING AFFINITY PREDICTED BY RF-SCORE:    0.00 PKD
ROOT
HETATM    1  C   UNL     1     -10.769  12.284  66.263  1.00  0.00    -0.293 C  
HETATM    2  C   UNL     1     -10.552  10.775  66.271  1.00  0.00    -0.257 C  
HETATM    3  C   UNL     1     -10.057  10.196  67.622  1.00  0.00    -0.231 C  
HETATM    4  C   UNL     1     -11.154  10.456  68.676  1.00  0.00    -0.313 C  
HETATM    5  C   UNL     1      -9.586   8.672  67.575  1.00  0.00    -0.196 C  
HETATM    6  C   UNL     1     -10.709   7.758  67.040  1.00  0.00    -0.316 C  
ENDROOT
BRANCH   5   7
HETATM    7  C   UNL     1      -9.202   8.195  69.014  1.00  0.00    -0.148 C  
BRANCH   7   8
HETATM    8  O   UNL     1     -10.249   7.405  69.606  1.00  0.00    -0.199 OA 
BRANCH   8   9
HETATM    9  C   UNL     1      -9.893   6.223  70.156  1.00  0.00    -0.170 C  
HETATM   10  H2  UNL     1      -8.134   7.192  70.800  1.00  0.00     0.000 HD 
HETATM   11  O   UNL     1     -10.533   5.185  70.127  1.00  0.00    -0.286 OA 
HETATM   12  N   UNL     1      -8.691   6.338  70.762  1.00  0.00    -0.135 N  
HETATM   13  H1  UNL     1      -8.421   5.445  71.176  1.00  0.00     0.000 HD 
ENDBRANCH   8   9
ENDBRANCH   7   8
ENDBRANCH   5   7
BRANCH   5  14
HETATM   14  C   UNL     1      -8.304   8.472  66.700  1.00  0.00    -0.112 C  
BRANCH  14  15
HETATM   15  O   UNL     1      -7.331   9.516  66.867  1.00  0.00    -0.086 OA 
BRANCH  15  16
HETATM   16  C   UNL     1      -6.831  10.057  65.732  1.00  0.00    -0.111 C  
HETATM   17  H1  UNL     1      -5.123  10.676  65.022  1.00  0.00     0.000 HD 
HETATM   18  H2  UNL     1      -4.958  10.052  66.715  1.00  0.00     0.000 HD 
HETATM   19  N   UNL     1      -5.500  10.268  65.878  1.00  0.00    -0.061 N  
HETATM   20  O   UNL     1      -7.425  10.266  64.691  1.00  0.00    -0.142 OA 
ENDBRANCH  15  16
ENDBRANCH  14  15
ENDBRANCH   5  14
TORSDOF 6
ENDMDL
MODEL      194
REMARK 921   NORMALIZED FREE ENERGY PREDICTED BY IDOCK:   -2.07 KCAL/MOL
REMARK 922        TOTAL FREE ENERGY PREDICTED BY IDOCK:   -3.38 KCAL/MOL
REMARK 923 INTER-LIGAND FREE ENERGY PREDICTED BY IDOCK:   -2.81 KCAL/MOL
REMARK 924 INTRA-LIGAND FREE ENERGY PREDICTED BY IDOCK:   -0.57 KCAL/MOL
REMARK 927      BINDING AFFINITY PREDICTED BY RF-SCORE:    0.00 PKD
ROOT
HETATM    1  C   UNL     1      -5.798   7.248  66.308  1.00  0.00    -0.036 C  
HETATM    2  C   UNL     1      -7.067   6.861  67.061  1.00  0.00    -0.076 C  
HETATM    3  C   UNL     1      -7.831   5.648  66.469  1.00  0.00    -0.101 C  
HETATM    4  C   UNL     1      -6.907   4.416  66.568  1.00  0.00    -0.055 C  
HETATM    5  C   UNL     1      -9.279   5.392  67.087  1.00  0.00    -0.111 C  
HETATM    6  C   UNL     1      -9.210   5.219  68.620  1.00  0.00    -0.143 C  
ENDROOT
BRANCH   5   7
HETATM    7  C   UNL     1      -9.894   4.093  66.469  1.00  0.00    -0.192 C  
BRANCH   7   8
HETATM    8  O   UNL     1     -10.718   4.390  65.327  1.00  0.00    -0.262 OA 
BRANCH   8   9
HETATM    9  C   UNL     1     -10.368   3.821  64.152  1.00  0.00    -0.252 C  
HETATM   10  H2  UNL     1      -9.212   5.550  63.800  1.00  0.00     0.000 HD 
HETATM   11  O   UNL     1     -10.735   2.737  63.732  1.00  0.00    -0.188 OA 
HETATM   12  N   UNL     1      -9.532   4.638  63.473  1.00  0.00    -0.345 N  
HETATM   13  H1  UNL     1      -9.269   4.210  62.586  1.00  0.00     0.000 HD 
ENDBRANCH   8   9
ENDBRANCH   7   8
ENDBRANCH   5   7
BRANCH   5  14
HETATM   14  C   UNL     1     -10.283   6.545  66.749  1.00  0.00    -0.191 C  
BRANCH  14  15
HETATM   15  O   UNL     1     -10.751   7.253  67.908  1.00  0.00    -0.213 OA 
BRANCH  15  16
HETATM   16  C   UNL     1     -10.383   8.552  68.006  1.00  0.00    -0.217 C  
HETATM   17  H1  UNL     1      -9.328   9.701  69.177  1.00  0.00     0.000 HD 
HETATM   18  H2  UNL     1      -9.337   7.983  69.755  1.00  0.00     0.000 HD 
HETATM   19  N   UNL     1      -9.605   8.722  69.103  1.00  0.00    -0.161 N  
HETATM   20  O   UNL     1     -10.622   9.446  67.218  1.00  0.00    -0.267 OA 
ENDBRANCH  15  16
ENDBRANCH  14  15
ENDBRANCH   5  14
TORSDOF 6
ENDMDL
MODEL      195
REMARK 921   NORMALIZED FREE ENERGY PREDICTED BY IDOCK:   -2.02 KCAL/MOL
REMARK 922        TOTAL FREE ENERGY PREDICTED BY IDOCK:   -3.32 KCAL/MOL
REMARK 923 INTER-LIGAND FREE ENERGY PREDICTED BY IDOCK:   -2.87 KCAL/MOL
REMARK 924 INTRA-LIGAND FREE ENERGY PREDICTED BY IDOCK:   -0.44 KCAL/MOL
REMARK 927      BINDING AFFINITY PREDICTED BY RF-SCORE:    0.00 PKD
ROOT
HETATM    1  C   UNL     1      -9.115  10.665  66.157  1.00  0.00    -0.190 C  
HETATM    2  C   UNL     1      -8.240  10.011  67.221  1.00  0.00    -0.117 C  
HETATM    3  C   UNL     1      -8.940   8.900  68.046  1.00  0.00    -0.140 C  
HETATM    4  C   UNL     1      -9.321   7.762  67.076  1.00  0.00    -0.196 C  
HETATM    5  C   UNL     1      -8.126   8.387  69.319  1.00  0.00    -0.115 C  
HETATM    6  C   UNL     1      -6.724   7.881  68.919  1.00  0.00    -0.049 C  
ENDROOT
BRANCH   5   7
HETATM    7  C   UNL     1      -8.901   7.212  70.001  1.00  0.00    -0.142 C  
BRANCH   7   8
HETATM    8  O   UNL     1     -10.184   7.639  70.493  1.00  0.00    -0.199 OA 
BRANCH   8   9
HETATM    9  C   UNL     1     -11.213   6.772  70.365  1.00  0.00    -0.328 C  
HETATM   10  H2  UNL     1     -11.882   7.479  72.236  1.00  0.00     0.000 HD 
HETATM   11  O   UNL     1     -11.411   6.012  69.432  1.00  0.00    -0.398 OA 
HETATM   12  N   UNL     1     -12.024   6.855  71.443  1.00  0.00    -0.329 N  
HETATM   13  H1  UNL     1     -12.801   6.200  71.346  1.00  0.00     0.000 HD 
ENDBRANCH   8   9
ENDBRANCH   7   8
ENDBRANCH   5   7
BRANCH   5  14
HETATM   14  C   UNL     1      -7.976   9.495  70.415  1.00  0.00    -0.178 C  
BRANCH  14  15
HETATM   15  O   UNL     1      -7.429   9.005  71.650  1.00  0.00    -0.293 OA 
BRANCH  15  16
HETATM   16  C   UNL     1      -6.192   9.447  71.974  1.00  0.00     0.156 C  
HETATM   17  H1  UNL     1      -4.580   8.797  72.861  1.00  0.00     0.000 HD 
HETATM   18  H2  UNL     1      -5.878   7.534  72.822  1.00  0.00     0.000 HD 
HETATM   19  N   UNL     1      -5.512   8.464  72.616  1.00  0.00    -0.042 N  
HETATM   20  O   UNL     1      -5.694  10.519  71.688  1.00  0.00    -0.315 OA 
ENDBRANCH  15  16
ENDBRANCH  14  15
ENDBRANCH   5  14
TORSDOF 6
ENDMDL
MODEL      196
REMARK 921   NORMALIZED FREE ENERGY PREDICTED BY IDOCK:   -2.02 KCAL/MOL
REMARK 922        TOTAL FREE ENERGY PREDICTED BY IDOCK:   -3.31 KCAL/MOL
REMARK 923 INTER-LIGAND FREE ENERGY PREDICTED BY IDOCK:   -2.83 KCAL/MOL
REMARK 924 INTRA-LIGAND FREE ENERGY PREDICTED BY IDOCK:   -0.48 KCAL/MOL
REMARK 927      BINDING AFFINITY PREDICTED BY RF-SCORE:    0.00 PKD
ROOT
HETATM    1  C   UNL     1      -5.826   9.809  69.309  1.00  0.00    -0.034 C  
HETATM    2  C   UNL     1      -6.224   8.339  69.393  1.00  0.00    -0.037 C  
HETATM    3  C   UNL     1      -7.715   8.049  69.077  1.00  0.00    -0.100 C  
HETATM    4  C   UNL     1      -7.974   8.458  67.612  1.00  0.00    -0.110 C  
HETATM    5  C   UNL     1      -8.202   6.566  69.406  1.00  0.00    -0.119 C  
HETATM    6  C   UNL     1      -7.340   5.519  68.669  1.00  0.00    -0.075 C  
ENDROOT
BRANCH   5   7
HETATM    7  C   UNL     1      -9.689   6.388  68.956  1.00  0.00    -0.134 C  
BRANCH   7   8
HETATM    8  O   UNL     1      -9.823   5.344  67.974  1.00  0.00    -0.131 OA 
BRANCH   8   9
HETATM    9  C   UNL     1     -10.600   5.606  66.900  1.00  0.00    -0.296 C  
HETATM   10  H2  UNL     1     -11.420   7.185  68.031  1.00  0.00     0.000 HD 
HETATM   11  O   UNL     1     -10.606   5.000  65.841  1.00  0.00    -0.256 OA 
HETATM   12  N   UNL     1     -11.403   6.662  67.156  1.00  0.00    -0.779 N  
HETATM   13  H1  UNL     1     -11.991   6.859  66.346  1.00  0.00     0.000 HD 
ENDBRANCH   8   9
ENDBRANCH   7   8
ENDBRANCH   5   7
BRANCH   5  14
HETATM   14  C   UNL     1      -8.178   6.258  70.940  1.00  0.00    -0.126 C  
BRANCH  14  15
HETATM   15  O   UNL     1      -9.063   7.094  71.703  1.00  0.00    -0.137 OA 
BRANCH  15  16
HETATM   16  C   UNL     1      -8.607   7.506  72.909  1.00  0.00    -0.130 C  
HETATM   17  H1  UNL     1      -7.339   6.938  74.278  1.00  0.00     0.000 HD 
HETATM   18  H2  UNL     1      -7.376   5.785  72.881  1.00  0.00     0.000 HD 
HETATM   19  N   UNL     1      -7.682   6.628  73.369  1.00  0.00    -0.091 N  
HETATM   20  O   UNL     1      -8.892   8.534  73.493  1.00  0.00    -0.279 OA 
ENDBRANCH  15  16
ENDBRANCH  14  15
ENDBRANCH   5  14
TORSDOF 6
ENDMDL
MODEL      197
REMARK 921   NORMALIZED FREE ENERGY PREDICTED BY IDOCK:   -1.94 KCAL/MOL
REMARK 922        TOTAL FREE ENERGY PREDICTED BY IDOCK:   -3.21 KCAL/MOL
REMARK 923 INTER-LIGAND FREE ENERGY PREDICTED BY IDOCK:   -2.83 KCAL/MOL
REMARK 924 INTRA-LIGAND FREE ENERGY PREDICTED BY IDOCK:   -0.38 KCAL/MOL
REMARK 927      BINDING AFFINITY PREDICTED BY RF-SCORE:    0.00 PKD
ROOT
HETATM    1  C   UNL     1      -7.094   6.053  71.745  1.00  0.00    -0.086 C  
HETATM    2  C   UNL     1      -7.081   6.889  70.469  1.00  0.00    -0.067 C  
HETATM    3  C   UNL     1      -8.252   7.899  70.342  1.00  0.00    -0.119 C  
HETATM    4  C   UNL     1      -8.125   8.915  71.497  1.00  0.00    -0.128 C  
HETATM    5  C   UNL     1      -8.394   8.594  68.913  1.00  0.00    -0.124 C  
HETATM    6  C   UNL     1      -7.090   9.313  68.509  1.00  0.00    -0.071 C  
ENDROOT
BRANCH   5   7
HETATM    7  C   UNL     1      -9.549   9.649  68.953  1.00  0.00    -0.161 C  
BRANCH   7   8
HETATM    8  O   UNL     1      -9.127  10.916  68.417  1.00  0.00    -0.150 OA 
BRANCH   8   9
HETATM    9  C   UNL     1      -9.963  11.528  67.550  1.00  0.00    -0.190 C  
HETATM   10  H2  UNL     1     -10.203   9.640  66.640  1.00  0.00     0.000 HD 
HETATM   11  O   UNL     1     -10.264  12.710  67.542  1.00  0.00    -0.211 OA 
HETATM   12  N   UNL     1     -10.439  10.633  66.657  1.00  0.00    -0.244 N  
HETATM   13  H1  UNL     1     -11.070  11.094  66.002  1.00  0.00     0.000 HD 
ENDBRANCH   8   9
ENDBRANCH   7   8
ENDBRANCH   5   7
BRANCH   5  14
HETATM   14  C   UNL     1      -8.784   7.574  67.791  1.00  0.00    -0.123 C  
BRANCH  14  15
HETATM   15  O   UNL     1      -9.426   6.392  68.294  1.00  0.00    -0.123 OA 
BRANCH  15  16
HETATM   16  C   UNL     1     -10.780   6.401  68.298  1.00  0.00    -0.285 C  
HETATM   17  H1  UNL     1     -12.256   6.724  67.065  1.00  0.00     0.000 HD 
HETATM   18  H2  UNL     1     -10.649   6.917  66.251  1.00  0.00     0.000 HD 
HETATM   19  N   UNL     1     -11.236   6.717  67.061  1.00  0.00    -0.347 N  
HETATM   20  O   UNL     1     -11.515   6.102  69.219  1.00  0.00    -0.404 OA 
ENDBRANCH  15  16
ENDBRANCH  14  15
ENDBRANCH   5  14
TORSDOF 6
ENDMDL
MODEL      198
REMARK 921   NORMALIZED FREE ENERGY PREDICTED BY IDOCK:   -1.93 KCAL/MOL
REMARK 922        TOTAL FREE ENERGY PREDICTED BY IDOCK:   -3.20 KCAL/MOL
REMARK 923 INTER-LIGAND FREE ENERGY PREDICTED BY IDOCK:   -2.71 KCAL/MOL
REMARK 924 INTRA-LIGAND FREE ENERGY PREDICTED BY IDOCK:   -0.49 KCAL/MOL
REMARK 927      BINDING AFFINITY PREDICTED BY RF-SCORE:    0.00 PKD
ROOT
HETATM    1  C   UNL     1     -11.428  13.561  67.962  1.00  0.00    -0.342 C  
HETATM    2  C   UNL     1     -10.428  12.847  67.058  1.00  0.00    -0.244 C  
HETATM    3  C   UNL     1     -10.017  11.429  67.534  1.00  0.00    -0.201 C  
HETATM    4  C   UNL     1     -11.282  10.544  67.523  1.00  0.00    -0.299 C  
HETATM    5  C   UNL     1      -8.793  10.778  66.745  1.00  0.00    -0.147 C  
HETATM    6  C   UNL     1      -9.076  10.715  65.229  1.00  0.00    -0.221 C  
ENDROOT
BRANCH   5   7
HETATM    7  C   UNL     1      -8.547   9.323  67.263  1.00  0.00    -0.125 C  
BRANCH   7   8
HETATM    8  O   UNL     1      -7.594   9.299  68.341  1.00  0.00    -0.084 OA 
BRANCH   8   9
HETATM    9  C   UNL     1      -8.024   8.830  69.533  1.00  0.00    -0.096 C  
HETATM   10  H2  UNL     1      -8.172  10.845  70.136  1.00  0.00     0.000 HD 
HETATM   11  O   UNL     1      -8.166   7.659  69.845  1.00  0.00    -0.125 OA 
HETATM   12  N   UNL     1      -8.283   9.859  70.369  1.00  0.00    -0.278 N  
HETATM   13  H1  UNL     1      -8.607   9.505  71.270  1.00  0.00     0.000 HD 
ENDBRANCH   8   9
ENDBRANCH   7   8
ENDBRANCH   5   7
BRANCH   5  14
HETATM   14  C   UNL     1      -7.453  11.550  66.984  1.00  0.00    -0.151 C  
BRANCH  14  15
HETATM   15  O   UNL     1      -7.380  12.181  68.272  1.00  0.00    -0.085 OA 
BRANCH  15  16
HETATM   16  C   UNL     1      -6.275  12.924  68.514  1.00  0.00    -0.077 C  
HETATM   17  H1  UNL     1      -5.510  14.641  67.992  1.00  0.00     0.000 HD 
HETATM   18  H2  UNL     1      -7.109  14.350  67.192  1.00  0.00     0.000 HD 
HETATM   19  N   UNL     1      -6.343  14.081  67.810  1.00  0.00    -0.166 N  
HETATM   20  O   UNL     1      -5.375  12.674  69.293  1.00  0.00    -0.068 OA 
ENDBRANCH  15  16
ENDBRANCH  14  15
ENDBRANCH   5  14
TORSDOF 6
ENDMDL
MODEL      199
REMARK 921   NORMALIZED FREE ENERGY PREDICTED BY IDOCK:   -1.88 KCAL/MOL
REMARK 922        TOTAL FREE ENERGY PREDICTED BY IDOCK:   -3.13 KCAL/MOL
REMARK 923 INTER-LIGAND FREE ENERGY PREDICTED BY IDOCK:   -2.67 KCAL/MOL
REMARK 924 INTRA-LIGAND FREE ENERGY PREDICTED BY IDOCK:   -0.46 KCAL/MOL
REMARK 927      BINDING AFFINITY PREDICTED BY RF-SCORE:    0.00 PKD
ROOT
HETATM    1  C   UNL     1      -9.903   4.324  65.520  1.00  0.00    -0.221 C  
HETATM    2  C   UNL     1      -9.924   4.550  67.029  1.00  0.00    -0.215 C  
HETATM    3  C   UNL     1      -9.912   6.038  67.464  1.00  0.00    -0.159 C  
HETATM    4  C   UNL     1     -11.206   6.694  66.936  1.00  0.00    -0.178 C  
HETATM    5  C   UNL     1      -9.679   6.287  69.023  1.00  0.00    -0.147 C  
HETATM    6  C   UNL     1     -10.733   5.544  69.871  1.00  0.00    -0.358 C  
ENDROOT
BRANCH   5   7
HETATM    7  C   UNL     1      -9.782   7.816  69.334  1.00  0.00    -0.169 C  
BRANCH   7   8
HETATM    8  O   UNL     1      -9.434   8.103  70.701  1.00  0.00    -0.160 OA 
BRANCH   8   9
HETATM    9  C   UNL     1     -10.282   8.889  71.400  1.00  0.00    -0.305 C  
HETATM   10  H2  UNL     1     -10.558   7.239  72.685  1.00  0.00     0.000 HD 
HETATM   11  O   UNL     1     -10.576  10.045  71.148  1.00  0.00    -0.153 OA 
HETATM   12  N   UNL     1     -10.785   8.206  72.452  1.00  0.00    -0.309 N  
HETATM   13  H1  UNL     1     -11.425   8.799  72.980  1.00  0.00     0.000 HD 
ENDBRANCH   8   9
ENDBRANCH   7   8
ENDBRANCH   5   7
BRANCH   5  14
HETATM   14  C   UNL     1      -8.249   5.850  69.487  1.00  0.00    -0.113 C  
BRANCH  14  15
HETATM   15  O   UNL     1      -7.230   6.098  68.506  1.00  0.00    -0.079 OA 
BRANCH  15  16
HETATM   16  C   UNL     1      -6.512   5.025  68.102  1.00  0.00    -0.041 C  
HETATM   17  H1  UNL     1      -6.202   3.174  68.635  1.00  0.00     0.000 HD 
HETATM   18  H2  UNL     1      -7.364   4.005  69.749  1.00  0.00     0.000 HD 
HETATM   19  N   UNL     1      -6.744   3.983  68.939  1.00  0.00    -0.045 N  
HETATM   20  O   UNL     1      -5.817   4.934  67.109  1.00  0.00    -0.020 OA 
ENDBRANCH  15  16
ENDBRANCH  14  15
ENDBRANCH   5  14
TORSDOF 6
ENDMDL
MODEL      200
REMARK 921   NORMALIZED FREE ENERGY PREDICTED BY IDOCK:   -1.86 KCAL/MOL
REMARK 922        TOTAL FREE ENERGY PREDICTED BY IDOCK:   -3.10 KCAL/MOL
REMARK 923 INTER-LIGAND FREE ENERGY PREDICTED BY IDOCK:   -2.87 KCAL/MOL
REMARK 924 INTRA-LIGAND FREE ENERGY PREDICTED BY IDOCK:   -0.24 KCAL/MOL
REMARK 927      BINDING AFFINITY PREDICTED BY RF-SCORE:    0.00 PKD
ROOT
HETATM    1  C   UNL     1      -6.695  13.631  68.164  1.00  0.00    -0.122 C  
HETATM    2  C   UNL     1      -7.757  14.302  67.299  1.00  0.00    -0.145 C  
HETATM    3  C   UNL     1      -8.406  15.563  67.927  1.00  0.00    -0.148 C  
HETATM    4  C   UNL     1      -7.298  16.622  68.108  1.00  0.00    -0.172 C  
HETATM    5  C   UNL     1      -9.684  16.123  67.155  1.00  0.00    -0.236 C  
HETATM    6  C   UNL     1      -9.354  16.434  65.680  1.00  0.00     0.006 C  
ENDROOT
BRANCH   5   7
HETATM    7  C   UNL     1     -10.179  17.440  67.839  1.00  0.00    -0.348 C  
BRANCH   7   8
HETATM    8  O   UNL     1      -9.811  18.603  67.075  1.00  0.00    -0.303 OA 
BRANCH   8   9
HETATM    9  C   UNL     1     -10.805  19.448  66.723  1.00  0.00    -0.388 C  
HETATM   10  H2  UNL     1     -11.118  19.746  68.787  1.00  0.00     0.000 HD 
HETATM   11  O   UNL     1     -11.154  19.726  65.588  1.00  0.00    -0.279 OA 
HETATM   12  N   UNL     1     -11.388  19.963  67.828  1.00  0.00     0.244 N  
HETATM   13  H1  UNL     1     -12.139  20.600  67.562  1.00  0.00     0.000 HD 
ENDBRANCH   8   9
ENDBRANCH   7   8
ENDBRANCH   5   7
BRANCH   5  14
HETATM   14  C   UNL     1     -10.894  15.132  67.210  1.00  0.00    -0.316 C  
BRANCH  14  15
HETATM   15  O   UNL     1     -10.991  14.418  68.453  1.00  0.00    -0.235 OA 
BRANCH  15  16
HETATM   16  C   UNL     1     -11.307  13.105  68.367  1.00  0.00    -0.289 C  
HETATM   17  H1  UNL     1     -10.411  11.373  68.309  1.00  0.00     0.000 HD 
HETATM   18  H2  UNL     1      -9.225  12.737  68.435  1.00  0.00     0.000 HD 
HETATM   19  N   UNL     1     -10.173  12.362  68.374  1.00  0.00    -0.225 N  
HETATM   20  O   UNL     1     -12.420  12.613  68.362  1.00  0.00     0.088 OA 
ENDBRANCH  15  16
ENDBRANCH  14  15
ENDBRANCH   5  14
TORSDOF 6
ENDMDL
MODEL      201
REMARK 921   NORMALIZED FREE ENERGY PREDICTED BY IDOCK:   -1.86 KCAL/MOL
REMARK 922        TOTAL FREE ENERGY PREDICTED BY IDOCK:   -3.10 KCAL/MOL
REMARK 923 INTER-LIGAND FREE ENERGY PREDICTED BY IDOCK:   -2.62 KCAL/MOL
REMARK 924 INTRA-LIGAND FREE ENERGY PREDICTED BY IDOCK:   -0.47 KCAL/MOL
REMARK 927      BINDING AFFINITY PREDICTED BY RF-SCORE:    0.00 PKD
ROOT
HETATM    1  C   UNL     1     -11.309   8.223  70.475  1.00  0.00    -0.225 C  
HETATM    2  C   UNL     1     -10.169   7.418  69.859  1.00  0.00    -0.212 C  
HETATM    3  C   UNL     1     -10.356   7.068  68.360  1.00  0.00    -0.216 C  
HETATM    4  C   UNL     1     -10.394   8.392  67.568  1.00  0.00    -0.333 C  
HETATM    5  C   UNL     1      -9.306   6.020  67.773  1.00  0.00    -0.106 C  
HETATM    6  C   UNL     1      -7.856   6.508  67.978  1.00  0.00    -0.105 C  
ENDROOT
BRANCH   5   7
HETATM    7  C   UNL     1      -9.552   5.830  66.240  1.00  0.00    -0.134 C  
BRANCH   7   8
HETATM    8  O   UNL     1     -10.519   4.795  65.984  1.00  0.00    -0.287 OA 
BRANCH   8   9
HETATM    9  C   UNL     1     -10.306   4.005  64.908  1.00  0.00    -0.183 C  
HETATM   10  H2  UNL     1      -8.390   3.639  65.711  1.00  0.00     0.000 HD 
HETATM   11  O   UNL     1     -11.090   3.786  64.000  1.00  0.00    -0.331 OA 
HETATM   12  N   UNL     1      -9.066   3.471  64.966  1.00  0.00    -0.133 N  
HETATM   13  H1  UNL     1      -8.904   2.875  64.153  1.00  0.00     0.000 HD 
ENDBRANCH   8   9
ENDBRANCH   7   8
ENDBRANCH   5   7
BRANCH   5  14
HETATM   14  C   UNL     1      -9.462   4.600  68.411  1.00  0.00    -0.145 C  
BRANCH  14  15
HETATM   15  O   UNL     1      -8.288   4.157  69.111  1.00  0.00    -0.072 OA 
BRANCH  15  16
HETATM   16  C   UNL     1      -7.862   2.903  68.833  1.00  0.00    -0.046 C  
HETATM   17  H1  UNL     1      -8.108   1.083  69.491  1.00  0.00     0.000 HD 
HETATM   18  H2  UNL     1      -9.078   2.277  70.448  1.00  0.00     0.000 HD 
HETATM   19  N   UNL     1      -8.429   2.028  69.700  1.00  0.00    -0.046 N  
HETATM   20  O   UNL     1      -7.147   2.554  67.913  1.00  0.00    -0.047 OA 
ENDBRANCH  15  16
ENDBRANCH  14  15
ENDBRANCH   5  14
TORSDOF 6
ENDMDL
MODEL      202
REMARK 921   NORMALIZED FREE ENERGY PREDICTED BY IDOCK:   -1.82 KCAL/MOL
REMARK 922        TOTAL FREE ENERGY PREDICTED BY IDOCK:   -3.04 KCAL/MOL
REMARK 923 INTER-LIGAND FREE ENERGY PREDICTED BY IDOCK:   -2.58 KCAL/MOL
REMARK 924 INTRA-LIGAND FREE ENERGY PREDICTED BY IDOCK:   -0.46 KCAL/MOL
REMARK 927      BINDING AFFINITY PREDICTED BY RF-SCORE:    0.00 PKD
ROOT
HETATM    1  C   UNL     1     -10.017   4.253  65.687  1.00  0.00    -0.233 C  
HETATM    2  C   UNL     1     -10.076   4.506  67.190  1.00  0.00    -0.160 C  
HETATM    3  C   UNL     1      -9.756   5.962  67.617  1.00  0.00    -0.122 C  
HETATM    4  C   UNL     1     -10.836   6.880  67.007  1.00  0.00    -0.436 C  
HETATM    5  C   UNL     1      -9.565   6.181  69.186  1.00  0.00    -0.154 C  
HETATM    6  C   UNL     1     -10.807   5.709  69.971  1.00  0.00    -0.366 C  
ENDROOT
BRANCH   5   7
HETATM    7  C   UNL     1      -9.340   7.701  69.482  1.00  0.00    -0.153 C  
BRANCH   7   8
HETATM    8  O   UNL     1      -8.259   8.238  68.699  1.00  0.00    -0.118 OA 
BRANCH   8   9
HETATM    9  C   UNL     1      -8.429   9.475  68.182  1.00  0.00    -0.119 C  
HETATM   10  H2  UNL     1      -7.474   8.748  66.448  1.00  0.00     0.000 HD 
HETATM   11  O   UNL     1      -8.955  10.427  68.732  1.00  0.00    -0.141 OA 
HETATM   12  N   UNL     1      -7.920   9.527  66.931  1.00  0.00    -0.108 N  
HETATM   13  H1  UNL     1      -8.048  10.461  66.540  1.00  0.00     0.000 HD 
ENDBRANCH   8   9
ENDBRANCH   7   8
ENDBRANCH   5   7
BRANCH   5  14
HETATM   14  C   UNL     1      -8.300   5.445  69.740  1.00  0.00    -0.100 C  
BRANCH  14  15
HETATM   15  O   UNL     1      -7.882   5.920  71.030  1.00  0.00    -0.105 OA 
BRANCH  15  16
HETATM   16  C   UNL     1      -7.809   4.996  72.015  1.00  0.00    -0.110 C  
HETATM   17  H1  UNL     1      -7.711   3.058  72.214  1.00  0.00     0.000 HD 
HETATM   18  H2  UNL     1      -7.785   3.549  70.472  1.00  0.00     0.000 HD 
HETATM   19  N   UNL     1      -7.766   3.755  71.471  1.00  0.00    -0.059 N  
HETATM   20  O   UNL     1      -7.714   5.199  73.210  1.00  0.00    -0.094 OA 
ENDBRANCH  15  16
ENDBRANCH  14  15
ENDBRANCH   5  14
TORSDOF 6
ENDMDL
MODEL      203
REMARK 921   NORMALIZED FREE ENERGY PREDICTED BY IDOCK:   -1.76 KCAL/MOL
REMARK 922        TOTAL FREE ENERGY PREDICTED BY IDOCK:   -2.97 KCAL/MOL
REMARK 923 INTER-LIGAND FREE ENERGY PREDICTED BY IDOCK:   -2.51 KCAL/MOL
REMARK 924 INTRA-LIGAND FREE ENERGY PREDICTED BY IDOCK:   -0.46 KCAL/MOL
REMARK 927      BINDING AFFINITY PREDICTED BY RF-SCORE:    0.00 PKD
ROOT
HETATM    1  C   UNL     1     -10.661   5.698  66.619  1.00  0.00    -0.361 C  
HETATM    2  C   UNL     1     -10.108   4.984  67.848  1.00  0.00    -0.173 C  
HETATM    3  C   UNL     1      -9.951   5.879  69.105  1.00  0.00    -0.214 C  
HETATM    4  C   UNL     1     -11.357   6.366  69.515  1.00  0.00    -0.460 C  
HETATM    5  C   UNL     1      -9.144   5.218  70.312  1.00  0.00    -0.169 C  
HETATM    6  C   UNL     1      -9.784   3.883  70.747  1.00  0.00    -0.255 C  
ENDROOT
BRANCH   5   7
HETATM    7  C   UNL     1      -9.141   6.188  71.539  1.00  0.00    -0.143 C  
BRANCH   7   8
HETATM    8  O   UNL     1      -9.735   5.576  72.699  1.00  0.00    -0.150 OA 
BRANCH   8   9
HETATM    9  C   UNL     1      -8.964   5.475  73.804  1.00  0.00    -0.124 C  
HETATM   10  H2  UNL     1      -8.700   7.562  73.662  1.00  0.00     0.000 HD 
HETATM   11  O   UNL     1      -8.703   4.453  74.417  1.00  0.00    -0.098 OA 
HETATM   12  N   UNL     1      -8.499   6.693  74.157  1.00  0.00    -0.130 N  
HETATM   13  H1  UNL     1      -7.916   6.617  74.991  1.00  0.00     0.000 HD 
ENDBRANCH   8   9
ENDBRANCH   7   8
ENDBRANCH   5   7
BRANCH   5  14
HETATM   14  C   UNL     1      -7.639   4.971  69.957  1.00  0.00    -0.060 C  
BRANCH  14  15
HETATM   15  O   UNL     1      -7.341   3.597  69.662  1.00  0.00    -0.045 OA 
BRANCH  15  16
HETATM   16  C   UNL     1      -6.895   3.336  68.411  1.00  0.00    -0.049 C  
HETATM   17  H1  UNL     1      -5.756   4.149  67.052  1.00  0.00     0.000 HD 
HETATM   18  H2  UNL     1      -5.859   5.176  68.541  1.00  0.00     0.000 HD 
HETATM   19  N   UNL     1      -6.092   4.346  67.995  1.00  0.00    -0.030 N  
HETATM   20  O   UNL     1      -7.091   2.331  67.754  1.00  0.00    -0.046 OA 
ENDBRANCH  15  16
ENDBRANCH  14  15
ENDBRANCH   5  14
TORSDOF 6
ENDMDL
MODEL      204
REMARK 921   NORMALIZED FREE ENERGY PREDICTED BY IDOCK:   -1.75 KCAL/MOL
REMARK 922        TOTAL FREE ENERGY PREDICTED BY IDOCK:   -2.95 KCAL/MOL
REMARK 923 INTER-LIGAND FREE ENERGY PREDICTED BY IDOCK:   -2.82 KCAL/MOL
REMARK 924 INTRA-LIGAND FREE ENERGY PREDICTED BY IDOCK:   -0.13 KCAL/MOL
REMARK 927      BINDING AFFINITY PREDICTED BY RF-SCORE:    0.00 PKD
ROOT
HETATM    1  C   UNL     1      -7.845  12.768  67.948  1.00  0.00    -0.156 C  
HETATM    2  C   UNL     1      -7.433  11.653  68.905  1.00  0.00    -0.092 C  
HETATM    3  C   UNL     1      -7.836  10.226  68.452  1.00  0.00    -0.102 C  
HETATM    4  C   UNL     1      -7.096   9.924  67.131  1.00  0.00    -0.085 C  
HETATM    5  C   UNL     1      -7.639   9.086  69.550  1.00  0.00    -0.077 C  
HETATM    6  C   UNL     1      -6.180   9.040  70.053  1.00  0.00    -0.037 C  
ENDROOT
BRANCH   5   7
HETATM    7  C   UNL     1      -7.994   7.693  68.934  1.00  0.00    -0.125 C  
BRANCH   7   8
HETATM    8  O   UNL     1      -9.193   7.756  68.139  1.00  0.00    -0.139 OA 
BRANCH   8   9
HETATM    9  C   UNL     1      -9.910   6.618  68.015  1.00  0.00    -0.131 C  
HETATM   10  H2  UNL     1     -11.441   7.816  67.198  1.00  0.00     0.000 HD 
HETATM   11  O   UNL     1      -9.555   5.496  68.336  1.00  0.00    -0.114 OA 
HETATM   12  N   UNL     1     -11.118   6.889  67.473  1.00  0.00    -0.565 N  
HETATM   13  H1  UNL     1     -11.660   6.030  67.380  1.00  0.00     0.000 HD 
ENDBRANCH   8   9
ENDBRANCH   7   8
ENDBRANCH   5   7
BRANCH   5  14
HETATM   14  C   UNL     1      -8.596   9.269  70.776  1.00  0.00    -0.203 C  
BRANCH  14  15
HETATM   15  O   UNL     1      -9.304   8.070  71.130  1.00  0.00    -0.145 OA 
BRANCH  15  16
HETATM   16  C   UNL     1      -9.926   8.075  72.332  1.00  0.00    -0.251 C  
HETATM   17  H1  UNL     1      -9.469   8.142  74.228  1.00  0.00     0.000 HD 
HETATM   18  H2  UNL     1      -7.991   8.178  73.182  1.00  0.00     0.000 HD 
HETATM   19  N   UNL     1      -9.001   8.139  73.322  1.00  0.00    -0.266 N  
HETATM   20  O   UNL     1     -11.123   8.099  72.543  1.00  0.00    -0.334 OA 
ENDBRANCH  15  16
ENDBRANCH  14  15
ENDBRANCH   5  14
TORSDOF 6
ENDMDL
MODEL      205
REMARK 921   NORMALIZED FREE ENERGY PREDICTED BY IDOCK:   -1.74 KCAL/MOL
REMARK 922        TOTAL FREE ENERGY PREDICTED BY IDOCK:   -2.93 KCAL/MOL
REMARK 923 INTER-LIGAND FREE ENERGY PREDICTED BY IDOCK:   -2.13 KCAL/MOL
REMARK 924 INTRA-LIGAND FREE ENERGY PREDICTED BY IDOCK:   -0.81 KCAL/MOL
REMARK 927      BINDING AFFINITY PREDICTED BY RF-SCORE:    0.00 PKD
ROOT
HETATM    1  C   UNL     1      -6.726  10.520  70.096  1.00  0.00    -0.149 C  
HETATM    2  C   UNL     1      -7.044   9.029  70.143  1.00  0.00    -0.052 C  
HETATM    3  C   UNL     1      -8.185   8.638  71.118  1.00  0.00    -0.187 C  
HETATM    4  C   UNL     1      -9.481   9.315  70.622  1.00  0.00    -0.333 C  
HETATM    5  C   UNL     1      -8.357   7.071  71.366  1.00  0.00    -0.113 C  
HETATM    6  C   UNL     1      -8.576   6.316  70.038  1.00  0.00    -0.134 C  
ENDROOT
BRANCH   5   7
HETATM    7  C   UNL     1      -9.594   6.817  72.289  1.00  0.00    -0.144 C  
BRANCH   7   8
HETATM    8  O   UNL     1     -10.471   5.818  71.736  1.00  0.00    -0.213 OA 
BRANCH   8   9
HETATM    9  C   UNL     1     -10.849   4.810  72.552  1.00  0.00    -0.140 C  
HETATM   10  H2  UNL     1      -9.263   3.701  71.713  1.00  0.00     0.000 HD 
HETATM   11  O   UNL     1     -11.776   4.824  73.345  1.00  0.00    -0.284 OA 
HETATM   12  N   UNL     1     -10.043   3.741  72.369  1.00  0.00    -0.167 N  
HETATM   13  H1  UNL     1     -10.329   2.979  72.985  1.00  0.00     0.000 HD 
ENDBRANCH   8   9
ENDBRANCH   7   8
ENDBRANCH   5   7
BRANCH   5  14
HETATM   14  C   UNL     1      -7.130   6.449  72.112  1.00  0.00    -0.078 C  
BRANCH  14  15
HETATM   15  O   UNL     1      -7.339   5.085  72.514  1.00  0.00    -0.087 OA 
BRANCH  15  16
HETATM   16  C   UNL     1      -6.377   4.202  72.158  1.00  0.00    -0.021 C  
HETATM   17  H1  UNL     1      -5.620   2.516  72.783  1.00  0.00     0.000 HD 
HETATM   18  H2  UNL     1      -6.952   3.094  73.867  1.00  0.00     0.000 HD 
HETATM   19  N   UNL     1      -6.345   3.182  73.051  1.00  0.00    -0.012 N  
HETATM   20  O   UNL     1      -5.682   4.232  71.161  1.00  0.00    -0.011 OA 
ENDBRANCH  15  16
ENDBRANCH  14  15
ENDBRANCH   5  14
TORSDOF 6
ENDMDL
MODEL      206
REMARK 921   NORMALIZED FREE ENERGY PREDICTED BY IDOCK:   -1.64 KCAL/MOL
REMARK 922        TOTAL FREE ENERGY PREDICTED BY IDOCK:   -2.80 KCAL/MOL
REMARK 923 INTER-LIGAND FREE ENERGY PREDICTED BY IDOCK:   -2.37 KCAL/MOL
REMARK 924 INTRA-LIGAND FREE ENERGY PREDICTED BY IDOCK:   -0.42 KCAL/MOL
REMARK 927      BINDING AFFINITY PREDICTED BY RF-SCORE:    0.00 PKD
ROOT
HETATM    1  C   UNL     1      -7.144   5.851  70.030  1.00  0.00    -0.071 C  
HETATM    2  C   UNL     1      -7.090   5.979  68.511  1.00  0.00    -0.082 C  
HETATM    3  C   UNL     1      -7.767   7.252  67.940  1.00  0.00    -0.113 C  
HETATM    4  C   UNL     1      -6.997   8.477  68.480  1.00  0.00    -0.065 C  
HETATM    5  C   UNL     1      -7.940   7.275  66.354  1.00  0.00    -0.112 C  
HETATM    6  C   UNL     1      -6.584   7.088  65.641  1.00  0.00    -0.051 C  
ENDROOT
BRANCH   5   7
HETATM    7  C   UNL     1      -8.548   8.647  65.910  1.00  0.00    -0.157 C  
BRANCH   7   8
HETATM    8  O   UNL     1      -9.931   8.760  66.291  1.00  0.00    -0.283 OA 
BRANCH   8   9
HETATM    9  C   UNL     1     -10.350   9.964  66.738  1.00  0.00    -0.217 C  
HETATM   10  H2  UNL     1      -9.165  10.807  65.210  1.00  0.00     0.000 HD 
HETATM   11  O   UNL     1     -11.107  10.170  67.672  1.00  0.00    -0.301 OA 
HETATM   12  N   UNL     1      -9.801  10.950  65.994  1.00  0.00    -0.223 N  
HETATM   13  H1  UNL     1     -10.117  11.860  66.332  1.00  0.00     0.000 HD 
ENDBRANCH   8   9
ENDBRANCH   7   8
ENDBRANCH   5   7
BRANCH   5  14
HETATM   14  C   UNL     1      -8.938   6.180  65.850  1.00  0.00    -0.121 C  
BRANCH  14  15
HETATM   15  O   UNL     1      -8.481   5.489  64.677  1.00  0.00    -0.140 OA 
BRANCH  15  16
HETATM   16  C   UNL     1      -8.944   4.228  64.505  1.00  0.00    -0.147 C  
HETATM   17  H1  UNL     1     -10.372   3.079  65.172  1.00  0.00     0.000 HD 
HETATM   18  H2  UNL     1     -10.425   4.722  65.932  1.00  0.00     0.000 HD 
HETATM   19  N   UNL     1     -10.023   4.029  65.301  1.00  0.00    -0.200 N  
HETATM   20  O   UNL     1      -8.539   3.396  63.716  1.00  0.00    -0.090 OA 
ENDBRANCH  15  16
ENDBRANCH  14  15
ENDBRANCH   5  14
TORSDOF 6
ENDMDL
MODEL      207
REMARK 921   NORMALIZED FREE ENERGY PREDICTED BY IDOCK:   -1.53 KCAL/MOL
REMARK 922        TOTAL FREE ENERGY PREDICTED BY IDOCK:   -2.65 KCAL/MOL
REMARK 923 INTER-LIGAND FREE ENERGY PREDICTED BY IDOCK:   -2.29 KCAL/MOL
REMARK 924 INTRA-LIGAND FREE ENERGY PREDICTED BY IDOCK:   -0.36 KCAL/MOL
REMARK 927      BINDING AFFINITY PREDICTED BY RF-SCORE:    0.00 PKD
ROOT
HETATM    1  C   UNL     1     -10.901   7.249  67.150  1.00  0.00    -0.378 C  
HETATM    2  C   UNL     1     -10.443   6.793  68.532  1.00  0.00    -0.234 C  
HETATM    3  C   UNL     1      -9.307   7.644  69.155  1.00  0.00    -0.147 C  
HETATM    4  C   UNL     1      -9.848   9.076  69.357  1.00  0.00    -0.183 C  
HETATM    5  C   UNL     1      -8.649   7.034  70.475  1.00  0.00    -0.141 C  
HETATM    6  C   UNL     1      -9.714   6.778  71.563  1.00  0.00    -0.168 C  
ENDROOT
BRANCH   5   7
HETATM    7  C   UNL     1      -7.589   8.033  71.045  1.00  0.00    -0.083 C  
BRANCH   7   8
HETATM    8  O   UNL     1      -8.053   8.665  72.252  1.00  0.00    -0.308 OA 
BRANCH   8   9
HETATM    9  C   UNL     1      -7.301   8.498  73.363  1.00  0.00     0.012 C  
HETATM   10  H2  UNL     1      -5.696   8.072  72.063  1.00  0.00     0.000 HD 
HETATM   11  O   UNL     1      -7.676   8.612  74.518  1.00  0.00    -0.368 OA 
HETATM   12  N   UNL     1      -6.035   8.175  73.020  1.00  0.00    -0.061 N  
HETATM   13  H1  UNL     1      -5.467   8.048  73.858  1.00  0.00     0.000 HD 
ENDBRANCH   8   9
ENDBRANCH   7   8
ENDBRANCH   5   7
BRANCH   5  14
HETATM   14  C   UNL     1      -7.876   5.703  70.193  1.00  0.00    -0.091 C  
BRANCH  14  15
HETATM   15  O   UNL     1      -7.724   4.875  71.357  1.00  0.00    -0.083 OA 
BRANCH  15  16
HETATM   16  C   UNL     1      -6.490   4.361  71.571  1.00  0.00    -0.019 C  
HETATM   17  H1  UNL     1      -5.037   4.506  72.864  1.00  0.00     0.000 HD 
HETATM   18  H2  UNL     1      -6.432   5.575  73.302  1.00  0.00     0.000 HD 
HETATM   19  N   UNL     1      -5.967   4.892  72.703  1.00  0.00    -0.023 N  
HETATM   20  O   UNL     1      -5.929   3.498  70.923  1.00  0.00    -0.013 OA 
ENDBRANCH  15  16
ENDBRANCH  14  15
ENDBRANCH   5  14
TORSDOF 6
ENDMDL
MODEL      208
REMARK 921   NORMALIZED FREE ENERGY PREDICTED BY IDOCK:   -1.52 KCAL/MOL
REMARK 922        TOTAL FREE ENERGY PREDICTED BY IDOCK:   -2.64 KCAL/MOL
REMARK 923 INTER-LIGAND FREE ENERGY PREDICTED BY IDOCK:   -2.22 KCAL/MOL
REMARK 924 INTRA-LIGAND FREE ENERGY PREDICTED BY IDOCK:   -0.42 KCAL/MOL
REMARK 927      BINDING AFFINITY PREDICTED BY RF-SCORE:    0.00 PKD
ROOT
HETATM    1  C   UNL     1     -10.717   7.207  67.202  1.00  0.00    -0.422 C  
HETATM    2  C   UNL     1      -9.809   6.726  68.329  1.00  0.00    -0.144 C  
HETATM    3  C   UNL     1      -9.459   7.803  69.387  1.00  0.00    -0.156 C  
HETATM    4  C   UNL     1     -10.772   8.232  70.076  1.00  0.00    -0.239 C  
HETATM    5  C   UNL     1      -8.317   7.390  70.423  1.00  0.00    -0.129 C  
HETATM    6  C   UNL     1      -8.681   6.086  71.164  1.00  0.00    -0.132 C  
ENDROOT
BRANCH   5   7
HETATM    7  C   UNL     1      -8.131   8.526  71.483  1.00  0.00    -0.151 C  
BRANCH   7   8
HETATM    8  O   UNL     1      -8.347   8.041  72.821  1.00  0.00    -0.137 OA 
BRANCH   8   9
HETATM    9  C   UNL     1      -7.294   8.081  73.667  1.00  0.00    -0.145 C  
HETATM   10  H2  UNL     1      -8.052   6.297  74.498  1.00  0.00     0.000 HD 
HETATM   11  O   UNL     1      -6.421   8.932  73.702  1.00  0.00    -0.297 OA 
HETATM   12  N   UNL     1      -7.334   7.021  74.504  1.00  0.00    -0.101 N  
HETATM   13  H1  UNL     1      -6.539   7.051  75.144  1.00  0.00     0.000 HD 
ENDBRANCH   8   9
ENDBRANCH   7   8
ENDBRANCH   5   7
BRANCH   5  14
HETATM   14  C   UNL     1      -6.923   7.215  69.733  1.00  0.00    -0.054 C  
BRANCH  14  15
HETATM   15  O   UNL     1      -6.549   5.841  69.545  1.00  0.00    -0.046 OA 
BRANCH  15  16
HETATM   16  C   UNL     1      -6.137   5.497  68.302  1.00  0.00    -0.025 C  
HETATM   17  H1  UNL     1      -5.061   6.231  66.850  1.00  0.00     0.000 HD 
HETATM   18  H2  UNL     1      -5.142   7.363  68.262  1.00  0.00     0.000 HD 
HETATM   19  N   UNL     1      -5.371   6.490  67.787  1.00  0.00    -0.004 N  
HETATM   20  O   UNL     1      -6.329   4.442  67.728  1.00  0.00    -0.035 OA 
ENDBRANCH  15  16
ENDBRANCH  14  15
ENDBRANCH   5  14
TORSDOF 6
ENDMDL
MODEL      209
REMARK 921   NORMALIZED FREE ENERGY PREDICTED BY IDOCK:   -1.51 KCAL/MOL
REMARK 922        TOTAL FREE ENERGY PREDICTED BY IDOCK:   -2.63 KCAL/MOL
REMARK 923 INTER-LIGAND FREE ENERGY PREDICTED BY IDOCK:   -2.24 KCAL/MOL
REMARK 924 INTRA-LIGAND FREE ENERGY PREDICTED BY IDOCK:   -0.39 KCAL/MOL
REMARK 927      BINDING AFFINITY PREDICTED BY RF-SCORE:    0.00 PKD
ROOT
HETATM    1  C   UNL     1      -7.421   5.405  71.093  1.00  0.00    -0.085 C  
HETATM    2  C   UNL     1      -7.395   6.300  69.859  1.00  0.00    -0.079 C  
HETATM    3  C   UNL     1      -8.561   7.319  69.770  1.00  0.00    -0.141 C  
HETATM    4  C   UNL     1      -8.441   8.279  70.972  1.00  0.00    -0.150 C  
HETATM    5  C   UNL     1      -8.690   8.082  68.374  1.00  0.00    -0.130 C  
HETATM    6  C   UNL     1      -7.380   8.814  68.015  1.00  0.00    -0.088 C  
ENDROOT
BRANCH   5   7
HETATM    7  C   UNL     1      -9.841   9.138  68.455  1.00  0.00    -0.164 C  
BRANCH   7   8
HETATM    8  O   UNL     1      -9.385  10.448  68.073  1.00  0.00    -0.138 OA 
BRANCH   8   9
HETATM    9  C   UNL     1     -10.215  11.191  67.308  1.00  0.00    -0.193 C  
HETATM   10  H2  UNL     1     -11.748  10.629  68.643  1.00  0.00     0.000 HD 
HETATM   11  O   UNL     1      -9.915  11.819  66.307  1.00  0.00    -0.208 OA 
HETATM   12  N   UNL     1     -11.469  11.147  67.810  1.00  0.00    -0.294 N  
HETATM   13  H1  UNL     1     -12.096  11.707  67.232  1.00  0.00     0.000 HD 
ENDBRANCH   8   9
ENDBRANCH   7   8
ENDBRANCH   5   7
BRANCH   5  14
HETATM   14  C   UNL     1      -9.074   7.117  67.203  1.00  0.00    -0.129 C  
BRANCH  14  15
HETATM   15  O   UNL     1      -7.939   6.629  66.471  1.00  0.00    -0.102 OA 
BRANCH  15  16
HETATM   16  C   UNL     1      -8.087   5.428  65.864  1.00  0.00    -0.108 C  
HETATM   17  H1  UNL     1      -9.518   4.221  65.317  1.00  0.00     0.000 HD 
HETATM   18  H2  UNL     1     -10.169   5.713  66.110  1.00  0.00     0.000 HD 
HETATM   19  N   UNL     1      -9.406   5.126  65.773  1.00  0.00    -0.159 N  
HETATM   20  O   UNL     1      -7.213   4.730  65.388  1.00  0.00    -0.068 OA 
ENDBRANCH  15  16
ENDBRANCH  14  15
ENDBRANCH   5  14
TORSDOF 6
ENDMDL
MODEL      210
REMARK 921   NORMALIZED FREE ENERGY PREDICTED BY IDOCK:   -1.48 KCAL/MOL
REMARK 922        TOTAL FREE ENERGY PREDICTED BY IDOCK:   -2.58 KCAL/MOL
REMARK 923 INTER-LIGAND FREE ENERGY PREDICTED BY IDOCK:   -2.13 KCAL/MOL
REMARK 924 INTRA-LIGAND FREE ENERGY PREDICTED BY IDOCK:   -0.45 KCAL/MOL
REMARK 927      BINDING AFFINITY PREDICTED BY RF-SCORE:    0.00 PKD
ROOT
HETATM    1  C   UNL     1     -11.187   8.311  69.555  1.00  0.00     0.152 C  
HETATM    2  C   UNL     1      -9.898   8.220  68.746  1.00  0.00    -0.179 C  
HETATM    3  C   UNL     1     -10.044   8.586  67.246  1.00  0.00    -0.317 C  
HETATM    4  C   UNL     1     -10.474  10.066  67.162  1.00  0.00    -0.305 C  
HETATM    5  C   UNL     1      -8.773   8.254  66.340  1.00  0.00    -0.162 C  
HETATM    6  C   UNL     1      -7.504   8.943  66.885  1.00  0.00    -0.083 C  
ENDROOT
BRANCH   5   7
HETATM    7  C   UNL     1      -9.021   8.755  64.880  1.00  0.00    -0.012 C  
BRANCH   7   8
HETATM    8  O   UNL     1      -8.042   9.734  64.483  1.00  0.00    -0.130 OA 
BRANCH   8   9
HETATM    9  C   UNL     1      -8.288  10.427  63.349  1.00  0.00    -0.158 C  
HETATM   10  H2  UNL     1      -6.221  10.280  62.957  1.00  0.00     0.000 HD 
HETATM   11  O   UNL     1      -9.371  10.840  62.971  1.00  0.00    -0.259 OA 
HETATM   12  N   UNL     1      -7.140  10.613  62.663  1.00  0.00    -0.302 N  
HETATM   13  H1  UNL     1      -7.325  11.137  61.807  1.00  0.00     0.000 HD 
ENDBRANCH   8   9
ENDBRANCH   7   8
ENDBRANCH   5   7
BRANCH   5  14
HETATM   14  C   UNL     1      -8.509   6.715  66.226  1.00  0.00    -0.130 C  
BRANCH  14  15
HETATM   15  O   UNL     1      -8.603   6.218  64.882  1.00  0.00    -0.069 OA 
BRANCH  15  16
HETATM   16  C   UNL     1      -7.571   5.457  64.450  1.00  0.00    -0.075 C  
HETATM   17  H1  UNL     1      -5.628   5.551  64.309  1.00  0.00     0.000 HD 
HETATM   18  H2  UNL     1      -6.320   7.058  65.037  1.00  0.00     0.000 HD 
HETATM   19  N   UNL     1      -6.406   6.125  64.635  1.00  0.00    -0.033 N  
HETATM   20  O   UNL     1      -7.622   4.317  64.029  1.00  0.00    -0.068 OA 
ENDBRANCH  15  16
ENDBRANCH  14  15
ENDBRANCH   5  14
TORSDOF 6
ENDMDL
MODEL      211
REMARK 921   NORMALIZED FREE ENERGY PREDICTED BY IDOCK:   -1.47 KCAL/MOL
REMARK 922        TOTAL FREE ENERGY PREDICTED BY IDOCK:   -2.58 KCAL/MOL
REMARK 923 INTER-LIGAND FREE ENERGY PREDICTED BY IDOCK:   -2.12 KCAL/MOL
REMARK 924 INTRA-LIGAND FREE ENERGY PREDICTED BY IDOCK:   -0.45 KCAL/MOL
REMARK 927      BINDING AFFINITY PREDICTED BY RF-SCORE:    0.00 PKD
ROOT
HETATM    1  C   UNL     1      -5.409   5.985  70.182  1.00  0.00    -0.013 C  
HETATM    2  C   UNL     1      -6.782   6.409  69.671  1.00  0.00    -0.053 C  
HETATM    3  C   UNL     1      -7.364   5.511  68.549  1.00  0.00    -0.076 C  
HETATM    4  C   UNL     1      -7.566   4.097  69.135  1.00  0.00    -0.054 C  
HETATM    5  C   UNL     1      -8.671   6.082  67.834  1.00  0.00    -0.112 C  
HETATM    6  C   UNL     1      -9.791   6.362  68.858  1.00  0.00    -0.152 C  
ENDROOT
BRANCH   5   7
HETATM    7  C   UNL     1      -9.201   5.039  66.794  1.00  0.00    -0.120 C  
BRANCH   7   8
HETATM    8  O   UNL     1      -9.401   5.637  65.500  1.00  0.00    -0.087 OA 
BRANCH   8   9
HETATM    9  C   UNL     1      -8.569   5.250  64.508  1.00  0.00    -0.109 C  
HETATM   10  H2  UNL     1      -9.203   6.973  63.471  1.00  0.00     0.000 HD 
HETATM   11  O   UNL     1      -7.863   4.256  64.498  1.00  0.00    -0.083 OA 
HETATM   12  N   UNL     1      -8.621   6.135  63.489  1.00  0.00    -0.324 N  
HETATM   13  H1  UNL     1      -7.994   5.843  62.739  1.00  0.00     0.000 HD 
ENDBRANCH   8   9
ENDBRANCH   7   8
ENDBRANCH   5   7
BRANCH   5  14
HETATM   14  C   UNL     1      -8.383   7.388  67.022  1.00  0.00    -0.121 C  
BRANCH  14  15
HETATM   15  O   UNL     1      -9.422   8.373  67.137  1.00  0.00    -0.148 OA 
BRANCH  15  16
HETATM   16  C   UNL     1      -9.592   9.193  66.073  1.00  0.00    -0.272 C  
HETATM   17  H1  UNL     1     -10.415  10.911  65.653  1.00  0.00     0.000 HD 
HETATM   18  H2  UNL     1     -10.630  10.475  67.398  1.00  0.00     0.000 HD 
HETATM   19  N   UNL     1     -10.287  10.293  66.454  1.00  0.00    -0.218 N  
HETATM   20  O   UNL     1      -9.143   9.049  64.953  1.00  0.00    -0.183 OA 
ENDBRANCH  15  16
ENDBRANCH  14  15
ENDBRANCH   5  14
TORSDOF 6
ENDMDL
MODEL      212
REMARK 921   NORMALIZED FREE ENERGY PREDICTED BY IDOCK:   -1.24 KCAL/MOL
REMARK 922        TOTAL FREE ENERGY PREDICTED BY IDOCK:   -2.26 KCAL/MOL
REMARK 923 INTER-LIGAND FREE ENERGY PREDICTED BY IDOCK:   -1.71 KCAL/MOL
REMARK 924 INTRA-LIGAND FREE ENERGY PREDICTED BY IDOCK:   -0.55 KCAL/MOL
REMARK 927      BINDING AFFINITY PREDICTED BY RF-SCORE:    0.00 PKD
ROOT
HETATM    1  C   UNL     1      -6.327   4.755  70.742  1.00  0.00    -0.019 C  
HETATM    2  C   UNL     1      -6.108   5.064  69.265  1.00  0.00    -0.021 C  
HETATM    3  C   UNL     1      -7.088   6.106  68.666  1.00  0.00    -0.082 C  
HETATM    4  C   UNL     1      -6.860   7.444  69.401  1.00  0.00    -0.053 C  
HETATM    5  C   UNL     1      -7.037   6.250  67.078  1.00  0.00    -0.073 C  
HETATM    6  C   UNL     1      -5.612   6.594  66.594  1.00  0.00    -0.014 C  
ENDROOT
BRANCH   5   7
HETATM    7  C   UNL     1      -8.003   7.392  66.621  1.00  0.00    -0.121 C  
BRANCH   7   8
HETATM    8  O   UNL     1      -9.368   6.938  66.563  1.00  0.00    -0.159 OA 
BRANCH   8   9
HETATM    9  C   UNL     1     -10.250   7.531  67.397  1.00  0.00    -0.249 C  
HETATM   10  H2  UNL     1     -10.500   5.634  68.284  1.00  0.00     0.000 HD 
HETATM   11  O   UNL     1     -10.574   8.707  67.397  1.00  0.00    -0.274 OA 
HETATM   12  N   UNL     1     -10.751   6.622  68.263  1.00  0.00    -0.242 N  
HETATM   13  H1  UNL     1     -11.418   7.069  68.892  1.00  0.00     0.000 HD 
ENDBRANCH   8   9
ENDBRANCH   7   8
ENDBRANCH   5   7
BRANCH   5  14
HETATM   14  C   UNL     1      -7.526   4.956  66.347  1.00  0.00    -0.087 C  
BRANCH  14  15
HETATM   15  O   UNL     1      -7.044   4.846  64.998  1.00  0.00    -0.060 OA 
BRANCH  15  16
HETATM   16  C   UNL     1      -7.717   3.995  64.188  1.00  0.00    -0.083 C  
HETATM   17  H1  UNL     1      -9.296   2.851  64.238  1.00  0.00     0.000 HD 
HETATM   18  H2  UNL     1      -9.050   3.721  65.808  1.00  0.00     0.000 HD 
HETATM   19  N   UNL     1      -8.789   3.493  64.848  1.00  0.00    -0.118 N  
HETATM   20  O   UNL     1      -7.482   3.749  63.021  1.00  0.00    -0.052 OA 
ENDBRANCH  15  16
ENDBRANCH  14  15
ENDBRANCH   5  14
TORSDOF 6
ENDMDL
MODEL      213
REMARK 921   NORMALIZED FREE ENERGY PREDICTED BY IDOCK:   -1.13 KCAL/MOL
REMARK 922        TOTAL FREE ENERGY PREDICTED BY IDOCK:   -2.12 KCAL/MOL
REMARK 923 INTER-LIGAND FREE ENERGY PREDICTED BY IDOCK:   -1.80 KCAL/MOL
REMARK 924 INTRA-LIGAND FREE ENERGY PREDICTED BY IDOCK:   -0.32 KCAL/MOL
REMARK 927      BINDING AFFINITY PREDICTED BY RF-SCORE:    0.00 PKD
ROOT
HETATM    1  C   UNL     1      -6.324   4.225  70.034  1.00  0.00    -0.027 C  
HETATM    2  C   UNL     1      -6.142   4.253  68.519  1.00  0.00    -0.031 C  
HETATM    3  C   UNL     1      -7.425   4.596  67.717  1.00  0.00    -0.077 C  
HETATM    4  C   UNL     1      -7.854   6.027  68.103  1.00  0.00    -0.106 C  
HETATM    5  C   UNL     1      -7.314   4.383  66.140  1.00  0.00    -0.077 C  
HETATM    6  C   UNL     1      -6.143   5.194  65.547  1.00  0.00    -0.033 C  
ENDROOT
BRANCH   5   7
HETATM    7  C   UNL     1      -8.639   4.850  65.451  1.00  0.00    -0.138 C  
BRANCH   7   8
HETATM    8  O   UNL     1      -9.673   3.856  65.563  1.00  0.00    -0.175 OA 
BRANCH   8   9
HETATM    9  C   UNL     1     -10.835   4.099  64.917  1.00  0.00    -0.068 C  
HETATM   10  H2  UNL     1     -11.111   5.694  66.270  1.00  0.00     0.000 HD 
HETATM   11  O   UNL     1     -11.283   3.477  63.969  1.00  0.00    -0.274 OA 
HETATM   12  N   UNL     1     -11.462   5.157  65.477  1.00  0.00    -0.575 N  
HETATM   13  H1  UNL     1     -12.339   5.341  64.990  1.00  0.00     0.000 HD 
ENDBRANCH   8   9
ENDBRANCH   7   8
ENDBRANCH   5   7
BRANCH   5  14
HETATM   14  C   UNL     1      -7.139   2.876  65.754  1.00  0.00    -0.061 C  
BRANCH  14  15
HETATM   15  O   UNL     1      -6.524   2.684  64.470  1.00  0.00    -0.025 OA 
BRANCH  15  16
HETATM   16  C   UNL     1      -7.255   2.012  63.550  1.00  0.00    -0.044 C  
HETATM   17  H1  UNL     1      -8.945   1.046  63.429  1.00  0.00     0.000 HD 
HETATM   18  H2  UNL     1      -8.662   1.693  65.097  1.00  0.00     0.000 HD 
HETATM   19  N   UNL     1      -8.395   1.553  64.122  1.00  0.00    -0.069 N  
HETATM   20  O   UNL     1      -7.008   1.880  62.366  1.00  0.00    -0.021 OA 
ENDBRANCH  15  16
ENDBRANCH  14  15
ENDBRANCH   5  14
TORSDOF 6
ENDMDL
MODEL      214
REMARK 921   NORMALIZED FREE ENERGY PREDICTED BY IDOCK:   -0.86 KCAL/MOL
REMARK 922        TOTAL FREE ENERGY PREDICTED BY IDOCK:   -1.75 KCAL/MOL
REMARK 923 INTER-LIGAND FREE ENERGY PREDICTED BY IDOCK:   -1.49 KCAL/MOL
REMARK 924 INTRA-LIGAND FREE ENERGY PREDICTED BY IDOCK:   -0.26 KCAL/MOL
REMARK 927      BINDING AFFINITY PREDICTED BY RF-SCORE:    0.00 PKD
ROOT
HETATM    1  C   UNL     1      -7.384  13.390  67.134  1.00  0.00     0.098 C  
HETATM    2  C   UNL     1      -6.856  12.136  67.821  1.00  0.00    -0.106 C  
HETATM    3  C   UNL     1      -6.832  10.866  66.930  1.00  0.00    -0.114 C  
HETATM    4  C   UNL     1      -5.860  11.130  65.761  1.00  0.00     0.012 C  
HETATM    5  C   UNL     1      -6.526   9.503  67.700  1.00  0.00    -0.062 C  
HETATM    6  C   UNL     1      -5.187   9.582  68.464  1.00  0.00    -0.033 C  
ENDROOT
BRANCH   5   7
HETATM    7  C   UNL     1      -6.441   8.326  66.674  1.00  0.00    -0.056 C  
BRANCH   7   8
HETATM    8  O   UNL     1      -7.339   8.524  65.566  1.00  0.00    -0.081 OA 
BRANCH   8   9
HETATM    9  C   UNL     1      -8.154   7.496  65.242  1.00  0.00    -0.130 C  
HETATM   10  H2  UNL     1      -7.773   7.989  63.228  1.00  0.00     0.000 HD 
HETATM   11  O   UNL     1      -8.736   6.757  66.019  1.00  0.00    -0.144 OA 
HETATM   12  N   UNL     1      -8.248   7.386  63.899  1.00  0.00    -0.351 N  
HETATM   13  H1  UNL     1      -8.863   6.610  63.654  1.00  0.00     0.000 HD 
ENDBRANCH   8   9
ENDBRANCH   7   8
ENDBRANCH   5   7
BRANCH   5  14
HETATM   14  C   UNL     1      -7.664   9.117  68.703  1.00  0.00    -0.092 C  
BRANCH  14  15
HETATM   15  O   UNL     1      -8.984   9.315  68.171  1.00  0.00    -0.129 OA 
BRANCH  15  16
HETATM   16  C   UNL     1      -9.894   9.859  69.013  1.00  0.00    -0.190 C  
HETATM   17  H1  UNL     1     -11.616   9.411  69.811  1.00  0.00     0.000 HD 
HETATM   18  H2  UNL     1     -11.012   8.085  68.734  1.00  0.00     0.000 HD 
HETATM   19  N   UNL     1     -10.930   9.001  69.177  1.00  0.00    -0.078 N  
HETATM   20  O   UNL     1      -9.804  10.912  69.614  1.00  0.00    -0.038 OA 
ENDBRANCH  15  16
ENDBRANCH  14  15
ENDBRANCH   5  14
TORSDOF 6
ENDMDL
MODEL      215
REMARK 921   NORMALIZED FREE ENERGY PREDICTED BY IDOCK:    6.81 KCAL/MOL
REMARK 922        TOTAL FREE ENERGY PREDICTED BY IDOCK:    8.61 KCAL/MOL
REMARK 923 INTER-LIGAND FREE ENERGY PREDICTED BY IDOCK:    2.02 KCAL/MOL
REMARK 924 INTRA-LIGAND FREE ENERGY PREDICTED BY IDOCK:    6.59 KCAL/MOL
REMARK 927      BINDING AFFINITY PREDICTED BY RF-SCORE:    0.00 PKD
ROOT
HETATM    1  C   UNL     1     -12.932  11.435  68.864  1.00  0.00     1.906 C  
HETATM    2  C   UNL     1     -11.608  12.018  69.348  1.00  0.00    -0.393 C  
HETATM    3  C   UNL     1     -10.757  12.703  68.247  1.00  0.00    -0.248 C  
HETATM    4  C   UNL     1     -11.561  13.907  67.712  1.00  0.00    -0.381 C  
HETATM    5  C   UNL     1      -9.271  13.089  68.680  1.00  0.00     0.032 C  
HETATM    6  C   UNL     1      -9.271  13.998  69.927  1.00  0.00     1.519 C  
ENDROOT
BRANCH   5   7
HETATM    7  C   UNL     1      -8.562  13.850  67.512  1.00  0.00    -0.193 C  
BRANCH   7   8
HETATM    8  O   UNL     1      -7.223  13.367  67.301  1.00  0.00    -0.139 OA 
BRANCH   8   9
HETATM    9  C   UNL     1      -6.383  13.399  68.359  1.00  0.00    -0.088 C  
HETATM   10  H2  UNL     1      -8.005  12.701  69.512  1.00  0.00     0.000 HD 
HETATM   11  O   UNL     1      -5.213  13.743  68.349  1.00  0.00    -0.086 OA 
HETATM   12  N   UNL     1      -7.028  12.992  69.475  1.00  0.00    -0.327 N  
HETATM   13  H1  UNL     1      -6.395  13.017  70.274  1.00  0.00     0.000 HD 
ENDBRANCH   8   9
ENDBRANCH   7   8
ENDBRANCH   5   7
BRANCH   5  14
HETATM   14  C   UNL     1      -8.389  11.828  68.968  1.00  0.00     0.189 C  
BRANCH  14  15
HETATM   15  O   UNL     1      -8.872  11.032  70.062  1.00  0.00     0.797 OA 
BRANCH  15  16
HETATM   16  C   UNL     1      -8.922   9.695  69.855  1.00  0.00    -0.221 C  
HETATM   17  H1  UNL     1      -8.773   8.039  70.875  1.00  0.00     0.000 HD 
HETATM   18  H2  UNL     1      -8.582   9.497  71.934  1.00  0.00     0.000 HD 
HETATM   19  N   UNL     1      -8.736   9.046  71.031  1.00  0.00    -0.214 N  
HETATM   20  O   UNL     1      -9.170   9.120  68.813  1.00  0.00    -0.135 OA 
ENDBRANCH  15  16
ENDBRANCH  14  15
ENDBRANCH   5  14
TORSDOF 6
ENDMDL
MODEL      216
REMARK 921   NORMALIZED FREE ENERGY PREDICTED BY IDOCK:    8.66 KCAL/MOL
REMARK 922        TOTAL FREE ENERGY PREDICTED BY IDOCK:   11.11 KCAL/MOL
REMARK 923 INTER-LIGAND FREE ENERGY PREDICTED BY IDOCK:    7.75 KCAL/MOL
REMARK 924 INTRA-LIGAND FREE ENERGY PREDICTED BY IDOCK:    3.36 KCAL/MOL
REMARK 927      BINDING AFFINITY PREDICTED BY RF-SCORE:    0.00 PKD
ROOT
HETATM    1  C   UNL     1      -6.569  12.671  69.340  1.00  0.00    -0.067 C  
HETATM    2  C   UNL     1      -6.824  13.723  68.264  1.00  0.00    -0.109 C  
HETATM    3  C   UNL     1      -6.664  15.191  68.739  1.00  0.00    -0.099 C  
HETATM    4  C   UNL     1      -5.194  15.391  69.165  1.00  0.00    -0.095 C  
HETATM    5  C   UNL     1      -7.170  16.296  67.705  1.00  0.00    -0.152 C  
HETATM    6  C   UNL     1      -6.463  16.150  66.341  1.00  0.00     0.914 C  
ENDROOT
BRANCH   5   7
HETATM    7  C   UNL     1      -6.867  17.723  68.270  1.00  0.00    -0.213 C  
BRANCH   7   8
HETATM    8  O   UNL     1      -7.548  17.954  69.516  1.00  0.00     0.103 OA 
BRANCH   8   9
HETATM    9  C   UNL     1      -6.917  17.562  70.645  1.00  0.00     2.470 C  
HETATM   10  H2  UNL     1      -8.054  19.030  71.645  1.00  0.00     0.000 HD 
HETATM   11  O   UNL     1      -6.073  16.687  70.739  1.00  0.00     0.263 OA 
HETATM   12  N   UNL     1      -7.352  18.292  71.696  1.00  0.00     5.784 N  
HETATM   13  H1  UNL     1      -6.875  17.996  72.548  1.00  0.00     0.000 HD 
ENDBRANCH   8   9
ENDBRANCH   7   8
ENDBRANCH   5   7
BRANCH   5  14
HETATM   14  C   UNL     1      -8.719  16.241  67.486  1.00  0.00    -0.181 C  
BRANCH  14  15
HETATM   15  O   UNL     1      -9.360  15.179  68.210  1.00  0.00    -0.185 OA 
BRANCH  15  16
HETATM   16  C   UNL     1     -10.684  15.328  68.447  1.00  0.00    -0.250 C  
HETATM   17  H1  UNL     1     -12.211  16.299  67.719  1.00  0.00     0.000 HD 
HETATM   18  H2  UNL     1     -10.694  16.648  66.793  1.00  0.00     0.000 HD 
HETATM   19  N   UNL     1     -11.214  16.186  67.540  1.00  0.00    -0.170 N  
HETATM   20  O   UNL     1     -11.354  14.747  69.279  1.00  0.00    -0.263 OA 
ENDBRANCH  15  16
ENDBRANCH  14  15
ENDBRANCH   5  14
TORSDOF 6
ENDMDL
MODEL      217
REMARK 921   NORMALIZED FREE ENERGY PREDICTED BY IDOCK:   16.09 KCAL/MOL
REMARK 922        TOTAL FREE ENERGY PREDICTED BY IDOCK:   21.15 KCAL/MOL
REMARK 923 INTER-LIGAND FREE ENERGY PREDICTED BY IDOCK:    8.41 KCAL/MOL
REMARK 924 INTRA-LIGAND FREE ENERGY PREDICTED BY IDOCK:   12.75 KCAL/MOL
REMARK 927      BINDING AFFINITY PREDICTED BY RF-SCORE:    0.00 PKD
ROOT
HETATM    1  C   UNL     1      -6.361   8.166  67.107  1.00  0.00    -0.056 C  
HETATM    2  C   UNL     1      -7.289   9.104  67.872  1.00  0.00    -0.084 C  
HETATM    3  C   UNL     1      -8.356   9.817  67.001  1.00  0.00    -0.117 C  
HETATM    4  C   UNL     1      -9.276   8.732  66.402  1.00  0.00    -0.241 C  
HETATM    5  C   UNL     1      -9.162  10.982  67.735  1.00  0.00    -0.155 C  
HETATM    6  C   UNL     1      -9.850  10.464  69.016  1.00  0.00    -0.222 C  
ENDROOT
BRANCH   5   7
HETATM    7  C   UNL     1     -10.260  11.548  66.776  1.00  0.00    -0.219 C  
BRANCH   7   8
HETATM    8  O   UNL     1      -9.952  12.888  66.350  1.00  0.00    -0.255 OA 
BRANCH   8   9
HETATM    9  C   UNL     1      -9.130  13.612  67.142  1.00  0.00    -0.239 C  
HETATM   10  H2  UNL     1      -7.609  13.185  65.744  1.00  0.00     0.000 HD 
HETATM   11  O   UNL     1      -9.428  14.167  68.186  1.00  0.00    -0.200 OA 
HETATM   12  N   UNL     1      -7.887  13.641  66.613  1.00  0.00    -0.049 N  
HETATM   13  H1  UNL     1      -7.265  14.187  67.210  1.00  0.00     0.000 HD 
ENDBRANCH   8   9
ENDBRANCH   7   8
ENDBRANCH   5   7
BRANCH   5  14
HETATM   14  C   UNL     1      -8.247  12.198  68.103  1.00  0.00    -0.164 C  
BRANCH  14  15
HETATM   15  O   UNL     1      -8.014  12.329  69.515  1.00  0.00     0.596 OA 
BRANCH  15  16
HETATM   16  C   UNL     1      -8.863  13.138  70.190  1.00  0.00     3.932 C  
HETATM   17  H1  UNL     1     -10.781  13.454  70.353  1.00  0.00     0.000 HD 
HETATM   18  H2  UNL     1     -10.419  12.124  69.178  1.00  0.00     0.000 HD 
HETATM   19  N   UNL     1     -10.141  12.845  69.844  1.00  0.00     1.593 N  
HETATM   20  O   UNL     1      -8.579  13.959  71.041  1.00  0.00     4.286 OA 
ENDBRANCH  15  16
ENDBRANCH  14  15
ENDBRANCH   5  14
TORSDOF 6
ENDMDL
MODEL      218
REMARK 921   NORMALIZED FREE ENERGY PREDICTED BY IDOCK:   20.80 KCAL/MOL
REMARK 922        TOTAL FREE ENERGY PREDICTED BY IDOCK:   27.51 KCAL/MOL
REMARK 923 INTER-LIGAND FREE ENERGY PREDICTED BY IDOCK:   23.67 KCAL/MOL
REMARK 924 INTRA-LIGAND FREE ENERGY PREDICTED BY IDOCK:    3.84 KCAL/MOL
REMARK 927      BINDING AFFINITY PREDICTED BY RF-SCORE:    0.00 PKD
ROOT
HETATM    1  C   UNL     1     -10.769  14.726  73.104  1.00  0.00     2.674 C  
HETATM    2  C   UNL     1     -10.814  13.357  72.432  1.00  0.00     7.143 C  
HETATM    3  C   UNL     1     -11.337  13.365  70.972  1.00  0.00     1.408 C  
HETATM    4  C   UNL     1     -10.356  14.203  70.125  1.00  0.00     0.850 C  
HETATM    5  C   UNL     1     -11.627  11.926  70.348  1.00  0.00    -0.060 C  
HETATM    6  C   UNL     1     -10.373  11.028  70.407  1.00  0.00     1.100 C  
ENDROOT
BRANCH   5   7
HETATM    7  C   UNL     1     -12.058  12.077  68.852  1.00  0.00    -0.145 C  
BRANCH   7   8
HETATM    8  O   UNL     1     -11.157  12.933  68.126  1.00  0.00    -0.230 OA 
BRANCH   8   9
HETATM    9  C   UNL     1     -11.646  13.555  67.031  1.00  0.00    -0.359 C  
HETATM   10  H2  UNL     1     -12.513  11.703  66.517  1.00  0.00     0.000 HD 
HETATM   11  O   UNL     1     -11.484  14.724  66.726  1.00  0.00    -0.351 OA 
HETATM   12  N   UNL     1     -12.363  12.685  66.287  1.00  0.00    -0.143 N  
HETATM   13  H1  UNL     1     -12.732  13.154  65.460  1.00  0.00     0.000 HD 
ENDBRANCH   8   9
ENDBRANCH   7   8
ENDBRANCH   5   7
BRANCH   5  14
HETATM   14  C   UNL     1     -12.812  11.195  71.064  1.00  0.00    -0.329 C  
BRANCH  14  15
HETATM   15  O   UNL     1     -13.119   9.912  70.494  1.00  0.00    -0.167 OA 
BRANCH  15  16
HETATM   16  C   UNL     1     -13.123   9.842  69.143  1.00  0.00     3.138 C  
HETATM   17  H1  UNL     1     -12.177   8.914  67.711  1.00  0.00     0.000 HD 
HETATM   18  H2  UNL     1     -11.551   8.441  69.344  1.00  0.00     0.000 HD 
HETATM   19  N   UNL     1     -12.174   8.967  68.730  1.00  0.00     2.613 N  
HETATM   20  O   UNL     1     -13.890  10.396  68.379  1.00  0.00     6.524 OA 
ENDBRANCH  15  16
ENDBRANCH  14  15
ENDBRANCH   5  14
TORSDOF 6
ENDMDL
