MODEL        1
REMARK 921   NORMALIZED FREE ENERGY PREDICTED BY IDOCK:   -4.50 KCAL/MOL
REMARK 922        TOTAL FREE ENERGY PREDICTED BY IDOCK:   -4.80 KCAL/MOL
REMARK 923 INTER-LIGAND FREE ENERGY PREDICTED BY IDOCK:   -4.76 KCAL/MOL
REMARK 924 INTRA-LIGAND FREE ENERGY PREDICTED BY IDOCK:   -0.04 KCAL/MOL
REMARK 927      BINDING AFFINITY PREDICTED BY RF-SCORE:    0.00 PKD
ROOT
HETATM    1  C   UNL     1      -8.156  12.531  67.081  1.00  0.00    -0.156 C  
HETATM    2  N   UNL     1      -9.221  12.555  66.088  1.00  0.00    -0.412 NA 
HETATM    3  H   UNL     1      -9.337  11.794  65.418  1.00  0.00     0.000 HD 
ENDROOT
BRANCH   2   4
HETATM    4  C   UNL     1     -10.126  13.720  66.088  1.00  0.00    -0.307 C  
HETATM    5  C   UNL     1      -9.326  14.978  66.513  1.00  0.00    -0.309 C  
HETATM    6  C   UNL     1     -10.603  13.949  64.595  1.00  0.00    -0.432 C  
HETATM    7  C   UNL     1     -11.188  12.675  63.946  1.00  0.00    -0.497 C  
HETATM    8  C   UNL     1     -12.516  12.493  64.684  1.00  0.00    -0.539 C  
HETATM    9  C   UNL     1     -12.553  13.700  65.638  1.00  0.00    -0.531 C  
HETATM   10  C   UNL     1     -11.536  13.555  66.828  1.00  0.00    -0.397 C  
HETATM   11  C   UNL     1     -11.889  14.766  64.759  1.00  0.00    -0.425 C  
HETATM   12  C   UNL     1     -11.833  14.669  67.865  1.00  0.00    -0.352 C  
HETATM   13  C   UNL     1     -11.748  12.229  67.588  1.00  0.00    -0.403 C  
ENDBRANCH   2   4
TORSDOF 1
ENDMDL
MODEL        2
REMARK 921   NORMALIZED FREE ENERGY PREDICTED BY IDOCK:   -4.44 KCAL/MOL
REMARK 922        TOTAL FREE ENERGY PREDICTED BY IDOCK:   -4.75 KCAL/MOL
REMARK 923 INTER-LIGAND FREE ENERGY PREDICTED BY IDOCK:   -4.69 KCAL/MOL
REMARK 924 INTRA-LIGAND FREE ENERGY PREDICTED BY IDOCK:   -0.06 KCAL/MOL
REMARK 927      BINDING AFFINITY PREDICTED BY RF-SCORE:    0.00 PKD
ROOT
HETATM    1  C   UNL     1      -6.346  20.351  64.971  1.00  0.00    -0.285 C  
HETATM    2  N   UNL     1      -7.692  19.974  65.375  1.00  0.00    -0.460 NA 
HETATM    3  H   UNL     1      -8.411  19.754  64.685  1.00  0.00     0.000 HD 
ENDROOT
BRANCH   2   4
HETATM    4  C   UNL     1      -7.979  19.921  66.822  1.00  0.00    -0.310 C  
HETATM    5  C   UNL     1      -7.057  20.930  67.554  1.00  0.00    -0.389 C  
HETATM    6  C   UNL     1      -9.471  20.414  67.027  1.00  0.00    -0.544 C  
HETATM    7  C   UNL     1     -10.483  19.658  66.139  1.00  0.00    -0.624 C  
HETATM    8  C   UNL     1     -10.516  18.262  66.766  1.00  0.00    -0.387 C  
HETATM    9  C   UNL     1      -9.551  18.394  67.957  1.00  0.00    -0.316 C  
HETATM   10  C   UNL     1      -8.047  18.475  67.505  1.00  0.00    -0.261 C  
HETATM   11  C   UNL     1      -9.846  19.833  68.395  1.00  0.00    -0.522 C  
HETATM   12  C   UNL     1      -7.150  18.334  68.762  1.00  0.00    -0.291 C  
HETATM   13  C   UNL     1      -7.669  17.283  66.602  1.00  0.00    -0.298 C  
ENDBRANCH   2   4
TORSDOF 1
ENDMDL
MODEL        3
REMARK 921   NORMALIZED FREE ENERGY PREDICTED BY IDOCK:   -4.31 KCAL/MOL
REMARK 922        TOTAL FREE ENERGY PREDICTED BY IDOCK:   -4.61 KCAL/MOL
REMARK 923 INTER-LIGAND FREE ENERGY PREDICTED BY IDOCK:   -4.61 KCAL/MOL
REMARK 924 INTRA-LIGAND FREE ENERGY PREDICTED BY IDOCK:   -0.00 KCAL/MOL
REMARK 927      BINDING AFFINITY PREDICTED BY RF-SCORE:    0.00 PKD
ROOT
HETATM    1  C   UNL     1     -10.329  15.807  65.208  1.00  0.00    -0.357 C  
HETATM    2  N   UNL     1     -10.268  17.191  65.657  1.00  0.00    -0.602 NA 
HETATM    3  H   UNL     1     -10.958  17.878  65.351  1.00  0.00     0.000 HD 
ENDROOT
BRANCH   2   4
HETATM    4  C   UNL     1      -9.170  17.563  66.570  1.00  0.00    -0.267 C  
HETATM    5  C   UNL     1      -7.872  16.848  66.112  1.00  0.00    -0.277 C  
HETATM    6  C   UNL     1      -8.928  19.121  66.410  1.00  0.00    -0.356 C  
HETATM    7  C   UNL     1     -10.219  19.952  66.578  1.00  0.00    -0.611 C  
HETATM    8  C   UNL     1     -10.518  19.823  68.074  1.00  0.00    -0.523 C  
HETATM    9  C   UNL     1      -9.346  18.969  68.590  1.00  0.00    -0.428 C  
HETATM   10  C   UNL     1      -9.456  17.467  68.142  1.00  0.00    -0.288 C  
HETATM   11  C   UNL     1      -8.209  19.499  67.709  1.00  0.00    -0.333 C  
HETATM   12  C   UNL     1      -8.398  16.644  68.921  1.00  0.00    -0.230 C  
HETATM   13  C   UNL     1     -10.816  16.860  68.543  1.00  0.00    -0.335 C  
ENDBRANCH   2   4
TORSDOF 1
ENDMDL
MODEL        4
REMARK 921   NORMALIZED FREE ENERGY PREDICTED BY IDOCK:   -4.26 KCAL/MOL
REMARK 922        TOTAL FREE ENERGY PREDICTED BY IDOCK:   -4.56 KCAL/MOL
REMARK 923 INTER-LIGAND FREE ENERGY PREDICTED BY IDOCK:   -4.50 KCAL/MOL
REMARK 924 INTRA-LIGAND FREE ENERGY PREDICTED BY IDOCK:   -0.06 KCAL/MOL
REMARK 927      BINDING AFFINITY PREDICTED BY RF-SCORE:    0.00 PKD
ROOT
HETATM    1  C   UNL     1     -10.492  15.754  65.628  1.00  0.00    -0.383 C  
HETATM    2  N   UNL     1      -9.993  17.121  65.668  1.00  0.00    -0.577 NA 
HETATM    3  H   UNL     1      -9.925  17.685  64.820  1.00  0.00     0.000 HD 
ENDROOT
BRANCH   2   4
HETATM    4  C   UNL     1      -9.588  17.661  66.980  1.00  0.00    -0.276 C  
HETATM    5  C   UNL     1     -10.342  16.890  68.095  1.00  0.00    -0.336 C  
HETATM    6  C   UNL     1      -8.044  17.355  67.162  1.00  0.00    -0.229 C  
HETATM    7  C   UNL     1      -7.189  17.841  65.971  1.00  0.00    -0.322 C  
HETATM    8  C   UNL     1      -7.235  19.364  66.114  1.00  0.00    -0.281 C  
HETATM    9  C   UNL     1      -8.076  19.569  67.386  1.00  0.00    -0.315 C  
HETATM   10  C   UNL     1      -9.599  19.252  67.156  1.00  0.00    -0.397 C  
HETATM   11  C   UNL     1      -7.608  18.372  68.222  1.00  0.00    -0.301 C  
HETATM   12  C   UNL     1     -10.394  19.739  68.395  1.00  0.00    -0.513 C  
HETATM   13  C   UNL     1     -10.166  20.057  65.969  1.00  0.00    -0.568 C  
ENDBRANCH   2   4
TORSDOF 1
ENDMDL
MODEL        5
REMARK 921   NORMALIZED FREE ENERGY PREDICTED BY IDOCK:   -4.26 KCAL/MOL
REMARK 922        TOTAL FREE ENERGY PREDICTED BY IDOCK:   -4.55 KCAL/MOL
REMARK 923 INTER-LIGAND FREE ENERGY PREDICTED BY IDOCK:   -4.50 KCAL/MOL
REMARK 924 INTRA-LIGAND FREE ENERGY PREDICTED BY IDOCK:   -0.05 KCAL/MOL
REMARK 927      BINDING AFFINITY PREDICTED BY RF-SCORE:    0.00 PKD
ROOT
HETATM    1  C   UNL     1     -11.976  15.049  69.521  1.00  0.00    -0.313 C  
HETATM    2  N   UNL     1     -12.194  14.689  68.127  1.00  0.00    -0.596 NA 
HETATM    3  H   UNL     1     -13.080  14.887  67.661  1.00  0.00     0.000 HD 
ENDROOT
BRANCH   2   4
HETATM    4  C   UNL     1     -11.084  14.028  67.413  1.00  0.00    -0.303 C  
HETATM    5  C   UNL     1     -10.267  13.185  68.425  1.00  0.00    -0.247 C  
HETATM    6  C   UNL     1     -11.725  13.019  66.373  1.00  0.00    -0.444 C  
HETATM    7  C   UNL     1     -12.778  13.683  65.459  1.00  0.00    -0.514 C  
HETATM    8  C   UNL     1     -11.930  14.583  64.555  1.00  0.00    -0.482 C  
HETATM    9  C   UNL     1     -10.495  14.300  65.032  1.00  0.00    -0.458 C  
HETATM   10  C   UNL     1     -10.194  14.934  66.438  1.00  0.00    -0.292 C  
HETATM   11  C   UNL     1     -10.600  12.805  65.354  1.00  0.00    -0.309 C  
HETATM   12  C   UNL     1      -8.670  14.830  66.707  1.00  0.00    -0.255 C  
HETATM   13  C   UNL     1     -10.505  16.444  66.451  1.00  0.00    -0.288 C  
ENDBRANCH   2   4
TORSDOF 1
ENDMDL
MODEL        6
REMARK 921   NORMALIZED FREE ENERGY PREDICTED BY IDOCK:   -4.24 KCAL/MOL
REMARK 922        TOTAL FREE ENERGY PREDICTED BY IDOCK:   -4.53 KCAL/MOL
REMARK 923 INTER-LIGAND FREE ENERGY PREDICTED BY IDOCK:   -4.53 KCAL/MOL
REMARK 924 INTRA-LIGAND FREE ENERGY PREDICTED BY IDOCK:   -0.00 KCAL/MOL
REMARK 927      BINDING AFFINITY PREDICTED BY RF-SCORE:    0.00 PKD
ROOT
HETATM    1  C   UNL     1      -9.442  11.457  62.832  1.00  0.00    -0.345 C  
HETATM    2  N   UNL     1      -9.789  12.626  63.628  1.00  0.00    -0.677 NA 
HETATM    3  H   UNL     1      -9.262  13.496  63.547  1.00  0.00     0.000 HD 
ENDROOT
BRANCH   2   4
HETATM    4  C   UNL     1     -10.930  12.505  64.555  1.00  0.00    -0.323 C  
HETATM    5  C   UNL     1     -12.134  11.894  63.793  1.00  0.00    -0.547 C  
HETATM    6  C   UNL     1     -10.517  11.473  65.683  1.00  0.00    -0.317 C  
HETATM    7  C   UNL     1      -9.171  11.822  66.356  1.00  0.00    -0.223 C  
HETATM    8  C   UNL     1      -9.508  13.073  67.171  1.00  0.00    -0.230 C  
HETATM    9  C   UNL     1     -11.010  13.269  66.900  1.00  0.00    -0.298 C  
HETATM   10  C   UNL     1     -11.294  13.786  65.443  1.00  0.00    -0.314 C  
HETATM   11  C   UNL     1     -11.472  11.809  66.833  1.00  0.00    -0.364 C  
HETATM   12  C   UNL     1     -12.784  14.206  65.354  1.00  0.00    -0.453 C  
HETATM   13  C   UNL     1     -10.493  15.069  65.137  1.00  0.00    -0.438 C  
ENDBRANCH   2   4
TORSDOF 1
ENDMDL
MODEL        7
REMARK 921   NORMALIZED FREE ENERGY PREDICTED BY IDOCK:   -4.21 KCAL/MOL
REMARK 922        TOTAL FREE ENERGY PREDICTED BY IDOCK:   -4.49 KCAL/MOL
REMARK 923 INTER-LIGAND FREE ENERGY PREDICTED BY IDOCK:   -4.43 KCAL/MOL
REMARK 924 INTRA-LIGAND FREE ENERGY PREDICTED BY IDOCK:   -0.06 KCAL/MOL
REMARK 927      BINDING AFFINITY PREDICTED BY RF-SCORE:    0.00 PKD
ROOT
HETATM    1  C   UNL     1     -11.711  11.309  68.647  1.00  0.00    -0.324 C  
HETATM    2  N   UNL     1     -11.990  11.951  67.371  1.00  0.00    -0.601 NA 
HETATM    3  H   UNL     1     -12.947  12.130  67.066  1.00  0.00     0.000 HD 
ENDROOT
BRANCH   2   4
HETATM    4  C   UNL     1     -10.836  12.334  66.534  1.00  0.00    -0.259 C  
HETATM    5  C   UNL     1      -9.616  11.464  66.933  1.00  0.00    -0.203 C  
HETATM    6  C   UNL     1     -11.198  11.973  65.034  1.00  0.00    -0.374 C  
HETATM    7  C   UNL     1     -12.551  12.565  64.581  1.00  0.00    -0.507 C  
HETATM    8  C   UNL     1     -12.256  14.064  64.490  1.00  0.00    -0.463 C  
HETATM    9  C   UNL     1     -10.765  14.148  64.863  1.00  0.00    -0.444 C  
HETATM   10  C   UNL     1     -10.515  13.896  66.394  1.00  0.00    -0.284 C  
HETATM   11  C   UNL     1     -10.247  12.856  64.222  1.00  0.00    -0.337 C  
HETATM   12  C   UNL     1      -9.044  14.263  66.717  1.00  0.00    -0.269 C  
HETATM   13  C   UNL     1     -11.369  14.840  67.265  1.00  0.00    -0.366 C  
ENDBRANCH   2   4
TORSDOF 1
ENDMDL
MODEL        8
REMARK 921   NORMALIZED FREE ENERGY PREDICTED BY IDOCK:   -4.19 KCAL/MOL
REMARK 922        TOTAL FREE ENERGY PREDICTED BY IDOCK:   -4.48 KCAL/MOL
REMARK 923 INTER-LIGAND FREE ENERGY PREDICTED BY IDOCK:   -4.41 KCAL/MOL
REMARK 924 INTRA-LIGAND FREE ENERGY PREDICTED BY IDOCK:   -0.06 KCAL/MOL
REMARK 927      BINDING AFFINITY PREDICTED BY RF-SCORE:    0.00 PKD
ROOT
HETATM    1  C   UNL     1      -8.122  15.436  66.972  1.00  0.00    -0.230 C  
HETATM    2  N   UNL     1      -8.962  14.518  66.217  1.00  0.00    -0.498 NA 
HETATM    3  H   UNL     1      -8.560  13.865  65.544  1.00  0.00     0.000 HD 
ENDROOT
BRANCH   2   4
HETATM    4  C   UNL     1     -10.417  14.569  66.460  1.00  0.00    -0.285 C  
HETATM    5  C   UNL     1     -10.782  15.961  67.035  1.00  0.00    -0.292 C  
HETATM    6  C   UNL     1     -11.137  14.438  65.055  1.00  0.00    -0.385 C  
HETATM    7  C   UNL     1     -10.658  13.214  64.243  1.00  0.00    -0.432 C  
HETATM    8  C   UNL     1     -11.250  12.035  65.019  1.00  0.00    -0.374 C  
HETATM    9  C   UNL     1     -12.026  12.722  66.157  1.00  0.00    -0.476 C  
HETATM   10  C   UNL     1     -11.074  13.338  67.245  1.00  0.00    -0.301 C  
HETATM   11  C   UNL     1     -12.546  13.965  65.426  1.00  0.00    -0.538 C  
HETATM   12  C   UNL     1     -11.932  13.762  68.465  1.00  0.00    -0.402 C  
HETATM   13  C   UNL     1     -10.089  12.283  67.790  1.00  0.00    -0.202 C  
ENDBRANCH   2   4
TORSDOF 1
ENDMDL
MODEL        9
REMARK 921   NORMALIZED FREE ENERGY PREDICTED BY IDOCK:   -4.12 KCAL/MOL
REMARK 922        TOTAL FREE ENERGY PREDICTED BY IDOCK:   -4.40 KCAL/MOL
REMARK 923 INTER-LIGAND FREE ENERGY PREDICTED BY IDOCK:   -4.35 KCAL/MOL
REMARK 924 INTRA-LIGAND FREE ENERGY PREDICTED BY IDOCK:   -0.06 KCAL/MOL
REMARK 927      BINDING AFFINITY PREDICTED BY RF-SCORE:    0.00 PKD
ROOT
HETATM    1  C   UNL     1      -6.219  17.849  65.958  1.00  0.00    -0.246 C  
HETATM    2  N   UNL     1      -7.673  17.921  65.951  1.00  0.00    -0.545 NA 
HETATM    3  H   UNL     1      -8.196  17.986  65.077  1.00  0.00     0.000 HD 
ENDROOT
BRANCH   2   4
HETATM    4  C   UNL     1      -8.363  17.897  67.255  1.00  0.00    -0.225 C  
HETATM    5  C   UNL     1      -7.415  17.276  68.314  1.00  0.00    -0.224 C  
HETATM    6  C   UNL     1      -8.621  19.401  67.682  1.00  0.00    -0.343 C  
HETATM    7  C   UNL     1      -9.335  20.224  66.587  1.00  0.00    -0.460 C  
HETATM    8  C   UNL     1     -10.750  19.642  66.587  1.00  0.00    -0.552 C  
HETATM    9  C   UNL     1     -10.691  18.584  67.704  1.00  0.00    -0.405 C  
HETATM   10  C   UNL     1      -9.855  17.319  67.287  1.00  0.00    -0.267 C  
HETATM   11  C   UNL     1      -9.761  19.286  68.700  1.00  0.00    -0.494 C  
HETATM   12  C   UNL     1     -10.075  16.214  68.352  1.00  0.00    -0.236 C  
HETATM   13  C   UNL     1     -10.373  16.716  65.965  1.00  0.00    -0.352 C  
ENDBRANCH   2   4
TORSDOF 1
ENDMDL
MODEL       10
REMARK 921   NORMALIZED FREE ENERGY PREDICTED BY IDOCK:   -4.05 KCAL/MOL
REMARK 922        TOTAL FREE ENERGY PREDICTED BY IDOCK:   -4.33 KCAL/MOL
REMARK 923 INTER-LIGAND FREE ENERGY PREDICTED BY IDOCK:   -4.29 KCAL/MOL
REMARK 924 INTRA-LIGAND FREE ENERGY PREDICTED BY IDOCK:   -0.04 KCAL/MOL
REMARK 927      BINDING AFFINITY PREDICTED BY RF-SCORE:    0.00 PKD
ROOT
HETATM    1  C   UNL     1      -6.164  18.992  69.261  1.00  0.00    -0.271 C  
HETATM    2  N   UNL     1      -7.525  19.332  68.873  1.00  0.00    -0.359 NA 
HETATM    3  H   UNL     1      -7.895  20.273  69.008  1.00  0.00     0.000 HD 
ENDROOT
BRANCH   2   4
HETATM    4  C   UNL     1      -8.351  18.263  68.277  1.00  0.00    -0.302 C  
HETATM    5  C   UNL     1      -7.985  16.913  68.947  1.00  0.00    -0.224 C  
HETATM    6  C   UNL     1      -9.861  18.573  68.641  1.00  0.00    -0.419 C  
HETATM    7  C   UNL     1     -10.290  20.008  68.265  1.00  0.00    -0.494 C  
HETATM    8  C   UNL     1     -10.329  19.965  66.735  1.00  0.00    -0.599 C  
HETATM    9  C   UNL     1      -9.957  18.505  66.420  1.00  0.00    -0.399 C  
HETATM   10  C   UNL     1      -8.436  18.205  66.680  1.00  0.00    -0.282 C  
HETATM   11  C   UNL     1     -10.645  17.786  67.585  1.00  0.00    -0.385 C  
HETATM   12  C   UNL     1      -8.103  16.812  66.087  1.00  0.00    -0.293 C  
HETATM   13  C   UNL     1      -7.531  19.195  65.920  1.00  0.00    -0.263 C  
ENDBRANCH   2   4
TORSDOF 1
ENDMDL
MODEL       11
REMARK 921   NORMALIZED FREE ENERGY PREDICTED BY IDOCK:   -4.04 KCAL/MOL
REMARK 922        TOTAL FREE ENERGY PREDICTED BY IDOCK:   -4.32 KCAL/MOL
REMARK 923 INTER-LIGAND FREE ENERGY PREDICTED BY IDOCK:   -4.29 KCAL/MOL
REMARK 924 INTRA-LIGAND FREE ENERGY PREDICTED BY IDOCK:   -0.03 KCAL/MOL
REMARK 927      BINDING AFFINITY PREDICTED BY RF-SCORE:    0.00 PKD
ROOT
HETATM    1  C   UNL     1     -10.332  12.187  63.643  1.00  0.00    -0.452 C  
HETATM    2  N   UNL     1     -10.074  13.383  64.432  1.00  0.00    -0.655 NA 
HETATM    3  H   UNL     1      -9.907  14.285  63.985  1.00  0.00     0.000 HD 
ENDROOT
BRANCH   2   4
HETATM    4  C   UNL     1     -10.065  13.243  65.900  1.00  0.00    -0.291 C  
HETATM    5  C   UNL     1      -9.442  11.871  66.270  1.00  0.00    -0.238 C  
HETATM    6  C   UNL     1      -9.106  14.364  66.478  1.00  0.00    -0.233 C  
HETATM    7  C   UNL     1      -9.456  15.778  65.966  1.00  0.00    -0.392 C  
HETATM    8  C   UNL     1     -10.776  16.085  66.678  1.00  0.00    -0.247 C  
HETATM    9  C   UNL     1     -11.005  14.831  67.539  1.00  0.00    -0.304 C  
HETATM   10  C   UNL     1     -11.421  13.581  66.680  1.00  0.00    -0.366 C  
HETATM   11  C   UNL     1      -9.562  14.499  67.934  1.00  0.00    -0.217 C  
HETATM   12  C   UNL     1     -11.887  12.458  67.642  1.00  0.00    -0.363 C  
HETATM   13  C   UNL     1     -12.647  13.892  65.797  1.00  0.00    -0.533 C  
ENDBRANCH   2   4
TORSDOF 1
ENDMDL
MODEL       12
REMARK 921   NORMALIZED FREE ENERGY PREDICTED BY IDOCK:   -4.04 KCAL/MOL
REMARK 922        TOTAL FREE ENERGY PREDICTED BY IDOCK:   -4.31 KCAL/MOL
REMARK 923 INTER-LIGAND FREE ENERGY PREDICTED BY IDOCK:   -4.28 KCAL/MOL
REMARK 924 INTRA-LIGAND FREE ENERGY PREDICTED BY IDOCK:   -0.03 KCAL/MOL
REMARK 927      BINDING AFFINITY PREDICTED BY RF-SCORE:    0.00 PKD
ROOT
HETATM    1  C   UNL     1      -8.787  15.685  66.553  1.00  0.00    -0.310 C  
HETATM    2  N   UNL     1      -9.208  14.406  65.998  1.00  0.00    -0.521 NA 
HETATM    3  H   UNL     1      -8.650  13.925  65.292  1.00  0.00     0.000 HD 
ENDROOT
BRANCH   2   4
HETATM    4  C   UNL     1     -10.472  13.830  66.496  1.00  0.00    -0.282 C  
HETATM    5  C   UNL     1     -10.519  13.979  68.039  1.00  0.00    -0.241 C  
HETATM    6  C   UNL     1     -11.655  14.703  65.905  1.00  0.00    -0.327 C  
HETATM    7  C   UNL     1     -11.577  14.864  64.371  1.00  0.00    -0.296 C  
HETATM    8  C   UNL     1     -11.924  13.463  63.861  1.00  0.00    -0.520 C  
HETATM    9  C   UNL     1     -12.195  12.678  65.156  1.00  0.00    -0.539 C  
HETATM   10  C   UNL     1     -10.879  12.377  65.962  1.00  0.00    -0.308 C  
HETATM   11  C   UNL     1     -12.864  13.766  66.003  1.00  0.00    -0.294 C  
HETATM   12  C   UNL     1     -11.215  11.368  67.090  1.00  0.00    -0.363 C  
HETATM   13  C   UNL     1      -9.833  11.665  65.080  1.00  0.00    -0.281 C  
ENDBRANCH   2   4
TORSDOF 1
ENDMDL
MODEL       13
REMARK 921   NORMALIZED FREE ENERGY PREDICTED BY IDOCK:   -4.00 KCAL/MOL
REMARK 922        TOTAL FREE ENERGY PREDICTED BY IDOCK:   -4.28 KCAL/MOL
REMARK 923 INTER-LIGAND FREE ENERGY PREDICTED BY IDOCK:   -4.24 KCAL/MOL
REMARK 924 INTRA-LIGAND FREE ENERGY PREDICTED BY IDOCK:   -0.04 KCAL/MOL
REMARK 927      BINDING AFFINITY PREDICTED BY RF-SCORE:    0.00 PKD
ROOT
HETATM    1  C   UNL     1      -9.226  15.990  66.044  1.00  0.00    -0.340 C  
HETATM    2  N   UNL     1      -9.634  14.801  65.310  1.00  0.00    -0.439 NA 
HETATM    3  H   UNL     1      -9.755  14.820  64.297  1.00  0.00     0.000 HD 
ENDROOT
BRANCH   2   4
HETATM    4  C   UNL     1      -9.866  13.567  66.085  1.00  0.00    -0.283 C  
HETATM    5  C   UNL     1      -8.750  13.428  67.154  1.00  0.00    -0.220 C  
HETATM    6  C   UNL     1     -11.236  13.746  66.860  1.00  0.00    -0.326 C  
HETATM    7  C   UNL     1     -12.403  14.157  65.934  1.00  0.00    -0.486 C  
HETATM    8  C   UNL     1     -12.657  12.888  65.117  1.00  0.00    -0.536 C  
HETATM    9  C   UNL     1     -11.636  11.892  65.695  1.00  0.00    -0.275 C  
HETATM   10  C   UNL     1     -10.162  12.226  65.263  1.00  0.00    -0.305 C  
HETATM   11  C   UNL     1     -11.653  12.304  67.171  1.00  0.00    -0.423 C  
HETATM   12  C   UNL     1      -9.252  11.035  65.661  1.00  0.00    -0.231 C  
HETATM   13  C   UNL     1     -10.038  12.335  63.729  1.00  0.00    -0.376 C  
ENDBRANCH   2   4
TORSDOF 1
ENDMDL
MODEL       14
REMARK 921   NORMALIZED FREE ENERGY PREDICTED BY IDOCK:   -4.00 KCAL/MOL
REMARK 922        TOTAL FREE ENERGY PREDICTED BY IDOCK:   -4.27 KCAL/MOL
REMARK 923 INTER-LIGAND FREE ENERGY PREDICTED BY IDOCK:   -4.24 KCAL/MOL
REMARK 924 INTRA-LIGAND FREE ENERGY PREDICTED BY IDOCK:   -0.03 KCAL/MOL
REMARK 927      BINDING AFFINITY PREDICTED BY RF-SCORE:    0.00 PKD
ROOT
HETATM    1  C   UNL     1     -12.148  15.344  69.805  1.00  0.00    -0.347 C  
HETATM    2  N   UNL     1     -12.299  14.811  68.459  1.00  0.00    -0.594 NA 
HETATM    3  H   UNL     1     -13.188  14.426  68.138  1.00  0.00     0.000 HD 
ENDROOT
BRANCH   2   4
HETATM    4  C   UNL     1     -11.118  14.849  67.575  1.00  0.00    -0.317 C  
HETATM    5  C   UNL     1     -10.437  16.236  67.705  1.00  0.00    -0.295 C  
HETATM    6  C   UNL     1     -10.090  13.770  68.111  1.00  0.00    -0.245 C  
HETATM    7  C   UNL     1     -10.721  12.371  68.288  1.00  0.00    -0.250 C  
HETATM    8  C   UNL     1     -10.948  11.912  66.846  1.00  0.00    -0.335 C  
HETATM    9  C   UNL     1     -10.387  13.081  66.017  1.00  0.00    -0.293 C  
HETATM   10  C   UNL     1     -11.312  14.350  66.067  1.00  0.00    -0.335 C  
HETATM   11  C   UNL     1      -9.201  13.497  66.894  1.00  0.00    -0.254 C  
HETATM   12  C   UNL     1     -10.814  15.363  65.004  1.00  0.00    -0.462 C  
HETATM   13  C   UNL     1     -12.758  14.006  65.651  1.00  0.00    -0.515 C  
ENDBRANCH   2   4
TORSDOF 1
ENDMDL
MODEL       15
REMARK 921   NORMALIZED FREE ENERGY PREDICTED BY IDOCK:   -3.99 KCAL/MOL
REMARK 922        TOTAL FREE ENERGY PREDICTED BY IDOCK:   -4.26 KCAL/MOL
REMARK 923 INTER-LIGAND FREE ENERGY PREDICTED BY IDOCK:   -4.22 KCAL/MOL
REMARK 924 INTRA-LIGAND FREE ENERGY PREDICTED BY IDOCK:   -0.05 KCAL/MOL
REMARK 927      BINDING AFFINITY PREDICTED BY RF-SCORE:    0.00 PKD
ROOT
HETATM    1  C   UNL     1     -10.885   6.445  67.947  1.00  0.00    -0.322 C  
HETATM    2  N   UNL     1     -11.660   6.769  69.136  1.00  0.00    -0.605 NA 
HETATM    3  H   UNL     1     -12.651   7.001  69.075  1.00  0.00     0.000 HD 
ENDROOT
BRANCH   2   4
HETATM    4  C   UNL     1     -10.956   6.751  70.433  1.00  0.00    -0.283 C  
HETATM    5  C   UNL     1     -10.001   5.530  70.469  1.00  0.00    -0.276 C  
HETATM    6  C   UNL     1     -10.056   8.053  70.503  1.00  0.00    -0.195 C  
HETATM    7  C   UNL     1     -10.847   9.348  70.214  1.00  0.00    -0.303 C  
HETATM    8  C   UNL     1     -11.727   9.498  71.457  1.00  0.00    -0.472 C  
HETATM    9  C   UNL     1     -11.311   8.297  72.324  1.00  0.00    -0.446 C  
HETATM   10  C   UNL     1     -11.844   6.932  71.753  1.00  0.00    -0.354 C  
HETATM   11  C   UNL     1      -9.814   8.231  72.006  1.00  0.00    -0.327 C  
HETATM   12  C   UNL     1     -11.611   5.831  72.819  1.00  0.00    -0.266 C  
HETATM   13  C   UNL     1     -13.371   6.972  71.539  1.00  0.00    -0.370 C  
ENDBRANCH   2   4
TORSDOF 1
ENDMDL
MODEL       16
REMARK 921   NORMALIZED FREE ENERGY PREDICTED BY IDOCK:   -3.96 KCAL/MOL
REMARK 922        TOTAL FREE ENERGY PREDICTED BY IDOCK:   -4.24 KCAL/MOL
REMARK 923 INTER-LIGAND FREE ENERGY PREDICTED BY IDOCK:   -4.18 KCAL/MOL
REMARK 924 INTRA-LIGAND FREE ENERGY PREDICTED BY IDOCK:   -0.06 KCAL/MOL
REMARK 927      BINDING AFFINITY PREDICTED BY RF-SCORE:    0.00 PKD
ROOT
HETATM    1  C   UNL     1     -14.324   7.971  71.693  1.00  0.00    -0.473 C  
HETATM    2  N   UNL     1     -13.074   7.273  71.960  1.00  0.00    -0.527 NA 
HETATM    3  H   UNL     1     -13.067   6.311  72.301  1.00  0.00     0.000 HD 
ENDROOT
BRANCH   2   4
HETATM    4  C   UNL     1     -11.818   8.009  71.719  1.00  0.00    -0.296 C  
HETATM    5  C   UNL     1     -12.137   9.522  71.601  1.00  0.00    -0.474 C  
HETATM    6  C   UNL     1     -10.905   7.820  72.999  1.00  0.00    -0.451 C  
HETATM    7  C   UNL     1     -10.721   6.339  73.396  1.00  0.00    -0.281 C  
HETATM    8  C   UNL     1      -9.827   5.793  72.280  1.00  0.00    -0.185 C  
HETATM    9  C   UNL     1      -9.575   7.030  71.400  1.00  0.00    -0.162 C  
HETATM   10  C   UNL     1     -10.846   7.449  70.576  1.00  0.00    -0.259 C  
HETATM   11  C   UNL     1      -9.497   8.121  72.474  1.00  0.00    -0.339 C  
HETATM   12  C   UNL     1     -10.425   8.518  69.535  1.00  0.00    -0.222 C  
HETATM   13  C   UNL     1     -11.391   6.269  69.746  1.00  0.00    -0.506 C  
ENDBRANCH   2   4
TORSDOF 1
ENDMDL
MODEL       17
REMARK 921   NORMALIZED FREE ENERGY PREDICTED BY IDOCK:   -3.95 KCAL/MOL
REMARK 922        TOTAL FREE ENERGY PREDICTED BY IDOCK:   -4.22 KCAL/MOL
REMARK 923 INTER-LIGAND FREE ENERGY PREDICTED BY IDOCK:   -4.16 KCAL/MOL
REMARK 924 INTRA-LIGAND FREE ENERGY PREDICTED BY IDOCK:   -0.06 KCAL/MOL
REMARK 927      BINDING AFFINITY PREDICTED BY RF-SCORE:    0.00 PKD
ROOT
HETATM    1  C   UNL     1     -11.053  10.675  69.048  1.00  0.00    -0.254 C  
HETATM    2  N   UNL     1     -11.349   9.278  69.329  1.00  0.00    -0.431 NA 
HETATM    3  H   UNL     1     -11.983   8.742  68.737  1.00  0.00     0.000 HD 
ENDROOT
BRANCH   2   4
HETATM    4  C   UNL     1     -10.698   8.666  70.504  1.00  0.00    -0.221 C  
HETATM    5  C   UNL     1      -9.309   9.324  70.707  1.00  0.00    -0.322 C  
HETATM    6  C   UNL     1     -11.577   9.025  71.773  1.00  0.00    -0.444 C  
HETATM    7  C   UNL     1     -13.067   8.660  71.596  1.00  0.00    -0.381 C  
HETATM    8  C   UNL     1     -13.053   7.130  71.635  1.00  0.00    -0.410 C  
HETATM    9  C   UNL     1     -11.568   6.802  71.866  1.00  0.00    -0.330 C  
HETATM   10  C   UNL     1     -10.689   7.068  70.590  1.00  0.00    -0.255 C  
HETATM   11  C   UNL     1     -11.171   7.956  72.793  1.00  0.00    -0.466 C  
HETATM   12  C   UNL     1      -9.282   6.462  70.829  1.00  0.00    -0.161 C  
HETATM   13  C   UNL     1     -11.247   6.323  69.360  1.00  0.00    -0.489 C  
ENDBRANCH   2   4
TORSDOF 1
ENDMDL
MODEL       18
REMARK 921   NORMALIZED FREE ENERGY PREDICTED BY IDOCK:   -3.92 KCAL/MOL
REMARK 922        TOTAL FREE ENERGY PREDICTED BY IDOCK:   -4.20 KCAL/MOL
REMARK 923 INTER-LIGAND FREE ENERGY PREDICTED BY IDOCK:   -4.19 KCAL/MOL
REMARK 924 INTRA-LIGAND FREE ENERGY PREDICTED BY IDOCK:   -0.01 KCAL/MOL
REMARK 927      BINDING AFFINITY PREDICTED BY RF-SCORE:    0.00 PKD
ROOT
HETATM    1  C   UNL     1     -11.891  15.123  69.418  1.00  0.00    -0.330 C  
HETATM    2  N   UNL     1     -12.087  14.801  68.012  1.00  0.00    -0.579 NA 
HETATM    3  H   UNL     1     -12.585  15.437  67.388  1.00  0.00     0.000 HD 
ENDROOT
BRANCH   2   4
HETATM    4  C   UNL     1     -11.540  13.522  67.523  1.00  0.00    -0.350 C  
HETATM    5  C   UNL     1     -11.764  12.433  68.604  1.00  0.00    -0.372 C  
HETATM    6  C   UNL     1     -12.385  13.100  66.251  1.00  0.00    -0.346 C  
HETATM    7  C   UNL     1     -12.471  14.216  65.187  1.00  0.00    -0.453 C  
HETATM    8  C   UNL     1     -11.047  14.266  64.626  1.00  0.00    -0.371 C  
HETATM    9  C   UNL     1     -10.328  13.151  65.406  1.00  0.00    -0.313 C  
HETATM   10  C   UNL     1     -10.063  13.542  66.905  1.00  0.00    -0.256 C  
HETATM   11  C   UNL     1     -11.458  12.122  65.523  1.00  0.00    -0.394 C  
HETATM   12  C   UNL     1      -9.111  12.488  67.526  1.00  0.00    -0.187 C  
HETATM   13  C   UNL     1      -9.307  14.882  67.010  1.00  0.00    -0.240 C  
ENDBRANCH   2   4
TORSDOF 1
ENDMDL
MODEL       19
REMARK 921   NORMALIZED FREE ENERGY PREDICTED BY IDOCK:   -3.92 KCAL/MOL
REMARK 922        TOTAL FREE ENERGY PREDICTED BY IDOCK:   -4.19 KCAL/MOL
REMARK 923 INTER-LIGAND FREE ENERGY PREDICTED BY IDOCK:   -4.14 KCAL/MOL
REMARK 924 INTRA-LIGAND FREE ENERGY PREDICTED BY IDOCK:   -0.05 KCAL/MOL
REMARK 927      BINDING AFFINITY PREDICTED BY RF-SCORE:    0.00 PKD
ROOT
HETATM    1  C   UNL     1     -10.870  12.349  63.530  1.00  0.00    -0.438 C  
HETATM    2  N   UNL     1     -10.253  12.978  64.689  1.00  0.00    -0.519 NA 
HETATM    3  H   UNL     1      -9.266  13.235  64.689  1.00  0.00     0.000 HD 
ENDROOT
BRANCH   2   4
HETATM    4  C   UNL     1     -11.109  13.230  65.864  1.00  0.00    -0.285 C  
HETATM    5  C   UNL     1     -12.506  13.697  65.378  1.00  0.00    -0.537 C  
HETATM    6  C   UNL     1     -11.311  11.846  66.609  1.00  0.00    -0.400 C  
HETATM    7  C   UNL     1      -9.978  11.130  66.921  1.00  0.00    -0.230 C  
HETATM    8  C   UNL     1      -9.368  12.003  68.021  1.00  0.00    -0.196 C  
HETATM    9  C   UNL     1     -10.437  13.089  68.234  1.00  0.00    -0.258 C  
HETATM   10  C   UNL     1     -10.493  14.117  67.046  1.00  0.00    -0.271 C  
HETATM   11  C   UNL     1     -11.713  12.267  68.027  1.00  0.00    -0.417 C  
HETATM   12  C   UNL     1     -11.392  15.307  67.469  1.00  0.00    -0.300 C  
HETATM   13  C   UNL     1      -9.106  14.735  66.772  1.00  0.00    -0.291 C  
ENDBRANCH   2   4
TORSDOF 1
ENDMDL
MODEL       20
REMARK 921   NORMALIZED FREE ENERGY PREDICTED BY IDOCK:   -3.89 KCAL/MOL
REMARK 922        TOTAL FREE ENERGY PREDICTED BY IDOCK:   -4.16 KCAL/MOL
REMARK 923 INTER-LIGAND FREE ENERGY PREDICTED BY IDOCK:   -4.13 KCAL/MOL
REMARK 924 INTRA-LIGAND FREE ENERGY PREDICTED BY IDOCK:   -0.04 KCAL/MOL
REMARK 927      BINDING AFFINITY PREDICTED BY RF-SCORE:    0.00 PKD
ROOT
HETATM    1  C   UNL     1     -11.222  15.357  68.043  1.00  0.00    -0.325 C  
HETATM    2  N   UNL     1     -10.924  16.780  68.113  1.00  0.00    -0.349 NA 
HETATM    3  H   UNL     1     -11.314  17.367  68.851  1.00  0.00     0.000 HD 
ENDROOT
BRANCH   2   4
HETATM    4  C   UNL     1     -10.037  17.342  67.076  1.00  0.00    -0.313 C  
HETATM    5  C   UNL     1     -10.292  16.598  65.740  1.00  0.00    -0.338 C  
HETATM    6  C   UNL     1     -10.460  18.853  66.859  1.00  0.00    -0.496 C  
HETATM    7  C   UNL     1     -10.510  19.661  68.175  1.00  0.00    -0.503 C  
HETATM    8  C   UNL     1      -9.032  19.790  68.555  1.00  0.00    -0.291 C  
HETATM    9  C   UNL     1      -8.313  19.078  67.396  1.00  0.00    -0.299 C  
HETATM   10  C   UNL     1      -8.490  17.517  67.449  1.00  0.00    -0.222 C  
HETATM   11  C   UNL     1      -9.214  19.478  66.223  1.00  0.00    -0.416 C  
HETATM   12  C   UNL     1      -7.523  16.879  66.419  1.00  0.00    -0.323 C  
HETATM   13  C   UNL     1      -8.057  16.950  68.816  1.00  0.00    -0.251 C  
ENDBRANCH   2   4
TORSDOF 1
ENDMDL
MODEL       21
REMARK 921   NORMALIZED FREE ENERGY PREDICTED BY IDOCK:   -3.89 KCAL/MOL
REMARK 922        TOTAL FREE ENERGY PREDICTED BY IDOCK:   -4.16 KCAL/MOL
REMARK 923 INTER-LIGAND FREE ENERGY PREDICTED BY IDOCK:   -4.14 KCAL/MOL
REMARK 924 INTRA-LIGAND FREE ENERGY PREDICTED BY IDOCK:   -0.02 KCAL/MOL
REMARK 927      BINDING AFFINITY PREDICTED BY RF-SCORE:    0.00 PKD
ROOT
HETATM    1  C   UNL     1      -7.403  20.137  65.474  1.00  0.00    -0.221 C  
HETATM    2  N   UNL     1      -7.881  18.809  65.829  1.00  0.00    -0.475 NA 
HETATM    3  H   UNL     1      -7.349  17.973  65.587  1.00  0.00     0.000 HD 
ENDROOT
BRANCH   2   4
HETATM    4  C   UNL     1      -9.164  18.717  66.552  1.00  0.00    -0.320 C  
HETATM    5  C   UNL     1     -10.136  19.787  65.990  1.00  0.00    -0.574 C  
HETATM    6  C   UNL     1      -9.791  17.298  66.227  1.00  0.00    -0.299 C  
HETATM    7  C   UNL     1      -8.813  16.132  66.492  1.00  0.00    -0.331 C  
HETATM    8  C   UNL     1      -8.722  16.102  68.020  1.00  0.00    -0.176 C  
HETATM    9  C   UNL     1      -9.683  17.224  68.448  1.00  0.00    -0.293 C  
HETATM   10  C   UNL     1      -9.104  18.655  68.150  1.00  0.00    -0.337 C  
HETATM   11  C   UNL     1     -10.774  17.076  67.381  1.00  0.00    -0.240 C  
HETATM   12  C   UNL     1     -10.006  19.704  68.850  1.00  0.00    -0.524 C  
HETATM   13  C   UNL     1      -7.708  18.838  68.780  1.00  0.00    -0.351 C  
ENDBRANCH   2   4
TORSDOF 1
ENDMDL
MODEL       22
REMARK 921   NORMALIZED FREE ENERGY PREDICTED BY IDOCK:   -3.89 KCAL/MOL
REMARK 922        TOTAL FREE ENERGY PREDICTED BY IDOCK:   -4.16 KCAL/MOL
REMARK 923 INTER-LIGAND FREE ENERGY PREDICTED BY IDOCK:   -4.10 KCAL/MOL
REMARK 924 INTRA-LIGAND FREE ENERGY PREDICTED BY IDOCK:   -0.06 KCAL/MOL
REMARK 927      BINDING AFFINITY PREDICTED BY RF-SCORE:    0.00 PKD
ROOT
HETATM    1  C   UNL     1      -6.702  16.086  67.609  1.00  0.00    -0.163 C  
HETATM    2  N   UNL     1      -7.592  17.153  68.045  1.00  0.00    -0.186 NA 
HETATM    3  H   UNL     1      -8.060  17.114  68.951  1.00  0.00     0.000 HD 
ENDROOT
BRANCH   2   4
HETATM    4  C   UNL     1      -7.791  18.291  67.128  1.00  0.00    -0.219 C  
HETATM    5  C   UNL     1      -6.938  18.065  65.853  1.00  0.00    -0.319 C  
HETATM    6  C   UNL     1      -9.311  18.281  66.683  1.00  0.00    -0.304 C  
HETATM    7  C   UNL     1     -10.289  18.234  67.878  1.00  0.00    -0.417 C  
HETATM    8  C   UNL     1     -10.143  19.627  68.496  1.00  0.00    -0.557 C  
HETATM    9  C   UNL     1      -9.132  20.316  67.563  1.00  0.00    -0.462 C  
HETATM   10  C   UNL     1      -7.673  19.763  67.747  1.00  0.00    -0.324 C  
HETATM   11  C   UNL     1      -9.549  19.720  66.214  1.00  0.00    -0.515 C  
HETATM   12  C   UNL     1      -6.696  20.689  66.977  1.00  0.00    -0.343 C  
HETATM   13  C   UNL     1      -7.225  19.840  69.221  1.00  0.00    -0.293 C  
ENDBRANCH   2   4
TORSDOF 1
ENDMDL
MODEL       23
REMARK 921   NORMALIZED FREE ENERGY PREDICTED BY IDOCK:   -3.87 KCAL/MOL
REMARK 922        TOTAL FREE ENERGY PREDICTED BY IDOCK:   -4.14 KCAL/MOL
REMARK 923 INTER-LIGAND FREE ENERGY PREDICTED BY IDOCK:   -4.08 KCAL/MOL
REMARK 924 INTRA-LIGAND FREE ENERGY PREDICTED BY IDOCK:   -0.06 KCAL/MOL
REMARK 927      BINDING AFFINITY PREDICTED BY RF-SCORE:    0.00 PKD
ROOT
HETATM    1  C   UNL     1     -10.667  16.216  69.630  1.00  0.00    -0.325 C  
HETATM    2  N   UNL     1     -10.628  17.096  68.470  1.00  0.00    -0.362 NA 
HETATM    3  H   UNL     1     -11.480  17.347  67.968  1.00  0.00     0.000 HD 
ENDROOT
BRANCH   2   4
HETATM    4  C   UNL     1      -9.311  17.609  68.048  1.00  0.00    -0.274 C  
HETATM    5  C   UNL     1      -8.212  16.621  68.520  1.00  0.00    -0.231 C  
HETATM    6  C   UNL     1      -9.289  17.613  66.464  1.00  0.00    -0.286 C  
HETATM    7  C   UNL     1     -10.498  18.349  65.846  1.00  0.00    -0.346 C  
HETATM    8  C   UNL     1     -10.213  19.816  66.177  1.00  0.00    -0.618 C  
HETATM    9  C   UNL     1      -8.860  19.751  66.908  1.00  0.00    -0.401 C  
HETATM   10  C   UNL     1      -8.989  19.147  68.354  1.00  0.00    -0.392 C  
HETATM   11  C   UNL     1      -8.181  18.617  66.132  1.00  0.00    -0.187 C  
HETATM   12  C   UNL     1      -7.648  19.369  69.099  1.00  0.00    -0.316 C  
HETATM   13  C   UNL     1     -10.044  19.904  69.186  1.00  0.00    -0.337 C  
ENDBRANCH   2   4
TORSDOF 1
ENDMDL
MODEL       24
REMARK 921   NORMALIZED FREE ENERGY PREDICTED BY IDOCK:   -3.84 KCAL/MOL
REMARK 922        TOTAL FREE ENERGY PREDICTED BY IDOCK:   -4.11 KCAL/MOL
REMARK 923 INTER-LIGAND FREE ENERGY PREDICTED BY IDOCK:   -4.05 KCAL/MOL
REMARK 924 INTRA-LIGAND FREE ENERGY PREDICTED BY IDOCK:   -0.06 KCAL/MOL
REMARK 927      BINDING AFFINITY PREDICTED BY RF-SCORE:    0.00 PKD
ROOT
HETATM    1  C   UNL     1      -8.773  10.903  65.205  1.00  0.00    -0.139 C  
HETATM    2  N   UNL     1      -9.220  12.053  65.979  1.00  0.00    -0.367 NA 
HETATM    3  H   UNL     1      -8.806  12.275  66.884  1.00  0.00     0.000 HD 
ENDROOT
BRANCH   2   4
HETATM    4  C   UNL     1     -10.294  12.885  65.404  1.00  0.00    -0.296 C  
HETATM    5  C   UNL     1     -10.240  12.777  63.858  1.00  0.00    -0.265 C  
HETATM    6  C   UNL     1     -11.675  12.263  65.869  1.00  0.00    -0.451 C  
HETATM    7  C   UNL     1     -11.761  12.062  67.398  1.00  0.00    -0.352 C  
HETATM    8  C   UNL     1     -11.857  13.495  67.928  1.00  0.00    -0.397 C  
HETATM    9  C   UNL     1     -11.854  14.341  66.644  1.00  0.00    -0.442 C  
HETATM   10  C   UNL     1     -10.441  14.380  65.955  1.00  0.00    -0.307 C  
HETATM   11  C   UNL     1     -12.656  13.430  65.709  1.00  0.00    -0.455 C  
HETATM   12  C   UNL     1     -10.468  15.458  64.841  1.00  0.00    -0.323 C  
HETATM   13  C   UNL     1      -9.349  14.846  66.941  1.00  0.00    -0.258 C  
ENDBRANCH   2   4
TORSDOF 1
ENDMDL
MODEL       25
REMARK 921   NORMALIZED FREE ENERGY PREDICTED BY IDOCK:   -3.83 KCAL/MOL
REMARK 922        TOTAL FREE ENERGY PREDICTED BY IDOCK:   -4.10 KCAL/MOL
REMARK 923 INTER-LIGAND FREE ENERGY PREDICTED BY IDOCK:   -4.04 KCAL/MOL
REMARK 924 INTRA-LIGAND FREE ENERGY PREDICTED BY IDOCK:   -0.06 KCAL/MOL
REMARK 927      BINDING AFFINITY PREDICTED BY RF-SCORE:    0.00 PKD
ROOT
HETATM    1  C   UNL     1      -9.882  15.177  68.757  1.00  0.00    -0.223 C  
HETATM    2  N   UNL     1      -9.883  14.510  67.463  1.00  0.00    -0.221 NA 
HETATM    3  H   UNL     1      -9.148  14.685  66.777  1.00  0.00     0.000 HD 
ENDROOT
BRANCH   2   4
HETATM    4  C   UNL     1     -10.988  13.574  67.180  1.00  0.00    -0.291 C  
HETATM    5  C   UNL     1     -11.954  13.555  68.393  1.00  0.00    -0.378 C  
HETATM    6  C   UNL     1     -11.796  14.153  65.947  1.00  0.00    -0.391 C  
HETATM    7  C   UNL     1     -10.896  14.477  64.734  1.00  0.00    -0.410 C  
HETATM    8  C   UNL     1     -10.488  13.090  64.230  1.00  0.00    -0.424 C  
HETATM    9  C   UNL     1     -11.230  12.140  65.186  1.00  0.00    -0.378 C  
HETATM   10  C   UNL     1     -10.598  12.124  66.625  1.00  0.00    -0.266 C  
HETATM   11  C   UNL     1     -12.530  12.924  65.400  1.00  0.00    -0.511 C  
HETATM   12  C   UNL     1     -11.232  10.957  67.426  1.00  0.00    -0.345 C  
HETATM   13  C   UNL     1      -9.090  11.805  66.572  1.00  0.00    -0.203 C  
ENDBRANCH   2   4
TORSDOF 1
ENDMDL
MODEL       26
REMARK 921   NORMALIZED FREE ENERGY PREDICTED BY IDOCK:   -3.81 KCAL/MOL
REMARK 922        TOTAL FREE ENERGY PREDICTED BY IDOCK:   -4.07 KCAL/MOL
REMARK 923 INTER-LIGAND FREE ENERGY PREDICTED BY IDOCK:   -4.01 KCAL/MOL
REMARK 924 INTRA-LIGAND FREE ENERGY PREDICTED BY IDOCK:   -0.06 KCAL/MOL
REMARK 927      BINDING AFFINITY PREDICTED BY RF-SCORE:    0.00 PKD
ROOT
HETATM    1  C   UNL     1     -10.850   4.729  74.052  1.00  0.00    -0.258 C  
HETATM    2  N   UNL     1     -11.552   5.397  72.965  1.00  0.00    -0.511 NA 
HETATM    3  H   UNL     1     -12.424   5.023  72.590  1.00  0.00     0.000 HD 
ENDROOT
BRANCH   2   4
HETATM    4  C   UNL     1     -10.956   6.634  72.427  1.00  0.00    -0.244 C  
HETATM    5  C   UNL     1     -10.246   7.392  73.579  1.00  0.00    -0.400 C  
HETATM    6  C   UNL     1      -9.839   6.209  71.387  1.00  0.00    -0.200 C  
HETATM    7  C   UNL     1     -10.356   5.222  70.317  1.00  0.00    -0.350 C  
HETATM    8  C   UNL     1     -11.278   6.095  69.462  1.00  0.00    -0.482 C  
HETATM    9  C   UNL     1     -11.151   7.481  70.118  1.00  0.00    -0.246 C  
HETATM   10  C   UNL     1     -11.884   7.558  71.506  1.00  0.00    -0.324 C  
HETATM   11  C   UNL     1      -9.672   7.462  70.521  1.00  0.00    -0.175 C  
HETATM   12  C   UNL     1     -11.932   9.041  71.954  1.00  0.00    -0.445 C  
HETATM   13  C   UNL     1     -13.359   7.124  71.386  1.00  0.00    -0.380 C  
ENDBRANCH   2   4
TORSDOF 1
ENDMDL
MODEL       27
REMARK 921   NORMALIZED FREE ENERGY PREDICTED BY IDOCK:   -3.77 KCAL/MOL
REMARK 922        TOTAL FREE ENERGY PREDICTED BY IDOCK:   -4.03 KCAL/MOL
REMARK 923 INTER-LIGAND FREE ENERGY PREDICTED BY IDOCK:   -3.98 KCAL/MOL
REMARK 924 INTRA-LIGAND FREE ENERGY PREDICTED BY IDOCK:   -0.06 KCAL/MOL
REMARK 927      BINDING AFFINITY PREDICTED BY RF-SCORE:    0.00 PKD
ROOT
HETATM    1  C   UNL     1     -12.660  12.012  63.816  1.00  0.00    -0.454 C  
HETATM    2  N   UNL     1     -12.387  12.376  65.199  1.00  0.00    -0.570 NA 
HETATM    3  H   UNL     1     -13.120  12.351  65.907  1.00  0.00     0.000 HD 
ENDROOT
BRANCH   2   4
HETATM    4  C   UNL     1     -11.009  12.782  65.537  1.00  0.00    -0.280 C  
HETATM    5  C   UNL     1     -10.163  12.819  64.238  1.00  0.00    -0.352 C  
HETATM    6  C   UNL     1     -11.075  14.263  66.096  1.00  0.00    -0.324 C  
HETATM    7  C   UNL     1     -12.098  14.430  67.241  1.00  0.00    -0.358 C  
HETATM    8  C   UNL     1     -11.442  13.676  68.400  1.00  0.00    -0.346 C  
HETATM    9  C   UNL     1     -10.109  13.201  67.796  1.00  0.00    -0.226 C  
HETATM   10  C   UNL     1     -10.302  12.033  66.762  1.00  0.00    -0.233 C  
HETATM   11  C   UNL     1      -9.774  14.394  66.894  1.00  0.00    -0.266 C  
HETATM   12  C   UNL     1      -8.908  11.448  66.417  1.00  0.00    -0.193 C  
HETATM   13  C   UNL     1     -11.090  10.860  67.381  1.00  0.00    -0.373 C  
ENDBRANCH   2   4
TORSDOF 1
ENDMDL
MODEL       28
REMARK 921   NORMALIZED FREE ENERGY PREDICTED BY IDOCK:   -3.75 KCAL/MOL
REMARK 922        TOTAL FREE ENERGY PREDICTED BY IDOCK:   -4.01 KCAL/MOL
REMARK 923 INTER-LIGAND FREE ENERGY PREDICTED BY IDOCK:   -3.96 KCAL/MOL
REMARK 924 INTRA-LIGAND FREE ENERGY PREDICTED BY IDOCK:   -0.06 KCAL/MOL
REMARK 927      BINDING AFFINITY PREDICTED BY RF-SCORE:    0.00 PKD
ROOT
HETATM    1  C   UNL     1      -7.923  11.403  66.982  1.00  0.00    -0.158 C  
HETATM    2  N   UNL     1      -8.758  12.490  66.491  1.00  0.00    -0.407 NA 
HETATM    3  H   UNL     1      -8.359  13.267  65.963  1.00  0.00     0.000 HD 
ENDROOT
BRANCH   2   4
HETATM    4  C   UNL     1     -10.202  12.425  66.785  1.00  0.00    -0.219 C  
HETATM    5  C   UNL     1     -10.647  10.940  66.797  1.00  0.00    -0.313 C  
HETATM    6  C   UNL     1     -10.413  12.989  68.250  1.00  0.00    -0.258 C  
HETATM    7  C   UNL     1      -9.772  14.379  68.460  1.00  0.00    -0.225 C  
HETATM    8  C   UNL     1     -10.668  15.299  67.627  1.00  0.00    -0.282 C  
HETATM    9  C   UNL     1     -11.734  14.338  67.073  1.00  0.00    -0.427 C  
HETATM   10  C   UNL     1     -11.166  13.395  65.952  1.00  0.00    -0.314 C  
HETATM   11  C   UNL     1     -11.893  13.386  68.263  1.00  0.00    -0.393 C  
HETATM   12  C   UNL     1     -12.356  12.664  65.276  1.00  0.00    -0.528 C  
HETATM   13  C   UNL     1     -10.496  14.205  64.823  1.00  0.00    -0.432 C  
ENDBRANCH   2   4
TORSDOF 1
ENDMDL
MODEL       29
REMARK 921   NORMALIZED FREE ENERGY PREDICTED BY IDOCK:   -3.69 KCAL/MOL
REMARK 922        TOTAL FREE ENERGY PREDICTED BY IDOCK:   -3.95 KCAL/MOL
REMARK 923 INTER-LIGAND FREE ENERGY PREDICTED BY IDOCK:   -3.89 KCAL/MOL
REMARK 924 INTRA-LIGAND FREE ENERGY PREDICTED BY IDOCK:   -0.06 KCAL/MOL
REMARK 927      BINDING AFFINITY PREDICTED BY RF-SCORE:    0.00 PKD
ROOT
HETATM    1  C   UNL     1      -8.508  16.028  66.216  1.00  0.00    -0.302 C  
HETATM    2  N   UNL     1      -9.274  14.817  65.960  1.00  0.00    -0.504 NA 
HETATM    3  H   UNL     1      -9.415  14.471  65.011  1.00  0.00     0.000 HD 
ENDROOT
BRANCH   2   4
HETATM    4  C   UNL     1      -9.838  14.108  67.125  1.00  0.00    -0.253 C  
HETATM    5  C   UNL     1      -9.096  14.574  68.404  1.00  0.00    -0.191 C  
HETATM    6  C   UNL     1     -11.350  14.561  67.268  1.00  0.00    -0.363 C  
HETATM    7  C   UNL     1     -12.154  14.398  65.960  1.00  0.00    -0.370 C  
HETATM    8  C   UNL     1     -12.284  12.879  65.823  1.00  0.00    -0.498 C  
HETATM    9  C   UNL     1     -11.574  12.355  67.084  1.00  0.00    -0.435 C  
HETATM   10  C   UNL     1     -10.013  12.521  67.006  1.00  0.00    -0.217 C  
HETATM   11  C   UNL     1     -11.976  13.433  68.096  1.00  0.00    -0.356 C  
HETATM   12  C   UNL     1      -9.377  11.732  68.179  1.00  0.00    -0.190 C  
HETATM   13  C   UNL     1      -9.443  11.874  65.727  1.00  0.00    -0.210 C  
ENDBRANCH   2   4
TORSDOF 1
ENDMDL
MODEL       30
REMARK 921   NORMALIZED FREE ENERGY PREDICTED BY IDOCK:   -3.68 KCAL/MOL
REMARK 922        TOTAL FREE ENERGY PREDICTED BY IDOCK:   -3.93 KCAL/MOL
REMARK 923 INTER-LIGAND FREE ENERGY PREDICTED BY IDOCK:   -3.88 KCAL/MOL
REMARK 924 INTRA-LIGAND FREE ENERGY PREDICTED BY IDOCK:   -0.06 KCAL/MOL
REMARK 927      BINDING AFFINITY PREDICTED BY RF-SCORE:    0.00 PKD
ROOT
HETATM    1  C   UNL     1      -6.215  19.857  65.759  1.00  0.00    -0.196 C  
HETATM    2  N   UNL     1      -7.636  19.726  66.047  1.00  0.00    -0.322 NA 
HETATM    3  H   UNL     1      -8.283  20.498  65.883  1.00  0.00     0.000 HD 
ENDROOT
BRANCH   2   4
HETATM    4  C   UNL     1      -8.106  18.436  66.586  1.00  0.00    -0.264 C  
HETATM    5  C   UNL     1      -7.262  17.294  65.964  1.00  0.00    -0.219 C  
HETATM    6  C   UNL     1      -7.816  18.439  68.144  1.00  0.00    -0.304 C  
HETATM    7  C   UNL     1      -8.382  19.684  68.861  1.00  0.00    -0.235 C  
HETATM    8  C   UNL     1      -9.894  19.448  68.815  1.00  0.00    -0.530 C  
HETATM    9  C   UNL     1     -10.012  18.083  68.114  1.00  0.00    -0.356 C  
HETATM   10  C   UNL     1      -9.684  18.167  66.579  1.00  0.00    -0.344 C  
HETATM   11  C   UNL     1      -8.777  17.374  68.682  1.00  0.00    -0.261 C  
HETATM   12  C   UNL     1     -10.087  16.824  65.918  1.00  0.00    -0.324 C  
HETATM   13  C   UNL     1     -10.547  19.237  65.879  1.00  0.00    -0.521 C  
ENDBRANCH   2   4
TORSDOF 1
ENDMDL
MODEL       31
REMARK 921   NORMALIZED FREE ENERGY PREDICTED BY IDOCK:   -3.66 KCAL/MOL
REMARK 922        TOTAL FREE ENERGY PREDICTED BY IDOCK:   -3.92 KCAL/MOL
REMARK 923 INTER-LIGAND FREE ENERGY PREDICTED BY IDOCK:   -3.86 KCAL/MOL
REMARK 924 INTRA-LIGAND FREE ENERGY PREDICTED BY IDOCK:   -0.06 KCAL/MOL
REMARK 927      BINDING AFFINITY PREDICTED BY RF-SCORE:    0.00 PKD
ROOT
HETATM    1  C   UNL     1     -13.891   7.256  71.752  1.00  0.00    -0.307 C  
HETATM    2  N   UNL     1     -12.878   7.099  70.718  1.00  0.00    -0.591 NA 
HETATM    3  H   UNL     1     -13.121   7.138  69.728  1.00  0.00     0.000 HD 
ENDROOT
BRANCH   2   4
HETATM    4  C   UNL     1     -11.485   6.881  71.155  1.00  0.00    -0.304 C  
HETATM    5  C   UNL     1     -11.497   6.143  72.519  1.00  0.00    -0.318 C  
HETATM    6  C   UNL     1     -10.804   5.911  70.104  1.00  0.00    -0.402 C  
HETATM    7  C   UNL     1     -10.955   6.401  68.646  1.00  0.00    -0.404 C  
HETATM    8  C   UNL     1     -10.037   7.625  68.598  1.00  0.00    -0.201 C  
HETATM    9  C   UNL     1      -9.442   7.669  70.017  1.00  0.00    -0.161 C  
HETATM   10  C   UNL     1     -10.490   8.133  71.093  1.00  0.00    -0.238 C  
HETATM   11  C   UNL     1      -9.308   6.170  70.307  1.00  0.00    -0.172 C  
HETATM   12  C   UNL     1      -9.741   8.404  72.423  1.00  0.00    -0.376 C  
HETATM   13  C   UNL     1     -11.129   9.483  70.707  1.00  0.00    -0.390 C  
ENDBRANCH   2   4
TORSDOF 1
ENDMDL
MODEL       32
REMARK 921   NORMALIZED FREE ENERGY PREDICTED BY IDOCK:   -3.64 KCAL/MOL
REMARK 922        TOTAL FREE ENERGY PREDICTED BY IDOCK:   -3.89 KCAL/MOL
REMARK 923 INTER-LIGAND FREE ENERGY PREDICTED BY IDOCK:   -3.84 KCAL/MOL
REMARK 924 INTRA-LIGAND FREE ENERGY PREDICTED BY IDOCK:   -0.05 KCAL/MOL
REMARK 927      BINDING AFFINITY PREDICTED BY RF-SCORE:    0.00 PKD
ROOT
HETATM    1  C   UNL     1     -12.111  10.360  70.626  1.00  0.00    -0.348 C  
HETATM    2  N   UNL     1     -11.648   9.032  70.252  1.00  0.00    -0.455 NA 
HETATM    3  H   UNL     1     -11.541   8.764  69.273  1.00  0.00     0.000 HD 
ENDROOT
BRANCH   2   4
HETATM    4  C   UNL     1     -11.340   8.086  71.342  1.00  0.00    -0.256 C  
HETATM    5  C   UNL     1     -12.260   8.395  72.551  1.00  0.00    -0.381 C  
HETATM    6  C   UNL     1     -11.713   6.634  70.829  1.00  0.00    -0.445 C  
HETATM    7  C   UNL     1     -11.064   6.289  69.470  1.00  0.00    -0.476 C  
HETATM    8  C   UNL     1      -9.583   6.135  69.826  1.00  0.00    -0.174 C  
HETATM    9  C   UNL     1      -9.565   6.371  71.347  1.00  0.00    -0.173 C  
HETATM   10  C   UNL     1      -9.799   7.879  71.723  1.00  0.00    -0.223 C  
HETATM   11  C   UNL     1     -10.894   5.718  71.743  1.00  0.00    -0.311 C  
HETATM   12  C   UNL     1      -9.498   8.061  73.233  1.00  0.00    -0.336 C  
HETATM   13  C   UNL     1      -8.796   8.800  70.997  1.00  0.00    -0.260 C  
ENDBRANCH   2   4
TORSDOF 1
ENDMDL
MODEL       33
REMARK 921   NORMALIZED FREE ENERGY PREDICTED BY IDOCK:   -3.63 KCAL/MOL
REMARK 922        TOTAL FREE ENERGY PREDICTED BY IDOCK:   -3.89 KCAL/MOL
REMARK 923 INTER-LIGAND FREE ENERGY PREDICTED BY IDOCK:   -3.83 KCAL/MOL
REMARK 924 INTRA-LIGAND FREE ENERGY PREDICTED BY IDOCK:   -0.05 KCAL/MOL
REMARK 927      BINDING AFFINITY PREDICTED BY RF-SCORE:    0.00 PKD
ROOT
HETATM    1  C   UNL     1     -10.858  15.539  64.915  1.00  0.00    -0.427 C  
HETATM    2  N   UNL     1     -10.176  16.660  65.545  1.00  0.00    -0.596 NA 
HETATM    3  H   UNL     1     -10.103  17.565  65.079  1.00  0.00     0.000 HD 
ENDROOT
BRANCH   2   4
HETATM    4  C   UNL     1      -9.593  16.438  66.882  1.00  0.00    -0.244 C  
HETATM    5  C   UNL     1      -9.984  15.020  67.372  1.00  0.00    -0.226 C  
HETATM    6  C   UNL     1      -8.017  16.460  66.722  1.00  0.00    -0.295 C  
HETATM    7  C   UNL     1      -7.503  17.721  65.993  1.00  0.00    -0.284 C  
HETATM    8  C   UNL     1      -7.738  18.832  67.020  1.00  0.00    -0.244 C  
HETATM    9  C   UNL     1      -8.321  18.072  68.225  1.00  0.00    -0.295 C  
HETATM   10  C   UNL     1      -9.797  17.591  67.973  1.00  0.00    -0.299 C  
HETATM   11  C   UNL     1      -7.525  16.766  68.141  1.00  0.00    -0.172 C  
HETATM   12  C   UNL     1     -10.383  17.085  69.317  1.00  0.00    -0.276 C  
HETATM   13  C   UNL     1     -10.705  18.765  67.552  1.00  0.00    -0.474 C  
ENDBRANCH   2   4
TORSDOF 1
ENDMDL
MODEL       34
REMARK 921   NORMALIZED FREE ENERGY PREDICTED BY IDOCK:   -3.61 KCAL/MOL
REMARK 922        TOTAL FREE ENERGY PREDICTED BY IDOCK:   -3.87 KCAL/MOL
REMARK 923 INTER-LIGAND FREE ENERGY PREDICTED BY IDOCK:   -3.82 KCAL/MOL
REMARK 924 INTRA-LIGAND FREE ENERGY PREDICTED BY IDOCK:   -0.05 KCAL/MOL
REMARK 927      BINDING AFFINITY PREDICTED BY RF-SCORE:    0.00 PKD
ROOT
HETATM    1  C   UNL     1     -10.256  19.946  66.318  1.00  0.00    -0.502 C  
HETATM    2  N   UNL     1      -8.849  20.221  66.575  1.00  0.00    -0.538 NA 
HETATM    3  H   UNL     1      -8.338  20.917  66.032  1.00  0.00     0.000 HD 
ENDROOT
BRANCH   2   4
HETATM    4  C   UNL     1      -8.191  19.455  67.650  1.00  0.00    -0.294 C  
HETATM    5  C   UNL     1      -9.187  19.278  68.825  1.00  0.00    -0.421 C  
HETATM    6  C   UNL     1      -7.879  18.010  67.079  1.00  0.00    -0.236 C  
HETATM    7  C   UNL     1      -7.106  18.044  65.742  1.00  0.00    -0.242 C  
HETATM    8  C   UNL     1      -5.717  18.532  66.160  1.00  0.00    -0.199 C  
HETATM    9  C   UNL     1      -5.847  18.683  67.686  1.00  0.00    -0.176 C  
HETATM   10  C   UNL     1      -6.725  19.921  68.094  1.00  0.00    -0.313 C  
HETATM   11  C   UNL     1      -6.768  17.500  68.004  1.00  0.00    -0.181 C  
HETATM   12  C   UNL     1      -6.576  20.147  69.621  1.00  0.00    -0.285 C  
HETATM   13  C   UNL     1      -6.204  21.218  67.441  1.00  0.00    -0.428 C  
ENDBRANCH   2   4
TORSDOF 1
ENDMDL
MODEL       35
REMARK 921   NORMALIZED FREE ENERGY PREDICTED BY IDOCK:   -3.58 KCAL/MOL
REMARK 922        TOTAL FREE ENERGY PREDICTED BY IDOCK:   -3.83 KCAL/MOL
REMARK 923 INTER-LIGAND FREE ENERGY PREDICTED BY IDOCK:   -3.78 KCAL/MOL
REMARK 924 INTRA-LIGAND FREE ENERGY PREDICTED BY IDOCK:   -0.05 KCAL/MOL
REMARK 927      BINDING AFFINITY PREDICTED BY RF-SCORE:    0.00 PKD
ROOT
HETATM    1  C   UNL     1     -12.202  13.326  70.541  1.00  0.00    -0.340 C  
HETATM    2  N   UNL     1     -11.080  13.361  69.615  1.00  0.00    -0.464 NA 
HETATM    3  H   UNL     1     -10.272  13.961  69.784  1.00  0.00     0.000 HD 
ENDROOT
BRANCH   2   4
HETATM    4  C   UNL     1     -11.154  12.495  68.422  1.00  0.00    -0.258 C  
HETATM    5  C   UNL     1     -11.827  11.155  68.815  1.00  0.00    -0.388 C  
HETATM    6  C   UNL     1     -12.107  13.209  67.377  1.00  0.00    -0.316 C  
HETATM    7  C   UNL     1     -11.700  14.672  67.092  1.00  0.00    -0.392 C  
HETATM    8  C   UNL     1     -10.404  14.518  66.293  1.00  0.00    -0.300 C  
HETATM    9  C   UNL     1     -10.243  12.991  66.183  1.00  0.00    -0.288 C  
HETATM   10  C   UNL     1      -9.823  12.333  67.548  1.00  0.00    -0.193 C  
HETATM   11  C   UNL     1     -11.709  12.568  66.044  1.00  0.00    -0.472 C  
HETATM   12  C   UNL     1      -9.427  10.859  67.279  1.00  0.00    -0.176 C  
HETATM   13  C   UNL     1      -8.554  12.995  68.122  1.00  0.00    -0.188 C  
ENDBRANCH   2   4
TORSDOF 1
ENDMDL
MODEL       36
REMARK 921   NORMALIZED FREE ENERGY PREDICTED BY IDOCK:   -3.57 KCAL/MOL
REMARK 922        TOTAL FREE ENERGY PREDICTED BY IDOCK:   -3.82 KCAL/MOL
REMARK 923 INTER-LIGAND FREE ENERGY PREDICTED BY IDOCK:   -3.77 KCAL/MOL
REMARK 924 INTRA-LIGAND FREE ENERGY PREDICTED BY IDOCK:   -0.05 KCAL/MOL
REMARK 927      BINDING AFFINITY PREDICTED BY RF-SCORE:    0.00 PKD
ROOT
HETATM    1  C   UNL     1     -10.248  19.663  68.259  1.00  0.00    -0.452 C  
HETATM    2  N   UNL     1     -10.638  18.341  67.789  1.00  0.00    -0.412 NA 
HETATM    3  H   UNL     1     -11.523  18.192  67.303  1.00  0.00     0.000 HD 
ENDROOT
BRANCH   2   4
HETATM    4  C   UNL     1      -9.707  17.225  68.043  1.00  0.00    -0.277 C  
HETATM    5  C   UNL     1      -8.364  17.800  68.565  1.00  0.00    -0.298 C  
HETATM    6  C   UNL     1     -10.325  16.347  69.208  1.00  0.00    -0.292 C  
HETATM    7  C   UNL     1     -11.784  15.922  68.933  1.00  0.00    -0.376 C  
HETATM    8  C   UNL     1     -11.636  14.900  67.802  1.00  0.00    -0.358 C  
HETATM    9  C   UNL     1     -10.114  14.834  67.591  1.00  0.00    -0.227 C  
HETATM   10  C   UNL     1      -9.548  16.124  66.892  1.00  0.00    -0.243 C  
HETATM   11  C   UNL     1      -9.627  14.994  69.035  1.00  0.00    -0.225 C  
HETATM   12  C   UNL     1      -8.077  15.854  66.482  1.00  0.00    -0.270 C  
HETATM   13  C   UNL     1     -10.289  16.417  65.572  1.00  0.00    -0.336 C  
ENDBRANCH   2   4
TORSDOF 1
ENDMDL
MODEL       37
REMARK 921   NORMALIZED FREE ENERGY PREDICTED BY IDOCK:   -3.57 KCAL/MOL
REMARK 922        TOTAL FREE ENERGY PREDICTED BY IDOCK:   -3.82 KCAL/MOL
REMARK 923 INTER-LIGAND FREE ENERGY PREDICTED BY IDOCK:   -3.78 KCAL/MOL
REMARK 924 INTRA-LIGAND FREE ENERGY PREDICTED BY IDOCK:   -0.04 KCAL/MOL
REMARK 927      BINDING AFFINITY PREDICTED BY RF-SCORE:    0.00 PKD
ROOT
HETATM    1  C   UNL     1     -11.209  16.173  64.771  1.00  0.00    -0.304 C  
HETATM    2  N   UNL     1      -9.936  16.560  65.364  1.00  0.00    -0.545 NA 
HETATM    3  H   UNL     1      -9.075  16.061  65.141  1.00  0.00     0.000 HD 
ENDROOT
BRANCH   2   4
HETATM    4  C   UNL     1      -9.940  17.700  66.301  1.00  0.00    -0.318 C  
HETATM    5  C   UNL     1     -10.828  18.828  65.716  1.00  0.00    -0.142 C  
HETATM    6  C   UNL     1     -10.628  17.209  67.642  1.00  0.00    -0.343 C  
HETATM    7  C   UNL     1     -10.002  15.913  68.202  1.00  0.00    -0.222 C  
HETATM    8  C   UNL     1      -8.630  16.380  68.696  1.00  0.00    -0.237 C  
HETATM    9  C   UNL     1      -8.649  17.889  68.396  1.00  0.00    -0.296 C  
HETATM   10  C   UNL     1      -8.524  18.197  66.859  1.00  0.00    -0.265 C  
HETATM   11  C   UNL     1     -10.119  18.211  68.684  1.00  0.00    -0.406 C  
HETATM   12  C   UNL     1      -8.282  19.718  66.682  1.00  0.00    -0.353 C  
HETATM   13  C   UNL     1      -7.282  17.515  66.250  1.00  0.00    -0.351 C  
ENDBRANCH   2   4
TORSDOF 1
ENDMDL
MODEL       38
REMARK 921   NORMALIZED FREE ENERGY PREDICTED BY IDOCK:   -3.57 KCAL/MOL
REMARK 922        TOTAL FREE ENERGY PREDICTED BY IDOCK:   -3.82 KCAL/MOL
REMARK 923 INTER-LIGAND FREE ENERGY PREDICTED BY IDOCK:   -3.75 KCAL/MOL
REMARK 924 INTRA-LIGAND FREE ENERGY PREDICTED BY IDOCK:   -0.06 KCAL/MOL
REMARK 927      BINDING AFFINITY PREDICTED BY RF-SCORE:    0.00 PKD
ROOT
HETATM    1  C   UNL     1     -10.410   8.777  67.137  1.00  0.00    -0.293 C  
HETATM    2  N   UNL     1     -10.917   8.906  68.496  1.00  0.00    -0.454 NA 
HETATM    3  H   UNL     1     -11.847   9.284  68.680  1.00  0.00     0.000 HD 
ENDROOT
BRANCH   2   4
HETATM    4  C   UNL     1     -10.036   8.469  69.596  1.00  0.00    -0.202 C  
HETATM    5  C   UNL     1      -8.566   8.500  69.105  1.00  0.00    -0.133 C  
HETATM    6  C   UNL     1     -10.164   9.538  70.758  1.00  0.00    -0.363 C  
HETATM    7  C   UNL     1     -11.628   9.808  71.170  1.00  0.00    -0.469 C  
HETATM    8  C   UNL     1     -12.031   8.512  71.878  1.00  0.00    -0.409 C  
HETATM    9  C   UNL     1     -10.744   7.671  71.822  1.00  0.00    -0.252 C  
HETATM   10  C   UNL     1     -10.443   7.132  70.376  1.00  0.00    -0.234 C  
HETATM   11  C   UNL     1      -9.688   8.769  71.995  1.00  0.00    -0.370 C  
HETATM   12  C   UNL     1      -9.298   6.090  70.470  1.00  0.00    -0.177 C  
HETATM   13  C   UNL     1     -11.648   6.357  69.805  1.00  0.00    -0.397 C  
ENDBRANCH   2   4
TORSDOF 1
ENDMDL
MODEL       39
REMARK 921   NORMALIZED FREE ENERGY PREDICTED BY IDOCK:   -3.56 KCAL/MOL
REMARK 922        TOTAL FREE ENERGY PREDICTED BY IDOCK:   -3.81 KCAL/MOL
REMARK 923 INTER-LIGAND FREE ENERGY PREDICTED BY IDOCK:   -3.74 KCAL/MOL
REMARK 924 INTRA-LIGAND FREE ENERGY PREDICTED BY IDOCK:   -0.06 KCAL/MOL
REMARK 927      BINDING AFFINITY PREDICTED BY RF-SCORE:    0.00 PKD
ROOT
HETATM    1  C   UNL     1     -12.442  14.172  65.630  1.00  0.00    -0.469 C  
HETATM    2  N   UNL     1     -12.098  14.536  66.997  1.00  0.00    -0.505 NA 
HETATM    3  H   UNL     1     -12.727  14.332  67.774  1.00  0.00     0.000 HD 
ENDROOT
BRANCH   2   4
HETATM    4  C   UNL     1     -10.805  15.213  67.217  1.00  0.00    -0.316 C  
HETATM    5  C   UNL     1     -10.332  15.840  65.880  1.00  0.00    -0.372 C  
HETATM    6  C   UNL     1     -11.060  16.405  68.229  1.00  0.00    -0.337 C  
HETATM    7  C   UNL     1     -11.783  15.956  69.519  1.00  0.00    -0.331 C  
HETATM    8  C   UNL     1     -10.713  15.138  70.246  1.00  0.00    -0.232 C  
HETATM    9  C   UNL     1      -9.497  15.247  69.309  1.00  0.00    -0.242 C  
HETATM   10  C   UNL     1      -9.672  14.396  67.999  1.00  0.00    -0.221 C  
HETATM   11  C   UNL     1      -9.666  16.683  68.801  1.00  0.00    -0.254 C  
HETATM   12  C   UNL     1      -8.310  14.351  67.258  1.00  0.00    -0.228 C  
HETATM   13  C   UNL     1     -10.004  12.926  68.325  1.00  0.00    -0.234 C  
ENDBRANCH   2   4
TORSDOF 1
ENDMDL
MODEL       40
REMARK 921   NORMALIZED FREE ENERGY PREDICTED BY IDOCK:   -3.55 KCAL/MOL
REMARK 922        TOTAL FREE ENERGY PREDICTED BY IDOCK:   -3.80 KCAL/MOL
REMARK 923 INTER-LIGAND FREE ENERGY PREDICTED BY IDOCK:   -3.75 KCAL/MOL
REMARK 924 INTRA-LIGAND FREE ENERGY PREDICTED BY IDOCK:   -0.06 KCAL/MOL
REMARK 927      BINDING AFFINITY PREDICTED BY RF-SCORE:    0.00 PKD
ROOT
HETATM    1  C   UNL     1     -10.515  16.683  67.609  1.00  0.00    -0.320 C  
HETATM    2  N   UNL     1     -11.242  15.466  67.277  1.00  0.00    -0.308 NA 
HETATM    3  H   UNL     1     -12.237  15.370  67.482  1.00  0.00     0.000 HD 
ENDROOT
BRANCH   2   4
HETATM    4  C   UNL     1     -10.485  14.375  66.633  1.00  0.00    -0.274 C  
HETATM    5  C   UNL     1      -9.301  14.985  65.839  1.00  0.00    -0.249 C  
HETATM    6  C   UNL     1      -9.866  13.483  67.786  1.00  0.00    -0.233 C  
HETATM    7  C   UNL     1     -10.916  13.019  68.819  1.00  0.00    -0.295 C  
HETATM    8  C   UNL     1     -11.745  12.000  68.033  1.00  0.00    -0.398 C  
HETATM    9  C   UNL     1     -11.051  11.973  66.660  1.00  0.00    -0.358 C  
HETATM   10  C   UNL     1     -11.323  13.276  65.824  1.00  0.00    -0.328 C  
HETATM   11  C   UNL     1      -9.589  12.148  67.086  1.00  0.00    -0.195 C  
HETATM   12  C   UNL     1     -10.818  13.045  64.377  1.00  0.00    -0.409 C  
HETATM   13  C   UNL     1     -12.835  13.549  65.687  1.00  0.00    -0.380 C  
ENDBRANCH   2   4
TORSDOF 1
ENDMDL
MODEL       41
REMARK 921   NORMALIZED FREE ENERGY PREDICTED BY IDOCK:   -3.55 KCAL/MOL
REMARK 922        TOTAL FREE ENERGY PREDICTED BY IDOCK:   -3.80 KCAL/MOL
REMARK 923 INTER-LIGAND FREE ENERGY PREDICTED BY IDOCK:   -3.74 KCAL/MOL
REMARK 924 INTRA-LIGAND FREE ENERGY PREDICTED BY IDOCK:   -0.06 KCAL/MOL
REMARK 927      BINDING AFFINITY PREDICTED BY RF-SCORE:    0.00 PKD
ROOT
HETATM    1  C   UNL     1     -10.784  19.796  65.736  1.00  0.00    -0.370 C  
HETATM    2  N   UNL     1      -9.600  18.984  65.978  1.00  0.00    -0.471 NA 
HETATM    3  H   UNL     1      -8.949  18.760  65.225  1.00  0.00     0.000 HD 
ENDROOT
BRANCH   2   4
HETATM    4  C   UNL     1      -9.378  18.496  67.353  1.00  0.00    -0.279 C  
HETATM    5  C   UNL     1      -9.952  19.533  68.353  1.00  0.00    -0.540 C  
HETATM    6  C   UNL     1     -10.217  17.164  67.525  1.00  0.00    -0.323 C  
HETATM    7  C   UNL     1      -9.935  16.126  66.416  1.00  0.00    -0.315 C  
HETATM    8  C   UNL     1      -8.514  15.656  66.740  1.00  0.00    -0.307 C  
HETATM    9  C   UNL     1      -8.168  16.449  68.012  1.00  0.00    -0.169 C  
HETATM   10  C   UNL     1      -7.910  17.972  67.718  1.00  0.00    -0.223 C  
HETATM   11  C   UNL     1      -9.534  16.469  68.707  1.00  0.00    -0.246 C  
HETATM   12  C   UNL     1      -7.312  18.623  68.992  1.00  0.00    -0.262 C  
HETATM   13  C   UNL     1      -6.836  18.158  66.627  1.00  0.00    -0.236 C  
ENDBRANCH   2   4
TORSDOF 1
ENDMDL
MODEL       42
REMARK 921   NORMALIZED FREE ENERGY PREDICTED BY IDOCK:   -3.54 KCAL/MOL
REMARK 922        TOTAL FREE ENERGY PREDICTED BY IDOCK:   -3.79 KCAL/MOL
REMARK 923 INTER-LIGAND FREE ENERGY PREDICTED BY IDOCK:   -3.73 KCAL/MOL
REMARK 924 INTRA-LIGAND FREE ENERGY PREDICTED BY IDOCK:   -0.06 KCAL/MOL
REMARK 927      BINDING AFFINITY PREDICTED BY RF-SCORE:    0.00 PKD
ROOT
HETATM    1  C   UNL     1     -12.156  15.640  70.051  1.00  0.00    -0.359 C  
HETATM    2  N   UNL     1     -12.074  15.487  68.605  1.00  0.00    -0.563 NA 
HETATM    3  H   UNL     1     -12.872  15.695  68.004  1.00  0.00     0.000 HD 
ENDROOT
BRANCH   2   4
HETATM    4  C   UNL     1     -10.793  15.019  68.041  1.00  0.00    -0.270 C  
HETATM    5  C   UNL     1      -9.918  14.449  69.188  1.00  0.00    -0.078 C  
HETATM    6  C   UNL     1     -11.118  13.819  67.059  1.00  0.00    -0.313 C  
HETATM    7  C   UNL     1     -12.196  14.173  66.010  1.00  0.00    -0.464 C  
HETATM    8  C   UNL     1     -11.469  15.156  65.090  1.00  0.00    -0.304 C  
HETATM    9  C   UNL     1     -10.055  15.219  65.695  1.00  0.00    -0.401 C  
HETATM   10  C   UNL     1     -10.019  16.011  67.052  1.00  0.00    -0.257 C  
HETATM   11  C   UNL     1      -9.885  13.766  66.151  1.00  0.00    -0.310 C  
HETATM   12  C   UNL     1      -8.538  16.252  67.441  1.00  0.00    -0.194 C  
HETATM   13  C   UNL     1     -10.630  17.419  66.896  1.00  0.00    -0.216 C  
ENDBRANCH   2   4
TORSDOF 1
ENDMDL
MODEL       43
REMARK 921   NORMALIZED FREE ENERGY PREDICTED BY IDOCK:   -3.54 KCAL/MOL
REMARK 922        TOTAL FREE ENERGY PREDICTED BY IDOCK:   -3.79 KCAL/MOL
REMARK 923 INTER-LIGAND FREE ENERGY PREDICTED BY IDOCK:   -3.73 KCAL/MOL
REMARK 924 INTRA-LIGAND FREE ENERGY PREDICTED BY IDOCK:   -0.06 KCAL/MOL
REMARK 927      BINDING AFFINITY PREDICTED BY RF-SCORE:    0.00 PKD
ROOT
HETATM    1  C   UNL     1      -9.068  15.907  66.312  1.00  0.00    -0.344 C  
HETATM    2  N   UNL     1      -9.298  14.566  66.829  1.00  0.00    -0.250 NA 
HETATM    3  H   UNL     1      -8.823  14.234  67.670  1.00  0.00     0.000 HD 
ENDROOT
BRANCH   2   4
HETATM    4  C   UNL     1     -10.243  13.704  66.094  1.00  0.00    -0.304 C  
HETATM    5  C   UNL     1     -10.291  14.160  64.612  1.00  0.00    -0.296 C  
HETATM    6  C   UNL     1      -9.657  12.233  66.112  1.00  0.00    -0.248 C  
HETATM    7  C   UNL     1      -9.306  11.741  67.534  1.00  0.00    -0.174 C  
HETATM    8  C   UNL     1     -10.680  11.549  68.180  1.00  0.00    -0.242 C  
HETATM    9  C   UNL     1     -11.652  11.914  67.044  1.00  0.00    -0.365 C  
HETATM   10  C   UNL     1     -11.681  13.459  66.754  1.00  0.00    -0.429 C  
HETATM   11  C   UNL     1     -10.887  11.361  65.837  1.00  0.00    -0.292 C  
HETATM   12  C   UNL     1     -12.866  13.756  65.799  1.00  0.00    -0.430 C  
HETATM   13  C   UNL     1     -11.981  14.265  68.034  1.00  0.00    -0.353 C  
ENDBRANCH   2   4
TORSDOF 1
ENDMDL
MODEL       44
REMARK 921   NORMALIZED FREE ENERGY PREDICTED BY IDOCK:   -3.53 KCAL/MOL
REMARK 922        TOTAL FREE ENERGY PREDICTED BY IDOCK:   -3.78 KCAL/MOL
REMARK 923 INTER-LIGAND FREE ENERGY PREDICTED BY IDOCK:   -3.72 KCAL/MOL
REMARK 924 INTRA-LIGAND FREE ENERGY PREDICTED BY IDOCK:   -0.06 KCAL/MOL
REMARK 927      BINDING AFFINITY PREDICTED BY RF-SCORE:    0.00 PKD
ROOT
HETATM    1  C   UNL     1     -10.534  18.553  65.797  1.00  0.00    -0.247 C  
HETATM    2  N   UNL     1      -9.137  18.273  66.094  1.00  0.00    -0.502 NA 
HETATM    3  H   UNL     1      -8.678  17.433  65.741  1.00  0.00     0.000 HD 
ENDROOT
BRANCH   2   4
HETATM    4  C   UNL     1      -8.408  19.251  66.924  1.00  0.00    -0.283 C  
HETATM    5  C   UNL     1      -9.208  20.579  66.956  1.00  0.00    -0.446 C  
HETATM    6  C   UNL     1      -8.378  18.687  68.404  1.00  0.00    -0.362 C  
HETATM    7  C   UNL     1      -7.842  17.241  68.487  1.00  0.00    -0.266 C  
HETATM    8  C   UNL     1      -6.352  17.408  68.176  1.00  0.00    -0.167 C  
HETATM    9  C   UNL     1      -6.205  18.928  67.989  1.00  0.00    -0.224 C  
HETATM   10  C   UNL     1      -6.842  19.432  66.643  1.00  0.00    -0.202 C  
HETATM   11  C   UNL     1      -7.200  19.433  69.040  1.00  0.00    -0.397 C  
HETATM   12  C   UNL     1      -6.413  20.905  66.419  1.00  0.00    -0.310 C  
HETATM   13  C   UNL     1      -6.281  18.658  65.433  1.00  0.00    -0.314 C  
ENDBRANCH   2   4
TORSDOF 1
ENDMDL
MODEL       45
REMARK 921   NORMALIZED FREE ENERGY PREDICTED BY IDOCK:   -3.52 KCAL/MOL
REMARK 922        TOTAL FREE ENERGY PREDICTED BY IDOCK:   -3.77 KCAL/MOL
REMARK 923 INTER-LIGAND FREE ENERGY PREDICTED BY IDOCK:   -3.74 KCAL/MOL
REMARK 924 INTRA-LIGAND FREE ENERGY PREDICTED BY IDOCK:   -0.03 KCAL/MOL
REMARK 927      BINDING AFFINITY PREDICTED BY RF-SCORE:    0.00 PKD
ROOT
HETATM    1  C   UNL     1     -12.281  14.662  64.465  1.00  0.00    -0.456 C  
HETATM    2  N   UNL     1     -12.096  14.404  65.886  1.00  0.00    -0.374 NA 
HETATM    3  H   UNL     1     -12.488  15.027  66.592  1.00  0.00     0.000 HD 
ENDROOT
BRANCH   2   4
HETATM    4  C   UNL     1     -11.319  13.209  66.265  1.00  0.00    -0.315 C  
HETATM    5  C   UNL     1     -11.776  12.013  65.390  1.00  0.00    -0.317 C  
HETATM    6  C   UNL     1      -9.802  13.497  65.910  1.00  0.00    -0.255 C  
HETATM    7  C   UNL     1      -9.284  14.823  66.509  1.00  0.00    -0.304 C  
HETATM    8  C   UNL     1      -9.211  14.518  68.007  1.00  0.00    -0.190 C  
HETATM    9  C   UNL     1      -9.658  13.047  68.084  1.00  0.00    -0.227 C  
HETATM   10  C   UNL     1     -11.199  12.875  67.826  1.00  0.00    -0.319 C  
HETATM   11  C   UNL     1      -9.040  12.503  66.792  1.00  0.00    -0.214 C  
HETATM   12  C   UNL     1     -11.597  11.420  68.187  1.00  0.00    -0.364 C  
HETATM   13  C   UNL     1     -12.029  13.767  68.772  1.00  0.00    -0.400 C  
ENDBRANCH   2   4
TORSDOF 1
ENDMDL
MODEL       46
REMARK 921   NORMALIZED FREE ENERGY PREDICTED BY IDOCK:   -3.52 KCAL/MOL
REMARK 922        TOTAL FREE ENERGY PREDICTED BY IDOCK:   -3.77 KCAL/MOL
REMARK 923 INTER-LIGAND FREE ENERGY PREDICTED BY IDOCK:   -3.81 KCAL/MOL
REMARK 924 INTRA-LIGAND FREE ENERGY PREDICTED BY IDOCK:    0.04 KCAL/MOL
REMARK 927      BINDING AFFINITY PREDICTED BY RF-SCORE:    0.00 PKD
ROOT
HETATM    1  C   UNL     1     -10.777  20.073  65.593  1.00  0.00    -0.216 C  
HETATM    2  N   UNL     1     -10.075  18.809  65.763  1.00  0.00    -0.508 NA 
HETATM    3  H   UNL     1     -10.458  17.938  65.396  1.00  0.00     0.000 HD 
ENDROOT
BRANCH   2   4
HETATM    4  C   UNL     1      -8.789  18.836  66.486  1.00  0.00    -0.312 C  
HETATM    5  C   UNL     1      -7.855  19.875  65.813  1.00  0.00    -0.234 C  
HETATM    6  C   UNL     1      -9.082  19.351  67.955  1.00  0.00    -0.382 C  
HETATM    7  C   UNL     1     -10.204  18.558  68.660  1.00  0.00    -0.363 C  
HETATM    8  C   UNL     1      -9.552  17.198  68.920  1.00  0.00    -0.237 C  
HETATM    9  C   UNL     1      -8.128  17.385  68.370  1.00  0.00    -0.264 C  
HETATM   10  C   UNL     1      -8.092  17.429  66.799  1.00  0.00    -0.282 C  
HETATM   11  C   UNL     1      -7.873  18.847  68.751  1.00  0.00    -0.359 C  
HETATM   12  C   UNL     1      -6.614  17.347  66.339  1.00  0.00    -0.292 C  
HETATM   13  C   UNL     1      -8.775  16.188  66.188  1.00  0.00    -0.358 C  
ENDBRANCH   2   4
TORSDOF 1
ENDMDL
MODEL       47
REMARK 921   NORMALIZED FREE ENERGY PREDICTED BY IDOCK:   -3.51 KCAL/MOL
REMARK 922        TOTAL FREE ENERGY PREDICTED BY IDOCK:   -3.75 KCAL/MOL
REMARK 923 INTER-LIGAND FREE ENERGY PREDICTED BY IDOCK:   -3.72 KCAL/MOL
REMARK 924 INTRA-LIGAND FREE ENERGY PREDICTED BY IDOCK:   -0.04 KCAL/MOL
REMARK 927      BINDING AFFINITY PREDICTED BY RF-SCORE:    0.00 PKD
ROOT
HETATM    1  C   UNL     1     -10.228  15.157  65.083  1.00  0.00    -0.351 C  
HETATM    2  N   UNL     1     -10.016  13.848  65.684  1.00  0.00    -0.439 NA 
HETATM    3  H   UNL     1      -9.174  13.306  65.488  1.00  0.00     0.000 HD 
ENDROOT
BRANCH   2   4
HETATM    4  C   UNL     1     -11.064  13.336  66.587  1.00  0.00    -0.291 C  
HETATM    5  C   UNL     1     -12.447  13.819  66.078  1.00  0.00    -0.491 C  
HETATM    6  C   UNL     1     -11.052  11.755  66.479  1.00  0.00    -0.364 C  
HETATM    7  C   UNL     1      -9.650  11.147  66.704  1.00  0.00    -0.215 C  
HETATM    8  C   UNL     1      -9.415  11.370  68.200  1.00  0.00    -0.181 C  
HETATM    9  C   UNL     1     -10.720  12.042  68.660  1.00  0.00    -0.266 C  
HETATM   10  C   UNL     1     -10.838  13.528  68.160  1.00  0.00    -0.271 C  
HETATM   11  C   UNL     1     -11.735  11.310  67.776  1.00  0.00    -0.254 C  
HETATM   12  C   UNL     1     -12.033  14.196  68.887  1.00  0.00    -0.376 C  
HETATM   13  C   UNL     1      -9.602  14.356  68.567  1.00  0.00    -0.217 C  
ENDBRANCH   2   4
TORSDOF 1
ENDMDL
MODEL       48
REMARK 921   NORMALIZED FREE ENERGY PREDICTED BY IDOCK:   -3.50 KCAL/MOL
REMARK 922        TOTAL FREE ENERGY PREDICTED BY IDOCK:   -3.75 KCAL/MOL
REMARK 923 INTER-LIGAND FREE ENERGY PREDICTED BY IDOCK:   -3.75 KCAL/MOL
REMARK 924 INTRA-LIGAND FREE ENERGY PREDICTED BY IDOCK:    0.01 KCAL/MOL
REMARK 927      BINDING AFFINITY PREDICTED BY RF-SCORE:    0.00 PKD
ROOT
HETATM    1  C   UNL     1     -13.624   9.436  72.325  1.00  0.00    -0.462 C  
HETATM    2  N   UNL     1     -12.506   8.653  72.833  1.00  0.00    -0.520 NA 
HETATM    3  H   UNL     1     -12.120   8.822  73.762  1.00  0.00     0.000 HD 
ENDROOT
BRANCH   2   4
HETATM    4  C   UNL     1     -11.953   7.605  71.953  1.00  0.00    -0.295 C  
HETATM    5  C   UNL     1     -13.115   6.723  71.430  1.00  0.00    -0.214 C  
HETATM    6  C   UNL     1     -11.312   8.330  70.698  1.00  0.00    -0.257 C  
HETATM    7  C   UNL     1     -10.313   9.441  71.089  1.00  0.00    -0.377 C  
HETATM    8  C   UNL     1      -9.125   8.654  71.648  1.00  0.00    -0.318 C  
HETATM    9  C   UNL     1      -9.567   7.190  71.477  1.00  0.00    -0.161 C  
HETATM   10  C   UNL     1     -10.692   6.781  72.495  1.00  0.00    -0.261 C  
HETATM   11  C   UNL     1     -10.333   7.285  70.152  1.00  0.00    -0.221 C  
HETATM   12  C   UNL     1     -10.877   5.243  72.430  1.00  0.00    -0.283 C  
HETATM   13  C   UNL     1     -10.268   7.076  73.948  1.00  0.00    -0.388 C  
ENDBRANCH   2   4
TORSDOF 1
ENDMDL
MODEL       49
REMARK 921   NORMALIZED FREE ENERGY PREDICTED BY IDOCK:   -3.49 KCAL/MOL
REMARK 922        TOTAL FREE ENERGY PREDICTED BY IDOCK:   -3.74 KCAL/MOL
REMARK 923 INTER-LIGAND FREE ENERGY PREDICTED BY IDOCK:   -3.68 KCAL/MOL
REMARK 924 INTRA-LIGAND FREE ENERGY PREDICTED BY IDOCK:   -0.06 KCAL/MOL
REMARK 927      BINDING AFFINITY PREDICTED BY RF-SCORE:    0.00 PKD
ROOT
HETATM    1  C   UNL     1     -11.246   4.402  73.430  1.00  0.00    -0.295 C  
HETATM    2  N   UNL     1     -11.631   5.681  72.850  1.00  0.00    -0.503 NA 
HETATM    3  H   UNL     1     -12.423   6.210  73.215  1.00  0.00     0.000 HD 
ENDROOT
BRANCH   2   4
HETATM    4  C   UNL     1     -10.832   6.182  71.715  1.00  0.00    -0.255 C  
HETATM    5  C   UNL     1     -10.256   4.973  70.933  1.00  0.00    -0.287 C  
HETATM    6  C   UNL     1     -11.822   6.943  70.739  1.00  0.00    -0.427 C  
HETATM    7  C   UNL     1     -12.671   8.015  71.457  1.00  0.00    -0.325 C  
HETATM    8  C   UNL     1     -11.645   9.102  71.787  1.00  0.00    -0.457 C  
HETATM    9  C   UNL     1     -10.342   8.542  71.187  1.00  0.00    -0.273 C  
HETATM   10  C   UNL     1      -9.768   7.338  72.019  1.00  0.00    -0.177 C  
HETATM   11  C   UNL     1     -10.889   7.852  69.933  1.00  0.00    -0.221 C  
HETATM   12  C   UNL     1      -8.340   7.024  71.504  1.00  0.00    -0.112 C  
HETATM   13  C   UNL     1      -9.589   7.717  73.503  1.00  0.00    -0.348 C  
ENDBRANCH   2   4
TORSDOF 1
ENDMDL
MODEL       50
REMARK 921   NORMALIZED FREE ENERGY PREDICTED BY IDOCK:   -3.49 KCAL/MOL
REMARK 922        TOTAL FREE ENERGY PREDICTED BY IDOCK:   -3.74 KCAL/MOL
REMARK 923 INTER-LIGAND FREE ENERGY PREDICTED BY IDOCK:   -3.69 KCAL/MOL
REMARK 924 INTRA-LIGAND FREE ENERGY PREDICTED BY IDOCK:   -0.05 KCAL/MOL
REMARK 927      BINDING AFFINITY PREDICTED BY RF-SCORE:    0.00 PKD
ROOT
HETATM    1  C   UNL     1      -6.243  16.876  68.563  1.00  0.00    -0.146 C  
HETATM    2  N   UNL     1      -7.536  17.526  68.722  1.00  0.00    -0.260 NA 
HETATM    3  H   UNL     1      -7.719  18.156  69.504  1.00  0.00     0.000 HD 
ENDROOT
BRANCH   2   4
HETATM    4  C   UNL     1      -8.572  17.239  67.712  1.00  0.00    -0.225 C  
HETATM    5  C   UNL     1      -7.910  17.206  66.309  1.00  0.00    -0.351 C  
HETATM    6  C   UNL     1      -9.128  15.784  68.002  1.00  0.00    -0.187 C  
HETATM    7  C   UNL     1      -9.582  15.594  69.466  1.00  0.00    -0.279 C  
HETATM    8  C   UNL     1     -10.851  16.446  69.546  1.00  0.00    -0.338 C  
HETATM    9  C   UNL     1     -10.994  16.991  68.113  1.00  0.00    -0.263 C  
HETATM   10  C   UNL     1      -9.924  18.093  67.782  1.00  0.00    -0.334 C  
HETATM   11  C   UNL     1     -10.494  15.786  67.308  1.00  0.00    -0.308 C  
HETATM   12  C   UNL     1     -10.310  18.764  66.438  1.00  0.00    -0.489 C  
HETATM   13  C   UNL     1      -9.949  19.231  68.823  1.00  0.00    -0.511 C  
ENDBRANCH   2   4
TORSDOF 1
ENDMDL
MODEL       51
REMARK 921   NORMALIZED FREE ENERGY PREDICTED BY IDOCK:   -3.46 KCAL/MOL
REMARK 922        TOTAL FREE ENERGY PREDICTED BY IDOCK:   -3.71 KCAL/MOL
REMARK 923 INTER-LIGAND FREE ENERGY PREDICTED BY IDOCK:   -3.65 KCAL/MOL
REMARK 924 INTRA-LIGAND FREE ENERGY PREDICTED BY IDOCK:   -0.06 KCAL/MOL
REMARK 927      BINDING AFFINITY PREDICTED BY RF-SCORE:    0.00 PKD
ROOT
HETATM    1  C   UNL     1      -7.455  13.551  68.720  1.00  0.00    -0.071 C  
HETATM    2  N   UNL     1      -8.866  13.233  68.550  1.00  0.00    -0.341 NA 
HETATM    3  H   UNL     1      -9.209  12.277  68.651  1.00  0.00     0.000 HD 
ENDROOT
BRANCH   2   4
HETATM    4  C   UNL     1      -9.781  14.344  68.225  1.00  0.00    -0.222 C  
HETATM    5  C   UNL     1      -9.171  15.668  68.753  1.00  0.00    -0.211 C  
HETATM    6  C   UNL     1      -9.848  14.456  66.646  1.00  0.00    -0.287 C  
HETATM    7  C   UNL     1     -10.189  13.115  65.960  1.00  0.00    -0.287 C  
HETATM    8  C   UNL     1     -11.659  12.904  66.331  1.00  0.00    -0.425 C  
HETATM    9  C   UNL     1     -11.995  14.163  67.150  1.00  0.00    -0.460 C  
HETATM   10  C   UNL     1     -11.330  14.146  68.574  1.00  0.00    -0.312 C  
HETATM   11  C   UNL     1     -11.160  15.209  66.403  1.00  0.00    -0.312 C  
HETATM   12  C   UNL     1     -11.935  15.303  69.411  1.00  0.00    -0.342 C  
HETATM   13  C   UNL     1     -11.689  12.860  69.345  1.00  0.00    -0.382 C  
ENDBRANCH   2   4
TORSDOF 1
ENDMDL
MODEL       52
REMARK 921   NORMALIZED FREE ENERGY PREDICTED BY IDOCK:   -3.46 KCAL/MOL
REMARK 922        TOTAL FREE ENERGY PREDICTED BY IDOCK:   -3.70 KCAL/MOL
REMARK 923 INTER-LIGAND FREE ENERGY PREDICTED BY IDOCK:   -3.64 KCAL/MOL
REMARK 924 INTRA-LIGAND FREE ENERGY PREDICTED BY IDOCK:   -0.06 KCAL/MOL
REMARK 927      BINDING AFFINITY PREDICTED BY RF-SCORE:    0.00 PKD
ROOT
HETATM    1  C   UNL     1     -11.879  10.657  70.670  1.00  0.00    -0.363 C  
HETATM    2  N   UNL     1     -11.353   9.632  71.560  1.00  0.00    -0.380 NA 
HETATM    3  H   UNL     1     -11.453   9.708  72.573  1.00  0.00     0.000 HD 
ENDROOT
BRANCH   2   4
HETATM    4  C   UNL     1     -10.670   8.479  70.943  1.00  0.00    -0.224 C  
HETATM    5  C   UNL     1     -10.104   8.909  69.564  1.00  0.00    -0.198 C  
HETATM    6  C   UNL     1      -9.433   8.114  71.863  1.00  0.00    -0.260 C  
HETATM    7  C   UNL     1      -9.821   7.918  73.345  1.00  0.00    -0.298 C  
HETATM    8  C   UNL     1     -10.607   6.605  73.324  1.00  0.00    -0.316 C  
HETATM    9  C   UNL     1     -10.543   6.186  71.845  1.00  0.00    -0.263 C  
HETATM   10  C   UNL     1     -11.451   7.083  70.928  1.00  0.00    -0.349 C  
HETATM   11  C   UNL     1      -9.131   6.660  71.483  1.00  0.00    -0.142 C  
HETATM   12  C   UNL     1     -11.532   6.426  69.526  1.00  0.00    -0.412 C  
HETATM   13  C   UNL     1     -12.905   7.118  71.442  1.00  0.00    -0.431 C  
ENDBRANCH   2   4
TORSDOF 1
ENDMDL
MODEL       53
REMARK 921   NORMALIZED FREE ENERGY PREDICTED BY IDOCK:   -3.41 KCAL/MOL
REMARK 922        TOTAL FREE ENERGY PREDICTED BY IDOCK:   -3.65 KCAL/MOL
REMARK 923 INTER-LIGAND FREE ENERGY PREDICTED BY IDOCK:   -3.65 KCAL/MOL
REMARK 924 INTRA-LIGAND FREE ENERGY PREDICTED BY IDOCK:    0.00 KCAL/MOL
REMARK 927      BINDING AFFINITY PREDICTED BY RF-SCORE:    0.00 PKD
ROOT
HETATM    1  C   UNL     1     -10.408  17.689  66.220  1.00  0.00    -0.342 C  
HETATM    2  N   UNL     1      -9.236  18.512  65.957  1.00  0.00    -0.493 NA 
HETATM    3  H   UNL     1      -9.304  19.368  65.406  1.00  0.00     0.000 HD 
ENDROOT
BRANCH   2   4
HETATM    4  C   UNL     1      -7.947  18.061  66.515  1.00  0.00    -0.263 C  
HETATM    5  C   UNL     1      -7.845  16.521  66.365  1.00  0.00    -0.324 C  
HETATM    6  C   UNL     1      -6.798  18.695  65.628  1.00  0.00    -0.284 C  
HETATM    7  C   UNL     1      -6.934  20.226  65.469  1.00  0.00    -0.299 C  
HETATM    8  C   UNL     1      -6.589  20.748  66.866  1.00  0.00    -0.353 C  
HETATM    9  C   UNL     1      -6.260  19.463  67.646  1.00  0.00    -0.219 C  
HETATM   10  C   UNL     1      -7.541  18.609  67.963  1.00  0.00    -0.279 C  
HETATM   11  C   UNL     1      -5.574  18.641  66.548  1.00  0.00    -0.170 C  
HETATM   12  C   UNL     1      -7.151  17.494  68.968  1.00  0.00    -0.234 C  
HETATM   13  C   UNL     1      -8.610  19.452  68.689  1.00  0.00    -0.394 C  
ENDBRANCH   2   4
TORSDOF 1
ENDMDL
MODEL       54
REMARK 921   NORMALIZED FREE ENERGY PREDICTED BY IDOCK:   -3.41 KCAL/MOL
REMARK 922        TOTAL FREE ENERGY PREDICTED BY IDOCK:   -3.65 KCAL/MOL
REMARK 923 INTER-LIGAND FREE ENERGY PREDICTED BY IDOCK:   -3.59 KCAL/MOL
REMARK 924 INTRA-LIGAND FREE ENERGY PREDICTED BY IDOCK:   -0.06 KCAL/MOL
REMARK 927      BINDING AFFINITY PREDICTED BY RF-SCORE:    0.00 PKD
ROOT
HETATM    1  C   UNL     1     -10.281   8.389  68.269  1.00  0.00    -0.205 C  
HETATM    2  N   UNL     1      -9.944   8.267  69.680  1.00  0.00    -0.189 NA 
HETATM    3  H   UNL     1      -9.213   8.842  70.101  1.00  0.00     0.000 HD 
ENDROOT
BRANCH   2   4
HETATM    4  C   UNL     1     -10.697   7.282  70.478  1.00  0.00    -0.232 C  
HETATM    5  C   UNL     1     -11.374   6.269  69.518  1.00  0.00    -0.475 C  
HETATM    6  C   UNL     1      -9.647   6.474  71.348  1.00  0.00    -0.174 C  
HETATM    7  C   UNL     1      -8.711   7.390  72.166  1.00  0.00    -0.134 C  
HETATM    8  C   UNL     1      -9.642   7.965  73.237  1.00  0.00    -0.351 C  
HETATM    9  C   UNL     1     -10.987   7.283  72.929  1.00  0.00    -0.381 C  
HETATM   10  C   UNL     1     -11.660   7.847  71.625  1.00  0.00    -0.311 C  
HETATM   11  C   UNL     1     -10.501   5.900  72.483  1.00  0.00    -0.238 C  
HETATM   12  C   UNL     1     -13.110   7.303  71.548  1.00  0.00    -0.434 C  
HETATM   13  C   UNL     1     -11.807   9.381  71.688  1.00  0.00    -0.464 C  
ENDBRANCH   2   4
TORSDOF 1
ENDMDL
MODEL       55
REMARK 921   NORMALIZED FREE ENERGY PREDICTED BY IDOCK:   -3.40 KCAL/MOL
REMARK 922        TOTAL FREE ENERGY PREDICTED BY IDOCK:   -3.64 KCAL/MOL
REMARK 923 INTER-LIGAND FREE ENERGY PREDICTED BY IDOCK:   -3.62 KCAL/MOL
REMARK 924 INTRA-LIGAND FREE ENERGY PREDICTED BY IDOCK:   -0.03 KCAL/MOL
REMARK 927      BINDING AFFINITY PREDICTED BY RF-SCORE:    0.00 PKD
ROOT
HETATM    1  C   UNL     1     -12.340  13.254  65.669  1.00  0.00    -0.465 C  
HETATM    2  N   UNL     1     -12.024  14.255  66.678  1.00  0.00    -0.427 NA 
HETATM    3  H   UNL     1     -12.760  14.740  67.192  1.00  0.00     0.000 HD 
ENDROOT
BRANCH   2   4
HETATM    4  C   UNL     1     -10.599  14.543  66.929  1.00  0.00    -0.279 C  
HETATM    5  C   UNL     1      -9.825  13.203  67.027  1.00  0.00    -0.244 C  
HETATM    6  C   UNL     1     -10.041  15.315  65.662  1.00  0.00    -0.401 C  
HETATM    7  C   UNL     1     -10.893  16.546  65.283  1.00  0.00    -0.233 C  
HETATM    8  C   UNL     1     -10.597  17.531  66.417  1.00  0.00    -0.195 C  
HETATM    9  C   UNL     1      -9.585  16.765  67.287  1.00  0.00    -0.234 C  
HETATM   10  C   UNL     1     -10.253  15.590  68.090  1.00  0.00    -0.227 C  
HETATM   11  C   UNL     1      -8.795  16.023  66.204  1.00  0.00    -0.366 C  
HETATM   12  C   UNL     1      -9.229  15.059  69.126  1.00  0.00    -0.183 C  
HETATM   13  C   UNL     1     -11.450  16.090  68.924  1.00  0.00    -0.362 C  
ENDBRANCH   2   4
TORSDOF 1
ENDMDL
MODEL       56
REMARK 921   NORMALIZED FREE ENERGY PREDICTED BY IDOCK:   -3.40 KCAL/MOL
REMARK 922        TOTAL FREE ENERGY PREDICTED BY IDOCK:   -3.64 KCAL/MOL
REMARK 923 INTER-LIGAND FREE ENERGY PREDICTED BY IDOCK:   -3.58 KCAL/MOL
REMARK 924 INTRA-LIGAND FREE ENERGY PREDICTED BY IDOCK:   -0.06 KCAL/MOL
REMARK 927      BINDING AFFINITY PREDICTED BY RF-SCORE:    0.00 PKD
ROOT
HETATM    1  C   UNL     1      -8.024   8.048  74.013  1.00  0.00    -0.232 C  
HETATM    2  N   UNL     1      -9.018   8.399  73.009  1.00  0.00    -0.292 NA 
HETATM    3  H   UNL     1      -8.958   9.275  72.488  1.00  0.00     0.000 HD 
ENDROOT
BRANCH   2   4
HETATM    4  C   UNL     1     -10.116   7.442  72.773  1.00  0.00    -0.224 C  
HETATM    5  C   UNL     1     -10.352   6.619  74.066  1.00  0.00    -0.377 C  
HETATM    6  C   UNL     1     -11.431   8.285  72.508  1.00  0.00    -0.454 C  
HETATM    7  C   UNL     1     -11.252   9.350  71.403  1.00  0.00    -0.452 C  
HETATM    8  C   UNL     1     -11.146   8.508  70.129  1.00  0.00    -0.192 C  
HETATM    9  C   UNL     1     -11.315   7.069  70.648  1.00  0.00    -0.349 C  
HETATM   10  C   UNL     1     -10.051   6.564  71.436  1.00  0.00    -0.213 C  
HETATM   11  C   UNL     1     -12.337   7.297  71.767  1.00  0.00    -0.375 C  
HETATM   12  C   UNL     1     -10.203   5.041  71.680  1.00  0.00    -0.275 C  
HETATM   13  C   UNL     1      -8.768   6.713  70.593  1.00  0.00    -0.143 C  
ENDBRANCH   2   4
TORSDOF 1
ENDMDL
MODEL       57
REMARK 921   NORMALIZED FREE ENERGY PREDICTED BY IDOCK:   -3.38 KCAL/MOL
REMARK 922        TOTAL FREE ENERGY PREDICTED BY IDOCK:   -3.62 KCAL/MOL
REMARK 923 INTER-LIGAND FREE ENERGY PREDICTED BY IDOCK:   -3.59 KCAL/MOL
REMARK 924 INTRA-LIGAND FREE ENERGY PREDICTED BY IDOCK:   -0.04 KCAL/MOL
REMARK 927      BINDING AFFINITY PREDICTED BY RF-SCORE:    0.00 PKD
ROOT
HETATM    1  C   UNL     1     -10.974  16.188  64.845  1.00  0.00    -0.349 C  
HETATM    2  N   UNL     1     -10.187  15.360  65.747  1.00  0.00    -0.325 NA 
HETATM    3  H   UNL     1      -9.380  14.833  65.414  1.00  0.00     0.000 HD 
ENDROOT
BRANCH   2   4
HETATM    4  C   UNL     1     -10.600  15.313  67.163  1.00  0.00    -0.302 C  
HETATM    5  C   UNL     1     -10.947  16.749  67.634  1.00  0.00    -0.178 C  
HETATM    6  C   UNL     1     -11.933  14.460  67.239  1.00  0.00    -0.409 C  
HETATM    7  C   UNL     1     -11.807  13.081  66.556  1.00  0.00    -0.464 C  
HETATM    8  C   UNL     1     -10.879  12.313  67.500  1.00  0.00    -0.271 C  
HETATM    9  C   UNL     1     -10.615  13.327  68.628  1.00  0.00    -0.264 C  
HETATM   10  C   UNL     1      -9.667  14.495  68.174  1.00  0.00    -0.219 C  
HETATM   11  C   UNL     1     -11.982  14.016  68.705  1.00  0.00    -0.389 C  
HETATM   12  C   UNL     1      -9.248  15.303  69.430  1.00  0.00    -0.233 C  
HETATM   13  C   UNL     1      -8.349  13.952  67.585  1.00  0.00    -0.183 C  
ENDBRANCH   2   4
TORSDOF 1
ENDMDL
MODEL       58
REMARK 921   NORMALIZED FREE ENERGY PREDICTED BY IDOCK:   -3.38 KCAL/MOL
REMARK 922        TOTAL FREE ENERGY PREDICTED BY IDOCK:   -3.62 KCAL/MOL
REMARK 923 INTER-LIGAND FREE ENERGY PREDICTED BY IDOCK:   -3.58 KCAL/MOL
REMARK 924 INTRA-LIGAND FREE ENERGY PREDICTED BY IDOCK:   -0.04 KCAL/MOL
REMARK 927      BINDING AFFINITY PREDICTED BY RF-SCORE:    0.00 PKD
ROOT
HETATM    1  C   UNL     1     -10.925   6.416  67.372  1.00  0.00    -0.376 C  
HETATM    2  N   UNL     1     -11.447   6.606  68.718  1.00  0.00    -0.591 NA 
HETATM    3  H   UNL     1     -12.383   6.289  68.972  1.00  0.00     0.000 HD 
ENDROOT
BRANCH   2   4
HETATM    4  C   UNL     1     -10.573   7.276  69.699  1.00  0.00    -0.235 C  
HETATM    5  C   UNL     1      -9.705   8.330  68.963  1.00  0.00    -0.167 C  
HETATM    6  C   UNL     1     -11.507   8.061  70.709  1.00  0.00    -0.273 C  
HETATM    7  C   UNL     1     -12.610   7.172  71.325  1.00  0.00    -0.421 C  
HETATM    8  C   UNL     1     -11.825   6.251  72.262  1.00  0.00    -0.326 C  
HETATM    9  C   UNL     1     -10.376   6.745  72.101  1.00  0.00    -0.221 C  
HETATM   10  C   UNL     1      -9.757   6.344  70.713  1.00  0.00    -0.197 C  
HETATM   11  C   UNL     1     -10.614   8.250  71.939  1.00  0.00    -0.350 C  
HETATM   12  C   UNL     1      -8.236   6.642  70.751  1.00  0.00    -0.121 C  
HETATM   13  C   UNL     1      -9.866   4.825  70.469  1.00  0.00    -0.301 C  
ENDBRANCH   2   4
TORSDOF 1
ENDMDL
MODEL       59
REMARK 921   NORMALIZED FREE ENERGY PREDICTED BY IDOCK:   -3.33 KCAL/MOL
REMARK 922        TOTAL FREE ENERGY PREDICTED BY IDOCK:   -3.57 KCAL/MOL
REMARK 923 INTER-LIGAND FREE ENERGY PREDICTED BY IDOCK:   -3.51 KCAL/MOL
REMARK 924 INTRA-LIGAND FREE ENERGY PREDICTED BY IDOCK:   -0.06 KCAL/MOL
REMARK 927      BINDING AFFINITY PREDICTED BY RF-SCORE:    0.00 PKD
ROOT
HETATM    1  C   UNL     1      -8.548  10.940  68.538  1.00  0.00    -0.152 C  
HETATM    2  N   UNL     1      -9.128  12.274  68.609  1.00  0.00    -0.383 NA 
HETATM    3  H   UNL     1      -8.981  12.872  69.422  1.00  0.00     0.000 HD 
ENDROOT
BRANCH   2   4
HETATM    4  C   UNL     1      -9.938  12.726  67.461  1.00  0.00    -0.210 C  
HETATM    5  C   UNL     1      -9.500  11.942  66.197  1.00  0.00    -0.243 C  
HETATM    6  C   UNL     1     -11.443  12.334  67.759  1.00  0.00    -0.392 C  
HETATM    7  C   UNL     1     -11.936  12.833  69.135  1.00  0.00    -0.296 C  
HETATM    8  C   UNL     1     -12.031  14.348  68.937  1.00  0.00    -0.337 C  
HETATM    9  C   UNL     1     -11.620  14.532  67.465  1.00  0.00    -0.403 C  
HETATM   10  C   UNL     1     -10.081  14.305  67.240  1.00  0.00    -0.252 C  
HETATM   11  C   UNL     1     -12.238  13.274  66.846  1.00  0.00    -0.315 C  
HETATM   12  C   UNL     1      -9.721  14.771  65.805  1.00  0.00    -0.347 C  
HETATM   13  C   UNL     1      -9.239  15.196  68.177  1.00  0.00    -0.184 C  
ENDBRANCH   2   4
TORSDOF 1
ENDMDL
MODEL       60
REMARK 921   NORMALIZED FREE ENERGY PREDICTED BY IDOCK:   -3.32 KCAL/MOL
REMARK 922        TOTAL FREE ENERGY PREDICTED BY IDOCK:   -3.55 KCAL/MOL
REMARK 923 INTER-LIGAND FREE ENERGY PREDICTED BY IDOCK:   -3.51 KCAL/MOL
REMARK 924 INTRA-LIGAND FREE ENERGY PREDICTED BY IDOCK:   -0.04 KCAL/MOL
REMARK 927      BINDING AFFINITY PREDICTED BY RF-SCORE:    0.00 PKD
ROOT
HETATM    1  C   UNL     1     -10.385  19.272  68.226  1.00  0.00    -0.380 C  
HETATM    2  N   UNL     1      -9.036  19.424  68.753  1.00  0.00    -0.377 NA 
HETATM    3  H   UNL     1      -8.874  19.663  69.732  1.00  0.00     0.000 HD 
ENDROOT
BRANCH   2   4
HETATM    4  C   UNL     1      -7.913  19.221  67.818  1.00  0.00    -0.277 C  
HETATM    5  C   UNL     1      -8.339  19.705  66.408  1.00  0.00    -0.376 C  
HETATM    6  C   UNL     1      -6.725  20.153  68.295  1.00  0.00    -0.336 C  
HETATM    7  C   UNL     1      -6.369  19.961  69.786  1.00  0.00    -0.402 C  
HETATM    8  C   UNL     1      -5.720  18.574  69.808  1.00  0.00    -0.250 C  
HETATM    9  C   UNL     1      -5.747  18.155  68.328  1.00  0.00    -0.166 C  
HETATM   10  C   UNL     1      -7.194  17.791  67.834  1.00  0.00    -0.210 C  
HETATM   11  C   UNL     1      -5.493  19.507  67.653  1.00  0.00    -0.185 C  
HETATM   12  C   UNL     1      -7.083  17.131  66.435  1.00  0.00    -0.310 C  
HETATM   13  C   UNL     1      -7.841  16.720  68.736  1.00  0.00    -0.243 C  
ENDBRANCH   2   4
TORSDOF 1
ENDMDL
MODEL       61
REMARK 921   NORMALIZED FREE ENERGY PREDICTED BY IDOCK:   -3.31 KCAL/MOL
REMARK 922        TOTAL FREE ENERGY PREDICTED BY IDOCK:   -3.54 KCAL/MOL
REMARK 923 INTER-LIGAND FREE ENERGY PREDICTED BY IDOCK:   -3.50 KCAL/MOL
REMARK 924 INTRA-LIGAND FREE ENERGY PREDICTED BY IDOCK:   -0.04 KCAL/MOL
REMARK 927      BINDING AFFINITY PREDICTED BY RF-SCORE:    0.00 PKD
ROOT
HETATM    1  C   UNL     1      -6.213  19.346  64.810  1.00  0.00    -0.254 C  
HETATM    2  N   UNL     1      -6.954  18.222  65.365  1.00  0.00    -0.518 NA 
HETATM    3  H   UNL     1      -6.901  17.294  64.945  1.00  0.00     0.000 HD 
ENDROOT
BRANCH   2   4
HETATM    4  C   UNL     1      -7.785  18.477  66.557  1.00  0.00    -0.255 C  
HETATM    5  C   UNL     1      -8.365  19.912  66.469  1.00  0.00    -0.372 C  
HETATM    6  C   UNL     1      -9.010  17.473  66.504  1.00  0.00    -0.284 C  
HETATM    7  C   UNL     1      -8.576  16.002  66.319  1.00  0.00    -0.363 C  
HETATM    8  C   UNL     1      -7.938  15.660  67.668  1.00  0.00    -0.170 C  
HETATM    9  C   UNL     1      -8.115  16.958  68.475  1.00  0.00    -0.244 C  
HETATM   10  C   UNL     1      -7.159  18.105  67.983  1.00  0.00    -0.222 C  
HETATM   11  C   UNL     1      -9.483  17.420  67.961  1.00  0.00    -0.281 C  
HETATM   12  C   UNL     1      -7.214  19.265  69.011  1.00  0.00    -0.388 C  
HETATM   13  C   UNL     1      -5.687  17.643  67.973  1.00  0.00    -0.150 C  
ENDBRANCH   2   4
TORSDOF 1
ENDMDL
MODEL       62
REMARK 921   NORMALIZED FREE ENERGY PREDICTED BY IDOCK:   -3.29 KCAL/MOL
REMARK 922        TOTAL FREE ENERGY PREDICTED BY IDOCK:   -3.53 KCAL/MOL
REMARK 923 INTER-LIGAND FREE ENERGY PREDICTED BY IDOCK:   -3.47 KCAL/MOL
REMARK 924 INTRA-LIGAND FREE ENERGY PREDICTED BY IDOCK:   -0.05 KCAL/MOL
REMARK 927      BINDING AFFINITY PREDICTED BY RF-SCORE:    0.00 PKD
ROOT
HETATM    1  C   UNL     1      -8.454   5.792  72.887  1.00  0.00    -0.122 C  
HETATM    2  N   UNL     1      -9.037   6.442  71.722  1.00  0.00    -0.143 NA 
HETATM    3  H   UNL     1      -8.641   6.313  70.790  1.00  0.00     0.000 HD 
ENDROOT
BRANCH   2   4
HETATM    4  C   UNL     1     -10.221   7.295  71.939  1.00  0.00    -0.187 C  
HETATM    5  C   UNL     1     -10.677   7.156  73.414  1.00  0.00    -0.410 C  
HETATM    6  C   UNL     1      -9.768   8.798  71.727  1.00  0.00    -0.380 C  
HETATM    7  C   UNL     1      -9.044   9.027  70.382  1.00  0.00    -0.242 C  
HETATM    8  C   UNL     1     -10.171   8.883  69.357  1.00  0.00    -0.210 C  
HETATM    9  C   UNL     1     -11.409   8.628  70.235  1.00  0.00    -0.146 C  
HETATM   10  C   UNL     1     -11.408   7.190  70.870  1.00  0.00    -0.319 C  
HETATM   11  C   UNL     1     -11.085   9.524  71.436  1.00  0.00    -0.438 C  
HETATM   12  C   UNL     1     -12.800   6.933  71.504  1.00  0.00    -0.384 C  
HETATM   13  C   UNL     1     -11.249   6.100  69.790  1.00  0.00    -0.494 C  
ENDBRANCH   2   4
TORSDOF 1
ENDMDL
MODEL       63
REMARK 921   NORMALIZED FREE ENERGY PREDICTED BY IDOCK:   -3.29 KCAL/MOL
REMARK 922        TOTAL FREE ENERGY PREDICTED BY IDOCK:   -3.53 KCAL/MOL
REMARK 923 INTER-LIGAND FREE ENERGY PREDICTED BY IDOCK:   -3.47 KCAL/MOL
REMARK 924 INTRA-LIGAND FREE ENERGY PREDICTED BY IDOCK:   -0.06 KCAL/MOL
REMARK 927      BINDING AFFINITY PREDICTED BY RF-SCORE:    0.00 PKD
ROOT
HETATM    1  C   UNL     1      -6.889  18.148  65.981  1.00  0.00    -0.282 C  
HETATM    2  N   UNL     1      -8.011  17.228  65.859  1.00  0.00    -0.519 NA 
HETATM    3  H   UNL     1      -8.211  16.750  64.980  1.00  0.00     0.000 HD 
ENDROOT
BRANCH   2   4
HETATM    4  C   UNL     1      -8.847  17.011  67.056  1.00  0.00    -0.224 C  
HETATM    5  C   UNL     1      -8.774  18.273  67.954  1.00  0.00    -0.274 C  
HETATM    6  C   UNL     1     -10.347  16.871  66.566  1.00  0.00    -0.299 C  
HETATM    7  C   UNL     1     -10.522  15.813  65.454  1.00  0.00    -0.438 C  
HETATM    8  C   UNL     1     -10.300  14.493  66.198  1.00  0.00    -0.305 C  
HETATM    9  C   UNL     1     -10.064  14.948  67.649  1.00  0.00    -0.227 C  
HETATM   10  C   UNL     1      -8.661  15.630  67.843  1.00  0.00    -0.166 C  
HETATM   11  C   UNL     1     -11.028  16.138  67.726  1.00  0.00    -0.293 C  
HETATM   12  C   UNL     1      -8.407  15.805  69.362  1.00  0.00    -0.215 C  
HETATM   13  C   UNL     1      -7.521  14.718  67.344  1.00  0.00    -0.221 C  
ENDBRANCH   2   4
TORSDOF 1
ENDMDL
MODEL       64
REMARK 921   NORMALIZED FREE ENERGY PREDICTED BY IDOCK:   -3.29 KCAL/MOL
REMARK 922        TOTAL FREE ENERGY PREDICTED BY IDOCK:   -3.52 KCAL/MOL
REMARK 923 INTER-LIGAND FREE ENERGY PREDICTED BY IDOCK:   -3.47 KCAL/MOL
REMARK 924 INTRA-LIGAND FREE ENERGY PREDICTED BY IDOCK:   -0.06 KCAL/MOL
REMARK 927      BINDING AFFINITY PREDICTED BY RF-SCORE:    0.00 PKD
ROOT
HETATM    1  C   UNL     1      -8.051   9.500  70.269  1.00  0.00    -0.181 C  
HETATM    2  N   UNL     1      -8.745   8.550  71.127  1.00  0.00    -0.157 NA 
HETATM    3  H   UNL     1      -8.265   8.086  71.899  1.00  0.00     0.000 HD 
ENDROOT
BRANCH   2   4
HETATM    4  C   UNL     1     -10.167   8.282  70.837  1.00  0.00    -0.191 C  
HETATM    5  C   UNL     1     -10.801   9.555  70.219  1.00  0.00    -0.319 C  
HETATM    6  C   UNL     1     -10.220   7.148  69.733  1.00  0.00    -0.215 C  
HETATM    7  C   UNL     1      -9.391   5.900  70.109  1.00  0.00    -0.180 C  
HETATM    8  C   UNL     1     -10.203   5.280  71.249  1.00  0.00    -0.291 C  
HETATM    9  C   UNL     1     -11.415   6.220  71.364  1.00  0.00    -0.352 C  
HETATM   10  C   UNL     1     -11.039   7.608  71.998  1.00  0.00    -0.300 C  
HETATM   11  C   UNL     1     -11.632   6.574  69.889  1.00  0.00    -0.433 C  
HETATM   12  C   UNL     1     -12.350   8.372  72.319  1.00  0.00    -0.436 C  
HETATM   13  C   UNL     1     -10.331   7.431  73.357  1.00  0.00    -0.411 C  
ENDBRANCH   2   4
TORSDOF 1
ENDMDL
MODEL       65
REMARK 921   NORMALIZED FREE ENERGY PREDICTED BY IDOCK:   -3.27 KCAL/MOL
REMARK 922        TOTAL FREE ENERGY PREDICTED BY IDOCK:   -3.51 KCAL/MOL
REMARK 923 INTER-LIGAND FREE ENERGY PREDICTED BY IDOCK:   -3.45 KCAL/MOL
REMARK 924 INTRA-LIGAND FREE ENERGY PREDICTED BY IDOCK:   -0.06 KCAL/MOL
REMARK 927      BINDING AFFINITY PREDICTED BY RF-SCORE:    0.00 PKD
ROOT
HETATM    1  C   UNL     1      -9.218  10.223  65.052  1.00  0.00    -0.213 C  
HETATM    2  N   UNL     1     -10.326  11.008  65.577  1.00  0.00    -0.263 NA 
HETATM    3  H   UNL     1     -11.266  10.617  65.644  1.00  0.00     0.000 HD 
ENDROOT
BRANCH   2   4
HETATM    4  C   UNL     1     -10.039  12.389  66.009  1.00  0.00    -0.251 C  
HETATM    5  C   UNL     1      -8.510  12.543  66.215  1.00  0.00     0.307 C  
HETATM    6  C   UNL     1     -10.451  13.353  64.821  1.00  0.00    -0.419 C  
HETATM    7  C   UNL     1     -11.895  13.116  64.327  1.00  0.00    -0.462 C  
HETATM    8  C   UNL     1     -12.745  13.648  65.483  1.00  0.00    -0.514 C  
HETATM    9  C   UNL     1     -11.692  14.159  66.482  1.00  0.00    -0.414 C  
HETATM   10  C   UNL     1     -10.928  12.987  67.199  1.00  0.00    -0.293 C  
HETATM   11  C   UNL     1     -10.636  14.706  65.515  1.00  0.00    -0.369 C  
HETATM   12  C   UNL     1     -10.095  13.584  68.362  1.00  0.00    -0.240 C  
HETATM   13  C   UNL     1     -11.909  12.003  67.867  1.00  0.00    -0.320 C  
ENDBRANCH   2   4
TORSDOF 1
ENDMDL
MODEL       66
REMARK 921   NORMALIZED FREE ENERGY PREDICTED BY IDOCK:   -3.25 KCAL/MOL
REMARK 922        TOTAL FREE ENERGY PREDICTED BY IDOCK:   -3.49 KCAL/MOL
REMARK 923 INTER-LIGAND FREE ENERGY PREDICTED BY IDOCK:   -3.42 KCAL/MOL
REMARK 924 INTRA-LIGAND FREE ENERGY PREDICTED BY IDOCK:   -0.06 KCAL/MOL
REMARK 927      BINDING AFFINITY PREDICTED BY RF-SCORE:    0.00 PKD
ROOT
HETATM    1  C   UNL     1      -8.401   5.595  69.348  1.00  0.00    -0.107 C  
HETATM    2  N   UNL     1      -8.985   5.926  70.640  1.00  0.00    -0.144 NA 
HETATM    3  H   UNL     1      -8.518   5.675  71.512  1.00  0.00     0.000 HD 
ENDROOT
BRANCH   2   4
HETATM    4  C   UNL     1     -10.278   6.637  70.641  1.00  0.00    -0.189 C  
HETATM    5  C   UNL     1     -10.948   6.462  69.254  1.00  0.00    -0.418 C  
HETATM    6  C   UNL     1     -11.210   5.925  71.705  1.00  0.00    -0.311 C  
HETATM    7  C   UNL     1     -10.546   5.789  73.093  1.00  0.00    -0.272 C  
HETATM    8  C   UNL     1     -10.517   7.232  73.603  1.00  0.00    -0.391 C  
HETATM    9  C   UNL     1     -11.200   8.015  72.469  1.00  0.00    -0.452 C  
HETATM   10  C   UNL     1     -10.289   8.140  71.193  1.00  0.00    -0.237 C  
HETATM   11  C   UNL     1     -12.257   6.997  72.027  1.00  0.00    -0.317 C  
HETATM   12  C   UNL     1     -10.941   9.158  70.223  1.00  0.00    -0.279 C  
HETATM   13  C   UNL     1      -8.912   8.740  71.544  1.00  0.00    -0.306 C  
ENDBRANCH   2   4
TORSDOF 1
ENDMDL
MODEL       67
REMARK 921   NORMALIZED FREE ENERGY PREDICTED BY IDOCK:   -3.25 KCAL/MOL
REMARK 922        TOTAL FREE ENERGY PREDICTED BY IDOCK:   -3.48 KCAL/MOL
REMARK 923 INTER-LIGAND FREE ENERGY PREDICTED BY IDOCK:   -3.66 KCAL/MOL
REMARK 924 INTRA-LIGAND FREE ENERGY PREDICTED BY IDOCK:    0.17 KCAL/MOL
REMARK 927      BINDING AFFINITY PREDICTED BY RF-SCORE:    0.00 PKD
ROOT
HETATM    1  C   UNL     1      -5.879  18.859  64.694  1.00  0.00    -0.264 C  
HETATM    2  N   UNL     1      -7.055  19.242  65.463  1.00  0.00    -0.433 NA 
HETATM    3  H   UNL     1      -7.630  20.039  65.190  1.00  0.00     0.000 HD 
ENDROOT
BRANCH   2   4
HETATM    4  C   UNL     1      -7.383  18.434  66.653  1.00  0.00    -0.225 C  
HETATM    5  C   UNL     1      -7.749  16.997  66.200  1.00  0.00    -0.292 C  
HETATM    6  C   UNL     1      -6.068  18.328  67.531  1.00  0.00    -0.174 C  
HETATM    7  C   UNL     1      -5.435  19.703  67.837  1.00  0.00    -0.198 C  
HETATM    8  C   UNL     1      -6.429  20.328  68.819  1.00  0.00    -0.334 C  
HETATM    9  C   UNL     1      -7.490  19.226  68.988  1.00  0.00    -0.372 C  
HETATM   10  C   UNL     1      -8.399  19.068  67.715  1.00  0.00    -0.318 C  
HETATM   11  C   UNL     1      -6.604  17.977  68.923  1.00  0.00    -0.241 C  
HETATM   12  C   UNL     1      -9.588  18.141  68.074  1.00  0.00    -0.304 C  
HETATM   13  C   UNL     1      -9.040  20.413  67.315  1.00  0.00    -0.500 C  
ENDBRANCH   2   4
TORSDOF 1
ENDMDL
MODEL       68
REMARK 921   NORMALIZED FREE ENERGY PREDICTED BY IDOCK:   -3.25 KCAL/MOL
REMARK 922        TOTAL FREE ENERGY PREDICTED BY IDOCK:   -3.48 KCAL/MOL
REMARK 923 INTER-LIGAND FREE ENERGY PREDICTED BY IDOCK:   -3.42 KCAL/MOL
REMARK 924 INTRA-LIGAND FREE ENERGY PREDICTED BY IDOCK:   -0.06 KCAL/MOL
REMARK 927      BINDING AFFINITY PREDICTED BY RF-SCORE:    0.00 PKD
ROOT
HETATM    1  C   UNL     1     -10.527   8.769  67.558  1.00  0.00    -0.271 C  
HETATM    2  N   UNL     1     -10.827   7.934  68.713  1.00  0.00    -0.418 NA 
HETATM    3  H   UNL     1     -11.234   7.005  68.603  1.00  0.00     0.000 HD 
ENDROOT
BRANCH   2   4
HETATM    4  C   UNL     1     -10.520   8.483  70.048  1.00  0.00    -0.223 C  
HETATM    5  C   UNL     1     -10.347  10.020  69.932  1.00  0.00    -0.315 C  
HETATM    6  C   UNL     1     -11.782   8.222  70.969  1.00  0.00    -0.293 C  
HETATM    7  C   UNL     1     -12.236   6.745  70.965  1.00  0.00    -0.405 C  
HETATM    8  C   UNL     1     -11.119   6.040  71.740  1.00  0.00    -0.332 C  
HETATM    9  C   UNL     1     -10.182   7.197  72.127  1.00  0.00    -0.207 C  
HETATM   10  C   UNL     1      -9.376   7.753  70.897  1.00  0.00    -0.157 C  
HETATM   11  C   UNL     1     -11.205   8.308  72.386  1.00  0.00    -0.451 C  
HETATM   12  C   UNL     1      -8.279   8.714  71.424  1.00  0.00    -0.205 C  
HETATM   13  C   UNL     1      -8.612   6.627  70.171  1.00  0.00    -0.140 C  
ENDBRANCH   2   4
TORSDOF 1
ENDMDL
MODEL       69
REMARK 921   NORMALIZED FREE ENERGY PREDICTED BY IDOCK:   -3.23 KCAL/MOL
REMARK 922        TOTAL FREE ENERGY PREDICTED BY IDOCK:   -3.46 KCAL/MOL
REMARK 923 INTER-LIGAND FREE ENERGY PREDICTED BY IDOCK:   -3.55 KCAL/MOL
REMARK 924 INTRA-LIGAND FREE ENERGY PREDICTED BY IDOCK:    0.09 KCAL/MOL
REMARK 927      BINDING AFFINITY PREDICTED BY RF-SCORE:    0.00 PKD
ROOT
HETATM    1  C   UNL     1     -11.019   6.400  67.187  1.00  0.00    -0.399 C  
HETATM    2  N   UNL     1     -11.532   6.590  68.536  1.00  0.00    -0.547 NA 
HETATM    3  H   UNL     1     -12.507   6.842  68.701  1.00  0.00     0.000 HD 
ENDROOT
BRANCH   2   4
HETATM    4  C   UNL     1     -10.588   6.407  69.656  1.00  0.00    -0.254 C  
HETATM    5  C   UNL     1     -10.009   4.970  69.595  1.00  0.00    -0.311 C  
HETATM    6  C   UNL     1      -9.382   7.409  69.429  1.00  0.00    -0.155 C  
HETATM    7  C   UNL     1      -9.843   8.866  69.203  1.00  0.00    -0.180 C  
HETATM    8  C   UNL     1     -10.353   9.283  70.585  1.00  0.00    -0.326 C  
HETATM    9  C   UNL     1     -10.089   8.033  71.444  1.00  0.00    -0.228 C  
HETATM   10  C   UNL     1     -11.079   6.858  71.112  1.00  0.00    -0.297 C  
HETATM   11  C   UNL     1      -8.773   7.547  70.828  1.00  0.00    -0.140 C  
HETATM   12  C   UNL     1     -10.917   5.760  72.194  1.00  0.00    -0.311 C  
HETATM   13  C   UNL     1     -12.548   7.315  71.217  1.00  0.00    -0.402 C  
ENDBRANCH   2   4
TORSDOF 1
ENDMDL
MODEL       70
REMARK 921   NORMALIZED FREE ENERGY PREDICTED BY IDOCK:   -3.20 KCAL/MOL
REMARK 922        TOTAL FREE ENERGY PREDICTED BY IDOCK:   -3.43 KCAL/MOL
REMARK 923 INTER-LIGAND FREE ENERGY PREDICTED BY IDOCK:   -3.38 KCAL/MOL
REMARK 924 INTRA-LIGAND FREE ENERGY PREDICTED BY IDOCK:   -0.05 KCAL/MOL
REMARK 927      BINDING AFFINITY PREDICTED BY RF-SCORE:    0.00 PKD
ROOT
HETATM    1  C   UNL     1      -8.845  12.423  67.365  1.00  0.00    -0.188 C  
HETATM    2  N   UNL     1      -9.400  12.633  66.036  1.00  0.00    -0.434 NA 
HETATM    3  H   UNL     1      -8.796  12.744  65.221  1.00  0.00     0.000 HD 
ENDROOT
BRANCH   2   4
HETATM    4  C   UNL     1     -10.869  12.679  65.911  1.00  0.00    -0.270 C  
HETATM    5  C   UNL     1     -11.487  11.610  66.849  1.00  0.00    -0.320 C  
HETATM    6  C   UNL     1     -11.346  14.095  66.437  1.00  0.00    -0.342 C  
HETATM    7  C   UNL     1     -10.602  15.270  65.763  1.00  0.00    -0.359 C  
HETATM    8  C   UNL     1     -11.155  15.253  64.336  1.00  0.00    -0.134 C  
HETATM    9  C   UNL     1     -12.173  14.100  64.371  1.00  0.00    -0.466 C  
HETATM   10  C   UNL     1     -11.481  12.690  64.431  1.00  0.00    -0.402 C  
HETATM   11  C   UNL     1     -12.726  14.263  65.792  1.00  0.00    -0.365 C  
HETATM   12  C   UNL     1     -12.561  11.603  64.193  1.00  0.00    -0.034 C  
HETATM   13  C   UNL     1     -10.468  12.513  63.282  1.00  0.00    -0.066 C  
ENDBRANCH   2   4
TORSDOF 1
ENDMDL
MODEL       71
REMARK 921   NORMALIZED FREE ENERGY PREDICTED BY IDOCK:   -3.20 KCAL/MOL
REMARK 922        TOTAL FREE ENERGY PREDICTED BY IDOCK:   -3.43 KCAL/MOL
REMARK 923 INTER-LIGAND FREE ENERGY PREDICTED BY IDOCK:   -3.37 KCAL/MOL
REMARK 924 INTRA-LIGAND FREE ENERGY PREDICTED BY IDOCK:   -0.05 KCAL/MOL
REMARK 927      BINDING AFFINITY PREDICTED BY RF-SCORE:    0.00 PKD
ROOT
HETATM    1  C   UNL     1     -10.173  18.792  66.886  1.00  0.00    -0.386 C  
HETATM    2  N   UNL     1     -10.547  17.690  67.761  1.00  0.00    -0.386 NA 
HETATM    3  H   UNL     1     -10.906  17.858  68.701  1.00  0.00     0.000 HD 
ENDROOT
BRANCH   2   4
HETATM    4  C   UNL     1     -10.388  16.320  67.237  1.00  0.00    -0.285 C  
HETATM    5  C   UNL     1     -10.763  16.310  65.732  1.00  0.00    -0.264 C  
HETATM    6  C   UNL     1      -8.850  15.950  67.338  1.00  0.00    -0.201 C  
HETATM    7  C   UNL     1      -8.268  16.174  68.751  1.00  0.00    -0.216 C  
HETATM    8  C   UNL     1      -8.923  15.061  69.573  1.00  0.00    -0.059 C  
HETATM    9  C   UNL     1      -9.769  14.311  68.530  1.00  0.00    -0.225 C  
HETATM   10  C   UNL     1     -11.037  15.128  68.085  1.00  0.00    -0.306 C  
HETATM   11  C   UNL     1      -8.855  14.418  67.304  1.00  0.00    -0.225 C  
HETATM   12  C   UNL     1     -11.954  14.195  67.253  1.00  0.00    -0.449 C  
HETATM   13  C   UNL     1     -11.886  15.551  69.302  1.00  0.00    -0.372 C  
ENDBRANCH   2   4
TORSDOF 1
ENDMDL
MODEL       72
REMARK 921   NORMALIZED FREE ENERGY PREDICTED BY IDOCK:   -3.18 KCAL/MOL
REMARK 922        TOTAL FREE ENERGY PREDICTED BY IDOCK:   -3.41 KCAL/MOL
REMARK 923 INTER-LIGAND FREE ENERGY PREDICTED BY IDOCK:   -3.35 KCAL/MOL
REMARK 924 INTRA-LIGAND FREE ENERGY PREDICTED BY IDOCK:   -0.06 KCAL/MOL
REMARK 927      BINDING AFFINITY PREDICTED BY RF-SCORE:    0.00 PKD
ROOT
HETATM    1  C   UNL     1     -11.054  12.495  63.726  1.00  0.00    -0.448 C  
HETATM    2  N   UNL     1     -11.007  12.510  65.181  1.00  0.00    -0.289 NA 
HETATM    3  H   UNL     1     -11.102  11.650  65.722  1.00  0.00     0.000 HD 
ENDROOT
BRANCH   2   4
HETATM    4  C   UNL     1     -10.817  13.814  65.844  1.00  0.00    -0.283 C  
HETATM    5  C   UNL     1     -10.834  14.931  64.768  1.00  0.00    -0.382 C  
HETATM    6  C   UNL     1     -12.068  14.053  66.787  1.00  0.00    -0.480 C  
HETATM    7  C   UNL     1     -12.333  12.872  67.747  1.00  0.00     0.209 C  
HETATM    8  C   UNL     1     -11.164  12.961  68.732  1.00  0.00    -0.323 C  
HETATM    9  C   UNL     1     -10.393  14.200  68.244  1.00  0.00    -0.245 C  
HETATM   10  C   UNL     1      -9.621  13.935  66.900  1.00  0.00    -0.271 C  
HETATM   11  C   UNL     1     -11.556  15.090  67.792  1.00  0.00    -0.336 C  
HETATM   12  C   UNL     1      -8.672  15.133  66.636  1.00  0.00    -0.308 C  
HETATM   13  C   UNL     1      -8.697  12.705  67.017  1.00  0.00    -0.198 C  
ENDBRANCH   2   4
TORSDOF 1
ENDMDL
MODEL       73
REMARK 921   NORMALIZED FREE ENERGY PREDICTED BY IDOCK:   -3.16 KCAL/MOL
REMARK 922        TOTAL FREE ENERGY PREDICTED BY IDOCK:   -3.38 KCAL/MOL
REMARK 923 INTER-LIGAND FREE ENERGY PREDICTED BY IDOCK:   -3.32 KCAL/MOL
REMARK 924 INTRA-LIGAND FREE ENERGY PREDICTED BY IDOCK:   -0.06 KCAL/MOL
REMARK 927      BINDING AFFINITY PREDICTED BY RF-SCORE:    0.00 PKD
ROOT
HETATM    1  C   UNL     1     -11.949  15.613  70.430  1.00  0.00    -0.376 C  
HETATM    2  N   UNL     1     -11.162  16.056  69.287  1.00  0.00    -0.325 NA 
HETATM    3  H   UNL     1     -10.813  17.012  69.224  1.00  0.00     0.000 HD 
ENDROOT
BRANCH   2   4
HETATM    4  C   UNL     1     -10.891  15.070  68.224  1.00  0.00    -0.259 C  
HETATM    5  C   UNL     1     -11.952  13.941  68.302  1.00  0.00    -0.392 C  
HETATM    6  C   UNL     1     -11.090  15.805  66.834  1.00  0.00    -0.133 C  
HETATM    7  C   UNL     1     -10.280  17.115  66.724  1.00  0.00    -0.311 C  
HETATM    8  C   UNL     1      -8.835  16.619  66.622  1.00  0.00    -0.280 C  
HETATM    9  C   UNL     1      -8.992  15.088  66.648  1.00  0.00    -0.313 C  
HETATM   10  C   UNL     1      -9.385  14.549  68.071  1.00  0.00    -0.201 C  
HETATM   11  C   UNL     1     -10.296  14.930  65.859  1.00  0.00    -0.330 C  
HETATM   12  C   UNL     1      -9.255  13.004  68.064  1.00  0.00    -0.212 C  
HETATM   13  C   UNL     1      -8.392  15.033  69.148  1.00  0.00    -0.187 C  
ENDBRANCH   2   4
TORSDOF 1
ENDMDL
MODEL       74
REMARK 921   NORMALIZED FREE ENERGY PREDICTED BY IDOCK:   -3.13 KCAL/MOL
REMARK 922        TOTAL FREE ENERGY PREDICTED BY IDOCK:   -3.36 KCAL/MOL
REMARK 923 INTER-LIGAND FREE ENERGY PREDICTED BY IDOCK:   -3.32 KCAL/MOL
REMARK 924 INTRA-LIGAND FREE ENERGY PREDICTED BY IDOCK:   -0.04 KCAL/MOL
REMARK 927      BINDING AFFINITY PREDICTED BY RF-SCORE:    0.00 PKD
ROOT
HETATM    1  C   UNL     1      -7.224  12.969  68.396  1.00  0.00    -0.110 C  
HETATM    2  N   UNL     1      -8.262  13.903  68.809  1.00  0.00    -0.307 NA 
HETATM    3  H   UNL     1      -8.131  14.519  69.611  1.00  0.00     0.000 HD 
ENDROOT
BRANCH   2   4
HETATM    4  C   UNL     1      -9.510  13.925  68.022  1.00  0.00    -0.208 C  
HETATM    5  C   UNL     1      -9.815  12.489  67.523  1.00  0.00    -0.198 C  
HETATM    6  C   UNL     1     -10.682  14.338  69.006  1.00  0.00    -0.259 C  
HETATM    7  C   UNL     1     -10.385  15.638  69.785  1.00  0.00    -0.309 C  
HETATM    8  C   UNL     1     -10.478  16.716  68.702  1.00  0.00    -0.323 C  
HETATM    9  C   UNL     1     -10.853  15.913  67.444  1.00  0.00    -0.291 C  
HETATM   10  C   UNL     1      -9.652  15.057  66.899  1.00  0.00    -0.251 C  
HETATM   11  C   UNL     1     -11.771  14.851  68.057  1.00  0.00    -0.344 C  
HETATM   12  C   UNL     1     -10.037  14.507  65.502  1.00  0.00    -0.394 C  
HETATM   13  C   UNL     1      -8.403  15.930  66.661  1.00  0.00    -0.328 C  
ENDBRANCH   2   4
TORSDOF 1
ENDMDL
MODEL       75
REMARK 921   NORMALIZED FREE ENERGY PREDICTED BY IDOCK:   -3.09 KCAL/MOL
REMARK 922        TOTAL FREE ENERGY PREDICTED BY IDOCK:   -3.32 KCAL/MOL
REMARK 923 INTER-LIGAND FREE ENERGY PREDICTED BY IDOCK:   -3.25 KCAL/MOL
REMARK 924 INTRA-LIGAND FREE ENERGY PREDICTED BY IDOCK:   -0.06 KCAL/MOL
REMARK 927      BINDING AFFINITY PREDICTED BY RF-SCORE:    0.00 PKD
ROOT
HETATM    1  C   UNL     1      -6.592  11.069  66.464  1.00  0.00    -0.132 C  
HETATM    2  N   UNL     1      -7.828  11.805  66.237  1.00  0.00    -0.378 NA 
HETATM    3  H   UNL     1      -7.904  12.495  65.489  1.00  0.00     0.000 HD 
ENDROOT
BRANCH   2   4
HETATM    4  C   UNL     1      -8.966  11.517  67.131  1.00  0.00    -0.166 C  
HETATM    5  C   UNL     1      -8.430  10.879  68.438  1.00  0.00    -0.141 C  
HETATM    6  C   UNL     1      -9.625  12.903  67.522  1.00  0.00    -0.200 C  
HETATM    7  C   UNL     1      -9.970  13.774  66.294  1.00  0.00    -0.312 C  
HETATM    8  C   UNL     1     -11.146  13.025  65.662  1.00  0.00    -0.301 C  
HETATM    9  C   UNL     1     -11.359  11.840  66.620  1.00  0.00    -0.381 C  
HETATM   10  C   UNL     1     -10.225  10.758  66.496  1.00  0.00    -0.287 C  
HETATM   11  C   UNL     1     -11.038  12.508  67.961  1.00  0.00    -0.285 C  
HETATM   12  C   UNL     1     -10.660   9.499  67.288  1.00  0.00    -0.317 C  
HETATM   13  C   UNL     1     -10.060  10.283  65.038  1.00  0.00    -0.353 C  
ENDBRANCH   2   4
TORSDOF 1
ENDMDL
MODEL       76
REMARK 921   NORMALIZED FREE ENERGY PREDICTED BY IDOCK:   -3.09 KCAL/MOL
REMARK 922        TOTAL FREE ENERGY PREDICTED BY IDOCK:   -3.31 KCAL/MOL
REMARK 923 INTER-LIGAND FREE ENERGY PREDICTED BY IDOCK:   -3.28 KCAL/MOL
REMARK 924 INTRA-LIGAND FREE ENERGY PREDICTED BY IDOCK:   -0.03 KCAL/MOL
REMARK 927      BINDING AFFINITY PREDICTED BY RF-SCORE:    0.00 PKD
ROOT
HETATM    1  C   UNL     1     -11.124  10.417  67.834  1.00  0.00    -0.299 C  
HETATM    2  N   UNL     1     -11.242   9.460  68.925  1.00  0.00    -0.451 NA 
HETATM    3  H   UNL     1     -11.879   9.622  69.705  1.00  0.00     0.000 HD 
ENDROOT
BRANCH   2   4
HETATM    4  C   UNL     1     -10.405   8.246  68.860  1.00  0.00    -0.215 C  
HETATM    5  C   UNL     1     -10.473   7.665  67.424  1.00  0.00    -0.367 C  
HETATM    6  C   UNL     1      -8.906   8.690  69.115  1.00  0.00    -0.137 C  
HETATM    7  C   UNL     1      -8.735   9.525  70.404  1.00  0.00    -0.265 C  
HETATM    8  C   UNL     1      -8.960   8.495  71.513  1.00  0.00    -0.276 C  
HETATM    9  C   UNL     1      -9.194   7.190  70.733  1.00  0.00    -0.157 C  
HETATM   10  C   UNL     1     -10.594   7.159  70.020  1.00  0.00    -0.248 C  
HETATM   11  C   UNL     1      -8.226   7.391  69.561  1.00  0.00    -0.131 C  
HETATM   12  C   UNL     1     -10.847   5.722  69.495  1.00  0.00    -0.410 C  
HETATM   13  C   UNL     1     -11.738   7.432  71.019  1.00  0.00    -0.326 C  
ENDBRANCH   2   4
TORSDOF 1
ENDMDL
MODEL       77
REMARK 921   NORMALIZED FREE ENERGY PREDICTED BY IDOCK:   -3.03 KCAL/MOL
REMARK 922        TOTAL FREE ENERGY PREDICTED BY IDOCK:   -3.25 KCAL/MOL
REMARK 923 INTER-LIGAND FREE ENERGY PREDICTED BY IDOCK:   -3.30 KCAL/MOL
REMARK 924 INTRA-LIGAND FREE ENERGY PREDICTED BY IDOCK:    0.04 KCAL/MOL
REMARK 927      BINDING AFFINITY PREDICTED BY RF-SCORE:    0.00 PKD
ROOT
HETATM    1  C   UNL     1     -11.206  11.257  67.500  1.00  0.00    -0.291 C  
HETATM    2  N   UNL     1     -10.409  12.426  67.158  1.00  0.00    -0.219 NA 
HETATM    3  H   UNL     1      -9.398  12.361  67.038  1.00  0.00     0.000 HD 
ENDROOT
BRANCH   2   4
HETATM    4  C   UNL     1     -11.119  13.709  66.990  1.00  0.00    -0.301 C  
HETATM    5  C   UNL     1     -12.256  13.523  65.952  1.00  0.00    -0.507 C  
HETATM    6  C   UNL     1     -11.802  14.057  68.377  1.00  0.00    -0.397 C  
HETATM    7  C   UNL     1     -10.814  14.014  69.564  1.00  0.00    -0.076 C  
HETATM    8  C   UNL     1      -9.933  15.241  69.321  1.00  0.00    -0.251 C  
HETATM    9  C   UNL     1     -10.542  15.861  68.051  1.00  0.00    -0.287 C  
HETATM   10  C   UNL     1     -10.226  15.018  66.762  1.00  0.00    -0.260 C  
HETATM   11  C   UNL     1     -12.028  15.570  68.286  1.00  0.00    -0.059 C  
HETATM   12  C   UNL     1     -10.640  15.849  65.520  1.00  0.00    -0.419 C  
HETATM   13  C   UNL     1      -8.710  14.782  66.604  1.00  0.00    -0.229 C  
ENDBRANCH   2   4
TORSDOF 1
ENDMDL
MODEL       78
REMARK 921   NORMALIZED FREE ENERGY PREDICTED BY IDOCK:   -3.03 KCAL/MOL
REMARK 922        TOTAL FREE ENERGY PREDICTED BY IDOCK:   -3.25 KCAL/MOL
REMARK 923 INTER-LIGAND FREE ENERGY PREDICTED BY IDOCK:   -3.19 KCAL/MOL
REMARK 924 INTRA-LIGAND FREE ENERGY PREDICTED BY IDOCK:   -0.06 KCAL/MOL
REMARK 927      BINDING AFFINITY PREDICTED BY RF-SCORE:    0.00 PKD
ROOT
HETATM    1  C   UNL     1      -7.439   7.949  70.070  1.00  0.00    -0.079 C  
HETATM    2  N   UNL     1      -8.461   7.123  70.698  1.00  0.00    -0.136 NA 
HETATM    3  H   UNL     1      -8.214   6.290  71.232  1.00  0.00     0.000 HD 
ENDROOT
BRANCH   2   4
HETATM    4  C   UNL     1      -9.868   7.537  70.531  1.00  0.00    -0.183 C  
HETATM    5  C   UNL     1      -9.972   8.483  69.307  1.00  0.00    -0.195 C  
HETATM    6  C   UNL     1     -10.706   6.236  70.190  1.00  0.00    -0.346 C  
HETATM    7  C   UNL     1     -10.484   5.093  71.204  1.00  0.00    -0.240 C  
HETATM    8  C   UNL     1     -11.186   5.609  72.463  1.00  0.00    -0.346 C  
HETATM    9  C   UNL     1     -11.757   6.964  72.011  1.00  0.00    -0.336 C  
HETATM   10  C   UNL     1     -10.640   8.056  71.833  1.00  0.00    -0.305 C  
HETATM   11  C   UNL     1     -12.138   6.635  70.564  1.00  0.00    -0.302 C  
HETATM   12  C   UNL     1     -11.327   9.433  71.645  1.00  0.00    -0.452 C  
HETATM   13  C   UNL     1      -9.788   8.201  73.110  1.00  0.00    -0.267 C  
ENDBRANCH   2   4
TORSDOF 1
ENDMDL
MODEL       79
REMARK 921   NORMALIZED FREE ENERGY PREDICTED BY IDOCK:   -3.01 KCAL/MOL
REMARK 922        TOTAL FREE ENERGY PREDICTED BY IDOCK:   -3.23 KCAL/MOL
REMARK 923 INTER-LIGAND FREE ENERGY PREDICTED BY IDOCK:   -3.17 KCAL/MOL
REMARK 924 INTRA-LIGAND FREE ENERGY PREDICTED BY IDOCK:   -0.06 KCAL/MOL
REMARK 927      BINDING AFFINITY PREDICTED BY RF-SCORE:    0.00 PKD
ROOT
HETATM    1  C   UNL     1     -12.639  13.516  65.679  1.00  0.00    -0.459 C  
HETATM    2  N   UNL     1     -12.007  12.281  66.121  1.00  0.00    -0.618 NA 
HETATM    3  H   UNL     1     -12.467  11.378  66.000  1.00  0.00     0.000 HD 
ENDROOT
BRANCH   2   4
HETATM    4  C   UNL     1     -10.677  12.383  66.750  1.00  0.00    -0.234 C  
HETATM    5  C   UNL     1      -9.957  13.643  66.202  1.00  0.00    -0.314 C  
HETATM    6  C   UNL     1     -10.903  12.611  68.302  1.00  0.00    -0.261 C  
HETATM    7  C   UNL     1     -11.839  11.558  68.935  1.00  0.00    -0.406 C  
HETATM    8  C   UNL     1     -10.988  10.286  68.916  1.00  0.00    -0.279 C  
HETATM    9  C   UNL     1      -9.657  10.767  68.312  1.00  0.00    -0.170 C  
HETATM   10  C   UNL     1      -9.770  11.064  66.772  1.00  0.00    -0.222 C  
HETATM   11  C   UNL     1      -9.570  12.172  68.918  1.00  0.00     0.133 C  
HETATM   12  C   UNL     1      -8.342  11.277  66.208  1.00  0.00    -0.142 C  
HETATM   13  C   UNL     1     -10.331   9.848  66.006  1.00  0.00    -0.202 C  
ENDBRANCH   2   4
TORSDOF 1
ENDMDL
MODEL       80
REMARK 921   NORMALIZED FREE ENERGY PREDICTED BY IDOCK:   -3.00 KCAL/MOL
REMARK 922        TOTAL FREE ENERGY PREDICTED BY IDOCK:   -3.22 KCAL/MOL
REMARK 923 INTER-LIGAND FREE ENERGY PREDICTED BY IDOCK:   -3.22 KCAL/MOL
REMARK 924 INTRA-LIGAND FREE ENERGY PREDICTED BY IDOCK:    0.00 KCAL/MOL
REMARK 927      BINDING AFFINITY PREDICTED BY RF-SCORE:    0.00 PKD
ROOT
HETATM    1  C   UNL     1      -5.266  18.961  65.314  1.00  0.00    -0.165 C  
HETATM    2  N   UNL     1      -6.487  18.286  65.729  1.00  0.00    -0.253 NA 
HETATM    3  H   UNL     1      -7.150  17.922  65.044  1.00  0.00     0.000 HD 
ENDROOT
BRANCH   2   4
HETATM    4  C   UNL     1      -6.731  18.148  67.177  1.00  0.00    -0.187 C  
HETATM    5  C   UNL     1      -5.458  17.572  67.849  1.00  0.00    -0.131 C  
HETATM    6  C   UNL     1      -6.951  19.604  67.762  1.00  0.00    -0.284 C  
HETATM    7  C   UNL     1      -8.029  20.404  66.997  1.00  0.00    -0.359 C  
HETATM    8  C   UNL     1      -9.328  19.697  67.395  1.00  0.00    -0.422 C  
HETATM    9  C   UNL     1      -8.845  18.605  68.366  1.00  0.00    -0.367 C  
HETATM   10  C   UNL     1      -8.093  17.438  67.629  1.00  0.00    -0.203 C  
HETATM   11  C   UNL     1      -7.704  19.346  69.071  1.00  0.00    -0.350 C  
HETATM   12  C   UNL     1      -7.888  16.276  68.635  1.00  0.00    -0.202 C  
HETATM   13  C   UNL     1      -8.953  16.845  66.495  1.00  0.00    -0.303 C  
ENDBRANCH   2   4
TORSDOF 1
ENDMDL
MODEL       81
REMARK 921   NORMALIZED FREE ENERGY PREDICTED BY IDOCK:   -3.00 KCAL/MOL
REMARK 922        TOTAL FREE ENERGY PREDICTED BY IDOCK:   -3.22 KCAL/MOL
REMARK 923 INTER-LIGAND FREE ENERGY PREDICTED BY IDOCK:   -3.17 KCAL/MOL
REMARK 924 INTRA-LIGAND FREE ENERGY PREDICTED BY IDOCK:   -0.05 KCAL/MOL
REMARK 927      BINDING AFFINITY PREDICTED BY RF-SCORE:    0.00 PKD
ROOT
HETATM    1  C   UNL     1      -8.683  15.597  66.440  1.00  0.00    -0.318 C  
HETATM    2  N   UNL     1      -8.857  14.196  66.085  1.00  0.00    -0.413 NA 
HETATM    3  H   UNL     1      -8.492  13.823  65.208  1.00  0.00     0.000 HD 
ENDROOT
BRANCH   2   4
HETATM    4  C   UNL     1      -9.580  13.335  67.040  1.00  0.00    -0.243 C  
HETATM    5  C   UNL     1      -9.770  14.109  68.370  1.00  0.00    -0.226 C  
HETATM    6  C   UNL     1     -11.023  13.071  66.442  1.00  0.00    -0.301 C  
HETATM    7  C   UNL     1     -10.986  12.539  64.992  1.00  0.00    -0.329 C  
HETATM    8  C   UNL     1     -10.441  11.119  65.160  1.00  0.00    -0.341 C  
HETATM    9  C   UNL     1     -10.268  10.992  66.684  1.00  0.00    -0.280 C  
HETATM   10  C   UNL     1      -9.054  11.834  67.221  1.00  0.00    -0.171 C  
HETATM   11  C   UNL     1     -11.476  11.800  67.169  1.00  0.00    -0.366 C  
HETATM   12  C   UNL     1      -8.796  11.436  68.697  1.00  0.00    -0.126 C  
HETATM   13  C   UNL     1      -7.752  11.481  66.474  1.00  0.00    -0.052 C  
ENDBRANCH   2   4
TORSDOF 1
ENDMDL
MODEL       82
REMARK 921   NORMALIZED FREE ENERGY PREDICTED BY IDOCK:   -2.98 KCAL/MOL
REMARK 922        TOTAL FREE ENERGY PREDICTED BY IDOCK:   -3.19 KCAL/MOL
REMARK 923 INTER-LIGAND FREE ENERGY PREDICTED BY IDOCK:   -3.14 KCAL/MOL
REMARK 924 INTRA-LIGAND FREE ENERGY PREDICTED BY IDOCK:   -0.05 KCAL/MOL
REMARK 927      BINDING AFFINITY PREDICTED BY RF-SCORE:    0.00 PKD
ROOT
HETATM    1  C   UNL     1     -11.503  10.328  70.720  1.00  0.00    -0.351 C  
HETATM    2  N   UNL     1     -11.423   9.062  70.006  1.00  0.00    -0.449 NA 
HETATM    3  H   UNL     1     -12.255   8.497  69.834  1.00  0.00     0.000 HD 
ENDROOT
BRANCH   2   4
HETATM    4  C   UNL     1     -10.092   8.625  69.541  1.00  0.00    -0.203 C  
HETATM    5  C   UNL     1      -9.019   9.138  70.536  1.00  0.00    -0.274 C  
HETATM    6  C   UNL     1     -10.066   7.042  69.598  1.00  0.00    -0.194 C  
HETATM    7  C   UNL     1     -11.256   6.393  68.857  1.00  0.00    -0.385 C  
HETATM    8  C   UNL     1     -10.936   6.668  67.386  1.00  0.00    -0.434 C  
HETATM    9  C   UNL     1      -9.587   7.406  67.456  1.00  0.00    -0.171 C  
HETATM   10  C   UNL     1      -9.734   8.873  68.001  1.00  0.00    -0.181 C  
HETATM   11  C   UNL     1      -8.933   6.676  68.634  1.00  0.00    -0.124 C  
HETATM   12  C   UNL     1      -8.390   9.614  67.782  1.00  0.00    -0.121 C  
HETATM   13  C   UNL     1     -10.773   9.672  67.187  1.00  0.00    -0.258 C  
ENDBRANCH   2   4
TORSDOF 1
ENDMDL
MODEL       83
REMARK 921   NORMALIZED FREE ENERGY PREDICTED BY IDOCK:   -2.97 KCAL/MOL
REMARK 922        TOTAL FREE ENERGY PREDICTED BY IDOCK:   -3.19 KCAL/MOL
REMARK 923 INTER-LIGAND FREE ENERGY PREDICTED BY IDOCK:   -3.14 KCAL/MOL
REMARK 924 INTRA-LIGAND FREE ENERGY PREDICTED BY IDOCK:   -0.05 KCAL/MOL
REMARK 927      BINDING AFFINITY PREDICTED BY RF-SCORE:    0.00 PKD
ROOT
HETATM    1  C   UNL     1     -11.770  15.306  71.359  1.00  0.00    -0.389 C  
HETATM    2  N   UNL     1     -10.779  14.663  70.508  1.00  0.00    -0.458 NA 
HETATM    3  H   UNL     1     -10.169  13.929  70.868  1.00  0.00     0.000 HD 
ENDROOT
BRANCH   2   4
HETATM    4  C   UNL     1     -10.690  15.114  69.106  1.00  0.00    -0.253 C  
HETATM    5  C   UNL     1     -11.869  16.078  68.812  1.00  0.00    -0.210 C  
HETATM    6  C   UNL     1      -9.353  15.950  68.960  1.00  0.00    -0.243 C  
HETATM    7  C   UNL     1      -8.109  15.193  69.477  1.00  0.00    -0.167 C  
HETATM    8  C   UNL     1      -7.917  14.093  68.430  1.00  0.00    -0.142 C  
HETATM    9  C   UNL     1      -9.045  14.373  67.422  1.00  0.00    -0.202 C  
HETATM   10  C   UNL     1     -10.462  13.992  67.987  1.00  0.00    -0.241 C  
HETATM   11  C   UNL     1      -9.073  15.905  67.454  1.00  0.00    -0.205 C  
HETATM   12  C   UNL     1     -11.486  14.051  66.824  1.00  0.00    -0.379 C  
HETATM   13  C   UNL     1     -10.495  12.531  68.480  1.00  0.00    -0.246 C  
ENDBRANCH   2   4
TORSDOF 1
ENDMDL
MODEL       84
REMARK 921   NORMALIZED FREE ENERGY PREDICTED BY IDOCK:   -2.94 KCAL/MOL
REMARK 922        TOTAL FREE ENERGY PREDICTED BY IDOCK:   -3.16 KCAL/MOL
REMARK 923 INTER-LIGAND FREE ENERGY PREDICTED BY IDOCK:   -3.33 KCAL/MOL
REMARK 924 INTRA-LIGAND FREE ENERGY PREDICTED BY IDOCK:    0.18 KCAL/MOL
REMARK 927      BINDING AFFINITY PREDICTED BY RF-SCORE:    0.00 PKD
ROOT
HETATM    1  C   UNL     1     -13.131  14.077  65.272  1.00  0.00    -0.136 C  
HETATM    2  N   UNL     1     -12.651  13.049  66.186  1.00  0.00    -0.368 NA 
HETATM    3  H   UNL     1     -13.110  12.140  66.247  1.00  0.00     0.000 HD 
ENDROOT
BRANCH   2   4
HETATM    4  C   UNL     1     -11.478  13.372  67.019  1.00  0.00    -0.337 C  
HETATM    5  C   UNL     1     -11.767  14.673  67.813  1.00  0.00    -0.386 C  
HETATM    6  C   UNL     1     -11.312  12.205  68.077  1.00  0.00    -0.353 C  
HETATM    7  C   UNL     1     -11.279  10.803  67.429  1.00  0.00    -0.315 C  
HETATM    8  C   UNL     1      -9.924  10.787  66.716  1.00  0.00    -0.249 C  
HETATM    9  C   UNL     1      -9.328  12.161  67.071  1.00  0.00    -0.201 C  
HETATM   10  C   UNL     1     -10.042  13.338  66.312  1.00  0.00    -0.294 C  
HETATM   11  C   UNL     1      -9.845  12.324  68.504  1.00  0.00    -0.157 C  
HETATM   12  C   UNL     1      -9.211  14.631  66.521  1.00  0.00    -0.294 C  
HETATM   13  C   UNL     1     -10.046  13.102  64.788  1.00  0.00    -0.244 C  
ENDBRANCH   2   4
TORSDOF 1
ENDMDL
MODEL       85
REMARK 921   NORMALIZED FREE ENERGY PREDICTED BY IDOCK:   -2.93 KCAL/MOL
REMARK 922        TOTAL FREE ENERGY PREDICTED BY IDOCK:   -3.14 KCAL/MOL
REMARK 923 INTER-LIGAND FREE ENERGY PREDICTED BY IDOCK:   -3.08 KCAL/MOL
REMARK 924 INTRA-LIGAND FREE ENERGY PREDICTED BY IDOCK:   -0.06 KCAL/MOL
REMARK 927      BINDING AFFINITY PREDICTED BY RF-SCORE:    0.00 PKD
ROOT
HETATM    1  C   UNL     1     -11.035   5.824  68.726  1.00  0.00    -0.153 C  
HETATM    2  N   UNL     1     -10.252   6.067  69.929  1.00  0.00    -0.190 NA 
HETATM    3  H   UNL     1      -9.335   5.639  70.060  1.00  0.00     0.000 HD 
ENDROOT
BRANCH   2   4
HETATM    4  C   UNL     1     -10.836   6.954  70.954  1.00  0.00    -0.244 C  
HETATM    5  C   UNL     1     -12.382   6.891  70.852  1.00  0.00    -0.365 C  
HETATM    6  C   UNL     1     -10.436   6.369  72.371  1.00  0.00    -0.222 C  
HETATM    7  C   UNL     1      -8.917   6.124  72.515  1.00  0.00    -0.134 C  
HETATM    8  C   UNL     1      -8.345   7.543  72.579  1.00  0.00    -0.138 C  
HETATM    9  C   UNL     1      -9.602   8.428  72.502  1.00  0.00    -0.358 C  
HETATM   10  C   UNL     1     -10.242   8.436  71.066  1.00  0.00    -0.245 C  
HETATM   11  C   UNL     1     -10.591   7.574  73.304  1.00  0.00    -0.438 C  
HETATM   12  C   UNL     1     -11.322   9.548  71.018  1.00  0.00    -0.423 C  
HETATM   13  C   UNL     1      -9.207   8.832  69.993  1.00  0.00    -0.173 C  
ENDBRANCH   2   4
TORSDOF 1
ENDMDL
MODEL       86
REMARK 921   NORMALIZED FREE ENERGY PREDICTED BY IDOCK:   -2.92 KCAL/MOL
REMARK 922        TOTAL FREE ENERGY PREDICTED BY IDOCK:   -3.13 KCAL/MOL
REMARK 923 INTER-LIGAND FREE ENERGY PREDICTED BY IDOCK:   -3.07 KCAL/MOL
REMARK 924 INTRA-LIGAND FREE ENERGY PREDICTED BY IDOCK:   -0.06 KCAL/MOL
REMARK 927      BINDING AFFINITY PREDICTED BY RF-SCORE:    0.00 PKD
ROOT
HETATM    1  C   UNL     1      -7.440  15.287  69.688  1.00  0.00    -0.181 C  
HETATM    2  N   UNL     1      -8.166  15.504  68.445  1.00  0.00    -0.141 NA 
HETATM    3  H   UNL     1      -8.483  14.721  67.873  1.00  0.00     0.000 HD 
ENDROOT
BRANCH   2   4
HETATM    4  C   UNL     1      -8.427  16.900  68.043  1.00  0.00    -0.213 C  
HETATM    5  C   UNL     1      -7.332  17.812  68.655  1.00  0.00    -0.269 C  
HETATM    6  C   UNL     1      -8.273  16.976  66.468  1.00  0.00    -0.314 C  
HETATM    7  C   UNL     1      -9.124  15.920  65.728  1.00  0.00    -0.188 C  
HETATM    8  C   UNL     1     -10.554  16.423  65.937  1.00  0.00    -0.294 C  
HETATM    9  C   UNL     1     -10.352  17.722  66.736  1.00  0.00    -0.343 C  
HETATM   10  C   UNL     1      -9.919  17.451  68.223  1.00  0.00    -0.320 C  
HETATM   11  C   UNL     1      -9.058  18.240  66.100  1.00  0.00    -0.122 C  
HETATM   12  C   UNL     1     -10.003  18.784  69.009  1.00  0.00    -0.348 C  
HETATM   13  C   UNL     1     -10.907  16.501  68.930  1.00  0.00    -0.336 C  
ENDBRANCH   2   4
TORSDOF 1
ENDMDL
MODEL       87
REMARK 921   NORMALIZED FREE ENERGY PREDICTED BY IDOCK:   -2.92 KCAL/MOL
REMARK 922        TOTAL FREE ENERGY PREDICTED BY IDOCK:   -3.13 KCAL/MOL
REMARK 923 INTER-LIGAND FREE ENERGY PREDICTED BY IDOCK:   -3.17 KCAL/MOL
REMARK 924 INTRA-LIGAND FREE ENERGY PREDICTED BY IDOCK:    0.04 KCAL/MOL
REMARK 927      BINDING AFFINITY PREDICTED BY RF-SCORE:    0.00 PKD
ROOT
HETATM    1  C   UNL     1      -9.929  14.390  65.860  1.00  0.00    -0.328 C  
HETATM    2  N   UNL     1      -9.655  13.057  65.341  1.00  0.00    -0.480 NA 
HETATM    3  H   UNL     1      -9.164  12.923  64.457  1.00  0.00     0.000 HD 
ENDROOT
BRANCH   2   4
HETATM    4  C   UNL     1     -10.115  11.906  66.143  1.00  0.00    -0.228 C  
HETATM    5  C   UNL     1     -11.557  12.185  66.640  1.00  0.00    -0.416 C  
HETATM    6  C   UNL     1     -10.187  10.654  65.175  1.00  0.00    -0.368 C  
HETATM    7  C   UNL     1      -8.874  10.417  64.397  1.00  0.00    -0.223 C  
HETATM    8  C   UNL     1      -7.913   9.930  65.485  1.00  0.00    -0.128 C  
HETATM    9  C   UNL     1      -8.797   9.909  66.745  1.00  0.00    -0.147 C  
HETATM   10  C   UNL     1      -9.124  11.354  67.272  1.00  0.00    -0.162 C  
HETATM   11  C   UNL     1     -10.132   9.464  66.139  1.00  0.00    -0.324 C  
HETATM   12  C   UNL     1      -9.778  11.229  68.672  1.00  0.00    -0.200 C  
HETATM   13  C   UNL     1      -7.837  12.172  67.499  1.00  0.00    -0.162 C  
ENDBRANCH   2   4
TORSDOF 1
ENDMDL
MODEL       88
REMARK 921   NORMALIZED FREE ENERGY PREDICTED BY IDOCK:   -2.90 KCAL/MOL
REMARK 922        TOTAL FREE ENERGY PREDICTED BY IDOCK:   -3.11 KCAL/MOL
REMARK 923 INTER-LIGAND FREE ENERGY PREDICTED BY IDOCK:   -3.06 KCAL/MOL
REMARK 924 INTRA-LIGAND FREE ENERGY PREDICTED BY IDOCK:   -0.06 KCAL/MOL
REMARK 927      BINDING AFFINITY PREDICTED BY RF-SCORE:    0.00 PKD
ROOT
HETATM    1  C   UNL     1      -6.878   7.467  70.697  1.00  0.00    -0.048 C  
HETATM    2  N   UNL     1      -8.198   7.739  71.247  1.00  0.00    -0.100 NA 
HETATM    3  H   UNL     1      -8.404   8.621  71.717  1.00  0.00     0.000 HD 
ENDROOT
BRANCH   2   4
HETATM    4  C   UNL     1      -9.227   6.691  71.101  1.00  0.00    -0.159 C  
HETATM    5  C   UNL     1      -8.553   5.394  70.583  1.00  0.00    -0.130 C  
HETATM    6  C   UNL     1      -9.794   6.379  72.547  1.00  0.00    -0.175 C  
HETATM    7  C   UNL     1     -10.263   7.645  73.297  1.00  0.00    -0.398 C  
HETATM    8  C   UNL     1     -11.527   8.048  72.534  1.00  0.00    -0.471 C  
HETATM    9  C   UNL     1     -11.654   6.948  71.466  1.00  0.00    -0.329 C  
HETATM   10  C   UNL     1     -10.574   7.086  70.332  1.00  0.00    -0.244 C  
HETATM   11  C   UNL     1     -11.154   5.735  72.258  1.00  0.00    -0.330 C  
HETATM   12  C   UNL     1     -10.945   6.116  69.181  1.00  0.00    -0.450 C  
HETATM   13  C   UNL     1     -10.602   8.493  69.700  1.00  0.00    -0.221 C  
ENDBRANCH   2   4
TORSDOF 1
ENDMDL
MODEL       89
REMARK 921   NORMALIZED FREE ENERGY PREDICTED BY IDOCK:   -2.90 KCAL/MOL
REMARK 922        TOTAL FREE ENERGY PREDICTED BY IDOCK:   -3.11 KCAL/MOL
REMARK 923 INTER-LIGAND FREE ENERGY PREDICTED BY IDOCK:   -3.05 KCAL/MOL
REMARK 924 INTRA-LIGAND FREE ENERGY PREDICTED BY IDOCK:   -0.06 KCAL/MOL
REMARK 927      BINDING AFFINITY PREDICTED BY RF-SCORE:    0.00 PKD
ROOT
HETATM    1  C   UNL     1     -13.246   7.783  71.667  1.00  0.00    -0.343 C  
HETATM    2  N   UNL     1     -12.332   6.654  71.568  1.00  0.00    -0.347 NA 
HETATM    3  H   UNL     1     -12.677   5.694  71.558  1.00  0.00     0.000 HD 
ENDROOT
BRANCH   2   4
HETATM    4  C   UNL     1     -10.890   6.951  71.482  1.00  0.00    -0.230 C  
HETATM    5  C   UNL     1     -10.641   8.391  72.001  1.00  0.00    -0.387 C  
HETATM    6  C   UNL     1     -10.143   5.962  72.469  1.00  0.00    -0.204 C  
HETATM    7  C   UNL     1     -10.514   4.481  72.233  1.00  0.00    -0.215 C  
HETATM    8  C   UNL     1      -9.843   4.168  70.894  1.00  0.00    -0.247 C  
HETATM    9  C   UNL     1      -9.138   5.490  70.541  1.00  0.00    -0.171 C  
HETATM   10  C   UNL     1     -10.149   6.611  70.104  1.00  0.00    -0.200 C  
HETATM   11  C   UNL     1      -8.706   5.954  71.937  1.00  0.00    -0.138 C  
HETATM   12  C   UNL     1      -9.343   7.798  69.518  1.00  0.00    -0.149 C  
HETATM   13  C   UNL     1     -11.056   6.130  68.953  1.00  0.00    -0.417 C  
ENDBRANCH   2   4
TORSDOF 1
ENDMDL
MODEL       90
REMARK 921   NORMALIZED FREE ENERGY PREDICTED BY IDOCK:   -2.89 KCAL/MOL
REMARK 922        TOTAL FREE ENERGY PREDICTED BY IDOCK:   -3.10 KCAL/MOL
REMARK 923 INTER-LIGAND FREE ENERGY PREDICTED BY IDOCK:   -3.04 KCAL/MOL
REMARK 924 INTRA-LIGAND FREE ENERGY PREDICTED BY IDOCK:   -0.06 KCAL/MOL
REMARK 927      BINDING AFFINITY PREDICTED BY RF-SCORE:    0.00 PKD
ROOT
HETATM    1  C   UNL     1      -7.443  20.405  66.574  1.00  0.00    -0.222 C  
HETATM    2  N   UNL     1      -8.377  19.289  66.612  1.00  0.00    -0.291 NA 
HETATM    3  H   UNL     1      -8.931  19.034  65.793  1.00  0.00     0.000 HD 
ENDROOT
BRANCH   2   4
HETATM    4  C   UNL     1      -8.493  18.541  67.878  1.00  0.00    -0.275 C  
HETATM    5  C   UNL     1      -7.909  19.403  69.027  1.00  0.00    -0.325 C  
HETATM    6  C   UNL     1     -10.038  18.349  68.175  1.00  0.00    -0.408 C  
HETATM    7  C   UNL     1     -10.808  17.733  66.986  1.00  0.00    -0.087 C  
HETATM    8  C   UNL     1     -10.303  16.288  66.960  1.00  0.00    -0.292 C  
HETATM    9  C   UNL     1      -9.335  16.238  68.156  1.00  0.00    -0.210 C  
HETATM   10  C   UNL     1      -7.999  17.018  67.880  1.00  0.00    -0.192 C  
HETATM   11  C   UNL     1     -10.064  17.159  69.140  1.00  0.00    -0.254 C  
HETATM   12  C   UNL     1      -6.995  16.688  69.014  1.00  0.00    -0.212 C  
HETATM   13  C   UNL     1      -7.321  16.528  66.584  1.00  0.00    -0.268 C  
ENDBRANCH   2   4
TORSDOF 1
ENDMDL
MODEL       91
REMARK 921   NORMALIZED FREE ENERGY PREDICTED BY IDOCK:   -2.87 KCAL/MOL
REMARK 922        TOTAL FREE ENERGY PREDICTED BY IDOCK:   -3.08 KCAL/MOL
REMARK 923 INTER-LIGAND FREE ENERGY PREDICTED BY IDOCK:   -3.03 KCAL/MOL
REMARK 924 INTRA-LIGAND FREE ENERGY PREDICTED BY IDOCK:   -0.06 KCAL/MOL
REMARK 927      BINDING AFFINITY PREDICTED BY RF-SCORE:    0.00 PKD
ROOT
HETATM    1  C   UNL     1      -9.097   9.247  69.911  1.00  0.00    -0.191 C  
HETATM    2  N   UNL     1      -8.915   7.960  70.567  1.00  0.00    -0.144 NA 
HETATM    3  H   UNL     1      -8.113   7.366  70.354  1.00  0.00     0.000 HD 
ENDROOT
BRANCH   2   4
HETATM    4  C   UNL     1      -9.934   7.546  71.550  1.00  0.00    -0.177 C  
HETATM    5  C   UNL     1     -10.555   8.813  72.194  1.00  0.00    -0.386 C  
HETATM    6  C   UNL     1     -11.089   6.810  70.754  1.00  0.00    -0.323 C  
HETATM    7  C   UNL     1     -10.567   5.675  69.846  1.00  0.00    -0.399 C  
HETATM    8  C   UNL     1     -10.135   4.603  70.851  1.00  0.00    -0.257 C  
HETATM    9  C   UNL     1     -10.494   5.234  72.208  1.00  0.00    -0.273 C  
HETATM   10  C   UNL     1      -9.524   6.408  72.599  1.00  0.00    -0.150 C  
HETATM   11  C   UNL     1     -11.783   5.975  71.836  1.00  0.00    -0.287 C  
HETATM   12  C   UNL     1      -9.792   6.793  74.076  1.00  0.00    -0.334 C  
HETATM   13  C   UNL     1      -8.050   5.954  72.560  1.00  0.00    -0.106 C  
ENDBRANCH   2   4
TORSDOF 1
ENDMDL
MODEL       92
REMARK 921   NORMALIZED FREE ENERGY PREDICTED BY IDOCK:   -2.85 KCAL/MOL
REMARK 922        TOTAL FREE ENERGY PREDICTED BY IDOCK:   -3.06 KCAL/MOL
REMARK 923 INTER-LIGAND FREE ENERGY PREDICTED BY IDOCK:   -3.00 KCAL/MOL
REMARK 924 INTRA-LIGAND FREE ENERGY PREDICTED BY IDOCK:   -0.06 KCAL/MOL
REMARK 927      BINDING AFFINITY PREDICTED BY RF-SCORE:    0.00 PKD
ROOT
HETATM    1  C   UNL     1     -11.188  12.479  64.089  1.00  0.00    -0.382 C  
HETATM    2  N   UNL     1     -10.094  12.817  64.988  1.00  0.00    -0.429 NA 
HETATM    3  H   UNL     1      -9.243  13.262  64.642  1.00  0.00     0.000 HD 
ENDROOT
BRANCH   2   4
HETATM    4  C   UNL     1     -10.261  12.491  66.417  1.00  0.00    -0.244 C  
HETATM    5  C   UNL     1     -11.759  12.198  66.694  1.00  0.00    -0.385 C  
HETATM    6  C   UNL     1      -9.463  11.151  66.694  1.00  0.00    -0.204 C  
HETATM    7  C   UNL     1      -7.996  11.212  66.212  1.00  0.00    -0.125 C  
HETATM    8  C   UNL     1      -7.350  12.184  67.202  1.00  0.00    -0.124 C  
HETATM    9  C   UNL     1      -8.508  12.533  68.153  1.00  0.00    -0.180 C  
HETATM   10  C   UNL     1      -9.575  13.471  67.480  1.00  0.00    -0.221 C  
HETATM   11  C   UNL     1      -9.235  11.186  68.209  1.00  0.00    -0.169 C  
HETATM   12  C   UNL     1     -10.543  13.980  68.578  1.00  0.00    -0.260 C  
HETATM   13  C   UNL     1      -8.918  14.741  66.900  1.00  0.00    -0.276 C  
ENDBRANCH   2   4
TORSDOF 1
ENDMDL
MODEL       93
REMARK 921   NORMALIZED FREE ENERGY PREDICTED BY IDOCK:   -2.84 KCAL/MOL
REMARK 922        TOTAL FREE ENERGY PREDICTED BY IDOCK:   -3.05 KCAL/MOL
REMARK 923 INTER-LIGAND FREE ENERGY PREDICTED BY IDOCK:   -2.99 KCAL/MOL
REMARK 924 INTRA-LIGAND FREE ENERGY PREDICTED BY IDOCK:   -0.06 KCAL/MOL
REMARK 927      BINDING AFFINITY PREDICTED BY RF-SCORE:    0.00 PKD
ROOT
HETATM    1  C   UNL     1      -7.574   5.665  69.484  1.00  0.00    -0.072 C  
HETATM    2  N   UNL     1      -8.554   6.681  69.843  1.00  0.00    -0.139 NA 
HETATM    3  H   UNL     1      -8.855   7.387  69.171  1.00  0.00     0.000 HD 
ENDROOT
BRANCH   2   4
HETATM    4  C   UNL     1      -9.094   6.651  71.216  1.00  0.00    -0.151 C  
HETATM    5  C   UNL     1      -8.338   5.569  72.030  1.00  0.00    -0.122 C  
HETATM    6  C   UNL     1      -8.771   8.051  71.883  1.00  0.00    -0.184 C  
HETATM    7  C   UNL     1      -9.241   9.249  71.028  1.00  0.00    -0.273 C  
HETATM    8  C   UNL     1     -10.765   9.179  71.148  1.00  0.00    -0.380 C  
HETATM    9  C   UNL     1     -10.985   7.977  72.084  1.00  0.00    -0.357 C  
HETATM   10  C   UNL     1     -10.686   6.605  71.378  1.00  0.00    -0.264 C  
HETATM   11  C   UNL     1      -9.787   8.137  73.026  1.00  0.00    -0.319 C  
HETATM   12  C   UNL     1     -11.188   5.461  72.297  1.00  0.00    -0.235 C  
HETATM   13  C   UNL     1     -11.493   6.458  70.072  1.00  0.00    -0.496 C  
ENDBRANCH   2   4
TORSDOF 1
ENDMDL
MODEL       94
REMARK 921   NORMALIZED FREE ENERGY PREDICTED BY IDOCK:   -2.84 KCAL/MOL
REMARK 922        TOTAL FREE ENERGY PREDICTED BY IDOCK:   -3.05 KCAL/MOL
REMARK 923 INTER-LIGAND FREE ENERGY PREDICTED BY IDOCK:   -3.00 KCAL/MOL
REMARK 924 INTRA-LIGAND FREE ENERGY PREDICTED BY IDOCK:   -0.04 KCAL/MOL
REMARK 927      BINDING AFFINITY PREDICTED BY RF-SCORE:    0.00 PKD
ROOT
HETATM    1  C   UNL     1      -8.070   9.704  70.280  1.00  0.00    -0.183 C  
HETATM    2  N   UNL     1      -8.570  10.831  69.505  1.00  0.00    -0.383 NA 
HETATM    3  H   UNL     1      -8.105  11.739  69.532  1.00  0.00     0.000 HD 
ENDROOT
BRANCH   2   4
HETATM    4  C   UNL     1      -9.772  10.611  68.679  1.00  0.00    -0.178 C  
HETATM    5  C   UNL     1     -10.689   9.582  69.390  1.00  0.00    -0.244 C  
HETATM    6  C   UNL     1     -10.564  11.982  68.618  1.00  0.00    -0.253 C  
HETATM    7  C   UNL     1      -9.681  13.168  68.173  1.00  0.00    -0.228 C  
HETATM    8  C   UNL     1      -9.432  12.874  66.691  1.00  0.00    -0.255 C  
HETATM    9  C   UNL     1     -10.230  11.579  66.456  1.00  0.00    -0.253 C  
HETATM   10  C   UNL     1      -9.550  10.327  67.119  1.00  0.00    -0.199 C  
HETATM   11  C   UNL     1     -11.436  11.828  67.368  1.00  0.00    -0.375 C  
HETATM   12  C   UNL     1     -10.267   9.051  66.607  1.00  0.00    -0.333 C  
HETATM   13  C   UNL     1      -8.084  10.177  66.663  1.00  0.00    -0.120 C  
ENDBRANCH   2   4
TORSDOF 1
ENDMDL
MODEL       95
REMARK 921   NORMALIZED FREE ENERGY PREDICTED BY IDOCK:   -2.80 KCAL/MOL
REMARK 922        TOTAL FREE ENERGY PREDICTED BY IDOCK:   -3.01 KCAL/MOL
REMARK 923 INTER-LIGAND FREE ENERGY PREDICTED BY IDOCK:   -2.95 KCAL/MOL
REMARK 924 INTRA-LIGAND FREE ENERGY PREDICTED BY IDOCK:   -0.06 KCAL/MOL
REMARK 927      BINDING AFFINITY PREDICTED BY RF-SCORE:    0.00 PKD
ROOT
HETATM    1  C   UNL     1      -9.886  10.835  63.423  1.00  0.00    -0.349 C  
HETATM    2  N   UNL     1     -10.234  10.247  64.709  1.00  0.00    -0.273 NA 
HETATM    3  H   UNL     1     -11.038   9.627  64.806  1.00  0.00     0.000 HD 
ENDROOT
BRANCH   2   4
HETATM    4  C   UNL     1      -9.381  10.582  65.865  1.00  0.00    -0.181 C  
HETATM    5  C   UNL     1      -7.912  10.712  65.385  1.00  0.00    -0.086 C  
HETATM    6  C   UNL     1      -9.831  12.007  66.389  1.00  0.00    -0.238 C  
HETATM    7  C   UNL     1     -11.349  12.099  66.658  1.00  0.00    -0.405 C  
HETATM    8  C   UNL     1     -11.532  11.225  67.901  1.00  0.00    -0.360 C  
HETATM    9  C   UNL     1     -10.097  10.770  68.219  1.00  0.00    -0.187 C  
HETATM   10  C   UNL     1      -9.564   9.705  67.192  1.00  0.00    -0.210 C  
HETATM   11  C   UNL     1      -9.314  12.029  67.832  1.00  0.00    -0.190 C  
HETATM   12  C   UNL     1      -8.239   9.115  67.740  1.00  0.00    -0.109 C  
HETATM   13  C   UNL     1     -10.526   8.505  67.080  1.00  0.00    -0.362 C  
ENDBRANCH   2   4
TORSDOF 1
ENDMDL
MODEL       96
REMARK 921   NORMALIZED FREE ENERGY PREDICTED BY IDOCK:   -2.78 KCAL/MOL
REMARK 922        TOTAL FREE ENERGY PREDICTED BY IDOCK:   -2.99 KCAL/MOL
REMARK 923 INTER-LIGAND FREE ENERGY PREDICTED BY IDOCK:   -3.12 KCAL/MOL
REMARK 924 INTRA-LIGAND FREE ENERGY PREDICTED BY IDOCK:    0.14 KCAL/MOL
REMARK 927      BINDING AFFINITY PREDICTED BY RF-SCORE:    0.00 PKD
ROOT
HETATM    1  C   UNL     1     -11.845  13.570  68.608  1.00  0.00    -0.369 C  
HETATM    2  N   UNL     1     -10.579  12.878  68.806  1.00  0.00    -0.357 NA 
HETATM    3  H   UNL     1      -9.714  13.394  68.966  1.00  0.00     0.000 HD 
ENDROOT
BRANCH   2   4
HETATM    4  C   UNL     1     -10.596  11.403  68.767  1.00  0.00    -0.204 C  
HETATM    5  C   UNL     1     -11.496  10.880  69.916  1.00  0.00    -0.402 C  
HETATM    6  C   UNL     1     -11.278  10.973  67.404  1.00  0.00    -0.355 C  
HETATM    7  C   UNL     1     -10.637  11.645  66.170  1.00  0.00    -0.306 C  
HETATM    8  C   UNL     1      -9.271  10.961  66.077  1.00  0.00    -0.210 C  
HETATM    9  C   UNL     1      -9.306   9.955  67.241  1.00  0.00    -0.167 C  
HETATM   10  C   UNL     1      -9.186  10.655  68.643  1.00  0.00    -0.181 C  
HETATM   11  C   UNL     1     -10.780   9.538  67.201  1.00  0.00    -0.252 C  
HETATM   12  C   UNL     1      -8.961   9.562  69.719  1.00  0.00    -0.214 C  
HETATM   13  C   UNL     1      -7.936  11.557  68.714  1.00  0.00    -0.107 C  
ENDBRANCH   2   4
TORSDOF 1
ENDMDL
MODEL       97
REMARK 921   NORMALIZED FREE ENERGY PREDICTED BY IDOCK:   -2.78 KCAL/MOL
REMARK 922        TOTAL FREE ENERGY PREDICTED BY IDOCK:   -2.99 KCAL/MOL
REMARK 923 INTER-LIGAND FREE ENERGY PREDICTED BY IDOCK:   -2.96 KCAL/MOL
REMARK 924 INTRA-LIGAND FREE ENERGY PREDICTED BY IDOCK:   -0.03 KCAL/MOL
REMARK 927      BINDING AFFINITY PREDICTED BY RF-SCORE:    0.00 PKD
ROOT
HETATM    1  C   UNL     1      -6.966  10.367  69.992  1.00  0.00    -0.157 C  
HETATM    2  N   UNL     1      -8.027  11.194  69.436  1.00  0.00    -0.373 NA 
HETATM    3  H   UNL     1      -8.268  12.095  69.851  1.00  0.00     0.000 HD 
ENDROOT
BRANCH   2   4
HETATM    4  C   UNL     1      -8.741  10.682  68.251  1.00  0.00    -0.135 C  
HETATM    5  C   UNL     1      -7.704  10.119  67.244  1.00  0.00    -0.095 C  
HETATM    6  C   UNL     1      -9.639   9.467  68.727  1.00  0.00    -0.159 C  
HETATM    7  C   UNL     1     -10.547   9.822  69.926  1.00  0.00    -0.301 C  
HETATM    8  C   UNL     1     -11.581  10.765  69.306  1.00  0.00    -0.376 C  
HETATM    9  C   UNL     1     -11.168  10.808  67.824  1.00  0.00    -0.385 C  
HETATM   10  C   UNL     1      -9.849  11.631  67.593  1.00  0.00    -0.195 C  
HETATM   11  C   UNL     1     -10.699   9.362  67.626  1.00  0.00    -0.295 C  
HETATM   12  C   UNL     1      -9.665  11.844  66.068  1.00  0.00    -0.257 C  
HETATM   13  C   UNL     1      -9.962  13.049  68.189  1.00  0.00    -0.231 C  
ENDBRANCH   2   4
TORSDOF 1
ENDMDL
MODEL       98
REMARK 921   NORMALIZED FREE ENERGY PREDICTED BY IDOCK:   -2.76 KCAL/MOL
REMARK 922        TOTAL FREE ENERGY PREDICTED BY IDOCK:   -2.97 KCAL/MOL
REMARK 923 INTER-LIGAND FREE ENERGY PREDICTED BY IDOCK:   -2.91 KCAL/MOL
REMARK 924 INTRA-LIGAND FREE ENERGY PREDICTED BY IDOCK:   -0.05 KCAL/MOL
REMARK 927      BINDING AFFINITY PREDICTED BY RF-SCORE:    0.00 PKD
ROOT
HETATM    1  C   UNL     1     -11.034  16.242  64.872  1.00  0.00    -0.307 C  
HETATM    2  N   UNL     1     -11.312  15.799  66.231  1.00  0.00     0.033 NA 
HETATM    3  H   UNL     1     -12.209  15.991  66.677  1.00  0.00     0.000 HD 
ENDROOT
BRANCH   2   4
HETATM    4  C   UNL     1     -10.247  15.062  66.938  1.00  0.00    -0.258 C  
HETATM    5  C   UNL     1      -8.869  15.563  66.435  1.00  0.00    -0.359 C  
HETATM    6  C   UNL     1     -10.350  15.438  68.474  1.00  0.00    -0.226 C  
HETATM    7  C   UNL     1     -11.770  15.237  69.050  1.00  0.00    -0.368 C  
HETATM    8  C   UNL     1     -11.915  13.713  69.080  1.00  0.00    -0.394 C  
HETATM    9  C   UNL     1     -10.553  13.224  68.556  1.00  0.00    -0.270 C  
HETATM   10  C   UNL     1     -10.381  13.469  67.013  1.00  0.00    -0.252 C  
HETATM   11  C   UNL     1      -9.626  14.280  69.168  1.00  0.00     0.074 C  
HETATM   12  C   UNL     1      -9.116  12.711  66.534  1.00  0.00    -0.163 C  
HETATM   13  C   UNL     1     -11.548  12.852  66.214  1.00  0.00    -0.424 C  
ENDBRANCH   2   4
TORSDOF 1
ENDMDL
MODEL       99
REMARK 921   NORMALIZED FREE ENERGY PREDICTED BY IDOCK:   -2.74 KCAL/MOL
REMARK 922        TOTAL FREE ENERGY PREDICTED BY IDOCK:   -2.95 KCAL/MOL
REMARK 923 INTER-LIGAND FREE ENERGY PREDICTED BY IDOCK:   -2.89 KCAL/MOL
REMARK 924 INTRA-LIGAND FREE ENERGY PREDICTED BY IDOCK:   -0.06 KCAL/MOL
REMARK 927      BINDING AFFINITY PREDICTED BY RF-SCORE:    0.00 PKD
ROOT
HETATM    1  C   UNL     1      -6.504  10.187  64.840  1.00  0.00    -0.129 C  
HETATM    2  N   UNL     1      -7.477  10.938  65.619  1.00  0.00    -0.352 NA 
HETATM    3  H   UNL     1      -7.198  11.741  66.183  1.00  0.00     0.000 HD 
ENDROOT
BRANCH   2   4
HETATM    4  C   UNL     1      -8.883  10.494  65.563  1.00  0.00    -0.184 C  
HETATM    5  C   UNL     1      -9.195   9.991  64.130  1.00  0.00    -0.319 C  
HETATM    6  C   UNL     1      -9.028   9.253  66.537  1.00  0.00    -0.178 C  
HETATM    7  C   UNL     1      -8.495   9.538  67.959  1.00  0.00    -0.119 C  
HETATM    8  C   UNL     1      -9.530  10.514  68.525  1.00  0.00    -0.164 C  
HETATM    9  C   UNL     1     -10.549  10.642  67.378  1.00  0.00    -0.304 C  
HETATM   10  C   UNL     1      -9.990  11.479  66.171  1.00  0.00    -0.257 C  
HETATM   11  C   UNL     1     -10.531   9.211  66.831  1.00  0.00    -0.287 C  
HETATM   12  C   UNL     1     -11.160  11.780  65.199  1.00  0.00    -0.341 C  
HETATM   13  C   UNL     1      -9.482  12.860  66.632  1.00  0.00    -0.255 C  
ENDBRANCH   2   4
TORSDOF 1
ENDMDL
MODEL      100
REMARK 921   NORMALIZED FREE ENERGY PREDICTED BY IDOCK:   -2.74 KCAL/MOL
REMARK 922        TOTAL FREE ENERGY PREDICTED BY IDOCK:   -2.94 KCAL/MOL
REMARK 923 INTER-LIGAND FREE ENERGY PREDICTED BY IDOCK:   -2.88 KCAL/MOL
REMARK 924 INTRA-LIGAND FREE ENERGY PREDICTED BY IDOCK:   -0.06 KCAL/MOL
REMARK 927      BINDING AFFINITY PREDICTED BY RF-SCORE:    0.00 PKD
ROOT
HETATM    1  C   UNL     1     -10.294  12.431  63.936  1.00  0.00    -0.423 C  
HETATM    2  N   UNL     1      -9.554  12.514  65.187  1.00  0.00    -0.468 NA 
HETATM    3  H   UNL     1      -9.169  13.400  65.517  1.00  0.00     0.000 HD 
ENDROOT
BRANCH   2   4
HETATM    4  C   UNL     1      -9.383  11.270  65.961  1.00  0.00    -0.214 C  
HETATM    5  C   UNL     1      -9.563  10.058  65.010  1.00  0.00    -0.362 C  
HETATM    6  C   UNL     1      -7.887  11.238  66.483  1.00  0.00    -0.133 C  
HETATM    7  C   UNL     1      -7.483  12.527  67.232  1.00  0.00    -0.125 C  
HETATM    8  C   UNL     1      -8.281  12.432  68.535  1.00  0.00    -0.086 C  
HETATM    9  C   UNL     1      -9.015  11.087  68.395  1.00  0.00    -0.158 C  
HETATM   10  C   UNL     1     -10.182  11.147  67.343  1.00  0.00    -0.221 C  
HETATM   11  C   UNL     1      -7.948  10.264  67.664  1.00  0.00    -0.102 C  
HETATM   12  C   UNL     1     -11.022   9.850  67.467  1.00  0.00    -0.239 C  
HETATM   13  C   UNL     1     -11.163  12.295  67.659  1.00  0.00    -0.346 C  
ENDBRANCH   2   4
TORSDOF 1
ENDMDL
MODEL      101
REMARK 921   NORMALIZED FREE ENERGY PREDICTED BY IDOCK:   -2.73 KCAL/MOL
REMARK 922        TOTAL FREE ENERGY PREDICTED BY IDOCK:   -2.94 KCAL/MOL
REMARK 923 INTER-LIGAND FREE ENERGY PREDICTED BY IDOCK:   -2.88 KCAL/MOL
REMARK 924 INTRA-LIGAND FREE ENERGY PREDICTED BY IDOCK:   -0.06 KCAL/MOL
REMARK 927      BINDING AFFINITY PREDICTED BY RF-SCORE:    0.00 PKD
ROOT
HETATM    1  C   UNL     1     -13.117   7.127  71.497  1.00  0.00    -0.375 C  
HETATM    2  N   UNL     1     -11.758   6.777  71.886  1.00  0.00    -0.295 NA 
HETATM    3  H   UNL     1     -11.514   6.610  72.862  1.00  0.00     0.000 HD 
ENDROOT
BRANCH   2   4
HETATM    4  C   UNL     1     -10.748   6.675  70.816  1.00  0.00    -0.238 C  
HETATM    5  C   UNL     1     -11.470   6.449  69.462  1.00  0.00    -0.412 C  
HETATM    6  C   UNL     1     -10.010   8.074  70.725  1.00  0.00    -0.202 C  
HETATM    7  C   UNL     1      -9.463   8.557  72.087  1.00  0.00    -0.375 C  
HETATM    8  C   UNL     1      -8.302   7.595  72.351  1.00  0.00    -0.147 C  
HETATM    9  C   UNL     1      -8.296   6.704  71.097  1.00  0.00    -0.125 C  
HETATM   10  C   UNL     1      -9.504   5.699  71.070  1.00  0.00    -0.200 C  
HETATM   11  C   UNL     1      -8.690   7.729  70.027  1.00  0.00    -0.141 C  
HETATM   12  C   UNL     1      -9.267   4.678  69.928  1.00  0.00    -0.188 C  
HETATM   13  C   UNL     1      -9.561   4.856  72.361  1.00  0.00    -0.183 C  
ENDBRANCH   2   4
TORSDOF 1
ENDMDL
MODEL      102
REMARK 921   NORMALIZED FREE ENERGY PREDICTED BY IDOCK:   -2.72 KCAL/MOL
REMARK 922        TOTAL FREE ENERGY PREDICTED BY IDOCK:   -2.92 KCAL/MOL
REMARK 923 INTER-LIGAND FREE ENERGY PREDICTED BY IDOCK:   -2.87 KCAL/MOL
REMARK 924 INTRA-LIGAND FREE ENERGY PREDICTED BY IDOCK:   -0.05 KCAL/MOL
REMARK 927      BINDING AFFINITY PREDICTED BY RF-SCORE:    0.00 PKD
ROOT
HETATM    1  C   UNL     1     -12.166  15.151  69.810  1.00  0.00    -0.289 C  
HETATM    2  N   UNL     1     -11.536  15.311  68.507  1.00  0.00    -0.327 NA 
HETATM    3  H   UNL     1     -11.956  14.918  67.664  1.00  0.00     0.000 HD 
ENDROOT
BRANCH   2   4
HETATM    4  C   UNL     1     -10.266  16.060  68.451  1.00  0.00    -0.236 C  
HETATM    5  C   UNL     1     -10.343  17.254  69.438  1.00  0.00    -0.158 C  
HETATM    6  C   UNL     1      -9.123  15.095  68.972  1.00  0.00    -0.218 C  
HETATM    7  C   UNL     1      -9.103  13.734  68.241  1.00  0.00    -0.195 C  
HETATM    8  C   UNL     1      -8.602  14.102  66.842  1.00  0.00    -0.157 C  
HETATM    9  C   UNL     1      -8.359  15.618  66.949  1.00  0.00    -0.287 C  
HETATM   10  C   UNL     1      -9.699  16.438  67.003  1.00  0.00    -0.253 C  
HETATM   11  C   UNL     1      -7.848  15.716  68.391  1.00  0.00    -0.127 C  
HETATM   12  C   UNL     1      -9.360  17.942  66.838  1.00  0.00    -0.276 C  
HETATM   13  C   UNL     1     -10.614  16.097  65.810  1.00  0.00    -0.347 C  
ENDBRANCH   2   4
TORSDOF 1
ENDMDL
MODEL      103
REMARK 921   NORMALIZED FREE ENERGY PREDICTED BY IDOCK:   -2.70 KCAL/MOL
REMARK 922        TOTAL FREE ENERGY PREDICTED BY IDOCK:   -2.90 KCAL/MOL
REMARK 923 INTER-LIGAND FREE ENERGY PREDICTED BY IDOCK:   -3.41 KCAL/MOL
REMARK 924 INTRA-LIGAND FREE ENERGY PREDICTED BY IDOCK:    0.50 KCAL/MOL
REMARK 927      BINDING AFFINITY PREDICTED BY RF-SCORE:    0.00 PKD
ROOT
HETATM    1  C   UNL     1     -12.100  14.369  69.252  1.00  0.00    -0.299 C  
HETATM    2  N   UNL     1     -11.524  13.579  68.173  1.00  0.00    -0.283 NA 
HETATM    3  H   UNL     1     -11.226  12.615  68.323  1.00  0.00     0.000 HD 
ENDROOT
BRANCH   2   4
HETATM    4  C   UNL     1     -11.387  14.226  66.854  1.00  0.00    -0.343 C  
HETATM    5  C   UNL     1     -12.743  14.136  66.107  1.00  0.00    -0.251 C  
HETATM    6  C   UNL     1     -11.092  15.761  67.107  1.00  0.00    -0.180 C  
HETATM    7  C   UNL     1      -9.907  15.997  68.069  1.00  0.00    -0.222 C  
HETATM    8  C   UNL     1      -8.697  15.570  67.234  1.00  0.00    -0.214 C  
HETATM    9  C   UNL     1      -9.326  15.178  65.886  1.00  0.00    -0.279 C  
HETATM   10  C   UNL     1     -10.118  13.822  65.965  1.00  0.00    -0.320 C  
HETATM   11  C   UNL     1     -10.450  16.216  65.792  1.00  0.00    -0.384 C  
HETATM   12  C   UNL     1     -10.479  13.380  64.524  1.00  0.00    -0.431 C  
HETATM   13  C   UNL     1      -9.235  12.689  66.527  1.00  0.00    -0.200 C  
ENDBRANCH   2   4
TORSDOF 1
ENDMDL
MODEL      104
REMARK 921   NORMALIZED FREE ENERGY PREDICTED BY IDOCK:   -2.69 KCAL/MOL
REMARK 922        TOTAL FREE ENERGY PREDICTED BY IDOCK:   -2.89 KCAL/MOL
REMARK 923 INTER-LIGAND FREE ENERGY PREDICTED BY IDOCK:   -2.83 KCAL/MOL
REMARK 924 INTRA-LIGAND FREE ENERGY PREDICTED BY IDOCK:   -0.06 KCAL/MOL
REMARK 927      BINDING AFFINITY PREDICTED BY RF-SCORE:    0.00 PKD
ROOT
HETATM    1  C   UNL     1     -10.791   8.987  70.389  1.00  0.00    -0.246 C  
HETATM    2  N   UNL     1      -9.835   8.331  69.509  1.00  0.00    -0.178 NA 
HETATM    3  H   UNL     1      -8.919   8.741  69.323  1.00  0.00     0.000 HD 
ENDROOT
BRANCH   2   4
HETATM    4  C   UNL     1     -10.239   7.051  68.897  1.00  0.00    -0.180 C  
HETATM    5  C   UNL     1     -11.418   6.455  69.709  1.00  0.00    -0.468 C  
HETATM    6  C   UNL     1     -10.785   7.371  67.445  1.00  0.00    -0.348 C  
HETATM    7  C   UNL     1      -9.799   8.209  66.601  1.00  0.00    -0.331 C  
HETATM    8  C   UNL     1      -8.668   7.219  66.310  1.00  0.00    -0.162 C  
HETATM    9  C   UNL     1      -9.157   5.926  66.985  1.00  0.00    -0.116 C  
HETATM   10  C   UNL     1      -9.079   6.002  68.553  1.00  0.00    -0.112 C  
HETATM   11  C   UNL     1     -10.663   6.027  66.720  1.00  0.00    -0.374 C  
HETATM   12  C   UNL     1      -9.329   4.583  69.126  1.00  0.00    -0.214 C  
HETATM   13  C   UNL     1      -7.662   6.385  69.026  1.00  0.00    -0.101 C  
ENDBRANCH   2   4
TORSDOF 1
ENDMDL
MODEL      105
REMARK 921   NORMALIZED FREE ENERGY PREDICTED BY IDOCK:   -2.67 KCAL/MOL
REMARK 922        TOTAL FREE ENERGY PREDICTED BY IDOCK:   -2.87 KCAL/MOL
REMARK 923 INTER-LIGAND FREE ENERGY PREDICTED BY IDOCK:   -2.81 KCAL/MOL
REMARK 924 INTRA-LIGAND FREE ENERGY PREDICTED BY IDOCK:   -0.06 KCAL/MOL
REMARK 927      BINDING AFFINITY PREDICTED BY RF-SCORE:    0.00 PKD
ROOT
HETATM    1  C   UNL     1     -11.924  11.440  70.179  1.00  0.00    -0.377 C  
HETATM    2  N   UNL     1     -10.618  11.098  69.634  1.00  0.00    -0.454 NA 
HETATM    3  H   UNL     1     -10.079  11.773  69.090  1.00  0.00     0.000 HD 
ENDROOT
BRANCH   2   4
HETATM    4  C   UNL     1     -10.104   9.741  69.897  1.00  0.00    -0.251 C  
HETATM    5  C   UNL     1     -10.681   9.237  71.245  1.00  0.00    -0.422 C  
HETATM    6  C   UNL     1     -10.669   8.792  68.761  1.00  0.00    -0.111 C  
HETATM    7  C   UNL     1     -10.393   9.323  67.338  1.00  0.00    -0.327 C  
HETATM    8  C   UNL     1      -8.880   9.139  67.189  1.00  0.00    -0.130 C  
HETATM    9  C   UNL     1      -8.477   8.490  68.525  1.00  0.00    -0.131 C  
HETATM   10  C   UNL     1      -8.530   9.505  69.725  1.00  0.00    -0.185 C  
HETATM   11  C   UNL     1      -9.701   7.604  68.783  1.00  0.00    -0.153 C  
HETATM   12  C   UNL     1      -7.858   8.844  70.956  1.00  0.00    -0.164 C  
HETATM   13  C   UNL     1      -7.687  10.764  69.431  1.00  0.00    -0.107 C  
ENDBRANCH   2   4
TORSDOF 1
ENDMDL
MODEL      106
REMARK 921   NORMALIZED FREE ENERGY PREDICTED BY IDOCK:   -2.65 KCAL/MOL
REMARK 922        TOTAL FREE ENERGY PREDICTED BY IDOCK:   -2.85 KCAL/MOL
REMARK 923 INTER-LIGAND FREE ENERGY PREDICTED BY IDOCK:   -2.79 KCAL/MOL
REMARK 924 INTRA-LIGAND FREE ENERGY PREDICTED BY IDOCK:   -0.06 KCAL/MOL
REMARK 927      BINDING AFFINITY PREDICTED BY RF-SCORE:    0.00 PKD
ROOT
HETATM    1  C   UNL     1      -6.611   6.377  71.119  1.00  0.00    -0.051 C  
HETATM    2  N   UNL     1      -7.951   6.350  70.550  1.00  0.00    -0.110 NA 
HETATM    3  H   UNL     1      -8.125   5.957  69.625  1.00  0.00     0.000 HD 
ENDROOT
BRANCH   2   4
HETATM    4  C   UNL     1      -9.047   6.912  71.361  1.00  0.00    -0.148 C  
HETATM    5  C   UNL     1      -8.439   7.760  72.509  1.00  0.00    -0.175 C  
HETATM    6  C   UNL     1      -9.865   7.900  70.432  1.00  0.00    -0.183 C  
HETATM    7  C   UNL     1     -10.311   7.249  69.104  1.00  0.00    -0.207 C  
HETATM    8  C   UNL     1     -11.390   6.260  69.553  1.00  0.00    -0.475 C  
HETATM    9  C   UNL     1     -11.461   6.488  71.073  1.00  0.00    -0.392 C  
HETATM   10  C   UNL     1     -10.207   5.911  71.825  1.00  0.00    -0.248 C  
HETATM   11  C   UNL     1     -11.222   8.001  71.136  1.00  0.00    -0.287 C  
HETATM   12  C   UNL     1     -10.490   5.946  73.349  1.00  0.00    -0.263 C  
HETATM   13  C   UNL     1      -9.987   4.422  71.488  1.00  0.00    -0.250 C  
ENDBRANCH   2   4
TORSDOF 1
ENDMDL
MODEL      107
REMARK 921   NORMALIZED FREE ENERGY PREDICTED BY IDOCK:   -2.65 KCAL/MOL
REMARK 922        TOTAL FREE ENERGY PREDICTED BY IDOCK:   -2.85 KCAL/MOL
REMARK 923 INTER-LIGAND FREE ENERGY PREDICTED BY IDOCK:   -2.79 KCAL/MOL
REMARK 924 INTRA-LIGAND FREE ENERGY PREDICTED BY IDOCK:   -0.06 KCAL/MOL
REMARK 927      BINDING AFFINITY PREDICTED BY RF-SCORE:    0.00 PKD
ROOT
HETATM    1  C   UNL     1     -10.627  18.276  68.299  1.00  0.00    -0.226 C  
HETATM    2  N   UNL     1     -10.929  16.971  67.728  1.00  0.00    -0.270 NA 
HETATM    3  H   UNL     1     -11.706  16.844  67.078  1.00  0.00     0.000 HD 
ENDROOT
BRANCH   2   4
HETATM    4  C   UNL     1     -10.070  15.839  68.124  1.00  0.00    -0.220 C  
HETATM    5  C   UNL     1      -9.366  16.186  69.461  1.00  0.00    -0.096 C  
HETATM    6  C   UNL     1     -11.017  14.599  68.401  1.00  0.00    -0.260 C  
HETATM    7  C   UNL     1     -11.980  14.303  67.230  1.00  0.00    -0.439 C  
HETATM    8  C   UNL     1     -11.045  13.759  66.146  1.00  0.00    -0.296 C  
HETATM    9  C   UNL     1      -9.670  13.772  66.836  1.00  0.00    -0.265 C  
HETATM   10  C   UNL     1      -9.099  15.227  67.007  1.00  0.00    -0.245 C  
HETATM   11  C   UNL     1     -10.073  13.400  68.266  1.00  0.00    -0.247 C  
HETATM   12  C   UNL     1      -7.618  15.124  67.455  1.00  0.00    -0.232 C  
HETATM   13  C   UNL     1      -9.063  15.978  65.660  1.00  0.00     0.010 C  
ENDBRANCH   2   4
TORSDOF 1
ENDMDL
MODEL      108
REMARK 921   NORMALIZED FREE ENERGY PREDICTED BY IDOCK:   -2.65 KCAL/MOL
REMARK 922        TOTAL FREE ENERGY PREDICTED BY IDOCK:   -2.85 KCAL/MOL
REMARK 923 INTER-LIGAND FREE ENERGY PREDICTED BY IDOCK:   -2.84 KCAL/MOL
REMARK 924 INTRA-LIGAND FREE ENERGY PREDICTED BY IDOCK:   -0.01 KCAL/MOL
REMARK 927      BINDING AFFINITY PREDICTED BY RF-SCORE:    0.00 PKD
ROOT
HETATM    1  C   UNL     1     -10.372  18.129  68.592  1.00  0.00    -0.298 C  
HETATM    2  N   UNL     1      -9.395  17.074  68.822  1.00  0.00    -0.266 NA 
HETATM    3  H   UNL     1      -9.652  16.210  69.300  1.00  0.00     0.000 HD 
ENDROOT
BRANCH   2   4
HETATM    4  C   UNL     1      -8.020  17.302  68.338  1.00  0.00    -0.253 C  
HETATM    5  C   UNL     1      -7.647  18.790  68.568  1.00  0.00    -0.357 C  
HETATM    6  C   UNL     1      -7.051  16.431  69.239  1.00  0.00    -0.222 C  
HETATM    7  C   UNL     1      -7.472  14.947  69.317  1.00  0.00    -0.177 C  
HETATM    8  C   UNL     1      -7.160  14.427  67.911  1.00  0.00    -0.169 C  
HETATM    9  C   UNL     1      -6.564  15.660  67.209  1.00  0.00    -0.131 C  
HETATM   10  C   UNL     1      -7.652  16.748  66.883  1.00  0.00    -0.252 C  
HETATM   11  C   UNL     1      -5.794  16.296  68.372  1.00  0.00    -0.107 C  
HETATM   12  C   UNL     1      -7.016  17.811  65.950  1.00  0.00    -0.291 C  
HETATM   13  C   UNL     1      -8.820  16.147  66.074  1.00  0.00    -0.313 C  
ENDBRANCH   2   4
TORSDOF 1
ENDMDL
MODEL      109
REMARK 921   NORMALIZED FREE ENERGY PREDICTED BY IDOCK:   -2.63 KCAL/MOL
REMARK 922        TOTAL FREE ENERGY PREDICTED BY IDOCK:   -2.83 KCAL/MOL
REMARK 923 INTER-LIGAND FREE ENERGY PREDICTED BY IDOCK:   -3.16 KCAL/MOL
REMARK 924 INTRA-LIGAND FREE ENERGY PREDICTED BY IDOCK:    0.34 KCAL/MOL
REMARK 927      BINDING AFFINITY PREDICTED BY RF-SCORE:    0.00 PKD
ROOT
HETATM    1  C   UNL     1     -10.385  19.977  68.744  1.00  0.00    -0.196 C  
HETATM    2  N   UNL     1      -9.947  18.598  68.910  1.00  0.00    -0.388 NA 
HETATM    3  H   UNL     1     -10.449  17.954  69.521  1.00  0.00     0.000 HD 
ENDROOT
BRANCH   2   4
HETATM    4  C   UNL     1      -8.750  18.169  68.162  1.00  0.00    -0.277 C  
HETATM    5  C   UNL     1      -7.527  18.981  68.662  1.00  0.00    -0.361 C  
HETATM    6  C   UNL     1      -8.483  16.650  68.526  1.00  0.00    -0.233 C  
HETATM    7  C   UNL     1      -9.727  15.755  68.327  1.00  0.00    -0.201 C  
HETATM    8  C   UNL     1      -9.870  15.702  66.804  1.00  0.00    -0.255 C  
HETATM    9  C   UNL     1      -8.675  16.537  66.313  1.00  0.00    -0.369 C  
HETATM   10  C   UNL     1      -8.873  18.075  66.569  1.00  0.00    -0.276 C  
HETATM   11  C   UNL     1      -7.622  16.156  67.359  1.00  0.00    -0.191 C  
HETATM   12  C   UNL     1      -7.762  18.846  65.810  1.00  0.00    -0.042 C  
HETATM   13  C   UNL     1     -10.199  18.579  65.965  1.00  0.00    -0.371 C  
ENDBRANCH   2   4
TORSDOF 1
ENDMDL
MODEL      110
REMARK 921   NORMALIZED FREE ENERGY PREDICTED BY IDOCK:   -2.63 KCAL/MOL
REMARK 922        TOTAL FREE ENERGY PREDICTED BY IDOCK:   -2.82 KCAL/MOL
REMARK 923 INTER-LIGAND FREE ENERGY PREDICTED BY IDOCK:   -2.95 KCAL/MOL
REMARK 924 INTRA-LIGAND FREE ENERGY PREDICTED BY IDOCK:    0.13 KCAL/MOL
REMARK 927      BINDING AFFINITY PREDICTED BY RF-SCORE:    0.00 PKD
ROOT
HETATM    1  C   UNL     1     -11.081  14.524  64.566  1.00  0.00    -0.268 C  
HETATM    2  N   UNL     1     -10.145  14.084  65.589  1.00  0.00    -0.358 NA 
HETATM    3  H   UNL     1      -9.372  13.456  65.365  1.00  0.00     0.000 HD 
ENDROOT
BRANCH   2   4
HETATM    4  C   UNL     1     -10.355  14.579  66.963  1.00  0.00    -0.263 C  
HETATM    5  C   UNL     1     -11.826  14.311  67.374  1.00  0.00    -0.441 C  
HETATM    6  C   UNL     1      -9.437  13.716  67.924  1.00  0.00    -0.213 C  
HETATM    7  C   UNL     1      -7.961  13.675  67.470  1.00  0.00    -0.189 C  
HETATM    8  C   UNL     1      -7.475  15.099  67.752  1.00  0.00    -0.179 C  
HETATM    9  C   UNL     1      -8.714  15.773  68.367  1.00  0.00    -0.177 C  
HETATM   10  C   UNL     1      -9.835  16.054  67.301  1.00  0.00    -0.236 C  
HETATM   11  C   UNL     1      -9.298  14.603  69.166  1.00  0.00    -0.051 C  
HETATM   12  C   UNL     1     -10.910  16.964  67.949  1.00  0.00    -0.310 C  
HETATM   13  C   UNL     1      -9.285  16.864  66.109  1.00  0.00    -0.270 C  
ENDBRANCH   2   4
TORSDOF 1
ENDMDL
MODEL      111
REMARK 921   NORMALIZED FREE ENERGY PREDICTED BY IDOCK:   -2.61 KCAL/MOL
REMARK 922        TOTAL FREE ENERGY PREDICTED BY IDOCK:   -2.81 KCAL/MOL
REMARK 923 INTER-LIGAND FREE ENERGY PREDICTED BY IDOCK:   -2.77 KCAL/MOL
REMARK 924 INTRA-LIGAND FREE ENERGY PREDICTED BY IDOCK:   -0.04 KCAL/MOL
REMARK 927      BINDING AFFINITY PREDICTED BY RF-SCORE:    0.00 PKD
ROOT
HETATM    1  C   UNL     1     -11.309   6.177  69.943  1.00  0.00    -0.384 C  
HETATM    2  N   UNL     1     -10.953   7.350  69.157  1.00  0.00    -0.420 NA 
HETATM    3  H   UNL     1     -11.275   8.282  69.421  1.00  0.00     0.000 HD 
ENDROOT
BRANCH   2   4
HETATM    4  C   UNL     1     -10.109   7.141  67.965  1.00  0.00    -0.169 C  
HETATM    5  C   UNL     1     -10.482   5.783  67.317  1.00  0.00    -0.330 C  
HETATM    6  C   UNL     1     -10.475   8.275  66.920  1.00  0.00    -0.365 C  
HETATM    7  C   UNL     1     -10.404   9.695  67.523  1.00  0.00    -0.297 C  
HETATM    8  C   UNL     1      -8.901   9.911  67.718  1.00  0.00    -0.129 C  
HETATM    9  C   UNL     1      -8.290   8.608  67.172  1.00  0.00    -0.107 C  
HETATM   10  C   UNL     1      -8.535   7.384  68.127  1.00  0.00    -0.124 C  
HETATM   11  C   UNL     1      -9.245   8.322  66.008  1.00  0.00    -0.226 C  
HETATM   12  C   UNL     1      -7.666   6.198  67.636  1.00  0.00    -0.098 C  
HETATM   13  C   UNL     1      -8.042   7.681  69.558  1.00  0.00    -0.127 C  
ENDBRANCH   2   4
TORSDOF 1
ENDMDL
MODEL      112
REMARK 921   NORMALIZED FREE ENERGY PREDICTED BY IDOCK:   -2.60 KCAL/MOL
REMARK 922        TOTAL FREE ENERGY PREDICTED BY IDOCK:   -2.79 KCAL/MOL
REMARK 923 INTER-LIGAND FREE ENERGY PREDICTED BY IDOCK:   -2.76 KCAL/MOL
REMARK 924 INTRA-LIGAND FREE ENERGY PREDICTED BY IDOCK:   -0.04 KCAL/MOL
REMARK 927      BINDING AFFINITY PREDICTED BY RF-SCORE:    0.00 PKD
ROOT
HETATM    1  C   UNL     1     -11.370   6.262  69.463  1.00  0.00    -0.404 C  
HETATM    2  N   UNL     1     -10.470   5.558  70.365  1.00  0.00    -0.276 NA 
HETATM    3  H   UNL     1     -10.244   4.573  70.224  1.00  0.00     0.000 HD 
ENDROOT
BRANCH   2   4
HETATM    4  C   UNL     1      -9.897   6.322  71.490  1.00  0.00    -0.173 C  
HETATM    5  C   UNL     1      -9.463   7.720  70.978  1.00  0.00    -0.165 C  
HETATM    6  C   UNL     1     -11.055   6.548  72.547  1.00  0.00    -0.294 C  
HETATM    7  C   UNL     1     -11.767   5.238  72.951  1.00  0.00    -0.228 C  
HETATM    8  C   UNL     1     -10.707   4.513  73.783  1.00  0.00    -0.348 C  
HETATM    9  C   UNL     1      -9.531   5.507  73.790  1.00  0.00    -0.138 C  
HETATM   10  C   UNL     1      -8.805   5.585  72.398  1.00  0.00    -0.135 C  
HETATM   11  C   UNL     1     -10.293   6.836  73.845  1.00  0.00    -0.397 C  
HETATM   12  C   UNL     1      -7.492   6.390  72.575  1.00  0.00    -0.095 C  
HETATM   13  C   UNL     1      -8.360   4.188  71.918  1.00  0.00    -0.102 C  
ENDBRANCH   2   4
TORSDOF 1
ENDMDL
MODEL      113
REMARK 921   NORMALIZED FREE ENERGY PREDICTED BY IDOCK:   -2.60 KCAL/MOL
REMARK 922        TOTAL FREE ENERGY PREDICTED BY IDOCK:   -2.79 KCAL/MOL
REMARK 923 INTER-LIGAND FREE ENERGY PREDICTED BY IDOCK:   -2.73 KCAL/MOL
REMARK 924 INTRA-LIGAND FREE ENERGY PREDICTED BY IDOCK:   -0.06 KCAL/MOL
REMARK 927      BINDING AFFINITY PREDICTED BY RF-SCORE:    0.00 PKD
ROOT
HETATM    1  C   UNL     1      -7.458   7.333  70.728  1.00  0.00    -0.079 C  
HETATM    2  N   UNL     1      -7.947   6.849  69.445  1.00  0.00    -0.113 NA 
HETATM    3  H   UNL     1      -7.365   6.266  68.842  1.00  0.00     0.000 HD 
ENDROOT
BRANCH   2   4
HETATM    4  C   UNL     1      -9.314   7.234  69.047  1.00  0.00    -0.148 C  
HETATM    5  C   UNL     1      -9.667   8.592  69.708  1.00  0.00    -0.179 C  
HETATM    6  C   UNL     1      -9.306   7.464  67.480  1.00  0.00    -0.147 C  
HETATM    7  C   UNL     1      -8.717   6.268  66.698  1.00  0.00    -0.126 C  
HETATM    8  C   UNL     1      -9.791   5.190  66.860  1.00  0.00    -0.201 C  
HETATM    9  C   UNL     1     -10.880   5.904  67.679  1.00  0.00    -0.331 C  
HETATM   10  C   UNL     1     -10.458   6.121  69.178  1.00  0.00    -0.310 C  
HETATM   11  C   UNL     1     -10.782   7.318  67.096  1.00  0.00    -0.413 C  
HETATM   12  C   UNL     1     -11.702   6.593  69.974  1.00  0.00    -0.378 C  
HETATM   13  C   UNL     1     -10.035   4.794  69.839  1.00  0.00    -0.306 C  
ENDBRANCH   2   4
TORSDOF 1
ENDMDL
MODEL      114
REMARK 921   NORMALIZED FREE ENERGY PREDICTED BY IDOCK:   -2.57 KCAL/MOL
REMARK 922        TOTAL FREE ENERGY PREDICTED BY IDOCK:   -2.76 KCAL/MOL
REMARK 923 INTER-LIGAND FREE ENERGY PREDICTED BY IDOCK:   -2.77 KCAL/MOL
REMARK 924 INTRA-LIGAND FREE ENERGY PREDICTED BY IDOCK:    0.00 KCAL/MOL
REMARK 927      BINDING AFFINITY PREDICTED BY RF-SCORE:    0.00 PKD
ROOT
HETATM    1  C   UNL     1     -12.239   9.043  71.188  1.00  0.00    -0.275 C  
HETATM    2  N   UNL     1     -11.623   8.753  69.901  1.00  0.00    -0.433 NA 
HETATM    3  H   UNL     1     -11.716   9.394  69.113  1.00  0.00     0.000 HD 
ENDROOT
BRANCH   2   4
HETATM    4  C   UNL     1     -10.858   7.497  69.780  1.00  0.00    -0.225 C  
HETATM    5  C   UNL     1     -11.620   6.371  70.526  1.00  0.00    -0.424 C  
HETATM    6  C   UNL     1     -10.829   7.106  68.245  1.00  0.00    -0.156 C  
HETATM    7  C   UNL     1     -10.333   8.255  67.340  1.00  0.00    -0.350 C  
HETATM    8  C   UNL     1      -8.843   8.341  67.679  1.00  0.00    -0.137 C  
HETATM    9  C   UNL     1      -8.655   7.210  68.706  1.00  0.00    -0.125 C  
HETATM   10  C   UNL     1      -9.291   7.556  70.101  1.00  0.00    -0.157 C  
HETATM   11  C   UNL     1      -9.624   6.164  68.146  1.00  0.00    -0.117 C  
HETATM   12  C   UNL     1      -8.823   6.495  71.130  1.00  0.00    -0.138 C  
HETATM   13  C   UNL     1      -8.764   8.902  70.640  1.00  0.00    -0.230 C  
ENDBRANCH   2   4
TORSDOF 1
ENDMDL
MODEL      115
REMARK 921   NORMALIZED FREE ENERGY PREDICTED BY IDOCK:   -2.57 KCAL/MOL
REMARK 922        TOTAL FREE ENERGY PREDICTED BY IDOCK:   -2.76 KCAL/MOL
REMARK 923 INTER-LIGAND FREE ENERGY PREDICTED BY IDOCK:   -2.71 KCAL/MOL
REMARK 924 INTRA-LIGAND FREE ENERGY PREDICTED BY IDOCK:   -0.06 KCAL/MOL
REMARK 927      BINDING AFFINITY PREDICTED BY RF-SCORE:    0.00 PKD
ROOT
HETATM    1  C   UNL     1      -8.276   5.851  68.463  1.00  0.00    -0.109 C  
HETATM    2  N   UNL     1      -9.121   5.874  69.649  1.00  0.00    -0.136 NA 
HETATM    3  H   UNL     1      -9.553   5.022  70.007  1.00  0.00     0.000 HD 
ENDROOT
BRANCH   2   4
HETATM    4  C   UNL     1      -9.328   7.176  70.313  1.00  0.00    -0.155 C  
HETATM    5  C   UNL     1      -8.275   8.183  69.783  1.00  0.00    -0.122 C  
HETATM    6  C   UNL     1     -10.752   7.711  69.872  1.00  0.00    -0.253 C  
HETATM    7  C   UNL     1     -11.881   6.681  70.101  1.00  0.00    -0.347 C  
HETATM    8  C   UNL     1     -12.008   6.644  71.626  1.00  0.00    -0.395 C  
HETATM    9  C   UNL     1     -10.968   7.680  72.086  1.00  0.00    -0.304 C  
HETATM   10  C   UNL     1      -9.492   7.171  71.905  1.00  0.00    -0.157 C  
HETATM   11  C   UNL     1     -11.102   8.721  70.969  1.00  0.00    -0.328 C  
HETATM   12  C   UNL     1      -8.541   8.154  72.635  1.00  0.00    -0.262 C  
HETATM   13  C   UNL     1      -9.279   5.810  72.600  1.00  0.00    -0.139 C  
ENDBRANCH   2   4
TORSDOF 1
ENDMDL
MODEL      116
REMARK 921   NORMALIZED FREE ENERGY PREDICTED BY IDOCK:   -2.56 KCAL/MOL
REMARK 922        TOTAL FREE ENERGY PREDICTED BY IDOCK:   -2.76 KCAL/MOL
REMARK 923 INTER-LIGAND FREE ENERGY PREDICTED BY IDOCK:   -2.69 KCAL/MOL
REMARK 924 INTRA-LIGAND FREE ENERGY PREDICTED BY IDOCK:   -0.06 KCAL/MOL
REMARK 927      BINDING AFFINITY PREDICTED BY RF-SCORE:    0.00 PKD
ROOT
HETATM    1  C   UNL     1      -9.665  10.392  64.118  1.00  0.00    -0.324 C  
HETATM    2  N   UNL     1      -9.505   9.423  65.193  1.00  0.00    -0.426 NA 
HETATM    3  H   UNL     1      -9.196   8.469  65.004  1.00  0.00     0.000 HD 
ENDROOT
BRANCH   2   4
HETATM    4  C   UNL     1      -9.808   9.872  66.565  1.00  0.00    -0.215 C  
HETATM    5  C   UNL     1     -10.755  11.098  66.495  1.00  0.00    -0.314 C  
HETATM    6  C   UNL     1     -10.605   8.705  67.281  1.00  0.00    -0.308 C  
HETATM    7  C   UNL     1      -9.886   7.341  67.190  1.00  0.00    -0.242 C  
HETATM    8  C   UNL     1      -8.682   7.525  68.117  1.00  0.00    -0.122 C  
HETATM    9  C   UNL     1      -8.874   8.953  68.656  1.00  0.00    -0.137 C  
HETATM   10  C   UNL     1      -8.575  10.049  67.570  1.00  0.00    -0.122 C  
HETATM   11  C   UNL     1     -10.401   9.004  68.770  1.00  0.00    -0.236 C  
HETATM   12  C   UNL     1      -8.530  11.433  68.268  1.00  0.00    -0.154 C  
HETATM   13  C   UNL     1      -7.172   9.862  66.955  1.00  0.00    -0.090 C  
ENDBRANCH   2   4
TORSDOF 1
ENDMDL
MODEL      117
REMARK 921   NORMALIZED FREE ENERGY PREDICTED BY IDOCK:   -2.55 KCAL/MOL
REMARK 922        TOTAL FREE ENERGY PREDICTED BY IDOCK:   -2.74 KCAL/MOL
REMARK 923 INTER-LIGAND FREE ENERGY PREDICTED BY IDOCK:   -3.20 KCAL/MOL
REMARK 924 INTRA-LIGAND FREE ENERGY PREDICTED BY IDOCK:    0.46 KCAL/MOL
REMARK 927      BINDING AFFINITY PREDICTED BY RF-SCORE:    0.00 PKD
ROOT
HETATM    1  C   UNL     1      -8.327  19.374  66.057  1.00  0.00    -0.220 C  
HETATM    2  N   UNL     1      -8.395  17.949  65.770  1.00  0.00    -0.466 NA 
HETATM    3  H   UNL     1      -8.692  17.607  64.856  1.00  0.00     0.000 HD 
ENDROOT
BRANCH   2   4
HETATM    4  C   UNL     1      -8.019  17.017  66.851  1.00  0.00    -0.222 C  
HETATM    5  C   UNL     1      -6.473  16.910  66.908  1.00  0.00    -0.249 C  
HETATM    6  C   UNL     1      -8.495  17.661  68.218  1.00  0.00    -0.271 C  
HETATM    7  C   UNL     1      -9.985  18.070  68.205  1.00  0.00    -0.374 C  
HETATM    8  C   UNL     1     -10.711  16.723  68.213  1.00  0.00    -0.364 C  
HETATM    9  C   UNL     1      -9.557  15.706  68.267  1.00  0.00    -0.200 C  
HETATM   10  C   UNL     1      -8.779  15.609  66.905  1.00  0.00    -0.283 C  
HETATM   11  C   UNL     1      -8.568  16.458  69.165  1.00  0.00    -0.182 C  
HETATM   12  C   UNL     1      -7.827  14.387  66.970  1.00  0.00     0.017 C  
HETATM   13  C   UNL     1      -9.736  15.314  65.732  1.00  0.00    -0.385 C  
ENDBRANCH   2   4
TORSDOF 1
ENDMDL
MODEL      118
REMARK 921   NORMALIZED FREE ENERGY PREDICTED BY IDOCK:   -2.54 KCAL/MOL
REMARK 922        TOTAL FREE ENERGY PREDICTED BY IDOCK:   -2.73 KCAL/MOL
REMARK 923 INTER-LIGAND FREE ENERGY PREDICTED BY IDOCK:   -2.67 KCAL/MOL
REMARK 924 INTRA-LIGAND FREE ENERGY PREDICTED BY IDOCK:   -0.06 KCAL/MOL
REMARK 927      BINDING AFFINITY PREDICTED BY RF-SCORE:    0.00 PKD
ROOT
HETATM    1  C   UNL     1      -8.286   9.253  67.814  1.00  0.00    -0.116 C  
HETATM    2  N   UNL     1      -9.335   8.565  68.553  1.00  0.00    -0.139 NA 
HETATM    3  H   UNL     1     -10.228   9.017  68.751  1.00  0.00     0.000 HD 
ENDROOT
BRANCH   2   4
HETATM    4  C   UNL     1      -9.058   7.188  69.006  1.00  0.00    -0.132 C  
HETATM    5  C   UNL     1      -7.553   6.882  68.791  1.00  0.00    -0.105 C  
HETATM    6  C   UNL     1      -9.327   7.139  70.566  1.00  0.00    -0.158 C  
HETATM    7  C   UNL     1     -10.721   7.680  70.955  1.00  0.00    -0.243 C  
HETATM    8  C   UNL     1     -11.668   6.598  70.430  1.00  0.00    -0.446 C  
HETATM    9  C   UNL     1     -10.706   5.552  69.840  1.00  0.00    -0.358 C  
HETATM   10  C   UNL     1     -10.044   6.035  68.498  1.00  0.00    -0.197 C  
HETATM   11  C   UNL     1      -9.547   5.647  70.838  1.00  0.00    -0.212 C  
HETATM   12  C   UNL     1      -9.316   4.830  67.849  1.00  0.00    -0.164 C  
HETATM   13  C   UNL     1     -11.111   6.464  67.470  1.00  0.00    -0.401 C  
ENDBRANCH   2   4
TORSDOF 1
ENDMDL
MODEL      119
REMARK 921   NORMALIZED FREE ENERGY PREDICTED BY IDOCK:   -2.53 KCAL/MOL
REMARK 922        TOTAL FREE ENERGY PREDICTED BY IDOCK:   -2.72 KCAL/MOL
REMARK 923 INTER-LIGAND FREE ENERGY PREDICTED BY IDOCK:   -2.66 KCAL/MOL
REMARK 924 INTRA-LIGAND FREE ENERGY PREDICTED BY IDOCK:   -0.06 KCAL/MOL
REMARK 927      BINDING AFFINITY PREDICTED BY RF-SCORE:    0.00 PKD
ROOT
HETATM    1  C   UNL     1      -6.905   7.738  70.606  1.00  0.00    -0.042 C  
HETATM    2  N   UNL     1      -8.300   7.927  70.236  1.00  0.00    -0.124 NA 
HETATM    3  H   UNL     1      -8.898   8.580  70.744  1.00  0.00     0.000 HD 
ENDROOT
BRANCH   2   4
HETATM    4  C   UNL     1      -8.817   7.139  69.101  1.00  0.00    -0.135 C  
HETATM    5  C   UNL     1      -7.658   6.870  68.106  1.00  0.00    -0.108 C  
HETATM    6  C   UNL     1      -9.281   5.735  69.671  1.00  0.00    -0.159 C  
HETATM    7  C   UNL     1     -10.250   5.860  70.867  1.00  0.00    -0.269 C  
HETATM    8  C   UNL     1     -11.533   6.384  70.216  1.00  0.00    -0.468 C  
HETATM    9  C   UNL     1     -11.160   6.460  68.725  1.00  0.00    -0.404 C  
HETATM   10  C   UNL     1     -10.172   7.643  68.413  1.00  0.00    -0.226 C  
HETATM   11  C   UNL     1     -10.256   5.228  68.603  1.00  0.00    -0.223 C  
HETATM   12  C   UNL     1     -10.070   7.804  66.875  1.00  0.00    -0.356 C  
HETATM   13  C   UNL     1     -10.729   8.987  68.925  1.00  0.00    -0.149 C  
ENDBRANCH   2   4
TORSDOF 1
ENDMDL
MODEL      120
REMARK 921   NORMALIZED FREE ENERGY PREDICTED BY IDOCK:   -2.50 KCAL/MOL
REMARK 922        TOTAL FREE ENERGY PREDICTED BY IDOCK:   -2.69 KCAL/MOL
REMARK 923 INTER-LIGAND FREE ENERGY PREDICTED BY IDOCK:   -2.63 KCAL/MOL
REMARK 924 INTRA-LIGAND FREE ENERGY PREDICTED BY IDOCK:   -0.06 KCAL/MOL
REMARK 927      BINDING AFFINITY PREDICTED BY RF-SCORE:    0.00 PKD
ROOT
HETATM    1  C   UNL     1     -11.725  10.910  70.292  1.00  0.00    -0.347 C  
HETATM    2  N   UNL     1     -10.346  10.883  69.826  1.00  0.00    -0.449 NA 
HETATM    3  H   UNL     1      -9.567  11.035  70.467  1.00  0.00     0.000 HD 
ENDROOT
BRANCH   2   4
HETATM    4  C   UNL     1     -10.117  10.627  68.391  1.00  0.00    -0.166 C  
HETATM    5  C   UNL     1     -11.406  10.983  67.605  1.00  0.00    -0.355 C  
HETATM    6  C   UNL     1      -8.984  11.623  67.907  1.00  0.00    -0.170 C  
HETATM    7  C   UNL     1      -7.714  11.565  68.786  1.00  0.00    -0.124 C  
HETATM    8  C   UNL     1      -7.116  10.200  68.434  1.00  0.00    -0.071 C  
HETATM    9  C   UNL     1      -8.089   9.658  67.372  1.00  0.00    -0.110 C  
HETATM   10  C   UNL     1      -9.467   9.221  67.989  1.00  0.00    -0.152 C  
HETATM   11  C   UNL     1      -8.448  10.954  66.637  1.00  0.00    -0.151 C  
HETATM   12  C   UNL     1     -10.266   8.449  66.907  1.00  0.00    -0.383 C  
HETATM   13  C   UNL     1      -9.272   8.215  69.142  1.00  0.00    -0.151 C  
ENDBRANCH   2   4
TORSDOF 1
ENDMDL
MODEL      121
REMARK 921   NORMALIZED FREE ENERGY PREDICTED BY IDOCK:   -2.49 KCAL/MOL
REMARK 922        TOTAL FREE ENERGY PREDICTED BY IDOCK:   -2.68 KCAL/MOL
REMARK 923 INTER-LIGAND FREE ENERGY PREDICTED BY IDOCK:   -2.62 KCAL/MOL
REMARK 924 INTRA-LIGAND FREE ENERGY PREDICTED BY IDOCK:   -0.06 KCAL/MOL
REMARK 927      BINDING AFFINITY PREDICTED BY RF-SCORE:    0.00 PKD
ROOT
HETATM    1  C   UNL     1      -8.295   7.771  66.516  1.00  0.00    -0.128 C  
HETATM    2  N   UNL     1      -8.651   7.062  67.736  1.00  0.00    -0.123 NA 
HETATM    3  H   UNL     1      -8.020   6.376  68.153  1.00  0.00     0.000 HD 
ENDROOT
BRANCH   2   4
HETATM    4  C   UNL     1      -9.957   7.371  68.348  1.00  0.00    -0.164 C  
HETATM    5  C   UNL     1     -10.881   7.996  67.271  1.00  0.00    -0.159 C  
HETATM    6  C   UNL     1     -10.612   5.998  68.788  1.00  0.00    -0.345 C  
HETATM    7  C   UNL     1      -9.676   5.136  69.664  1.00  0.00    -0.255 C  
HETATM    8  C   UNL     1      -9.632   5.910  70.984  1.00  0.00    -0.197 C  
HETATM    9  C   UNL     1     -10.575   7.098  70.722  1.00  0.00    -0.240 C  
HETATM   10  C   UNL     1      -9.948   8.156  69.743  1.00  0.00    -0.191 C  
HETATM   11  C   UNL     1     -11.636   6.421  69.847  1.00  0.00    -0.422 C  
HETATM   12  C   UNL     1     -10.842   9.423  69.754  1.00  0.00    -0.250 C  
HETATM   13  C   UNL     1      -8.567   8.631  70.241  1.00  0.00    -0.144 C  
ENDBRANCH   2   4
TORSDOF 1
ENDMDL
MODEL      122
REMARK 921   NORMALIZED FREE ENERGY PREDICTED BY IDOCK:   -2.49 KCAL/MOL
REMARK 922        TOTAL FREE ENERGY PREDICTED BY IDOCK:   -2.68 KCAL/MOL
REMARK 923 INTER-LIGAND FREE ENERGY PREDICTED BY IDOCK:   -2.64 KCAL/MOL
REMARK 924 INTRA-LIGAND FREE ENERGY PREDICTED BY IDOCK:   -0.03 KCAL/MOL
REMARK 927      BINDING AFFINITY PREDICTED BY RF-SCORE:    0.00 PKD
ROOT
HETATM    1  C   UNL     1      -7.532   6.323  69.751  1.00  0.00    -0.081 C  
HETATM    2  N   UNL     1      -7.876   6.132  71.153  1.00  0.00    -0.109 NA 
HETATM    3  H   UNL     1      -7.726   5.235  71.617  1.00  0.00     0.000 HD 
ENDROOT
BRANCH   2   4
HETATM    4  C   UNL     1      -8.449   7.282  71.877  1.00  0.00    -0.107 C  
HETATM    5  C   UNL     1      -7.635   8.555  71.523  1.00  0.00    -0.131 C  
HETATM    6  C   UNL     1      -9.920   7.501  71.332  1.00  0.00    -0.200 C  
HETATM    7  C   UNL     1     -10.777   6.216  71.377  1.00  0.00    -0.308 C  
HETATM    8  C   UNL     1     -11.014   6.015  72.876  1.00  0.00    -0.303 C  
HETATM    9  C   UNL     1     -10.301   7.224  73.506  1.00  0.00    -0.412 C  
HETATM   10  C   UNL     1      -8.736   7.098  73.441  1.00  0.00    -0.168 C  
HETATM   11  C   UNL     1     -10.595   8.298  72.453  1.00  0.00    -0.408 C  
HETATM   12  C   UNL     1      -8.117   8.210  74.326  1.00  0.00    -0.309 C  
HETATM   13  C   UNL     1      -8.254   5.771  74.063  1.00  0.00    -0.108 C  
ENDBRANCH   2   4
TORSDOF 1
ENDMDL
MODEL      123
REMARK 921   NORMALIZED FREE ENERGY PREDICTED BY IDOCK:   -2.46 KCAL/MOL
REMARK 922        TOTAL FREE ENERGY PREDICTED BY IDOCK:   -2.65 KCAL/MOL
REMARK 923 INTER-LIGAND FREE ENERGY PREDICTED BY IDOCK:   -2.68 KCAL/MOL
REMARK 924 INTRA-LIGAND FREE ENERGY PREDICTED BY IDOCK:    0.04 KCAL/MOL
REMARK 927      BINDING AFFINITY PREDICTED BY RF-SCORE:    0.00 PKD
ROOT
HETATM    1  C   UNL     1      -7.377  10.416  69.767  1.00  0.00    -0.154 C  
HETATM    2  N   UNL     1      -8.714  10.733  69.285  1.00  0.00    -0.356 NA 
HETATM    3  H   UNL     1      -9.526  10.672  69.899  1.00  0.00     0.000 HD 
ENDROOT
BRANCH   2   4
HETATM    4  C   UNL     1      -8.850  11.148  67.876  1.00  0.00    -0.136 C  
HETATM    5  C   UNL     1      -7.879  12.326  67.603  1.00  0.00    -0.156 C  
HETATM    6  C   UNL     1      -8.376   9.933  66.976  1.00  0.00    -0.121 C  
HETATM    7  C   UNL     1      -9.084   8.607  67.332  1.00  0.00    -0.148 C  
HETATM    8  C   UNL     1     -10.514   8.838  66.835  1.00  0.00    -0.319 C  
HETATM    9  C   UNL     1     -10.445  10.247  66.222  1.00  0.00    -0.214 C  
HETATM   10  C   UNL     1     -10.332  11.372  67.315  1.00  0.00    -0.230 C  
HETATM   11  C   UNL     1      -9.035  10.220  65.623  1.00  0.00    -0.198 C  
HETATM   12  C   UNL     1     -10.540  12.746  66.628  1.00  0.00    -0.272 C  
HETATM   13  C   UNL     1     -11.469  11.262  68.352  1.00  0.00    -0.377 C  
ENDBRANCH   2   4
TORSDOF 1
ENDMDL
MODEL      124
REMARK 921   NORMALIZED FREE ENERGY PREDICTED BY IDOCK:   -2.43 KCAL/MOL
REMARK 922        TOTAL FREE ENERGY PREDICTED BY IDOCK:   -2.61 KCAL/MOL
REMARK 923 INTER-LIGAND FREE ENERGY PREDICTED BY IDOCK:   -2.55 KCAL/MOL
REMARK 924 INTRA-LIGAND FREE ENERGY PREDICTED BY IDOCK:   -0.06 KCAL/MOL
REMARK 927      BINDING AFFINITY PREDICTED BY RF-SCORE:    0.00 PKD
ROOT
HETATM    1  C   UNL     1     -11.187   7.072  69.833  1.00  0.00    -0.246 C  
HETATM    2  N   UNL     1     -11.186   6.502  71.173  1.00  0.00    -0.286 NA 
HETATM    3  H   UNL     1     -12.002   6.577  71.781  1.00  0.00     0.000 HD 
ENDROOT
BRANCH   2   4
HETATM    4  C   UNL     1      -9.960   5.813  71.619  1.00  0.00    -0.174 C  
HETATM    5  C   UNL     1      -9.288   5.139  70.394  1.00  0.00    -0.210 C  
HETATM    6  C   UNL     1      -8.959   6.921  72.150  1.00  0.00    -0.138 C  
HETATM    7  C   UNL     1      -9.597   7.853  73.204  1.00  0.00    -0.352 C  
HETATM    8  C   UNL     1      -9.746   6.941  74.424  1.00  0.00    -0.264 C  
HETATM    9  C   UNL     1      -9.144   5.611  73.939  1.00  0.00    -0.126 C  
HETATM   10  C   UNL     1     -10.073   4.872  72.909  1.00  0.00    -0.208 C  
HETATM   11  C   UNL     1      -8.007   6.130  73.052  1.00  0.00    -0.108 C  
HETATM   12  C   UNL     1      -9.520   3.440  72.689  1.00  0.00    -0.165 C  
HETATM   13  C   UNL     1     -11.494   4.675  73.476  1.00  0.00    -0.277 C  
ENDBRANCH   2   4
TORSDOF 1
ENDMDL
MODEL      125
REMARK 921   NORMALIZED FREE ENERGY PREDICTED BY IDOCK:   -2.42 KCAL/MOL
REMARK 922        TOTAL FREE ENERGY PREDICTED BY IDOCK:   -2.61 KCAL/MOL
REMARK 923 INTER-LIGAND FREE ENERGY PREDICTED BY IDOCK:   -2.57 KCAL/MOL
REMARK 924 INTRA-LIGAND FREE ENERGY PREDICTED BY IDOCK:   -0.04 KCAL/MOL
REMARK 927      BINDING AFFINITY PREDICTED BY RF-SCORE:    0.00 PKD
ROOT
HETATM    1  C   UNL     1      -9.327   8.097  69.373  1.00  0.00    -0.155 C  
HETATM    2  N   UNL     1      -9.984   9.171  68.643  1.00  0.00    -0.165 NA 
HETATM    3  H   UNL     1     -10.995   9.176  68.503  1.00  0.00     0.000 HD 
ENDROOT
BRANCH   2   4
HETATM    4  C   UNL     1      -9.133  10.253  68.111  1.00  0.00    -0.136 C  
HETATM    5  C   UNL     1      -8.087  10.645  69.188  1.00  0.00    -0.143 C  
HETATM    6  C   UNL     1      -8.335   9.665  66.875  1.00  0.00    -0.117 C  
HETATM    7  C   UNL     1      -9.253   8.992  65.831  1.00  0.00    -0.290 C  
HETATM    8  C   UNL     1      -9.989  10.179  65.205  1.00  0.00    -0.379 C  
HETATM    9  C   UNL     1      -9.381  11.389  65.935  1.00  0.00    -0.247 C  
HETATM   10  C   UNL     1      -9.869  11.498  67.425  1.00  0.00    -0.202 C  
HETATM   11  C   UNL     1      -7.931  10.918  66.091  1.00  0.00    -0.155 C  
HETATM   12  C   UNL     1      -9.427  12.874  67.987  1.00  0.00    -0.213 C  
HETATM   13  C   UNL     1     -11.409  11.502  67.512  1.00  0.00    -0.366 C  
ENDBRANCH   2   4
TORSDOF 1
ENDMDL
MODEL      126
REMARK 921   NORMALIZED FREE ENERGY PREDICTED BY IDOCK:   -2.39 KCAL/MOL
REMARK 922        TOTAL FREE ENERGY PREDICTED BY IDOCK:   -2.58 KCAL/MOL
REMARK 923 INTER-LIGAND FREE ENERGY PREDICTED BY IDOCK:   -2.51 KCAL/MOL
REMARK 924 INTRA-LIGAND FREE ENERGY PREDICTED BY IDOCK:   -0.06 KCAL/MOL
REMARK 927      BINDING AFFINITY PREDICTED BY RF-SCORE:    0.00 PKD
ROOT
HETATM    1  C   UNL     1     -12.518   7.593  70.842  1.00  0.00    -0.094 C  
HETATM    2  N   UNL     1     -11.221   7.192  70.315  1.00  0.00    -0.277 NA 
HETATM    3  H   UNL     1     -10.888   6.231  70.403  1.00  0.00     0.000 HD 
ENDROOT
BRANCH   2   4
HETATM    4  C   UNL     1     -10.407   8.227  69.649  1.00  0.00    -0.218 C  
HETATM    5  C   UNL     1     -10.902   9.624  70.102  1.00  0.00    -0.325 C  
HETATM    6  C   UNL     1      -8.919   8.066  70.169  1.00  0.00    -0.150 C  
HETATM    7  C   UNL     1      -8.381   6.625  70.021  1.00  0.00    -0.135 C  
HETATM    8  C   UNL     1      -8.212   6.475  68.507  1.00  0.00    -0.121 C  
HETATM    9  C   UNL     1      -8.635   7.854  67.972  1.00  0.00    -0.126 C  
HETATM   10  C   UNL     1     -10.186   8.085  68.070  1.00  0.00    -0.260 C  
HETATM   11  C   UNL     1      -8.091   8.760  69.082  1.00  0.00    -0.118 C  
HETATM   12  C   UNL     1     -10.542   9.366  67.272  1.00  0.00    -0.314 C  
HETATM   13  C   UNL     1     -10.967   6.949  67.379  1.00  0.00    -0.374 C  
ENDBRANCH   2   4
TORSDOF 1
ENDMDL
MODEL      127
REMARK 921   NORMALIZED FREE ENERGY PREDICTED BY IDOCK:   -2.39 KCAL/MOL
REMARK 922        TOTAL FREE ENERGY PREDICTED BY IDOCK:   -2.57 KCAL/MOL
REMARK 923 INTER-LIGAND FREE ENERGY PREDICTED BY IDOCK:   -2.51 KCAL/MOL
REMARK 924 INTRA-LIGAND FREE ENERGY PREDICTED BY IDOCK:   -0.06 KCAL/MOL
REMARK 927      BINDING AFFINITY PREDICTED BY RF-SCORE:    0.00 PKD
ROOT
HETATM    1  C   UNL     1      -7.617   9.321  69.279  1.00  0.00    -0.080 C  
HETATM    2  N   UNL     1      -8.038   7.928  69.246  1.00  0.00    -0.124 NA 
HETATM    3  H   UNL     1      -7.602   7.258  68.612  1.00  0.00     0.000 HD 
ENDROOT
BRANCH   2   4
HETATM    4  C   UNL     1      -9.119   7.521  70.165  1.00  0.00    -0.147 C  
HETATM    5  C   UNL     1      -8.994   8.335  71.479  1.00  0.00    -0.223 C  
HETATM    6  C   UNL     1     -10.493   7.929  69.490  1.00  0.00    -0.226 C  
HETATM    7  C   UNL     1     -10.636   7.398  68.046  1.00  0.00    -0.235 C  
HETATM    8  C   UNL     1     -10.811   5.891  68.250  1.00  0.00    -0.325 C  
HETATM    9  C   UNL     1     -10.786   5.743  69.782  1.00  0.00    -0.419 C  
HETATM   10  C   UNL     1      -9.348   5.952  70.381  1.00  0.00    -0.181 C  
HETATM   11  C   UNL     1     -11.511   7.028  70.196  1.00  0.00    -0.302 C  
HETATM   12  C   UNL     1      -9.370   5.522  71.870  1.00  0.00    -0.163 C  
HETATM   13  C   UNL     1      -8.319   5.021  69.707  1.00  0.00    -0.088 C  
ENDBRANCH   2   4
TORSDOF 1
ENDMDL
MODEL      128
REMARK 921   NORMALIZED FREE ENERGY PREDICTED BY IDOCK:   -2.35 KCAL/MOL
REMARK 922        TOTAL FREE ENERGY PREDICTED BY IDOCK:   -2.53 KCAL/MOL
REMARK 923 INTER-LIGAND FREE ENERGY PREDICTED BY IDOCK:   -2.47 KCAL/MOL
REMARK 924 INTRA-LIGAND FREE ENERGY PREDICTED BY IDOCK:   -0.06 KCAL/MOL
REMARK 927      BINDING AFFINITY PREDICTED BY RF-SCORE:    0.00 PKD
ROOT
HETATM    1  C   UNL     1     -11.017   6.438  67.319  1.00  0.00    -0.392 C  
HETATM    2  N   UNL     1      -9.950   6.995  68.138  1.00  0.00    -0.147 NA 
HETATM    3  H   UNL     1      -9.162   6.421  68.442  1.00  0.00     0.000 HD 
ENDROOT
BRANCH   2   4
HETATM    4  C   UNL     1     -10.050   8.418  68.513  1.00  0.00    -0.197 C  
HETATM    5  C   UNL     1     -10.881   9.164  67.437  1.00  0.00    -0.140 C  
HETATM    6  C   UNL     1     -10.864   8.495  69.870  1.00  0.00    -0.205 C  
HETATM    7  C   UNL     1     -10.289   7.576  70.970  1.00  0.00    -0.204 C  
HETATM    8  C   UNL     1      -8.974   8.266  71.343  1.00  0.00    -0.211 C  
HETATM    9  C   UNL     1      -8.970   9.514  70.443  1.00  0.00    -0.291 C  
HETATM   10  C   UNL     1      -8.698   9.164  68.934  1.00  0.00    -0.132 C  
HETATM   11  C   UNL     1     -10.463   9.859  70.442  1.00  0.00    -0.347 C  
HETATM   12  C   UNL     1      -8.446  10.485  68.163  1.00  0.00    -0.123 C  
HETATM   13  C   UNL     1      -7.399   8.348  68.773  1.00  0.00    -0.087 C  
ENDBRANCH   2   4
TORSDOF 1
ENDMDL
MODEL      129
REMARK 921   NORMALIZED FREE ENERGY PREDICTED BY IDOCK:   -2.35 KCAL/MOL
REMARK 922        TOTAL FREE ENERGY PREDICTED BY IDOCK:   -2.53 KCAL/MOL
REMARK 923 INTER-LIGAND FREE ENERGY PREDICTED BY IDOCK:   -2.47 KCAL/MOL
REMARK 924 INTRA-LIGAND FREE ENERGY PREDICTED BY IDOCK:   -0.06 KCAL/MOL
REMARK 927      BINDING AFFINITY PREDICTED BY RF-SCORE:    0.00 PKD
ROOT
HETATM    1  C   UNL     1      -8.665   5.162  65.030  1.00  0.00    -0.148 C  
HETATM    2  N   UNL     1      -9.301   6.341  65.601  1.00  0.00    -0.376 NA 
HETATM    3  H   UNL     1     -10.143   6.742  65.187  1.00  0.00     0.000 HD 
ENDROOT
BRANCH   2   4
HETATM    4  C   UNL     1      -8.682   6.934  66.802  1.00  0.00    -0.122 C  
HETATM    5  C   UNL     1      -7.276   6.311  67.002  1.00  0.00    -0.075 C  
HETATM    6  C   UNL     1      -8.474   8.478  66.515  1.00  0.00    -0.119 C  
HETATM    7  C   UNL     1      -9.763   9.181  66.038  1.00  0.00    -0.358 C  
HETATM    8  C   UNL     1     -10.631   9.202  67.299  1.00  0.00    -0.303 C  
HETATM    9  C   UNL     1      -9.724   8.545  68.354  1.00  0.00    -0.169 C  
HETATM   10  C   UNL     1      -9.570   6.996  68.133  1.00  0.00    -0.131 C  
HETATM   11  C   UNL     1      -8.357   9.082  67.918  1.00  0.00    -0.117 C  
HETATM   12  C   UNL     1      -8.874   6.389  69.378  1.00  0.00    -0.132 C  
HETATM   13  C   UNL     1     -10.945   6.301  68.059  1.00  0.00    -0.418 C  
ENDBRANCH   2   4
TORSDOF 1
ENDMDL
MODEL      130
REMARK 921   NORMALIZED FREE ENERGY PREDICTED BY IDOCK:   -2.34 KCAL/MOL
REMARK 922        TOTAL FREE ENERGY PREDICTED BY IDOCK:   -2.52 KCAL/MOL
REMARK 923 INTER-LIGAND FREE ENERGY PREDICTED BY IDOCK:   -2.55 KCAL/MOL
REMARK 924 INTRA-LIGAND FREE ENERGY PREDICTED BY IDOCK:    0.02 KCAL/MOL
REMARK 927      BINDING AFFINITY PREDICTED BY RF-SCORE:    0.00 PKD
ROOT
HETATM    1  C   UNL     1      -9.567   9.082  68.080  1.00  0.00    -0.148 C  
HETATM    2  N   UNL     1      -8.988   7.926  68.750  1.00  0.00    -0.141 NA 
HETATM    3  H   UNL     1      -7.981   7.847  68.894  1.00  0.00     0.000 HD 
ENDROOT
BRANCH   2   4
HETATM    4  C   UNL     1      -9.913   6.874  69.213  1.00  0.00    -0.159 C  
HETATM    5  C   UNL     1     -10.977   6.620  68.114  1.00  0.00    -0.323 C  
HETATM    6  C   UNL     1      -9.073   5.540  69.369  1.00  0.00    -0.134 C  
HETATM    7  C   UNL     1      -7.811   5.720  70.240  1.00  0.00    -0.100 C  
HETATM    8  C   UNL     1      -8.387   5.905  71.646  1.00  0.00    -0.127 C  
HETATM    9  C   UNL     1      -9.903   5.770  71.420  1.00  0.00    -0.213 C  
HETATM   10  C   UNL     1     -10.514   7.021  70.690  1.00  0.00    -0.229 C  
HETATM   11  C   UNL     1      -9.926   4.698  70.325  1.00  0.00    -0.309 C  
HETATM   12  C   UNL     1     -12.060   6.916  70.749  1.00  0.00    -0.400 C  
HETATM   13  C   UNL     1     -10.168   8.328  71.431  1.00  0.00    -0.263 C  
ENDBRANCH   2   4
TORSDOF 1
ENDMDL
MODEL      131
REMARK 921   NORMALIZED FREE ENERGY PREDICTED BY IDOCK:   -2.34 KCAL/MOL
REMARK 922        TOTAL FREE ENERGY PREDICTED BY IDOCK:   -2.52 KCAL/MOL
REMARK 923 INTER-LIGAND FREE ENERGY PREDICTED BY IDOCK:   -2.46 KCAL/MOL
REMARK 924 INTRA-LIGAND FREE ENERGY PREDICTED BY IDOCK:   -0.06 KCAL/MOL
REMARK 927      BINDING AFFINITY PREDICTED BY RF-SCORE:    0.00 PKD
ROOT
HETATM    1  C   UNL     1      -7.079   6.002  69.925  1.00  0.00    -0.072 C  
HETATM    2  N   UNL     1      -8.455   6.410  69.681  1.00  0.00    -0.129 NA 
HETATM    3  H   UNL     1      -9.115   5.791  69.211  1.00  0.00     0.000 HD 
ENDROOT
BRANCH   2   4
HETATM    4  C   UNL     1      -8.858   7.754  70.138  1.00  0.00    -0.145 C  
HETATM    5  C   UNL     1      -8.027   8.128  71.393  1.00  0.00    -0.119 C  
HETATM    6  C   UNL     1      -8.470   8.780  68.995  1.00  0.00    -0.130 C  
HETATM    7  C   UNL     1      -9.020   8.376  67.610  1.00  0.00    -0.141 C  
HETATM    8  C   UNL     1     -10.526   8.611  67.757  1.00  0.00    -0.287 C  
HETATM    9  C   UNL     1     -10.654   9.155  69.190  1.00  0.00    -0.224 C  
HETATM   10  C   UNL     1     -10.426   8.043  70.277  1.00  0.00    -0.222 C  
HETATM   11  C   UNL     1      -9.369   9.986  69.287  1.00  0.00    -0.224 C  
HETATM   12  C   UNL     1     -10.837   8.615  71.658  1.00  0.00    -0.374 C  
HETATM   13  C   UNL     1     -11.358   6.835  70.047  1.00  0.00    -0.396 C  
ENDBRANCH   2   4
TORSDOF 1
ENDMDL
MODEL      132
REMARK 921   NORMALIZED FREE ENERGY PREDICTED BY IDOCK:   -2.33 KCAL/MOL
REMARK 922        TOTAL FREE ENERGY PREDICTED BY IDOCK:   -2.51 KCAL/MOL
REMARK 923 INTER-LIGAND FREE ENERGY PREDICTED BY IDOCK:   -2.63 KCAL/MOL
REMARK 924 INTRA-LIGAND FREE ENERGY PREDICTED BY IDOCK:    0.12 KCAL/MOL
REMARK 927      BINDING AFFINITY PREDICTED BY RF-SCORE:    0.00 PKD
ROOT
HETATM    1  C   UNL     1      -9.421  12.236  68.004  1.00  0.00    -0.206 C  
HETATM    2  N   UNL     1      -9.551  11.302  69.114  1.00  0.00    -0.411 NA 
HETATM    3  H   UNL     1     -10.205  11.475  69.878  1.00  0.00     0.000 HD 
ENDROOT
BRANCH   2   4
HETATM    4  C   UNL     1      -8.701  10.097  69.093  1.00  0.00    -0.170 C  
HETATM    5  C   UNL     1      -7.229  10.523  68.851  1.00  0.00    -0.086 C  
HETATM    6  C   UNL     1      -8.768   9.444  70.535  1.00  0.00    -0.276 C  
HETATM    7  C   UNL     1     -10.214   9.207  71.023  1.00  0.00    -0.372 C  
HETATM    8  C   UNL     1     -10.695   8.062  70.128  1.00  0.00    -0.244 C  
HETATM    9  C   UNL     1      -9.460   7.755  69.264  1.00  0.00    -0.155 C  
HETATM   10  C   UNL     1      -9.188   8.869  68.189  1.00  0.00    -0.145 C  
HETATM   11  C   UNL     1      -8.342   7.994  70.284  1.00  0.00    -0.125 C  
HETATM   12  C   UNL     1      -8.108   8.349  67.206  1.00  0.00    -0.105 C  
HETATM   13  C   UNL     1     -10.436   9.126  67.319  1.00  0.00    -0.335 C  
ENDBRANCH   2   4
TORSDOF 1
ENDMDL
MODEL      133
REMARK 921   NORMALIZED FREE ENERGY PREDICTED BY IDOCK:   -2.30 KCAL/MOL
REMARK 922        TOTAL FREE ENERGY PREDICTED BY IDOCK:   -2.48 KCAL/MOL
REMARK 923 INTER-LIGAND FREE ENERGY PREDICTED BY IDOCK:   -2.43 KCAL/MOL
REMARK 924 INTRA-LIGAND FREE ENERGY PREDICTED BY IDOCK:   -0.05 KCAL/MOL
REMARK 927      BINDING AFFINITY PREDICTED BY RF-SCORE:    0.00 PKD
ROOT
HETATM    1  C   UNL     1      -8.849  11.765  67.168  1.00  0.00    -0.173 C  
HETATM    2  N   UNL     1      -8.630  10.449  67.751  1.00  0.00    -0.121 NA 
HETATM    3  H   UNL     1      -7.688  10.098  67.927  1.00  0.00     0.000 HD 
ENDROOT
BRANCH   2   4
HETATM    4  C   UNL     1      -9.820   9.641  68.078  1.00  0.00    -0.150 C  
HETATM    5  C   UNL     1     -11.086  10.522  67.916  1.00  0.00    -0.367 C  
HETATM    6  C   UNL     1      -9.916   8.481  67.002  1.00  0.00    -0.318 C  
HETATM    7  C   UNL     1      -8.605   7.676  66.866  1.00  0.00    -0.123 C  
HETATM    8  C   UNL     1      -8.545   6.893  68.180  1.00  0.00    -0.123 C  
HETATM    9  C   UNL     1      -9.842   7.312  68.893  1.00  0.00    -0.158 C  
HETATM   10  C   UNL     1      -9.781   8.787  69.431  1.00  0.00    -0.172 C  
HETATM   11  C   UNL     1     -10.791   7.432  67.695  1.00  0.00    -0.220 C  
HETATM   12  C   UNL     1     -11.003   9.024  70.355  1.00  0.00    -0.283 C  
HETATM   13  C   UNL     1      -8.547   9.006  70.330  1.00  0.00    -0.215 C  
ENDBRANCH   2   4
TORSDOF 1
ENDMDL
MODEL      134
REMARK 921   NORMALIZED FREE ENERGY PREDICTED BY IDOCK:   -2.30 KCAL/MOL
REMARK 922        TOTAL FREE ENERGY PREDICTED BY IDOCK:   -2.47 KCAL/MOL
REMARK 923 INTER-LIGAND FREE ENERGY PREDICTED BY IDOCK:   -2.42 KCAL/MOL
REMARK 924 INTRA-LIGAND FREE ENERGY PREDICTED BY IDOCK:   -0.06 KCAL/MOL
REMARK 927      BINDING AFFINITY PREDICTED BY RF-SCORE:    0.00 PKD
ROOT
HETATM    1  C   UNL     1      -9.580   2.287  71.269  1.00  0.00    -0.151 C  
HETATM    2  N   UNL     1      -9.628   3.588  70.618  1.00  0.00    -0.180 NA 
HETATM    3  H   UNL     1      -9.516   3.679  69.608  1.00  0.00     0.000 HD 
ENDROOT
BRANCH   2   4
HETATM    4  C   UNL     1      -9.846   4.771  71.473  1.00  0.00    -0.187 C  
HETATM    5  C   UNL     1     -10.658   4.344  72.724  1.00  0.00    -0.254 C  
HETATM    6  C   UNL     1      -8.426   5.257  71.980  1.00  0.00    -0.126 C  
HETATM    7  C   UNL     1      -7.415   5.467  70.831  1.00  0.00    -0.087 C  
HETATM    8  C   UNL     1      -7.951   6.715  70.126  1.00  0.00    -0.112 C  
HETATM    9  C   UNL     1      -9.178   7.094  70.974  1.00  0.00    -0.158 C  
HETATM   10  C   UNL     1     -10.380   6.103  70.764  1.00  0.00    -0.266 C  
HETATM   11  C   UNL     1      -8.674   6.717  72.372  1.00  0.00    -0.131 C  
HETATM   12  C   UNL     1     -11.638   6.709  71.438  1.00  0.00    -0.362 C  
HETATM   13  C   UNL     1     -10.745   5.972  69.271  1.00  0.00    -0.401 C  
ENDBRANCH   2   4
TORSDOF 1
ENDMDL
MODEL      135
REMARK 921   NORMALIZED FREE ENERGY PREDICTED BY IDOCK:   -2.30 KCAL/MOL
REMARK 922        TOTAL FREE ENERGY PREDICTED BY IDOCK:   -2.47 KCAL/MOL
REMARK 923 INTER-LIGAND FREE ENERGY PREDICTED BY IDOCK:   -2.81 KCAL/MOL
REMARK 924 INTRA-LIGAND FREE ENERGY PREDICTED BY IDOCK:    0.34 KCAL/MOL
REMARK 927      BINDING AFFINITY PREDICTED BY RF-SCORE:    0.00 PKD
ROOT
HETATM    1  C   UNL     1     -10.975  16.432  69.298  1.00  0.00    -0.322 C  
HETATM    2  N   UNL     1      -9.705  17.079  69.002  1.00  0.00    -0.245 NA 
HETATM    3  H   UNL     1      -9.053  17.330  69.745  1.00  0.00     0.000 HD 
ENDROOT
BRANCH   2   4
HETATM    4  C   UNL     1      -9.398  17.361  67.586  1.00  0.00    -0.245 C  
HETATM    5  C   UNL     1     -10.436  18.374  67.038  1.00  0.00    -0.429 C  
HETATM    6  C   UNL     1      -7.982  18.070  67.541  1.00  0.00    -0.224 C  
HETATM    7  C   UNL     1      -6.889  17.282  68.297  1.00  0.00    -0.184 C  
HETATM    8  C   UNL     1      -6.666  16.060  67.402  1.00  0.00    -0.224 C  
HETATM    9  C   UNL     1      -7.627  16.310  66.226  1.00  0.00     0.020 C  
HETATM   10  C   UNL     1      -9.133  16.106  66.628  1.00  0.00    -0.282 C  
HETATM   11  C   UNL     1      -7.518  17.834  66.100  1.00  0.00    -0.322 C  
HETATM   12  C   UNL     1      -9.990  16.114  65.336  1.00  0.00    -0.141 C  
HETATM   13  C   UNL     1      -9.362  14.717  67.258  1.00  0.00    -0.212 C  
ENDBRANCH   2   4
TORSDOF 1
ENDMDL
MODEL      136
REMARK 921   NORMALIZED FREE ENERGY PREDICTED BY IDOCK:   -2.29 KCAL/MOL
REMARK 922        TOTAL FREE ENERGY PREDICTED BY IDOCK:   -2.46 KCAL/MOL
REMARK 923 INTER-LIGAND FREE ENERGY PREDICTED BY IDOCK:   -2.41 KCAL/MOL
REMARK 924 INTRA-LIGAND FREE ENERGY PREDICTED BY IDOCK:   -0.06 KCAL/MOL
REMARK 927      BINDING AFFINITY PREDICTED BY RF-SCORE:    0.00 PKD
ROOT
HETATM    1  C   UNL     1      -8.990   8.826  71.920  1.00  0.00    -0.183 C  
HETATM    2  N   UNL     1      -8.777   8.382  70.550  1.00  0.00    -0.140 NA 
HETATM    3  H   UNL     1      -7.864   8.053  70.236  1.00  0.00     0.000 HD 
ENDROOT
BRANCH   2   4
HETATM    4  C   UNL     1      -9.932   8.425  69.632  1.00  0.00    -0.193 C  
HETATM    5  C   UNL     1     -11.237   8.315  70.462  1.00  0.00    -0.247 C  
HETATM    6  C   UNL     1      -9.934   9.850  68.940  1.00  0.00    -0.188 C  
HETATM    7  C   UNL     1      -8.579  10.208  68.292  1.00  0.00    -0.116 C  
HETATM    8  C   UNL     1      -8.515   9.265  67.088  1.00  0.00    -0.124 C  
HETATM    9  C   UNL     1      -9.852   8.509  67.167  1.00  0.00    -0.269 C  
HETATM   10  C   UNL     1      -9.886   7.471  68.347  1.00  0.00    -0.173 C  
HETATM   11  C   UNL     1     -10.771   9.625  67.677  1.00  0.00    -0.324 C  
HETATM   12  C   UNL     1     -11.145   6.582  68.183  1.00  0.00    -0.332 C  
HETATM   13  C   UNL     1      -8.691   6.498  68.272  1.00  0.00    -0.117 C  
ENDBRANCH   2   4
TORSDOF 1
ENDMDL
MODEL      137
REMARK 921   NORMALIZED FREE ENERGY PREDICTED BY IDOCK:   -2.28 KCAL/MOL
REMARK 922        TOTAL FREE ENERGY PREDICTED BY IDOCK:   -2.45 KCAL/MOL
REMARK 923 INTER-LIGAND FREE ENERGY PREDICTED BY IDOCK:   -2.52 KCAL/MOL
REMARK 924 INTRA-LIGAND FREE ENERGY PREDICTED BY IDOCK:    0.06 KCAL/MOL
REMARK 927      BINDING AFFINITY PREDICTED BY RF-SCORE:    0.00 PKD
ROOT
HETATM    1  C   UNL     1      -8.585   7.189  69.231  1.00  0.00    -0.137 C  
HETATM    2  N   UNL     1      -8.446   6.333  70.401  1.00  0.00    -0.132 NA 
HETATM    3  H   UNL     1      -7.581   5.824  70.584  1.00  0.00     0.000 HD 
ENDROOT
BRANCH   2   4
HETATM    4  C   UNL     1      -9.603   6.228  71.310  1.00  0.00    -0.174 C  
HETATM    5  C   UNL     1     -10.885   6.000  70.468  1.00  0.00    -0.382 C  
HETATM    6  C   UNL     1      -9.391   4.935  72.201  1.00  0.00    -0.167 C  
HETATM    7  C   UNL     1      -8.013   4.904  72.900  1.00  0.00    -0.098 C  
HETATM    8  C   UNL     1      -8.139   6.006  73.955  1.00  0.00    -0.103 C  
HETATM    9  C   UNL     1      -9.580   6.510  73.762  1.00  0.00    -0.206 C  
HETATM   10  C   UNL     1      -9.750   7.349  72.444  1.00  0.00    -0.194 C  
HETATM   11  C   UNL     1     -10.288   5.195  73.415  1.00  0.00    -0.242 C  
HETATM   12  C   UNL     1     -11.143   8.030  72.473  1.00  0.00    -0.440 C  
HETATM   13  C   UNL     1      -8.734   8.508  72.382  1.00  0.00    -0.242 C  
ENDBRANCH   2   4
TORSDOF 1
ENDMDL
MODEL      138
REMARK 921   NORMALIZED FREE ENERGY PREDICTED BY IDOCK:   -2.27 KCAL/MOL
REMARK 922        TOTAL FREE ENERGY PREDICTED BY IDOCK:   -2.45 KCAL/MOL
REMARK 923 INTER-LIGAND FREE ENERGY PREDICTED BY IDOCK:   -2.43 KCAL/MOL
REMARK 924 INTRA-LIGAND FREE ENERGY PREDICTED BY IDOCK:   -0.01 KCAL/MOL
REMARK 927      BINDING AFFINITY PREDICTED BY RF-SCORE:    0.00 PKD
ROOT
HETATM    1  C   UNL     1     -10.557  16.529  69.208  1.00  0.00    -0.327 C  
HETATM    2  N   UNL     1      -9.231  15.959  69.405  1.00  0.00    -0.255 NA 
HETATM    3  H   UNL     1      -8.880  15.747  70.340  1.00  0.00     0.000 HD 
ENDROOT
BRANCH   2   4
HETATM    4  C   UNL     1      -8.416  15.699  68.204  1.00  0.00    -0.147 C  
HETATM    5  C   UNL     1      -9.289  14.966  67.152  1.00  0.00    -0.227 C  
HETATM    6  C   UNL     1      -8.020  17.103  67.587  1.00  0.00    -0.187 C  
HETATM    7  C   UNL     1      -7.370  18.053  68.617  1.00  0.00    -0.286 C  
HETATM    8  C   UNL     1      -6.002  17.410  68.861  1.00  0.00    -0.183 C  
HETATM    9  C   UNL     1      -6.015  16.195  67.916  1.00  0.00    -0.147 C  
HETATM   10  C   UNL     1      -6.968  15.052  68.424  1.00  0.00    -0.109 C  
HETATM   11  C   UNL     1      -6.792  16.776  66.730  1.00  0.00    -0.265 C  
HETATM   12  C   UNL     1      -6.712  13.785  67.568  1.00  0.00    -0.131 C  
HETATM   13  C   UNL     1      -6.627  14.639  69.870  1.00  0.00    -0.167 C  
ENDBRANCH   2   4
TORSDOF 1
ENDMDL
MODEL      139
REMARK 921   NORMALIZED FREE ENERGY PREDICTED BY IDOCK:   -2.25 KCAL/MOL
REMARK 922        TOTAL FREE ENERGY PREDICTED BY IDOCK:   -2.43 KCAL/MOL
REMARK 923 INTER-LIGAND FREE ENERGY PREDICTED BY IDOCK:   -2.41 KCAL/MOL
REMARK 924 INTRA-LIGAND FREE ENERGY PREDICTED BY IDOCK:   -0.02 KCAL/MOL
REMARK 927      BINDING AFFINITY PREDICTED BY RF-SCORE:    0.00 PKD
ROOT
HETATM    1  C   UNL     1      -9.454  12.448  68.076  1.00  0.00    -0.208 C  
HETATM    2  N   UNL     1      -9.724  11.020  68.168  1.00  0.00    -0.168 NA 
HETATM    3  H   UNL     1     -10.588  10.670  68.582  1.00  0.00     0.000 HD 
ENDROOT
BRANCH   2   4
HETATM    4  C   UNL     1      -8.699  10.098  67.642  1.00  0.00    -0.121 C  
HETATM    5  C   UNL     1      -7.295  10.669  67.964  1.00  0.00    -0.088 C  
HETATM    6  C   UNL     1      -8.842   8.731  68.430  1.00  0.00    -0.138 C  
HETATM    7  C   UNL     1     -10.282   8.174  68.417  1.00  0.00    -0.240 C  
HETATM    8  C   UNL     1     -10.464   7.728  66.964  1.00  0.00    -0.419 C  
HETATM    9  C   UNL     1      -9.099   8.046  66.329  1.00  0.00    -0.232 C  
HETATM   10  C   UNL     1      -8.874   9.590  66.134  1.00  0.00    -0.177 C  
HETATM   11  C   UNL     1      -8.166   7.718  67.500  1.00  0.00    -0.124 C  
HETATM   12  C   UNL     1      -7.612   9.793  65.255  1.00  0.00    -0.119 C  
HETATM   13  C   UNL     1     -10.029  10.228  65.336  1.00  0.00    -0.371 C  
ENDBRANCH   2   4
TORSDOF 1
ENDMDL
MODEL      140
REMARK 921   NORMALIZED FREE ENERGY PREDICTED BY IDOCK:   -2.22 KCAL/MOL
REMARK 922        TOTAL FREE ENERGY PREDICTED BY IDOCK:   -2.40 KCAL/MOL
REMARK 923 INTER-LIGAND FREE ENERGY PREDICTED BY IDOCK:   -2.34 KCAL/MOL
REMARK 924 INTRA-LIGAND FREE ENERGY PREDICTED BY IDOCK:   -0.06 KCAL/MOL
REMARK 927      BINDING AFFINITY PREDICTED BY RF-SCORE:    0.00 PKD
ROOT
HETATM    1  C   UNL     1     -10.329   6.036  67.449  1.00  0.00    -0.216 C  
HETATM    2  N   UNL     1     -10.447   6.907  68.610  1.00  0.00    -0.186 NA 
HETATM    3  H   UNL     1     -11.242   6.837  69.245  1.00  0.00     0.000 HD 
ENDROOT
BRANCH   2   4
HETATM    4  C   UNL     1      -9.375   7.896  68.832  1.00  0.00    -0.150 C  
HETATM    5  C   UNL     1      -8.456   7.930  67.583  1.00  0.00    -0.127 C  
HETATM    6  C   UNL     1     -10.060   9.320  68.949  1.00  0.00    -0.207 C  
HETATM    7  C   UNL     1     -11.200   9.357  69.990  1.00  0.00    -0.217 C  
HETATM    8  C   UNL     1     -10.453   9.248  71.322  1.00  0.00    -0.408 C  
HETATM    9  C   UNL     1      -8.977   9.201  70.889  1.00  0.00    -0.298 C  
HETATM   10  C   UNL     1      -8.590   7.829  70.226  1.00  0.00    -0.138 C  
HETATM   11  C   UNL     1      -9.009  10.154  69.689  1.00  0.00    -0.190 C  
HETATM   12  C   UNL     1      -7.048   7.775  70.073  1.00  0.00    -0.054 C  
HETATM   13  C   UNL     1      -8.948   6.642  71.144  1.00  0.00    -0.145 C  
ENDBRANCH   2   4
TORSDOF 1
ENDMDL
MODEL      141
REMARK 921   NORMALIZED FREE ENERGY PREDICTED BY IDOCK:   -2.19 KCAL/MOL
REMARK 922        TOTAL FREE ENERGY PREDICTED BY IDOCK:   -2.36 KCAL/MOL
REMARK 923 INTER-LIGAND FREE ENERGY PREDICTED BY IDOCK:   -2.30 KCAL/MOL
REMARK 924 INTRA-LIGAND FREE ENERGY PREDICTED BY IDOCK:   -0.06 KCAL/MOL
REMARK 927      BINDING AFFINITY PREDICTED BY RF-SCORE:    0.00 PKD
ROOT
HETATM    1  C   UNL     1      -8.016   6.109  64.137  1.00  0.00    -0.114 C  
HETATM    2  N   UNL     1      -8.609   7.426  64.318  1.00  0.00    -0.324 NA 
HETATM    3  H   UNL     1      -9.382   7.744  63.733  1.00  0.00     0.000 HD 
ENDROOT
BRANCH   2   4
HETATM    4  C   UNL     1      -8.050   8.285  65.380  1.00  0.00    -0.135 C  
HETATM    5  C   UNL     1      -6.558   7.917  65.591  1.00  0.00    -0.042 C  
HETATM    6  C   UNL     1      -8.094   9.779  64.854  1.00  0.00    -0.140 C  
HETATM    7  C   UNL     1      -9.492  10.200  64.350  1.00  0.00    -0.368 C  
HETATM    8  C   UNL     1     -10.309  10.288  65.641  1.00  0.00    -0.232 C  
HETATM    9  C   UNL     1      -9.277   9.946  66.730  1.00  0.00    -0.176 C  
HETATM   10  C   UNL     1      -8.893   8.422  66.734  1.00  0.00    -0.156 C  
HETATM   11  C   UNL     1      -8.025  10.606  66.142  1.00  0.00    -0.151 C  
HETATM   12  C   UNL     1      -8.070   8.127  68.015  1.00  0.00    -0.128 C  
HETATM   13  C   UNL     1     -10.145   7.528  66.842  1.00  0.00    -0.336 C  
ENDBRANCH   2   4
TORSDOF 1
ENDMDL
MODEL      142
REMARK 921   NORMALIZED FREE ENERGY PREDICTED BY IDOCK:   -2.12 KCAL/MOL
REMARK 922        TOTAL FREE ENERGY PREDICTED BY IDOCK:   -2.29 KCAL/MOL
REMARK 923 INTER-LIGAND FREE ENERGY PREDICTED BY IDOCK:   -2.24 KCAL/MOL
REMARK 924 INTRA-LIGAND FREE ENERGY PREDICTED BY IDOCK:   -0.05 KCAL/MOL
REMARK 927      BINDING AFFINITY PREDICTED BY RF-SCORE:    0.00 PKD
ROOT
HETATM    1  C   UNL     1      -8.756   6.785  68.157  1.00  0.00    -0.122 C  
HETATM    2  N   UNL     1      -8.609   6.984  69.591  1.00  0.00    -0.134 NA 
HETATM    3  H   UNL     1      -7.737   7.333  69.991  1.00  0.00     0.000 HD 
ENDROOT
BRANCH   2   4
HETATM    4  C   UNL     1      -9.768   6.662  70.446  1.00  0.00    -0.175 C  
HETATM    5  C   UNL     1     -11.063   7.135  69.736  1.00  0.00    -0.239 C  
HETATM    6  C   UNL     1      -9.847   5.084  70.563  1.00  0.00    -0.290 C  
HETATM    7  C   UNL     1      -8.514   4.445  71.012  1.00  0.00    -0.105 C  
HETATM    8  C   UNL     1      -8.406   4.872  72.478  1.00  0.00    -0.119 C  
HETATM    9  C   UNL     1      -9.702   5.669  72.704  1.00  0.00    -0.171 C  
HETATM   10  C   UNL     1      -9.678   7.070  71.991  1.00  0.00    -0.166 C  
HETATM   11  C   UNL     1     -10.676   4.867  71.833  1.00  0.00    -0.128 C  
HETATM   12  C   UNL     1     -10.890   7.896  72.492  1.00  0.00    -0.403 C  
HETATM   13  C   UNL     1      -8.435   7.886  72.402  1.00  0.00    -0.189 C  
ENDBRANCH   2   4
TORSDOF 1
ENDMDL
MODEL      143
REMARK 921   NORMALIZED FREE ENERGY PREDICTED BY IDOCK:   -2.10 KCAL/MOL
REMARK 922        TOTAL FREE ENERGY PREDICTED BY IDOCK:   -2.26 KCAL/MOL
REMARK 923 INTER-LIGAND FREE ENERGY PREDICTED BY IDOCK:   -2.20 KCAL/MOL
REMARK 924 INTRA-LIGAND FREE ENERGY PREDICTED BY IDOCK:   -0.06 KCAL/MOL
REMARK 927      BINDING AFFINITY PREDICTED BY RF-SCORE:    0.00 PKD
ROOT
HETATM    1  C   UNL     1     -11.659   6.619  69.793  1.00  0.00    -0.293 C  
HETATM    2  N   UNL     1     -10.728   5.756  70.506  1.00  0.00    -0.286 NA 
HETATM    3  H   UNL     1     -10.518   4.814  70.174  1.00  0.00     0.000 HD 
ENDROOT
BRANCH   2   4
HETATM    4  C   UNL     1     -10.100   6.293  71.729  1.00  0.00    -0.186 C  
HETATM    5  C   UNL     1     -10.943   7.489  72.242  1.00  0.00    -0.307 C  
HETATM    6  C   UNL     1     -10.171   5.161  72.835  1.00  0.00    -0.220 C  
HETATM    7  C   UNL     1      -9.596   3.811  72.353  1.00  0.00    -0.198 C  
HETATM    8  C   UNL     1      -8.093   4.087  72.269  1.00  0.00    -0.086 C  
HETATM    9  C   UNL     1      -7.981   5.545  72.748  1.00  0.00    -0.102 C  
HETATM   10  C   UNL     1      -8.524   6.569  71.685  1.00  0.00    -0.124 C  
HETATM   11  C   UNL     1      -9.073   5.568  73.823  1.00  0.00    -0.123 C  
HETATM   12  C   UNL     1      -8.127   7.999  72.134  1.00  0.00    -0.172 C  
HETATM   13  C   UNL     1      -7.842   6.370  70.316  1.00  0.00    -0.103 C  
ENDBRANCH   2   4
TORSDOF 1
ENDMDL
MODEL      144
REMARK 921   NORMALIZED FREE ENERGY PREDICTED BY IDOCK:   -2.10 KCAL/MOL
REMARK 922        TOTAL FREE ENERGY PREDICTED BY IDOCK:   -2.26 KCAL/MOL
REMARK 923 INTER-LIGAND FREE ENERGY PREDICTED BY IDOCK:   -2.31 KCAL/MOL
REMARK 924 INTRA-LIGAND FREE ENERGY PREDICTED BY IDOCK:    0.05 KCAL/MOL
REMARK 927      BINDING AFFINITY PREDICTED BY RF-SCORE:    0.00 PKD
ROOT
HETATM    1  C   UNL     1      -9.641  10.390  63.935  1.00  0.00    -0.312 C  
HETATM    2  N   UNL     1      -9.262   9.150  64.597  1.00  0.00    -0.441 NA 
HETATM    3  H   UNL     1      -9.543   8.243  64.223  1.00  0.00     0.000 HD 
ENDROOT
BRANCH   2   4
HETATM    4  C   UNL     1      -8.455   9.253  65.828  1.00  0.00    -0.135 C  
HETATM    5  C   UNL     1      -7.178  10.079  65.524  1.00  0.00    -0.133 C  
HETATM    6  C   UNL     1      -9.304  10.075  66.883  1.00  0.00    -0.188 C  
HETATM    7  C   UNL     1     -10.726   9.506  67.087  1.00  0.00    -0.252 C  
HETATM    8  C   UNL     1     -10.467   8.194  67.832  1.00  0.00    -0.259 C  
HETATM    9  C   UNL     1      -8.937   8.186  68.000  1.00  0.00    -0.134 C  
HETATM   10  C   UNL     1      -8.188   7.905  66.647  1.00  0.00    -0.119 C  
HETATM   11  C   UNL     1      -8.675   9.679  68.223  1.00  0.00    -0.120 C  
HETATM   12  C   UNL     1      -6.691   7.649  66.960  1.00  0.00    -0.067 C  
HETATM   13  C   UNL     1      -8.690   6.604  65.988  1.00  0.00    -0.155 C  
ENDBRANCH   2   4
TORSDOF 1
ENDMDL
MODEL      145
REMARK 921   NORMALIZED FREE ENERGY PREDICTED BY IDOCK:   -2.04 KCAL/MOL
REMARK 922        TOTAL FREE ENERGY PREDICTED BY IDOCK:   -2.20 KCAL/MOL
REMARK 923 INTER-LIGAND FREE ENERGY PREDICTED BY IDOCK:   -2.14 KCAL/MOL
REMARK 924 INTRA-LIGAND FREE ENERGY PREDICTED BY IDOCK:   -0.06 KCAL/MOL
REMARK 927      BINDING AFFINITY PREDICTED BY RF-SCORE:    0.00 PKD
ROOT
HETATM    1  C   UNL     1      -8.513   5.449  64.936  1.00  0.00    -0.148 C  
HETATM    2  N   UNL     1      -8.511   5.988  66.289  1.00  0.00    -0.125 NA 
HETATM    3  H   UNL     1      -8.221   5.419  67.085  1.00  0.00     0.000 HD 
ENDROOT
BRANCH   2   4
HETATM    4  C   UNL     1      -8.945   7.387  66.466  1.00  0.00    -0.159 C  
HETATM    5  C   UNL     1      -8.699   8.160  65.145  1.00  0.00    -0.047 C  
HETATM    6  C   UNL     1     -10.510   7.370  66.715  1.00  0.00    -0.316 C  
HETATM    7  C   UNL     1     -10.929   6.413  67.853  1.00  0.00    -0.416 C  
HETATM    8  C   UNL     1     -10.411   7.123  69.106  1.00  0.00    -0.205 C  
HETATM    9  C   UNL     1      -9.793   8.415  68.543  1.00  0.00    -0.186 C  
HETATM   10  C   UNL     1      -8.444   8.151  67.780  1.00  0.00    -0.132 C  
HETATM   11  C   UNL     1     -10.770   8.715  67.402  1.00  0.00    -0.212 C  
HETATM   12  C   UNL     1      -7.769   9.517  67.490  1.00  0.00    -0.095 C  
HETATM   13  C   UNL     1      -7.440   7.384  68.665  1.00  0.00    -0.102 C  
ENDBRANCH   2   4
TORSDOF 1
ENDMDL
MODEL      146
REMARK 921   NORMALIZED FREE ENERGY PREDICTED BY IDOCK:   -1.98 KCAL/MOL
REMARK 922        TOTAL FREE ENERGY PREDICTED BY IDOCK:   -2.13 KCAL/MOL
REMARK 923 INTER-LIGAND FREE ENERGY PREDICTED BY IDOCK:   -2.08 KCAL/MOL
REMARK 924 INTRA-LIGAND FREE ENERGY PREDICTED BY IDOCK:   -0.06 KCAL/MOL
REMARK 927      BINDING AFFINITY PREDICTED BY RF-SCORE:    0.00 PKD
ROOT
HETATM    1  C   UNL     1     -11.044   6.675  67.410  1.00  0.00    -0.320 C  
HETATM    2  N   UNL     1     -10.628   5.517  68.188  1.00  0.00    -0.172 NA 
HETATM    3  H   UNL     1     -11.242   4.711  68.306  1.00  0.00     0.000 HD 
ENDROOT
BRANCH   2   4
HETATM    4  C   UNL     1      -9.286   5.553  68.800  1.00  0.00    -0.125 C  
HETATM    5  C   UNL     1      -8.398   6.544  68.004  1.00  0.00    -0.116 C  
HETATM    6  C   UNL     1      -9.448   6.139  70.263  1.00  0.00    -0.178 C  
HETATM    7  C   UNL     1     -10.518   5.398  71.094  1.00  0.00    -0.295 C  
HETATM    8  C   UNL     1      -9.865   4.040  71.361  1.00  0.00    -0.249 C  
HETATM    9  C   UNL     1      -8.489   4.177  70.687  1.00  0.00    -0.095 C  
HETATM   10  C   UNL     1      -8.585   4.150  69.118  1.00  0.00    -0.112 C  
HETATM   11  C   UNL     1      -8.184   5.650  70.978  1.00  0.00    -0.121 C  
HETATM   12  C   UNL     1      -7.152   4.022  68.541  1.00  0.00    -0.055 C  
HETATM   13  C   UNL     1      -9.334   2.895  68.624  1.00  0.00    -0.239 C  
ENDBRANCH   2   4
TORSDOF 1
ENDMDL
MODEL      147
REMARK 921   NORMALIZED FREE ENERGY PREDICTED BY IDOCK:   -1.95 KCAL/MOL
REMARK 922        TOTAL FREE ENERGY PREDICTED BY IDOCK:   -2.10 KCAL/MOL
REMARK 923 INTER-LIGAND FREE ENERGY PREDICTED BY IDOCK:   -2.04 KCAL/MOL
REMARK 924 INTRA-LIGAND FREE ENERGY PREDICTED BY IDOCK:   -0.06 KCAL/MOL
REMARK 927      BINDING AFFINITY PREDICTED BY RF-SCORE:    0.00 PKD
ROOT
HETATM    1  C   UNL     1      -8.156   7.774  64.999  1.00  0.00    -0.139 C  
HETATM    2  N   UNL     1      -8.690   8.239  66.271  1.00  0.00    -0.143 NA 
HETATM    3  H   UNL     1      -9.198   9.121  66.341  1.00  0.00     0.000 HD 
ENDROOT
BRANCH   2   4
HETATM    4  C   UNL     1      -8.467   7.388  67.455  1.00  0.00    -0.116 C  
HETATM    5  C   UNL     1      -7.201   6.524  67.222  1.00  0.00    -0.078 C  
HETATM    6  C   UNL     1      -8.161   8.347  68.678  1.00  0.00    -0.122 C  
HETATM    7  C   UNL     1      -9.230   9.447  68.864  1.00  0.00    -0.140 C  
HETATM    8  C   UNL     1     -10.445   8.663  69.365  1.00  0.00    -0.224 C  
HETATM    9  C   UNL     1      -9.919   7.219  69.443  1.00  0.00    -0.170 C  
HETATM   10  C   UNL     1      -9.724   6.575  68.023  1.00  0.00    -0.119 C  
HETATM   11  C   UNL     1      -8.478   7.474  69.897  1.00  0.00    -0.138 C  
HETATM   12  C   UNL     1      -9.457   5.058  68.205  1.00  0.00    -0.173 C  
HETATM   13  C   UNL     1     -11.016   6.660  67.185  1.00  0.00    -0.478 C  
ENDBRANCH   2   4
TORSDOF 1
ENDMDL
MODEL      148
REMARK 921   NORMALIZED FREE ENERGY PREDICTED BY IDOCK:   -1.94 KCAL/MOL
REMARK 922        TOTAL FREE ENERGY PREDICTED BY IDOCK:   -2.10 KCAL/MOL
REMARK 923 INTER-LIGAND FREE ENERGY PREDICTED BY IDOCK:   -2.04 KCAL/MOL
REMARK 924 INTRA-LIGAND FREE ENERGY PREDICTED BY IDOCK:   -0.06 KCAL/MOL
REMARK 927      BINDING AFFINITY PREDICTED BY RF-SCORE:    0.00 PKD
ROOT
HETATM    1  C   UNL     1     -11.275   6.144  70.026  1.00  0.00    -0.401 C  
HETATM    2  N   UNL     1     -10.606   6.590  71.240  1.00  0.00    -0.223 NA 
HETATM    3  H   UNL     1     -11.028   7.291  71.849  1.00  0.00     0.000 HD 
ENDROOT
BRANCH   2   4
HETATM    4  C   UNL     1      -9.295   5.991  71.555  1.00  0.00    -0.149 C  
HETATM    5  C   UNL     1      -9.294   4.511  71.089  1.00  0.00    -0.212 C  
HETATM    6  C   UNL     1      -8.206   6.754  70.693  1.00  0.00    -0.120 C  
HETATM    7  C   UNL     1      -8.272   8.288  70.859  1.00  0.00    -0.123 C  
HETATM    8  C   UNL     1      -7.763   8.502  72.287  1.00  0.00    -0.113 C  
HETATM    9  C   UNL     1      -7.430   7.074  72.754  1.00  0.00    -0.084 C  
HETATM   10  C   UNL     1      -8.719   6.217  73.031  1.00  0.00    -0.124 C  
HETATM   11  C   UNL     1      -6.902   6.471  71.447  1.00  0.00    -0.063 C  
HETATM   12  C   UNL     1      -8.294   4.908  73.744  1.00  0.00    -0.105 C  
HETATM   13  C   UNL     1      -9.663   6.929  74.021  1.00  0.00    -0.326 C  
ENDBRANCH   2   4
TORSDOF 1
ENDMDL
MODEL      149
REMARK 921   NORMALIZED FREE ENERGY PREDICTED BY IDOCK:   -1.92 KCAL/MOL
REMARK 922        TOTAL FREE ENERGY PREDICTED BY IDOCK:   -2.08 KCAL/MOL
REMARK 923 INTER-LIGAND FREE ENERGY PREDICTED BY IDOCK:   -2.03 KCAL/MOL
REMARK 924 INTRA-LIGAND FREE ENERGY PREDICTED BY IDOCK:   -0.04 KCAL/MOL
REMARK 927      BINDING AFFINITY PREDICTED BY RF-SCORE:    0.00 PKD
ROOT
HETATM    1  C   UNL     1      -8.187   8.261  65.017  1.00  0.00    -0.158 C  
HETATM    2  N   UNL     1      -8.890   8.208  66.291  1.00  0.00    -0.155 NA 
HETATM    3  H   UNL     1      -9.722   7.630  66.413  1.00  0.00     0.000 HD 
ENDROOT
BRANCH   2   4
HETATM    4  C   UNL     1      -8.354   9.022  67.399  1.00  0.00    -0.112 C  
HETATM    5  C   UNL     1      -6.807   8.915  67.399  1.00  0.00    -0.070 C  
HETATM    6  C   UNL     1      -8.719  10.534  67.095  1.00  0.00    -0.130 C  
HETATM    7  C   UNL     1     -10.222  10.745  66.805  1.00  0.00    -0.279 C  
HETATM    8  C   UNL     1     -10.870  10.525  68.174  1.00  0.00    -0.300 C  
HETATM    9  C   UNL     1      -9.664  10.253  69.090  1.00  0.00    -0.229 C  
HETATM   10  C   UNL     1      -9.028   8.838  68.839  1.00  0.00    -0.134 C  
HETATM   11  C   UNL     1      -8.629  11.199  68.472  1.00  0.00    -0.157 C  
HETATM   12  C   UNL     1      -8.010   8.550  69.973  1.00  0.00    -0.109 C  
HETATM   13  C   UNL     1     -10.085   7.720  68.951  1.00  0.00    -0.201 C  
ENDBRANCH   2   4
TORSDOF 1
ENDMDL
MODEL      150
REMARK 921   NORMALIZED FREE ENERGY PREDICTED BY IDOCK:   -1.89 KCAL/MOL
REMARK 922        TOTAL FREE ENERGY PREDICTED BY IDOCK:   -2.04 KCAL/MOL
REMARK 923 INTER-LIGAND FREE ENERGY PREDICTED BY IDOCK:   -2.06 KCAL/MOL
REMARK 924 INTRA-LIGAND FREE ENERGY PREDICTED BY IDOCK:    0.02 KCAL/MOL
REMARK 927      BINDING AFFINITY PREDICTED BY RF-SCORE:    0.00 PKD
ROOT
HETATM    1  C   UNL     1      -6.718   6.380  70.314  1.00  0.00    -0.053 C  
HETATM    2  N   UNL     1      -7.328   6.725  69.038  1.00  0.00    -0.091 NA 
HETATM    3  H   UNL     1      -6.882   7.385  68.400  1.00  0.00     0.000 HD 
ENDROOT
BRANCH   2   4
HETATM    4  C   UNL     1      -8.613   6.084  68.701  1.00  0.00    -0.112 C  
HETATM    5  C   UNL     1      -8.466   4.548  68.861  1.00  0.00    -0.093 C  
HETATM    6  C   UNL     1      -9.678   6.566  69.771  1.00  0.00    -0.170 C  
HETATM    7  C   UNL     1      -9.738   8.103  69.911  1.00  0.00    -0.176 C  
HETATM    8  C   UNL     1     -10.382   8.543  68.594  1.00  0.00    -0.224 C  
HETATM    9  C   UNL     1     -10.649   7.208  67.875  1.00  0.00    -0.269 C  
HETATM   10  C   UNL     1      -9.329   6.540  67.344  1.00  0.00    -0.125 C  
HETATM   11  C   UNL     1     -11.017   6.320  69.069  1.00  0.00    -0.437 C  
HETATM   12  C   UNL     1      -9.717   5.361  66.415  1.00  0.00    -0.183 C  
HETATM   13  C   UNL     1      -8.528   7.511  66.453  1.00  0.00    -0.131 C  
ENDBRANCH   2   4
TORSDOF 1
ENDMDL
MODEL      151
REMARK 921   NORMALIZED FREE ENERGY PREDICTED BY IDOCK:   -1.88 KCAL/MOL
REMARK 922        TOTAL FREE ENERGY PREDICTED BY IDOCK:   -2.03 KCAL/MOL
REMARK 923 INTER-LIGAND FREE ENERGY PREDICTED BY IDOCK:   -1.97 KCAL/MOL
REMARK 924 INTRA-LIGAND FREE ENERGY PREDICTED BY IDOCK:   -0.06 KCAL/MOL
REMARK 927      BINDING AFFINITY PREDICTED BY RF-SCORE:    0.00 PKD
ROOT
HETATM    1  C   UNL     1     -10.426   7.973  67.178  1.00  0.00    -0.338 C  
HETATM    2  N   UNL     1      -9.291   8.879  67.074  1.00  0.00    -0.146 NA 
HETATM    3  H   UNL     1      -8.605   8.784  66.325  1.00  0.00     0.000 HD 
ENDROOT
BRANCH   2   4
HETATM    4  C   UNL     1      -9.169   9.938  68.094  1.00  0.00    -0.128 C  
HETATM    5  C   UNL     1     -10.003   9.537  69.338  1.00  0.00    -0.199 C  
HETATM    6  C   UNL     1      -7.651   9.990  68.545  1.00  0.00    -0.087 C  
HETATM    7  C   UNL     1      -6.673  10.120  67.356  1.00  0.00    -0.073 C  
HETATM    8  C   UNL     1      -6.914  11.551  66.869  1.00  0.00    -0.134 C  
HETATM    9  C   UNL     1      -7.969  12.082  67.855  1.00  0.00    -0.147 C  
HETATM   10  C   UNL     1      -9.388  11.450  67.613  1.00  0.00    -0.159 C  
HETATM   11  C   UNL     1      -7.512  11.393  69.146  1.00  0.00    -0.057 C  
HETATM   12  C   UNL     1     -10.424  12.232  68.461  1.00  0.00    -0.248 C  
HETATM   13  C   UNL     1      -9.841  11.633  66.150  1.00  0.00    -0.250 C  
ENDBRANCH   2   4
TORSDOF 1
ENDMDL
MODEL      152
REMARK 921   NORMALIZED FREE ENERGY PREDICTED BY IDOCK:   -1.86 KCAL/MOL
REMARK 922        TOTAL FREE ENERGY PREDICTED BY IDOCK:   -2.01 KCAL/MOL
REMARK 923 INTER-LIGAND FREE ENERGY PREDICTED BY IDOCK:   -1.97 KCAL/MOL
REMARK 924 INTRA-LIGAND FREE ENERGY PREDICTED BY IDOCK:   -0.04 KCAL/MOL
REMARK 927      BINDING AFFINITY PREDICTED BY RF-SCORE:    0.00 PKD
ROOT
HETATM    1  C   UNL     1      -8.226   6.369  70.613  1.00  0.00    -0.125 C  
HETATM    2  N   UNL     1      -9.117   6.336  69.462  1.00  0.00    -0.137 NA 
HETATM    3  H   UNL     1     -10.066   5.970  69.538  1.00  0.00     0.000 HD 
ENDROOT
BRANCH   2   4
HETATM    4  C   UNL     1      -8.595   6.850  68.182  1.00  0.00    -0.123 C  
HETATM    5  C   UNL     1      -7.793   8.150  68.451  1.00  0.00    -0.118 C  
HETATM    6  C   UNL     1      -7.573   5.777  67.621  1.00  0.00    -0.089 C  
HETATM    7  C   UNL     1      -8.171   4.354  67.552  1.00  0.00    -0.099 C  
HETATM    8  C   UNL     1      -9.184   4.463  66.409  1.00  0.00    -0.142 C  
HETATM    9  C   UNL     1      -9.020   5.918  65.937  1.00  0.00    -0.149 C  
HETATM   10  C   UNL     1      -9.621   6.951  66.957  1.00  0.00    -0.197 C  
HETATM   11  C   UNL     1      -7.510   6.101  66.125  1.00  0.00    -0.085 C  
HETATM   12  C   UNL     1      -9.653   8.346  66.282  1.00  0.00    -0.286 C  
HETATM   13  C   UNL     1     -11.093   6.626  67.283  1.00  0.00    -0.418 C  
ENDBRANCH   2   4
TORSDOF 1
ENDMDL
MODEL      153
REMARK 921   NORMALIZED FREE ENERGY PREDICTED BY IDOCK:   -1.85 KCAL/MOL
REMARK 922        TOTAL FREE ENERGY PREDICTED BY IDOCK:   -2.00 KCAL/MOL
REMARK 923 INTER-LIGAND FREE ENERGY PREDICTED BY IDOCK:   -1.94 KCAL/MOL
REMARK 924 INTRA-LIGAND FREE ENERGY PREDICTED BY IDOCK:   -0.06 KCAL/MOL
REMARK 927      BINDING AFFINITY PREDICTED BY RF-SCORE:    0.00 PKD
ROOT
HETATM    1  C   UNL     1      -9.076  10.391  68.176  1.00  0.00    -0.142 C  
HETATM    2  N   UNL     1      -8.463   9.076  68.307  1.00  0.00    -0.128 NA 
HETATM    3  H   UNL     1      -7.486   8.973  68.585  1.00  0.00     0.000 HD 
ENDROOT
BRANCH   2   4
HETATM    4  C   UNL     1      -9.306   7.900  68.020  1.00  0.00    -0.145 C  
HETATM    5  C   UNL     1     -10.655   8.381  67.427  1.00  0.00    -0.313 C  
HETATM    6  C   UNL     1      -8.575   7.055  66.897  1.00  0.00    -0.120 C  
HETATM    7  C   UNL     1      -7.106   6.729  67.247  1.00  0.00    -0.080 C  
HETATM    8  C   UNL     1      -7.242   5.709  68.380  1.00  0.00    -0.075 C  
HETATM    9  C   UNL     1      -8.765   5.544  68.518  1.00  0.00    -0.105 C  
HETATM   10  C   UNL     1      -9.448   6.799  69.174  1.00  0.00    -0.141 C  
HETATM   11  C   UNL     1      -9.190   5.661  67.050  1.00  0.00    -0.117 C  
HETATM   12  C   UNL     1     -10.916   6.437  69.515  1.00  0.00    -0.421 C  
HETATM   13  C   UNL     1      -8.794   7.151  70.526  1.00  0.00    -0.154 C  
ENDBRANCH   2   4
TORSDOF 1
ENDMDL
MODEL      154
REMARK 921   NORMALIZED FREE ENERGY PREDICTED BY IDOCK:   -1.81 KCAL/MOL
REMARK 922        TOTAL FREE ENERGY PREDICTED BY IDOCK:   -1.96 KCAL/MOL
REMARK 923 INTER-LIGAND FREE ENERGY PREDICTED BY IDOCK:   -1.91 KCAL/MOL
REMARK 924 INTRA-LIGAND FREE ENERGY PREDICTED BY IDOCK:   -0.06 KCAL/MOL
REMARK 927      BINDING AFFINITY PREDICTED BY RF-SCORE:    0.00 PKD
ROOT
HETATM    1  C   UNL     1      -8.877   7.365  71.458  1.00  0.00    -0.124 C  
HETATM    2  N   UNL     1      -8.883   6.578  70.233  1.00  0.00    -0.150 NA 
HETATM    3  H   UNL     1      -8.596   5.599  70.231  1.00  0.00     0.000 HD 
ENDROOT
BRANCH   2   4
HETATM    4  C   UNL     1      -9.321   7.249  68.994  1.00  0.00    -0.148 C  
HETATM    5  C   UNL     1     -10.423   8.282  69.344  1.00  0.00    -0.224 C  
HETATM    6  C   UNL     1      -8.081   8.059  68.431  1.00  0.00    -0.122 C  
HETATM    7  C   UNL     1      -6.811   7.192  68.283  1.00  0.00    -0.074 C  
HETATM    8  C   UNL     1      -7.157   6.273  67.108  1.00  0.00    -0.073 C  
HETATM    9  C   UNL     1      -8.563   6.747  66.700  1.00  0.00    -0.123 C  
HETATM   10  C   UNL     1      -9.665   6.320  67.737  1.00  0.00    -0.122 C  
HETATM   11  C   UNL     1      -8.432   8.253  66.952  1.00  0.00    -0.118 C  
HETATM   12  C   UNL     1     -11.058   6.599  67.115  1.00  0.00    -0.427 C  
HETATM   13  C   UNL     1      -9.634   4.799  67.993  1.00  0.00    -0.199 C  
ENDBRANCH   2   4
TORSDOF 1
ENDMDL
MODEL      155
REMARK 921   NORMALIZED FREE ENERGY PREDICTED BY IDOCK:   -1.79 KCAL/MOL
REMARK 922        TOTAL FREE ENERGY PREDICTED BY IDOCK:   -1.94 KCAL/MOL
REMARK 923 INTER-LIGAND FREE ENERGY PREDICTED BY IDOCK:   -1.88 KCAL/MOL
REMARK 924 INTRA-LIGAND FREE ENERGY PREDICTED BY IDOCK:   -0.06 KCAL/MOL
REMARK 927      BINDING AFFINITY PREDICTED BY RF-SCORE:    0.00 PKD
ROOT
HETATM    1  C   UNL     1     -10.699   9.567  67.378  1.00  0.00    -0.227 C  
HETATM    2  N   UNL     1     -10.388   8.245  67.902  1.00  0.00    -0.232 NA 
HETATM    3  H   UNL     1     -11.055   7.736  68.483  1.00  0.00     0.000 HD 
ENDROOT
BRANCH   2   4
HETATM    4  C   UNL     1      -9.073   7.669  67.562  1.00  0.00    -0.125 C  
HETATM    5  C   UNL     1      -8.244   8.728  66.790  1.00  0.00    -0.108 C  
HETATM    6  C   UNL     1      -8.315   7.381  68.923  1.00  0.00    -0.129 C  
HETATM    7  C   UNL     1      -9.152   6.543  69.914  1.00  0.00    -0.143 C  
HETATM    8  C   UNL     1      -9.175   5.159  69.259  1.00  0.00    -0.151 C  
HETATM    9  C   UNL     1      -8.320   5.359  67.995  1.00  0.00    -0.098 C  
HETATM   10  C   UNL     1      -9.058   6.211  66.900  1.00  0.00    -0.129 C  
HETATM   11  C   UNL     1      -7.266   6.337  68.526  1.00  0.00    -0.085 C  
HETATM   12  C   UNL     1      -8.243   6.130  65.584  1.00  0.00    -0.141 C  
HETATM   13  C   UNL     1     -10.438   5.612  66.559  1.00  0.00    -0.309 C  
ENDBRANCH   2   4
TORSDOF 1
ENDMDL
MODEL      156
REMARK 921   NORMALIZED FREE ENERGY PREDICTED BY IDOCK:   -1.77 KCAL/MOL
REMARK 922        TOTAL FREE ENERGY PREDICTED BY IDOCK:   -1.92 KCAL/MOL
REMARK 923 INTER-LIGAND FREE ENERGY PREDICTED BY IDOCK:   -1.85 KCAL/MOL
REMARK 924 INTRA-LIGAND FREE ENERGY PREDICTED BY IDOCK:   -0.06 KCAL/MOL
REMARK 927      BINDING AFFINITY PREDICTED BY RF-SCORE:    0.00 PKD
ROOT
HETATM    1  C   UNL     1     -11.158   7.258  66.890  1.00  0.00     0.119 C  
HETATM    2  N   UNL     1     -10.734   6.923  68.242  1.00  0.00    -0.315 NA 
HETATM    3  H   UNL     1     -11.013   6.046  68.683  1.00  0.00     0.000 HD 
ENDROOT
BRANCH   2   4
HETATM    4  C   UNL     1      -9.886   7.900  68.952  1.00  0.00    -0.173 C  
HETATM    5  C   UNL     1     -10.171   9.316  68.388  1.00  0.00    -0.231 C  
HETATM    6  C   UNL     1     -10.334   7.902  70.471  1.00  0.00    -0.205 C  
HETATM    7  C   UNL     1     -10.355   6.489  71.095  1.00  0.00    -0.237 C  
HETATM    8  C   UNL     1      -8.868   6.137  71.198  1.00  0.00    -0.139 C  
HETATM    9  C   UNL     1      -8.174   7.400  70.658  1.00  0.00    -0.112 C  
HETATM   10  C   UNL     1      -8.331   7.551  69.101  1.00  0.00    -0.135 C  
HETATM   11  C   UNL     1      -9.116   8.484  71.195  1.00  0.00    -0.238 C  
HETATM   12  C   UNL     1      -7.387   8.684  68.621  1.00  0.00    -0.081 C  
HETATM   13  C   UNL     1      -7.850   6.284  68.364  1.00  0.00    -0.105 C  
ENDBRANCH   2   4
TORSDOF 1
ENDMDL
MODEL      157
REMARK 921   NORMALIZED FREE ENERGY PREDICTED BY IDOCK:   -1.72 KCAL/MOL
REMARK 922        TOTAL FREE ENERGY PREDICTED BY IDOCK:   -1.86 KCAL/MOL
REMARK 923 INTER-LIGAND FREE ENERGY PREDICTED BY IDOCK:   -1.80 KCAL/MOL
REMARK 924 INTRA-LIGAND FREE ENERGY PREDICTED BY IDOCK:   -0.06 KCAL/MOL
REMARK 927      BINDING AFFINITY PREDICTED BY RF-SCORE:    0.00 PKD
ROOT
HETATM    1  C   UNL     1     -10.883  15.450  65.836  1.00  0.00    -0.325 C  
HETATM    2  N   UNL     1     -10.194  14.532  66.731  1.00  0.00    -0.262 NA 
HETATM    3  H   UNL     1      -9.882  14.828  67.656  1.00  0.00     0.000 HD 
ENDROOT
BRANCH   2   4
HETATM    4  C   UNL     1      -9.962  13.156  66.250  1.00  0.00    -0.285 C  
HETATM    5  C   UNL     1     -10.163  13.121  64.713  1.00  0.00    -0.321 C  
HETATM    6  C   UNL     1      -8.443  12.805  66.531  1.00  0.00     0.151 C  
HETATM    7  C   UNL     1      -8.028  13.056  67.998  1.00  0.00    -0.155 C  
HETATM    8  C   UNL     1      -8.761  11.948  68.757  1.00  0.00     0.056 C  
HETATM    9  C   UNL     1      -9.476  11.173  67.636  1.00  0.00    -0.173 C  
HETATM   10  C   UNL     1     -10.692  11.969  67.038  1.00  0.00    -0.280 C  
HETATM   11  C   UNL     1      -8.429  11.273  66.520  1.00  0.00    -0.171 C  
HETATM   12  C   UNL     1     -11.500  11.015  66.121  1.00  0.00     0.373 C  
HETATM   13  C   UNL     1     -11.678  12.400  68.143  1.00  0.00    -0.408 C  
ENDBRANCH   2   4
TORSDOF 1
ENDMDL
MODEL      158
REMARK 921   NORMALIZED FREE ENERGY PREDICTED BY IDOCK:   -1.72 KCAL/MOL
REMARK 922        TOTAL FREE ENERGY PREDICTED BY IDOCK:   -1.86 KCAL/MOL
REMARK 923 INTER-LIGAND FREE ENERGY PREDICTED BY IDOCK:   -1.85 KCAL/MOL
REMARK 924 INTRA-LIGAND FREE ENERGY PREDICTED BY IDOCK:   -0.01 KCAL/MOL
REMARK 927      BINDING AFFINITY PREDICTED BY RF-SCORE:    0.00 PKD
ROOT
HETATM    1  C   UNL     1      -8.984  13.691  68.225  1.00  0.00    -0.187 C  
HETATM    2  N   UNL     1      -8.636  12.669  67.248  1.00  0.00    -0.188 NA 
HETATM    3  H   UNL     1      -8.333  12.918  66.306  1.00  0.00     0.000 HD 
ENDROOT
BRANCH   2   4
HETATM    4  C   UNL     1      -8.736  11.259  67.672  1.00  0.00    -0.131 C  
HETATM    5  C   UNL     1      -8.030  11.095  69.042  1.00  0.00    -0.087 C  
HETATM    6  C   UNL     1     -10.272  10.940  67.895  1.00  0.00    -0.205 C  
HETATM    7  C   UNL     1     -11.148  11.315  66.679  1.00  0.00    -0.299 C  
HETATM    8  C   UNL     1     -10.750  10.270  65.634  1.00  0.00     0.082 C  
HETATM    9  C   UNL     1      -9.725   9.401  66.384  1.00  0.00    -0.315 C  
HETATM   10  C   UNL     1      -8.353  10.139  66.594  1.00  0.00    -0.123 C  
HETATM   11  C   UNL     1     -10.331   9.412  67.792  1.00  0.00    -0.291 C  
HETATM   12  C   UNL     1      -7.315   9.107  67.107  1.00  0.00    -0.087 C  
HETATM   13  C   UNL     1      -7.784  10.656  65.257  1.00  0.00    -0.021 C  
ENDBRANCH   2   4
TORSDOF 1
ENDMDL
MODEL      159
REMARK 921   NORMALIZED FREE ENERGY PREDICTED BY IDOCK:   -1.69 KCAL/MOL
REMARK 922        TOTAL FREE ENERGY PREDICTED BY IDOCK:   -1.83 KCAL/MOL
REMARK 923 INTER-LIGAND FREE ENERGY PREDICTED BY IDOCK:   -1.80 KCAL/MOL
REMARK 924 INTRA-LIGAND FREE ENERGY PREDICTED BY IDOCK:   -0.03 KCAL/MOL
REMARK 927      BINDING AFFINITY PREDICTED BY RF-SCORE:    0.00 PKD
ROOT
HETATM    1  C   UNL     1      -8.892  10.823  65.812  1.00  0.00    -0.188 C  
HETATM    2  N   UNL     1      -8.141  10.049  66.791  1.00  0.00    -0.117 NA 
HETATM    3  H   UNL     1      -7.498   9.312  66.502  1.00  0.00     0.000 HD 
ENDROOT
BRANCH   2   4
HETATM    4  C   UNL     1      -8.347  10.370  68.216  1.00  0.00    -0.119 C  
HETATM    5  C   UNL     1      -8.339  11.911  68.390  1.00  0.00    -0.157 C  
HETATM    6  C   UNL     1      -9.794   9.861  68.613  1.00  0.00    -0.168 C  
HETATM    7  C   UNL     1     -10.035   8.381  68.241  1.00  0.00    -0.214 C  
HETATM    8  C   UNL     1      -9.145   7.629  69.234  1.00  0.00    -0.145 C  
HETATM    9  C   UNL     1      -8.532   8.760  70.078  1.00  0.00    -0.133 C  
HETATM   10  C   UNL     1      -7.452   9.582  69.284  1.00  0.00    -0.078 C  
HETATM   11  C   UNL     1      -9.715   9.733  70.137  1.00  0.00    -0.299 C  
HETATM   12  C   UNL     1      -6.709  10.507  70.282  1.00  0.00    -0.127 C  
HETATM   13  C   UNL     1      -6.363   8.659  68.700  1.00  0.00    -0.053 C  
ENDBRANCH   2   4
TORSDOF 1
ENDMDL
MODEL      160
REMARK 921   NORMALIZED FREE ENERGY PREDICTED BY IDOCK:   -1.69 KCAL/MOL
REMARK 922        TOTAL FREE ENERGY PREDICTED BY IDOCK:   -1.83 KCAL/MOL
REMARK 923 INTER-LIGAND FREE ENERGY PREDICTED BY IDOCK:   -1.84 KCAL/MOL
REMARK 924 INTRA-LIGAND FREE ENERGY PREDICTED BY IDOCK:    0.01 KCAL/MOL
REMARK 927      BINDING AFFINITY PREDICTED BY RF-SCORE:    0.00 PKD
ROOT
HETATM    1  C   UNL     1      -8.066   5.805  62.611  1.00  0.00    -0.108 C  
HETATM    2  N   UNL     1      -8.468   7.144  63.019  1.00  0.00    -0.351 NA 
HETATM    3  H   UNL     1      -9.038   7.733  62.412  1.00  0.00     0.000 HD 
ENDROOT
BRANCH   2   4
HETATM    4  C   UNL     1      -8.018   7.617  64.342  1.00  0.00    -0.123 C  
HETATM    5  C   UNL     1      -8.366   6.542  65.405  1.00  0.00    -0.140 C  
HETATM    6  C   UNL     1      -6.439   7.733  64.293  1.00  0.00    -0.056 C  
HETATM    7  C   UNL     1      -5.933   8.573  63.100  1.00  0.00    -0.078 C  
HETATM    8  C   UNL     1      -6.349   9.996  63.481  1.00  0.00    -0.130 C  
HETATM    9  C   UNL     1      -7.007   9.808  64.859  1.00  0.00    -0.124 C  
HETATM   10  C   UNL     1      -8.413   9.110  64.763  1.00  0.00    -0.194 C  
HETATM   11  C   UNL     1      -6.122   8.699  65.439  1.00  0.00    -0.049 C  
HETATM   12  C   UNL     1      -9.105   9.208  66.146  1.00  0.00    -0.234 C  
HETATM   13  C   UNL     1      -9.345   9.860  63.790  1.00  0.00    -0.250 C  
ENDBRANCH   2   4
TORSDOF 1
ENDMDL
MODEL      161
REMARK 921   NORMALIZED FREE ENERGY PREDICTED BY IDOCK:   -1.68 KCAL/MOL
REMARK 922        TOTAL FREE ENERGY PREDICTED BY IDOCK:   -1.82 KCAL/MOL
REMARK 923 INTER-LIGAND FREE ENERGY PREDICTED BY IDOCK:   -1.81 KCAL/MOL
REMARK 924 INTRA-LIGAND FREE ENERGY PREDICTED BY IDOCK:   -0.01 KCAL/MOL
REMARK 927      BINDING AFFINITY PREDICTED BY RF-SCORE:    0.00 PKD
ROOT
HETATM    1  C   UNL     1      -8.053   6.260  62.558  1.00  0.00    -0.097 C  
HETATM    2  N   UNL     1      -8.508   7.102  63.656  1.00  0.00    -0.334 NA 
HETATM    3  H   UNL     1      -9.289   7.747  63.540  1.00  0.00     0.000 HD 
ENDROOT
BRANCH   2   4
HETATM    4  C   UNL     1      -7.795   6.987  64.943  1.00  0.00    -0.126 C  
HETATM    5  C   UNL     1      -6.279   6.819  64.665  1.00  0.00    -0.036 C  
HETATM    6  C   UNL     1      -7.981   8.359  65.712  1.00  0.00    -0.108 C  
HETATM    7  C   UNL     1      -9.460   8.790  65.828  1.00  0.00    -0.239 C  
HETATM    8  C   UNL     1     -10.034   7.780  66.825  1.00  0.00    -0.331 C  
HETATM    9  C   UNL     1      -8.813   6.919  67.190  1.00  0.00    -0.120 C  
HETATM   10  C   UNL     1      -8.384   5.960  66.021  1.00  0.00    -0.128 C  
HETATM   11  C   UNL     1      -7.709   7.982  67.172  1.00  0.00    -0.101 C  
HETATM   12  C   UNL     1      -7.336   4.958  66.568  1.00  0.00    -0.082 C  
HETATM   13  C   UNL     1      -9.567   5.090  65.547  1.00  0.00    -0.105 C  
ENDBRANCH   2   4
TORSDOF 1
ENDMDL
MODEL      162
REMARK 921   NORMALIZED FREE ENERGY PREDICTED BY IDOCK:   -1.65 KCAL/MOL
REMARK 922        TOTAL FREE ENERGY PREDICTED BY IDOCK:   -1.79 KCAL/MOL
REMARK 923 INTER-LIGAND FREE ENERGY PREDICTED BY IDOCK:   -1.78 KCAL/MOL
REMARK 924 INTRA-LIGAND FREE ENERGY PREDICTED BY IDOCK:   -0.01 KCAL/MOL
REMARK 927      BINDING AFFINITY PREDICTED BY RF-SCORE:    0.00 PKD
ROOT
HETATM    1  C   UNL     1      -9.450  12.433  66.418  1.00  0.00    -0.240 C  
HETATM    2  N   UNL     1      -8.808  11.612  67.434  1.00  0.00    -0.156 NA 
HETATM    3  H   UNL     1      -8.731  11.930  68.401  1.00  0.00     0.000 HD 
ENDROOT
BRANCH   2   4
HETATM    4  C   UNL     1      -8.271  10.303  67.015  1.00  0.00    -0.122 C  
HETATM    5  C   UNL     1      -7.632  10.449  65.609  1.00  0.00    -0.150 C  
HETATM    6  C   UNL     1      -7.108   9.924  68.021  1.00  0.00    -0.082 C  
HETATM    7  C   UNL     1      -7.542  10.000  69.501  1.00  0.00    -0.133 C  
HETATM    8  C   UNL     1      -8.493   8.809  69.643  1.00  0.00    -0.129 C  
HETATM    9  C   UNL     1      -8.460   8.171  68.243  1.00  0.00    -0.130 C  
HETATM   10  C   UNL     1      -9.229   9.031  67.174  1.00  0.00    -0.164 C  
HETATM   11  C   UNL     1      -6.993   8.403  67.866  1.00  0.00    -0.078 C  
HETATM   12  C   UNL     1      -9.372   8.190  65.880  1.00  0.00    -0.126 C  
HETATM   13  C   UNL     1     -10.673   9.327  67.626  1.00  0.00    -0.276 C  
ENDBRANCH   2   4
TORSDOF 1
ENDMDL
MODEL      163
REMARK 921   NORMALIZED FREE ENERGY PREDICTED BY IDOCK:   -1.59 KCAL/MOL
REMARK 922        TOTAL FREE ENERGY PREDICTED BY IDOCK:   -1.72 KCAL/MOL
REMARK 923 INTER-LIGAND FREE ENERGY PREDICTED BY IDOCK:   -1.66 KCAL/MOL
REMARK 924 INTRA-LIGAND FREE ENERGY PREDICTED BY IDOCK:   -0.06 KCAL/MOL
REMARK 927      BINDING AFFINITY PREDICTED BY RF-SCORE:    0.00 PKD
ROOT
HETATM    1  C   UNL     1     -10.407   7.696  69.031  1.00  0.00    -0.213 C  
HETATM    2  N   UNL     1     -10.026   6.291  69.087  1.00  0.00    -0.145 NA 
HETATM    3  H   UNL     1     -10.633   5.596  69.522  1.00  0.00     0.000 HD 
ENDROOT
BRANCH   2   4
HETATM    4  C   UNL     1      -8.731   5.912  68.492  1.00  0.00    -0.112 C  
HETATM    5  C   UNL     1      -7.836   7.174  68.390  1.00  0.00    -0.122 C  
HETATM    6  C   UNL     1      -8.021   4.914  69.498  1.00  0.00    -0.070 C  
HETATM    7  C   UNL     1      -8.920   3.725  69.902  1.00  0.00    -0.166 C  
HETATM    8  C   UNL     1      -8.989   2.895  68.618  1.00  0.00    -0.191 C  
HETATM    9  C   UNL     1      -8.094   3.683  67.646  1.00  0.00    -0.085 C  
HETATM   10  C   UNL     1      -8.765   5.020  67.163  1.00  0.00    -0.103 C  
HETATM   11  C   UNL     1      -7.011   4.181  68.609  1.00  0.00    -0.048 C  
HETATM   12  C   UNL     1      -7.921   5.600  65.999  1.00  0.00    -0.106 C  
HETATM   13  C   UNL     1     -10.161   4.761  66.561  1.00  0.00    -0.294 C  
ENDBRANCH   2   4
TORSDOF 1
ENDMDL
MODEL      164
REMARK 921   NORMALIZED FREE ENERGY PREDICTED BY IDOCK:   -1.56 KCAL/MOL
REMARK 922        TOTAL FREE ENERGY PREDICTED BY IDOCK:   -1.70 KCAL/MOL
REMARK 923 INTER-LIGAND FREE ENERGY PREDICTED BY IDOCK:   -1.64 KCAL/MOL
REMARK 924 INTRA-LIGAND FREE ENERGY PREDICTED BY IDOCK:   -0.06 KCAL/MOL
REMARK 927      BINDING AFFINITY PREDICTED BY RF-SCORE:    0.00 PKD
ROOT
HETATM    1  C   UNL     1      -9.268   5.889  66.964  1.00  0.00    -0.119 C  
HETATM    2  N   UNL     1      -9.443   6.527  68.261  1.00  0.00    -0.120 NA 
HETATM    3  H   UNL     1      -9.749   7.497  68.337  1.00  0.00     0.000 HD 
ENDROOT
BRANCH   2   4
HETATM    4  C   UNL     1      -9.163   5.717  69.462  1.00  0.00    -0.129 C  
HETATM    5  C   UNL     1      -9.084   4.223  69.053  1.00  0.00    -0.187 C  
HETATM    6  C   UNL     1      -7.729   6.134  69.991  1.00  0.00    -0.097 C  
HETATM    7  C   UNL     1      -7.579   7.659  70.189  1.00  0.00    -0.086 C  
HETATM    8  C   UNL     1      -8.465   7.935  71.407  1.00  0.00    -0.133 C  
HETATM    9  C   UNL     1      -8.984   6.536  71.783  1.00  0.00    -0.138 C  
HETATM   10  C   UNL     1     -10.052   5.998  70.763  1.00  0.00    -0.248 C  
HETATM   11  C   UNL     1      -7.751   5.686  71.456  1.00  0.00    -0.107 C  
HETATM   12  C   UNL     1     -10.705   4.725  71.361  1.00  0.00     0.049 C  
HETATM   13  C   UNL     1     -11.211   7.000  70.583  1.00  0.00    -0.327 C  
ENDBRANCH   2   4
TORSDOF 1
ENDMDL
MODEL      165
REMARK 921   NORMALIZED FREE ENERGY PREDICTED BY IDOCK:   -1.56 KCAL/MOL
REMARK 922        TOTAL FREE ENERGY PREDICTED BY IDOCK:   -1.69 KCAL/MOL
REMARK 923 INTER-LIGAND FREE ENERGY PREDICTED BY IDOCK:   -1.63 KCAL/MOL
REMARK 924 INTRA-LIGAND FREE ENERGY PREDICTED BY IDOCK:   -0.06 KCAL/MOL
REMARK 927      BINDING AFFINITY PREDICTED BY RF-SCORE:    0.00 PKD
ROOT
HETATM    1  C   UNL     1      -9.429   2.651  70.447  1.00  0.00    -0.115 C  
HETATM    2  N   UNL     1      -9.234   3.609  69.368  1.00  0.00    -0.141 NA 
HETATM    3  H   UNL     1      -9.020   3.301  68.419  1.00  0.00     0.000 HD 
ENDROOT
BRANCH   2   4
HETATM    4  C   UNL     1      -9.357   5.041  69.698  1.00  0.00    -0.127 C  
HETATM    5  C   UNL     1     -10.338   5.200  70.889  1.00  0.00    -0.282 C  
HETATM    6  C   UNL     1      -7.936   5.538  70.193  1.00  0.00    -0.090 C  
HETATM    7  C   UNL     1      -6.800   5.197  69.203  1.00  0.00    -0.054 C  
HETATM    8  C   UNL     1      -7.078   6.136  68.026  1.00  0.00    -0.078 C  
HETATM    9  C   UNL     1      -8.312   6.926  68.495  1.00  0.00    -0.121 C  
HETATM   10  C   UNL     1      -9.621   6.055  68.488  1.00  0.00    -0.134 C  
HETATM   11  C   UNL     1      -8.005   7.055  69.991  1.00  0.00    -0.115 C  
HETATM   12  C   UNL     1     -10.835   6.993  68.710  1.00  0.00    -0.198 C  
HETATM   13  C   UNL     1      -9.856   5.409  67.107  1.00  0.00    -0.178 C  
ENDBRANCH   2   4
TORSDOF 1
ENDMDL
MODEL      166
REMARK 921   NORMALIZED FREE ENERGY PREDICTED BY IDOCK:   -1.54 KCAL/MOL
REMARK 922        TOTAL FREE ENERGY PREDICTED BY IDOCK:   -1.67 KCAL/MOL
REMARK 923 INTER-LIGAND FREE ENERGY PREDICTED BY IDOCK:   -1.61 KCAL/MOL
REMARK 924 INTRA-LIGAND FREE ENERGY PREDICTED BY IDOCK:   -0.06 KCAL/MOL
REMARK 927      BINDING AFFINITY PREDICTED BY RF-SCORE:    0.00 PKD
ROOT
HETATM    1  C   UNL     1      -6.361   7.515  71.065  1.00  0.00    -0.035 C  
HETATM    2  N   UNL     1      -7.486   6.669  70.692  1.00  0.00    -0.082 NA 
HETATM    3  H   UNL     1      -8.049   6.871  69.866  1.00  0.00     0.000 HD 
ENDROOT
BRANCH   2   4
HETATM    4  C   UNL     1      -7.779   5.507  71.554  1.00  0.00    -0.106 C  
HETATM    5  C   UNL     1      -6.451   4.978  72.154  1.00  0.00    -0.039 C  
HETATM    6  C   UNL     1      -8.666   6.025  72.760  1.00  0.00    -0.124 C  
HETATM    7  C   UNL     1      -9.908   6.819  72.299  1.00  0.00    -0.166 C  
HETATM    8  C   UNL     1     -10.799   5.736  71.685  1.00  0.00    -0.316 C  
HETATM    9  C   UNL     1      -9.982   4.450  71.901  1.00  0.00    -0.258 C  
HETATM   10  C   UNL     1      -8.731   4.368  70.953  1.00  0.00    -0.126 C  
HETATM   11  C   UNL     1      -9.350   4.750  73.265  1.00  0.00    -0.129 C  
HETATM   12  C   UNL     1      -8.135   2.940  71.050  1.00  0.00    -0.062 C  
HETATM   13  C   UNL     1      -9.135   4.538  69.474  1.00  0.00    -0.167 C  
ENDBRANCH   2   4
TORSDOF 1
ENDMDL
MODEL      167
REMARK 921   NORMALIZED FREE ENERGY PREDICTED BY IDOCK:   -1.50 KCAL/MOL
REMARK 922        TOTAL FREE ENERGY PREDICTED BY IDOCK:   -1.63 KCAL/MOL
REMARK 923 INTER-LIGAND FREE ENERGY PREDICTED BY IDOCK:   -1.60 KCAL/MOL
REMARK 924 INTRA-LIGAND FREE ENERGY PREDICTED BY IDOCK:   -0.03 KCAL/MOL
REMARK 927      BINDING AFFINITY PREDICTED BY RF-SCORE:    0.00 PKD
ROOT
HETATM    1  C   UNL     1      -7.960   6.990  63.153  1.00  0.00    -0.071 C  
HETATM    2  N   UNL     1      -8.525   7.621  64.337  1.00  0.00    -0.372 NA 
HETATM    3  H   UNL     1      -9.342   8.229  64.274  1.00  0.00     0.000 HD 
ENDROOT
BRANCH   2   4
HETATM    4  C   UNL     1      -7.873   7.346  65.632  1.00  0.00    -0.111 C  
HETATM    5  C   UNL     1      -7.564   5.830  65.728  1.00  0.00    -0.090 C  
HETATM    6  C   UNL     1      -6.484   8.109  65.634  1.00  0.00    -0.049 C  
HETATM    7  C   UNL     1      -6.618   9.607  65.281  1.00  0.00    -0.087 C  
HETATM    8  C   UNL     1      -7.308  10.190  66.517  1.00  0.00    -0.108 C  
HETATM    9  C   UNL     1      -7.452   8.970  67.443  1.00  0.00    -0.085 C  
HETATM   10  C   UNL     1      -8.553   7.964  66.943  1.00  0.00    -0.130 C  
HETATM   11  C   UNL     1      -6.150   8.226  67.125  1.00  0.00    -0.055 C  
HETATM   12  C   UNL     1      -8.811   6.924  68.063  1.00  0.00    -0.123 C  
HETATM   13  C   UNL     1      -9.905   8.674  66.730  1.00  0.00    -0.322 C  
ENDBRANCH   2   4
TORSDOF 1
ENDMDL
MODEL      168
REMARK 921   NORMALIZED FREE ENERGY PREDICTED BY IDOCK:   -1.49 KCAL/MOL
REMARK 922        TOTAL FREE ENERGY PREDICTED BY IDOCK:   -1.61 KCAL/MOL
REMARK 923 INTER-LIGAND FREE ENERGY PREDICTED BY IDOCK:   -1.56 KCAL/MOL
REMARK 924 INTRA-LIGAND FREE ENERGY PREDICTED BY IDOCK:   -0.06 KCAL/MOL
REMARK 927      BINDING AFFINITY PREDICTED BY RF-SCORE:    0.00 PKD
ROOT
HETATM    1  C   UNL     1      -9.783  10.182  64.700  1.00  0.00    -0.309 C  
HETATM    2  N   UNL     1      -9.355   9.851  66.052  1.00  0.00    -0.174 NA 
HETATM    3  H   UNL     1     -10.022   9.535  66.756  1.00  0.00     0.000 HD 
ENDROOT
BRANCH   2   4
HETATM    4  C   UNL     1      -7.920   9.990  66.366  1.00  0.00    -0.116 C  
HETATM    5  C   UNL     1      -7.135  10.199  65.045  1.00  0.00    -0.135 C  
HETATM    6  C   UNL     1      -7.749  11.309  67.226  1.00  0.00    -0.138 C  
HETATM    7  C   UNL     1      -8.687  11.355  68.453  1.00  0.00    -0.157 C  
HETATM    8  C   UNL     1      -8.095  10.287  69.377  1.00  0.00    -0.167 C  
HETATM    9  C   UNL     1      -6.871   9.786  68.590  1.00  0.00    -0.051 C  
HETATM   10  C   UNL     1      -7.275   8.907  67.351  1.00  0.00    -0.080 C  
HETATM   11  C   UNL     1      -6.408  11.093  67.937  1.00  0.00    -0.054 C  
HETATM   12  C   UNL     1      -5.995   8.235  66.790  1.00  0.00    -0.053 C  
HETATM   13  C   UNL     1      -8.195   7.741  67.767  1.00  0.00    -0.126 C  
ENDBRANCH   2   4
TORSDOF 1
ENDMDL
MODEL      169
REMARK 921   NORMALIZED FREE ENERGY PREDICTED BY IDOCK:   -1.48 KCAL/MOL
REMARK 922        TOTAL FREE ENERGY PREDICTED BY IDOCK:   -1.61 KCAL/MOL
REMARK 923 INTER-LIGAND FREE ENERGY PREDICTED BY IDOCK:   -2.06 KCAL/MOL
REMARK 924 INTRA-LIGAND FREE ENERGY PREDICTED BY IDOCK:    0.45 KCAL/MOL
REMARK 927      BINDING AFFINITY PREDICTED BY RF-SCORE:    0.00 PKD
ROOT
HETATM    1  C   UNL     1      -7.590  17.020  66.987  1.00  0.00    -0.189 C  
HETATM    2  N   UNL     1      -8.063  15.643  67.019  1.00  0.00    -0.220 NA 
HETATM    3  H   UNL     1      -7.709  14.947  66.362  1.00  0.00     0.000 HD 
ENDROOT
BRANCH   2   4
HETATM    4  C   UNL     1      -9.072  15.294  68.036  1.00  0.00    -0.176 C  
HETATM    5  C   UNL     1      -8.361  15.072  69.396  1.00  0.00    -0.141 C  
HETATM    6  C   UNL     1     -10.028  16.546  68.206  1.00  0.00    -0.250 C  
HETATM    7  C   UNL     1     -10.607  17.048  66.865  1.00  0.00    -0.208 C  
HETATM    8  C   UNL     1     -11.592  15.941  66.480  1.00  0.00     0.498 C  
HETATM    9  C   UNL     1     -11.488  14.959  67.660  1.00  0.00    -0.366 C  
HETATM   10  C   UNL     1     -10.135  14.158  67.657  1.00  0.00    -0.236 C  
HETATM   11  C   UNL     1     -11.294  15.940  68.821  1.00  0.00    -0.378 C  
HETATM   12  C   UNL     1     -10.237  13.021  68.705  1.00  0.00    -0.102 C  
HETATM   13  C   UNL     1      -9.908  13.446  66.307  1.00  0.00    -0.295 C  
ENDBRANCH   2   4
TORSDOF 1
ENDMDL
MODEL      170
REMARK 921   NORMALIZED FREE ENERGY PREDICTED BY IDOCK:   -1.46 KCAL/MOL
REMARK 922        TOTAL FREE ENERGY PREDICTED BY IDOCK:   -1.59 KCAL/MOL
REMARK 923 INTER-LIGAND FREE ENERGY PREDICTED BY IDOCK:   -1.53 KCAL/MOL
REMARK 924 INTRA-LIGAND FREE ENERGY PREDICTED BY IDOCK:   -0.06 KCAL/MOL
REMARK 927      BINDING AFFINITY PREDICTED BY RF-SCORE:    0.00 PKD
ROOT
HETATM    1  C   UNL     1      -6.230   8.440  70.916  1.00  0.00    -0.034 C  
HETATM    2  N   UNL     1      -7.266   9.130  70.160  1.00  0.00    -0.060 NA 
HETATM    3  H   UNL     1      -7.672  10.004  70.494  1.00  0.00     0.000 HD 
ENDROOT
BRANCH   2   4
HETATM    4  C   UNL     1      -7.705   8.517  68.891  1.00  0.00    -0.100 C  
HETATM    5  C   UNL     1      -6.663   7.452  68.460  1.00  0.00    -0.054 C  
HETATM    6  C   UNL     1      -9.063   7.754  69.179  1.00  0.00    -0.145 C  
HETATM    7  C   UNL     1     -10.121   8.645  69.868  1.00  0.00    -0.197 C  
HETATM    8  C   UNL     1     -10.526   9.618  68.758  1.00  0.00    -0.238 C  
HETATM    9  C   UNL     1      -9.684   9.147  67.559  1.00  0.00    -0.204 C  
HETATM   10  C   UNL     1      -8.162   9.505  67.717  1.00  0.00    -0.114 C  
HETATM   11  C   UNL     1      -9.698   7.632  67.789  1.00  0.00    -0.180 C  
HETATM   12  C   UNL     1      -7.452   9.239  66.365  1.00  0.00    -0.093 C  
HETATM   13  C   UNL     1      -7.965  11.011  67.988  1.00  0.00    -0.115 C  
ENDBRANCH   2   4
TORSDOF 1
ENDMDL
MODEL      171
REMARK 921   NORMALIZED FREE ENERGY PREDICTED BY IDOCK:   -1.45 KCAL/MOL
REMARK 922        TOTAL FREE ENERGY PREDICTED BY IDOCK:   -1.58 KCAL/MOL
REMARK 923 INTER-LIGAND FREE ENERGY PREDICTED BY IDOCK:   -1.52 KCAL/MOL
REMARK 924 INTRA-LIGAND FREE ENERGY PREDICTED BY IDOCK:   -0.05 KCAL/MOL
REMARK 927      BINDING AFFINITY PREDICTED BY RF-SCORE:    0.00 PKD
ROOT
HETATM    1  C   UNL     1      -6.907   3.873  69.537  1.00  0.00    -0.042 C  
HETATM    2  N   UNL     1      -7.138   5.308  69.617  1.00  0.00    -0.058 NA 
HETATM    3  H   UNL     1      -6.453   5.975  69.260  1.00  0.00     0.000 HD 
ENDROOT
BRANCH   2   4
HETATM    4  C   UNL     1      -8.399   5.762  70.235  1.00  0.00    -0.117 C  
HETATM    5  C   UNL     1      -9.293   4.527  70.517  1.00  0.00    -0.218 C  
HETATM    6  C   UNL     1      -8.035   6.407  71.635  1.00  0.00    -0.102 C  
HETATM    7  C   UNL     1      -6.938   7.490  71.534  1.00  0.00    -0.054 C  
HETATM    8  C   UNL     1      -7.656   8.641  70.825  1.00  0.00    -0.083 C  
HETATM    9  C   UNL     1      -9.084   8.098  70.640  1.00  0.00    -0.156 C  
HETATM   10  C   UNL     1      -9.162   6.983  69.535  1.00  0.00    -0.149 C  
HETATM   11  C   UNL     1      -9.246   7.297  71.936  1.00  0.00    -0.147 C  
HETATM   12  C   UNL     1     -10.656   6.696  69.233  1.00  0.00    -0.276 C  
HETATM   13  C   UNL     1      -8.567   7.474  68.199  1.00  0.00    -0.123 C  
ENDBRANCH   2   4
TORSDOF 1
ENDMDL
MODEL      172
REMARK 921   NORMALIZED FREE ENERGY PREDICTED BY IDOCK:   -1.36 KCAL/MOL
REMARK 922        TOTAL FREE ENERGY PREDICTED BY IDOCK:   -1.48 KCAL/MOL
REMARK 923 INTER-LIGAND FREE ENERGY PREDICTED BY IDOCK:   -1.42 KCAL/MOL
REMARK 924 INTRA-LIGAND FREE ENERGY PREDICTED BY IDOCK:   -0.06 KCAL/MOL
REMARK 927      BINDING AFFINITY PREDICTED BY RF-SCORE:    0.00 PKD
ROOT
HETATM    1  C   UNL     1      -5.816  11.092  68.052  1.00  0.00    -0.042 C  
HETATM    2  N   UNL     1      -6.980  10.250  67.816  1.00  0.00    -0.082 NA 
HETATM    3  H   UNL     1      -7.751  10.214  68.483  1.00  0.00     0.000 HD 
ENDROOT
BRANCH   2   4
HETATM    4  C   UNL     1      -7.003   9.451  66.576  1.00  0.00    -0.084 C  
HETATM    5  C   UNL     1      -5.654   9.637  65.833  1.00  0.00    -0.048 C  
HETATM    6  C   UNL     1      -7.100   7.927  66.996  1.00  0.00    -0.078 C  
HETATM    7  C   UNL     1      -8.264   7.642  67.970  1.00  0.00    -0.124 C  
HETATM    8  C   UNL     1      -9.502   7.812  67.084  1.00  0.00    -0.198 C  
HETATM    9  C   UNL     1      -8.900   8.135  65.705  1.00  0.00    -0.173 C  
HETATM   10  C   UNL     1      -8.294   9.584  65.639  1.00  0.00    -0.131 C  
HETATM   11  C   UNL     1      -7.649   7.250  65.735  1.00  0.00    -0.091 C  
HETATM   12  C   UNL     1      -7.963   9.910  64.160  1.00  0.00    -0.150 C  
HETATM   13  C   UNL     1      -9.329  10.644  66.065  1.00  0.00    -0.219 C  
ENDBRANCH   2   4
TORSDOF 1
ENDMDL
MODEL      173
REMARK 921   NORMALIZED FREE ENERGY PREDICTED BY IDOCK:   -1.29 KCAL/MOL
REMARK 922        TOTAL FREE ENERGY PREDICTED BY IDOCK:   -1.41 KCAL/MOL
REMARK 923 INTER-LIGAND FREE ENERGY PREDICTED BY IDOCK:   -1.37 KCAL/MOL
REMARK 924 INTRA-LIGAND FREE ENERGY PREDICTED BY IDOCK:   -0.05 KCAL/MOL
REMARK 927      BINDING AFFINITY PREDICTED BY RF-SCORE:    0.00 PKD
ROOT
HETATM    1  C   UNL     1     -11.133   6.373  68.302  1.00  0.00    -0.267 C  
HETATM    2  N   UNL     1      -9.729   6.526  68.657  1.00  0.00    -0.127 NA 
HETATM    3  H   UNL     1      -9.283   7.444  68.667  1.00  0.00     0.000 HD 
ENDROOT
BRANCH   2   4
HETATM    4  C   UNL     1      -8.977   5.305  69.002  1.00  0.00    -0.106 C  
HETATM    5  C   UNL     1      -9.880   4.385  69.864  1.00  0.00    -0.290 C  
HETATM    6  C   UNL     1      -8.677   4.535  67.650  1.00  0.00    -0.111 C  
HETATM    7  C   UNL     1      -8.007   5.429  66.583  1.00  0.00    -0.105 C  
HETATM    8  C   UNL     1      -6.601   5.644  67.150  1.00  0.00    -0.056 C  
HETATM    9  C   UNL     1      -6.621   4.821  68.450  1.00  0.00    -0.046 C  
HETATM   10  C   UNL     1      -7.493   5.492  69.572  1.00  0.00    -0.070 C  
HETATM   11  C   UNL     1      -7.491   3.637  68.014  1.00  0.00    -0.062 C  
HETATM   12  C   UNL     1      -7.236   4.744  70.906  1.00  0.00    -0.055 C  
HETATM   13  C   UNL     1      -7.049   6.946  69.832  1.00  0.00    -0.071 C  
ENDBRANCH   2   4
TORSDOF 1
ENDMDL
MODEL      174
REMARK 921   NORMALIZED FREE ENERGY PREDICTED BY IDOCK:   -1.28 KCAL/MOL
REMARK 922        TOTAL FREE ENERGY PREDICTED BY IDOCK:   -1.40 KCAL/MOL
REMARK 923 INTER-LIGAND FREE ENERGY PREDICTED BY IDOCK:   -1.34 KCAL/MOL
REMARK 924 INTRA-LIGAND FREE ENERGY PREDICTED BY IDOCK:   -0.06 KCAL/MOL
REMARK 927      BINDING AFFINITY PREDICTED BY RF-SCORE:    0.00 PKD
ROOT
HETATM    1  C   UNL     1      -9.106   9.489  68.435  1.00  0.00    -0.127 C  
HETATM    2  N   UNL     1      -8.947   8.889  69.752  1.00  0.00    -0.144 NA 
HETATM    3  H   UNL     1      -9.568   9.133  70.523  1.00  0.00     0.000 HD 
ENDROOT
BRANCH   2   4
HETATM    4  C   UNL     1      -7.853   7.915  69.929  1.00  0.00    -0.103 C  
HETATM    5  C   UNL     1      -6.854   8.061  68.751  1.00  0.00    -0.062 C  
HETATM    6  C   UNL     1      -7.077   8.308  71.253  1.00  0.00    -0.063 C  
HETATM    7  C   UNL     1      -8.010   8.463  72.474  1.00  0.00    -0.166 C  
HETATM    8  C   UNL     1      -8.436   7.022  72.766  1.00  0.00    -0.129 C  
HETATM    9  C   UNL     1      -7.669   6.212  71.706  1.00  0.00    -0.101 C  
HETATM   10  C   UNL     1      -8.261   6.403  70.262  1.00  0.00    -0.125 C  
HETATM   11  C   UNL     1      -6.362   7.009  71.640  1.00  0.00    -0.037 C  
HETATM   12  C   UNL     1      -7.609   5.357  69.322  1.00  0.00    -0.077 C  
HETATM   13  C   UNL     1      -9.771   6.090  70.229  1.00  0.00    -0.201 C  
ENDBRANCH   2   4
TORSDOF 1
ENDMDL
MODEL      175
REMARK 921   NORMALIZED FREE ENERGY PREDICTED BY IDOCK:   -1.23 KCAL/MOL
REMARK 922        TOTAL FREE ENERGY PREDICTED BY IDOCK:   -1.34 KCAL/MOL
REMARK 923 INTER-LIGAND FREE ENERGY PREDICTED BY IDOCK:   -1.28 KCAL/MOL
REMARK 924 INTRA-LIGAND FREE ENERGY PREDICTED BY IDOCK:   -0.06 KCAL/MOL
REMARK 927      BINDING AFFINITY PREDICTED BY RF-SCORE:    0.00 PKD
ROOT
HETATM    1  C   UNL     1      -5.743   7.620  67.532  1.00  0.00    -0.036 C  
HETATM    2  N   UNL     1      -6.781   6.707  67.076  1.00  0.00    -0.058 NA 
HETATM    3  H   UNL     1      -6.553   5.766  66.753  1.00  0.00     0.000 HD 
ENDROOT
BRANCH   2   4
HETATM    4  C   UNL     1      -8.174   7.193  67.098  1.00  0.00    -0.118 C  
HETATM    5  C   UNL     1      -8.171   8.734  66.920  1.00  0.00    -0.108 C  
HETATM    6  C   UNL     1      -8.910   6.577  65.838  1.00  0.00    -0.131 C  
HETATM    7  C   UNL     1      -8.762   5.042  65.743  1.00  0.00    -0.135 C  
HETATM    8  C   UNL     1      -9.629   4.542  66.901  1.00  0.00    -0.208 C  
HETATM    9  C   UNL     1     -10.200   5.842  67.495  1.00  0.00    -0.239 C  
HETATM   10  C   UNL     1      -9.117   6.668  68.279  1.00  0.00    -0.123 C  
HETATM   11  C   UNL     1     -10.392   6.668  66.219  1.00  0.00     0.155 C  
HETATM   12  C   UNL     1      -9.834   7.801  69.058  1.00  0.00    -0.169 C  
HETATM   13  C   UNL     1      -8.429   5.808  69.359  1.00  0.00    -0.112 C  
ENDBRANCH   2   4
TORSDOF 1
ENDMDL
MODEL      176
REMARK 921   NORMALIZED FREE ENERGY PREDICTED BY IDOCK:   -1.21 KCAL/MOL
REMARK 922        TOTAL FREE ENERGY PREDICTED BY IDOCK:   -1.32 KCAL/MOL
REMARK 923 INTER-LIGAND FREE ENERGY PREDICTED BY IDOCK:   -1.27 KCAL/MOL
REMARK 924 INTRA-LIGAND FREE ENERGY PREDICTED BY IDOCK:   -0.06 KCAL/MOL
REMARK 927      BINDING AFFINITY PREDICTED BY RF-SCORE:    0.00 PKD
ROOT
HETATM    1  C   UNL     1     -10.661   6.311  68.449  1.00  0.00    -0.290 C  
HETATM    2  N   UNL     1      -9.319   6.763  68.113  1.00  0.00    -0.124 NA 
HETATM    3  H   UNL     1      -8.973   7.671  68.424  1.00  0.00     0.000 HD 
ENDROOT
BRANCH   2   4
HETATM    4  C   UNL     1      -8.478   5.859  67.305  1.00  0.00    -0.103 C  
HETATM    5  C   UNL     1      -9.050   4.421  67.400  1.00  0.00    -0.148 C  
HETATM    6  C   UNL     1      -8.606   6.316  65.794  1.00  0.00    -0.153 C  
HETATM    7  C   UNL     1      -8.319   7.820  65.592  1.00  0.00    -0.143 C  
HETATM    8  C   UNL     1      -6.810   7.916  65.831  1.00  0.00    -0.057 C  
HETATM    9  C   UNL     1      -6.407   6.456  66.102  1.00  0.00    -0.042 C  
HETATM   10  C   UNL     1      -6.893   5.952  67.510  1.00  0.00    -0.060 C  
HETATM   11  C   UNL     1      -7.352   5.726  65.141  1.00  0.00    -0.075 C  
HETATM   12  C   UNL     1      -6.219   4.586  67.801  1.00  0.00    -0.036 C  
HETATM   13  C   UNL     1      -6.412   6.889  68.637  1.00  0.00    -0.036 C  
ENDBRANCH   2   4
TORSDOF 1
ENDMDL
MODEL      177
REMARK 921   NORMALIZED FREE ENERGY PREDICTED BY IDOCK:   -1.20 KCAL/MOL
REMARK 922        TOTAL FREE ENERGY PREDICTED BY IDOCK:   -1.31 KCAL/MOL
REMARK 923 INTER-LIGAND FREE ENERGY PREDICTED BY IDOCK:   -2.79 KCAL/MOL
REMARK 924 INTRA-LIGAND FREE ENERGY PREDICTED BY IDOCK:    1.48 KCAL/MOL
REMARK 927      BINDING AFFINITY PREDICTED BY RF-SCORE:    0.00 PKD
ROOT
HETATM    1  C   UNL     1      -6.981  17.630  66.347  1.00  0.00    -0.265 C  
HETATM    2  N   UNL     1      -8.095  16.724  66.106  1.00  0.00    -0.402 NA 
HETATM    3  H   UNL     1      -8.146  16.162  65.256  1.00  0.00     0.000 HD 
ENDROOT
BRANCH   2   4
HETATM    4  C   UNL     1      -9.149  16.651  67.136  1.00  0.00    -0.214 C  
HETATM    5  C   UNL     1     -10.493  17.111  66.514  1.00  0.00    -0.255 C  
HETATM    6  C   UNL     1      -9.315  15.127  67.536  1.00  0.00    -0.198 C  
HETATM    7  C   UNL     1      -7.979  14.458  67.928  1.00  0.00    -0.150 C  
HETATM    8  C   UNL     1      -7.650  15.111  69.273  1.00  0.00    -0.201 C  
HETATM    9  C   UNL     1      -8.850  16.045  69.509  1.00  0.00    -0.052 C  
HETATM   10  C   UNL     1      -8.828  17.300  68.564  1.00  0.00    -0.269 C  
HETATM   11  C   UNL     1      -9.980  15.198  68.915  1.00  0.00    -0.227 C  
HETATM   12  C   UNL     1      -9.906  18.301  69.052  1.00  0.00    -0.270 C  
HETATM   13  C   UNL     1      -7.490  18.061  68.673  1.00  0.00    -0.291 C  
ENDBRANCH   2   4
TORSDOF 1
ENDMDL
MODEL      178
REMARK 921   NORMALIZED FREE ENERGY PREDICTED BY IDOCK:   -1.19 KCAL/MOL
REMARK 922        TOTAL FREE ENERGY PREDICTED BY IDOCK:   -1.30 KCAL/MOL
REMARK 923 INTER-LIGAND FREE ENERGY PREDICTED BY IDOCK:   -1.26 KCAL/MOL
REMARK 924 INTRA-LIGAND FREE ENERGY PREDICTED BY IDOCK:   -0.05 KCAL/MOL
REMARK 927      BINDING AFFINITY PREDICTED BY RF-SCORE:    0.00 PKD
ROOT
HETATM    1  C   UNL     1      -9.697   6.195  69.844  1.00  0.00    -0.163 C  
HETATM    2  N   UNL     1      -8.576   5.326  69.519  1.00  0.00    -0.097 NA 
HETATM    3  H   UNL     1      -7.689   5.706  69.187  1.00  0.00     0.000 HD 
ENDROOT
BRANCH   2   4
HETATM    4  C   UNL     1      -8.770   3.873  69.686  1.00  0.00    -0.077 C  
HETATM    5  C   UNL     1      -9.564   3.619  70.994  1.00  0.00    -0.246 C  
HETATM    6  C   UNL     1      -9.674   3.374  68.485  1.00  0.00    -0.011 C  
HETATM    7  C   UNL     1      -9.129   3.799  67.103  1.00  0.00    -0.178 C  
HETATM    8  C   UNL     1      -7.877   2.932  66.946  1.00  0.00    -0.075 C  
HETATM    9  C   UNL     1      -7.874   2.089  68.234  1.00  0.00    -0.056 C  
HETATM   10  C   UNL     1      -7.486   2.933  69.502  1.00  0.00    -0.044 C  
HETATM   11  C   UNL     1      -9.379   1.871  68.425  1.00  0.00    -0.248 C  
HETATM   12  C   UNL     1      -7.249   1.960  70.685  1.00  0.00    -0.033 C  
HETATM   13  C   UNL     1      -6.141   3.661  69.301  1.00  0.00    -0.027 C  
ENDBRANCH   2   4
TORSDOF 1
ENDMDL
MODEL      179
REMARK 921   NORMALIZED FREE ENERGY PREDICTED BY IDOCK:   -1.17 KCAL/MOL
REMARK 922        TOTAL FREE ENERGY PREDICTED BY IDOCK:   -1.28 KCAL/MOL
REMARK 923 INTER-LIGAND FREE ENERGY PREDICTED BY IDOCK:   -1.49 KCAL/MOL
REMARK 924 INTRA-LIGAND FREE ENERGY PREDICTED BY IDOCK:    0.21 KCAL/MOL
REMARK 927      BINDING AFFINITY PREDICTED BY RF-SCORE:    0.00 PKD
ROOT
HETATM    1  C   UNL     1     -10.350  16.298  69.635  1.00  0.00    -0.261 C  
HETATM    2  N   UNL     1      -8.915  16.050  69.640  1.00  0.00    -0.066 NA 
HETATM    3  H   UNL     1      -8.385  16.027  70.511  1.00  0.00     0.000 HD 
ENDROOT
BRANCH   2   4
HETATM    4  C   UNL     1      -8.256  15.835  68.337  1.00  0.00    -0.151 C  
HETATM    5  C   UNL     1      -8.527  17.061  67.428  1.00  0.00    -0.208 C  
HETATM    6  C   UNL     1      -6.695  15.781  68.599  1.00  0.00    -0.117 C  
HETATM    7  C   UNL     1      -6.302  14.770  69.698  1.00  0.00    -0.142 C  
HETATM    8  C   UNL     1      -6.563  13.418  69.030  1.00  0.00    -0.107 C  
HETATM    9  C   UNL     1      -7.036  13.813  67.620  1.00  0.00    -0.187 C  
HETATM   10  C   UNL     1      -8.486  14.421  67.623  1.00  0.00    -0.191 C  
HETATM   11  C   UNL     1      -6.158  15.043  67.368  1.00  0.00     0.116 C  
HETATM   12  C   UNL     1      -8.973  14.534  66.155  1.00  0.00     0.035 C  
HETATM   13  C   UNL     1      -9.490  13.473  68.310  1.00  0.00    -0.212 C  
ENDBRANCH   2   4
TORSDOF 1
ENDMDL
MODEL      180
REMARK 921   NORMALIZED FREE ENERGY PREDICTED BY IDOCK:   -1.15 KCAL/MOL
REMARK 922        TOTAL FREE ENERGY PREDICTED BY IDOCK:   -1.26 KCAL/MOL
REMARK 923 INTER-LIGAND FREE ENERGY PREDICTED BY IDOCK:   -1.20 KCAL/MOL
REMARK 924 INTRA-LIGAND FREE ENERGY PREDICTED BY IDOCK:   -0.06 KCAL/MOL
REMARK 927      BINDING AFFINITY PREDICTED BY RF-SCORE:    0.00 PKD
ROOT
HETATM    1  C   UNL     1      -8.642   8.876  68.537  1.00  0.00    -0.133 C  
HETATM    2  N   UNL     1      -8.170   7.704  67.813  1.00  0.00    -0.118 NA 
HETATM    3  H   UNL     1      -7.340   7.746  67.221  1.00  0.00     0.000 HD 
ENDROOT
BRANCH   2   4
HETATM    4  C   UNL     1      -8.937   6.454  67.967  1.00  0.00    -0.115 C  
HETATM    5  C   UNL     1      -9.777   6.536  69.268  1.00  0.00    -0.152 C  
HETATM    6  C   UNL     1      -9.956   6.370  66.757  1.00  0.00    -0.225 C  
HETATM    7  C   UNL     1      -9.274   6.545  65.382  1.00  0.00     0.324 C  
HETATM    8  C   UNL     1      -8.478   5.246  65.225  1.00  0.00    -0.147 C  
HETATM    9  C   UNL     1      -8.828   4.468  66.506  1.00  0.00    -0.112 C  
HETATM   10  C   UNL     1      -8.143   5.076  67.783  1.00  0.00    -0.098 C  
HETATM   11  C   UNL     1     -10.294   4.877  66.686  1.00  0.00    -0.285 C  
HETATM   12  C   UNL     1      -8.330   4.084  68.959  1.00  0.00    -0.086 C  
HETATM   13  C   UNL     1      -6.617   5.198  67.596  1.00  0.00    -0.053 C  
ENDBRANCH   2   4
TORSDOF 1
ENDMDL
MODEL      181
REMARK 921   NORMALIZED FREE ENERGY PREDICTED BY IDOCK:   -1.07 KCAL/MOL
REMARK 922        TOTAL FREE ENERGY PREDICTED BY IDOCK:   -1.17 KCAL/MOL
REMARK 923 INTER-LIGAND FREE ENERGY PREDICTED BY IDOCK:   -1.17 KCAL/MOL
REMARK 924 INTRA-LIGAND FREE ENERGY PREDICTED BY IDOCK:    0.00 KCAL/MOL
REMARK 927      BINDING AFFINITY PREDICTED BY RF-SCORE:    0.00 PKD
ROOT
HETATM    1  C   UNL     1      -6.041   6.795  68.219  1.00  0.00    -0.029 C  
HETATM    2  N   UNL     1      -6.628   5.517  67.843  1.00  0.00    -0.051 NA 
HETATM    3  H   UNL     1      -6.055   4.761  67.468  1.00  0.00     0.000 HD 
ENDROOT
BRANCH   2   4
HETATM    4  C   UNL     1      -8.084   5.356  68.024  1.00  0.00    -0.096 C  
HETATM    5  C   UNL     1      -8.791   6.669  67.599  1.00  0.00    -0.116 C  
HETATM    6  C   UNL     1      -8.563   4.222  67.027  1.00  0.00    -0.104 C  
HETATM    7  C   UNL     1      -7.746   2.918  67.160  1.00  0.00    -0.074 C  
HETATM    8  C   UNL     1      -8.197   2.367  68.516  1.00  0.00    -0.073 C  
HETATM    9  C   UNL     1      -9.243   3.398  68.978  1.00  0.00    -0.226 C  
HETATM   10  C   UNL     1      -8.589   4.758  69.420  1.00  0.00    -0.099 C  
HETATM   11  C   UNL     1      -9.890   3.757  67.636  1.00  0.00    -0.027 C  
HETATM   12  C   UNL     1      -9.675   5.620  70.114  1.00  0.00    -0.228 C  
HETATM   13  C   UNL     1      -7.503   4.536  70.492  1.00  0.00    -0.050 C  
ENDBRANCH   2   4
TORSDOF 1
ENDMDL
MODEL      182
REMARK 921   NORMALIZED FREE ENERGY PREDICTED BY IDOCK:   -1.06 KCAL/MOL
REMARK 922        TOTAL FREE ENERGY PREDICTED BY IDOCK:   -1.17 KCAL/MOL
REMARK 923 INTER-LIGAND FREE ENERGY PREDICTED BY IDOCK:   -1.11 KCAL/MOL
REMARK 924 INTRA-LIGAND FREE ENERGY PREDICTED BY IDOCK:   -0.06 KCAL/MOL
REMARK 927      BINDING AFFINITY PREDICTED BY RF-SCORE:    0.00 PKD
ROOT
HETATM    1  C   UNL     1     -10.179   6.147  66.755  1.00  0.00    -0.206 C  
HETATM    2  N   UNL     1      -9.229   5.938  67.839  1.00  0.00    -0.109 NA 
HETATM    3  H   UNL     1      -9.414   6.288  68.779  1.00  0.00     0.000 HD 
ENDROOT
BRANCH   2   4
HETATM    4  C   UNL     1      -7.990   5.201  67.526  1.00  0.00    -0.100 C  
HETATM    5  C   UNL     1      -7.645   5.410  66.028  1.00  0.00    -0.087 C  
HETATM    6  C   UNL     1      -6.822   5.858  68.371  1.00  0.00    -0.066 C  
HETATM    7  C   UNL     1      -7.151   5.960  69.877  1.00  0.00    -0.068 C  
HETATM    8  C   UNL     1      -7.103   4.501  70.339  1.00  0.00    -0.045 C  
HETATM    9  C   UNL     1      -6.716   3.744  69.056  1.00  0.00    -0.045 C  
HETATM   10  C   UNL     1      -7.894   3.681  68.018  1.00  0.00    -0.068 C  
HETATM   11  C   UNL     1      -5.759   4.755  68.416  1.00  0.00    -0.017 C  
HETATM   12  C   UNL     1      -7.506   2.684  66.896  1.00  0.00    -0.070 C  
HETATM   13  C   UNL     1      -9.172   3.096  68.654  1.00  0.00    -0.228 C  
ENDBRANCH   2   4
TORSDOF 1
ENDMDL
MODEL      183
REMARK 921   NORMALIZED FREE ENERGY PREDICTED BY IDOCK:   -1.05 KCAL/MOL
REMARK 922        TOTAL FREE ENERGY PREDICTED BY IDOCK:   -1.15 KCAL/MOL
REMARK 923 INTER-LIGAND FREE ENERGY PREDICTED BY IDOCK:   -1.09 KCAL/MOL
REMARK 924 INTRA-LIGAND FREE ENERGY PREDICTED BY IDOCK:   -0.06 KCAL/MOL
REMARK 927      BINDING AFFINITY PREDICTED BY RF-SCORE:    0.00 PKD
ROOT
HETATM    1  C   UNL     1      -9.908   4.471  67.300  1.00  0.00    -0.175 C  
HETATM    2  N   UNL     1      -8.923   3.667  66.592  1.00  0.00    -0.131 NA 
HETATM    3  H   UNL     1      -8.586   2.783  66.975  1.00  0.00     0.000 HD 
ENDROOT
BRANCH   2   4
HETATM    4  C   UNL     1      -8.429   4.177  65.299  1.00  0.00    -0.114 C  
HETATM    5  C   UNL     1      -8.663   5.709  65.241  1.00  0.00    -0.120 C  
HETATM    6  C   UNL     1      -6.863   3.940  65.262  1.00  0.00    -0.053 C  
HETATM    7  C   UNL     1      -6.466   2.481  65.576  1.00  0.00    -0.027 C  
HETATM    8  C   UNL     1      -6.936   1.722  64.332  1.00  0.00    -0.039 C  
HETATM    9  C   UNL     1      -7.509   2.839  63.441  1.00  0.00    -0.061 C  
HETATM   10  C   UNL     1      -8.879   3.392  63.978  1.00  0.00    -0.096 C  
HETATM   11  C   UNL     1      -6.537   3.978  63.766  1.00  0.00    -0.042 C  
HETATM   12  C   UNL     1      -9.501   4.303  62.889  1.00  0.00    -0.129 C  
HETATM   13  C   UNL     1      -9.900   2.254  64.185  1.00  0.00    -0.098 C  
ENDBRANCH   2   4
TORSDOF 1
ENDMDL
MODEL      184
REMARK 921   NORMALIZED FREE ENERGY PREDICTED BY IDOCK:   -1.01 KCAL/MOL
REMARK 922        TOTAL FREE ENERGY PREDICTED BY IDOCK:   -1.12 KCAL/MOL
REMARK 923 INTER-LIGAND FREE ENERGY PREDICTED BY IDOCK:   -1.06 KCAL/MOL
REMARK 924 INTRA-LIGAND FREE ENERGY PREDICTED BY IDOCK:   -0.06 KCAL/MOL
REMARK 927      BINDING AFFINITY PREDICTED BY RF-SCORE:    0.00 PKD
ROOT
HETATM    1  C   UNL     1      -7.789   6.429  63.673  1.00  0.00    -0.110 C  
HETATM    2  N   UNL     1      -7.348   6.405  65.060  1.00  0.00    -0.074 NA 
HETATM    3  H   UNL     1      -6.978   7.242  65.512  1.00  0.00     0.000 HD 
ENDROOT
BRANCH   2   4
HETATM    4  C   UNL     1      -7.455   5.126  65.787  1.00  0.00    -0.082 C  
HETATM    5  C   UNL     1      -7.350   3.960  64.771  1.00  0.00    -0.068 C  
HETATM    6  C   UNL     1      -6.201   5.022  66.751  1.00  0.00    -0.032 C  
HETATM    7  C   UNL     1      -6.028   6.266  67.651  1.00  0.00    -0.017 C  
HETATM    8  C   UNL     1      -7.199   6.147  68.630  1.00  0.00    -0.084 C  
HETATM    9  C   UNL     1      -7.878   4.834  68.201  1.00  0.00    -0.082 C  
HETATM   10  C   UNL     1      -8.652   4.977  66.840  1.00  0.00    -0.105 C  
HETATM   11  C   UNL     1      -6.652   4.005  67.804  1.00  0.00    -0.042 C  
HETATM   12  C   UNL     1      -9.514   3.705  66.630  1.00  0.00    -0.197 C  
HETATM   13  C   UNL     1      -9.658   6.144  66.886  1.00  0.00    -0.164 C  
ENDBRANCH   2   4
TORSDOF 1
ENDMDL
MODEL      185
REMARK 921   NORMALIZED FREE ENERGY PREDICTED BY IDOCK:   -0.86 KCAL/MOL
REMARK 922        TOTAL FREE ENERGY PREDICTED BY IDOCK:   -0.95 KCAL/MOL
REMARK 923 INTER-LIGAND FREE ENERGY PREDICTED BY IDOCK:   -1.01 KCAL/MOL
REMARK 924 INTRA-LIGAND FREE ENERGY PREDICTED BY IDOCK:    0.06 KCAL/MOL
REMARK 927      BINDING AFFINITY PREDICTED BY RF-SCORE:    0.00 PKD
ROOT
HETATM    1  C   UNL     1      -9.857   6.676  66.745  1.00  0.00    -0.173 C  
HETATM    2  N   UNL     1      -9.534   6.296  68.113  1.00  0.00    -0.114 NA 
HETATM    3  H   UNL     1     -10.096   6.624  68.899  1.00  0.00     0.000 HD 
ENDROOT
BRANCH   2   4
HETATM    4  C   UNL     1      -8.365   5.421  68.319  1.00  0.00    -0.098 C  
HETATM    5  C   UNL     1      -8.542   4.137  67.467  1.00  0.00    -0.107 C  
HETATM    6  C   UNL     1      -7.096   6.184  67.756  1.00  0.00    -0.081 C  
HETATM    7  C   UNL     1      -6.946   7.610  68.332  1.00  0.00    -0.072 C  
HETATM    8  C   UNL     1      -6.548   7.352  69.787  1.00  0.00    -0.039 C  
HETATM    9  C   UNL     1      -6.481   5.817  69.863  1.00  0.00    -0.038 C  
HETATM   10  C   UNL     1      -7.905   5.152  69.828  1.00  0.00    -0.072 C  
HETATM   11  C   UNL     1      -5.928   5.495  68.470  1.00  0.00    -0.021 C  
HETATM   12  C   UNL     1      -7.752   3.649  70.177  1.00  0.00    -0.047 C  
HETATM   13  C   UNL     1      -8.821   5.731  70.926  1.00  0.00    -0.145 C  
ENDBRANCH   2   4
TORSDOF 1
ENDMDL
MODEL      186
REMARK 921   NORMALIZED FREE ENERGY PREDICTED BY IDOCK:   -0.80 KCAL/MOL
REMARK 922        TOTAL FREE ENERGY PREDICTED BY IDOCK:   -0.89 KCAL/MOL
REMARK 923 INTER-LIGAND FREE ENERGY PREDICTED BY IDOCK:   -1.16 KCAL/MOL
REMARK 924 INTRA-LIGAND FREE ENERGY PREDICTED BY IDOCK:    0.27 KCAL/MOL
REMARK 927      BINDING AFFINITY PREDICTED BY RF-SCORE:    0.00 PKD
ROOT
HETATM    1  C   UNL     1     -10.236   6.282  66.535  1.00  0.00    -0.100 C  
HETATM    2  N   UNL     1      -9.937   4.857  66.553  1.00  0.00    -0.206 NA 
HETATM    3  H   UNL     1     -10.163   4.280  67.364  1.00  0.00     0.000 HD 
ENDROOT
BRANCH   2   4
HETATM    4  C   UNL     1      -9.296   4.280  65.357  1.00  0.00    -0.164 C  
HETATM    5  C   UNL     1     -10.327   4.249  64.199  1.00  0.00    -0.019 C  
HETATM    6  C   UNL     1      -8.132   5.262  64.922  1.00  0.00    -0.122 C  
HETATM    7  C   UNL     1      -7.163   5.598  66.077  1.00  0.00    -0.073 C  
HETATM    8  C   UNL     1      -6.411   4.281  66.288  1.00  0.00    -0.041 C  
HETATM    9  C   UNL     1      -7.009   3.363  65.208  1.00  0.00    -0.053 C  
HETATM   10  C   UNL     1      -8.478   2.917  65.547  1.00  0.00    -0.103 C  
HETATM   11  C   UNL     1      -7.219   4.371  64.073  1.00  0.00    -0.054 C  
HETATM   12  C   UNL     1      -8.891   1.797  64.557  1.00  0.00    -0.106 C  
HETATM   13  C   UNL     1      -8.559   2.271  66.945  1.00  0.00    -0.117 C  
ENDBRANCH   2   4
TORSDOF 1
ENDMDL
MODEL      187
REMARK 921   NORMALIZED FREE ENERGY PREDICTED BY IDOCK:   -0.78 KCAL/MOL
REMARK 922        TOTAL FREE ENERGY PREDICTED BY IDOCK:   -0.87 KCAL/MOL
REMARK 923 INTER-LIGAND FREE ENERGY PREDICTED BY IDOCK:   -0.99 KCAL/MOL
REMARK 924 INTRA-LIGAND FREE ENERGY PREDICTED BY IDOCK:    0.13 KCAL/MOL
REMARK 927      BINDING AFFINITY PREDICTED BY RF-SCORE:    0.00 PKD
ROOT
HETATM    1  C   UNL     1      -9.525   3.415  67.400  1.00  0.00    -0.176 C  
HETATM    2  N   UNL     1      -8.270   3.600  66.687  1.00  0.00    -0.099 NA 
HETATM    3  H   UNL     1      -7.498   2.942  66.793  1.00  0.00     0.000 HD 
ENDROOT
BRANCH   2   4
HETATM    4  C   UNL     1      -8.155   4.778  65.805  1.00  0.00    -0.111 C  
HETATM    5  C   UNL     1      -9.225   4.674  64.687  1.00  0.00    -0.119 C  
HETATM    6  C   UNL     1      -8.505   6.056  66.672  1.00  0.00    -0.112 C  
HETATM    7  C   UNL     1      -7.683   6.143  67.977  1.00  0.00    -0.102 C  
HETATM    8  C   UNL     1      -6.275   6.470  67.475  1.00  0.00    -0.032 C  
HETATM    9  C   UNL     1      -6.464   6.569  65.951  1.00  0.00    -0.043 C  
HETATM   10  C   UNL     1      -6.692   5.165  65.282  1.00  0.00    -0.048 C  
HETATM   11  C   UNL     1      -7.859   7.201  65.886  1.00  0.00    -0.106 C  
HETATM   12  C   UNL     1      -6.602   5.334  63.744  1.00  0.00    -0.030 C  
HETATM   13  C   UNL     1      -5.563   4.180  65.648  1.00  0.00    -0.017 C  
ENDBRANCH   2   4
TORSDOF 1
ENDMDL
MODEL      188
REMARK 921   NORMALIZED FREE ENERGY PREDICTED BY IDOCK:   -0.71 KCAL/MOL
REMARK 922        TOTAL FREE ENERGY PREDICTED BY IDOCK:   -0.79 KCAL/MOL
REMARK 923 INTER-LIGAND FREE ENERGY PREDICTED BY IDOCK:   -0.76 KCAL/MOL
REMARK 924 INTRA-LIGAND FREE ENERGY PREDICTED BY IDOCK:   -0.03 KCAL/MOL
REMARK 927      BINDING AFFINITY PREDICTED BY RF-SCORE:    0.00 PKD
ROOT
HETATM    1  C   UNL     1      -9.491   3.323  68.254  1.00  0.00    -0.152 C  
HETATM    2  N   UNL     1      -8.126   3.060  67.818  1.00  0.00    -0.078 NA 
HETATM    3  H   UNL     1      -7.653   2.188  68.058  1.00  0.00     0.000 HD 
ENDROOT
BRANCH   2   4
HETATM    4  C   UNL     1      -7.454   4.102  67.018  1.00  0.00    -0.077 C  
HETATM    5  C   UNL     1      -7.906   5.495  67.526  1.00  0.00    -0.101 C  
HETATM    6  C   UNL     1      -5.899   3.983  67.296  1.00  0.00    -0.023 C  
HETATM    7  C   UNL     1      -5.356   2.553  67.084  1.00  0.00    -0.016 C  
HETATM    8  C   UNL     1      -5.426   2.381  65.565  1.00  0.00    -0.012 C  
HETATM    9  C   UNL     1      -5.962   3.741  65.086  1.00  0.00    -0.023 C  
HETATM   10  C   UNL     1      -7.484   3.939  65.426  1.00  0.00    -0.081 C  
HETATM   11  C   UNL     1      -5.272   4.678  66.083  1.00  0.00    -0.009 C  
HETATM   12  C   UNL     1      -7.994   5.198  64.678  1.00  0.00    -0.102 C  
HETATM   13  C   UNL     1      -8.336   2.773  64.883  1.00  0.00    -0.088 C  
ENDBRANCH   2   4
TORSDOF 1
ENDMDL
MODEL      189
REMARK 921   NORMALIZED FREE ENERGY PREDICTED BY IDOCK:   -0.16 KCAL/MOL
REMARK 922        TOTAL FREE ENERGY PREDICTED BY IDOCK:   -0.21 KCAL/MOL
REMARK 923 INTER-LIGAND FREE ENERGY PREDICTED BY IDOCK:   -1.17 KCAL/MOL
REMARK 924 INTRA-LIGAND FREE ENERGY PREDICTED BY IDOCK:    0.96 KCAL/MOL
REMARK 927      BINDING AFFINITY PREDICTED BY RF-SCORE:    0.00 PKD
ROOT
HETATM    1  C   UNL     1      -9.648   3.888  69.128  1.00  0.00    -0.148 C  
HETATM    2  N   UNL     1      -8.378   4.024  68.428  1.00  0.00    -0.089 NA 
HETATM    3  H   UNL     1      -7.669   3.292  68.473  1.00  0.00     0.000 HD 
ENDROOT
BRANCH   2   4
HETATM    4  C   UNL     1      -8.156   5.259  67.652  1.00  0.00    -0.100 C  
HETATM    5  C   UNL     1      -8.379   4.954  66.148  1.00  0.00    -0.112 C  
HETATM    6  C   UNL     1      -9.269   6.299  68.089  1.00  0.00    -0.110 C  
HETATM    7  C   UNL     1      -9.339   6.500  69.619  1.00  0.00    -0.144 C  
HETATM    8  C   UNL     1      -8.047   7.262  69.925  1.00  0.00    -0.127 C  
HETATM    9  C   UNL     1      -7.411   7.439  68.535  1.00  0.00    -0.100 C  
HETATM   10  C   UNL     1      -6.828   6.095  67.966  1.00  0.00    -0.067 C  
HETATM   11  C   UNL     1      -8.666   7.648  67.681  1.00  0.00    -0.122 C  
HETATM   12  C   UNL     1      -5.983   6.421  66.708  1.00  0.00    -0.025 C  
HETATM   13  C   UNL     1      -5.842   5.447  68.959  1.00  0.00    -0.023 C  
ENDBRANCH   2   4
TORSDOF 1
ENDMDL
MODEL      190
REMARK 921   NORMALIZED FREE ENERGY PREDICTED BY IDOCK:   -0.11 KCAL/MOL
REMARK 922        TOTAL FREE ENERGY PREDICTED BY IDOCK:   -0.16 KCAL/MOL
REMARK 923 INTER-LIGAND FREE ENERGY PREDICTED BY IDOCK:   -0.97 KCAL/MOL
REMARK 924 INTRA-LIGAND FREE ENERGY PREDICTED BY IDOCK:    0.81 KCAL/MOL
REMARK 927      BINDING AFFINITY PREDICTED BY RF-SCORE:    0.00 PKD
ROOT
HETATM    1  C   UNL     1      -9.457  12.379  66.438  1.00  0.00    -0.240 C  
HETATM    2  N   UNL     1      -8.995  11.569  67.556  1.00  0.00    -0.156 NA 
HETATM    3  H   UNL     1      -8.914  11.960  68.495  1.00  0.00     0.000 HD 
ENDROOT
BRANCH   2   4
HETATM    4  C   UNL     1      -8.648  10.162  67.280  1.00  0.00    -0.125 C  
HETATM    5  C   UNL     1      -9.871   9.268  67.610  1.00  0.00    -0.221 C  
HETATM    6  C   UNL     1      -8.382  10.036  65.723  1.00  0.00    -0.134 C  
HETATM    7  C   UNL     1      -7.360  11.069  65.200  1.00  0.00     0.415 C  
HETATM    8  C   UNL     1      -6.038  10.575  65.794  1.00  0.00    -0.133 C  
HETATM    9  C   UNL     1      -6.452   9.302  66.551  1.00  0.00    -0.067 C  
HETATM   10  C   UNL     1      -7.259   9.619  67.862  1.00  0.00    -0.081 C  
HETATM   11  C   UNL     1      -7.538   8.762  65.613  1.00  0.00    -0.086 C  
HETATM   12  C   UNL     1      -7.394   8.311  68.684  1.00  0.00    -0.089 C  
HETATM   13  C   UNL     1      -6.485  10.592  68.775  1.00  0.00    -0.051 C  
ENDBRANCH   2   4
TORSDOF 1
ENDMDL
MODEL      191
REMARK 921   NORMALIZED FREE ENERGY PREDICTED BY IDOCK:    6.01 KCAL/MOL
REMARK 922        TOTAL FREE ENERGY PREDICTED BY IDOCK:    6.32 KCAL/MOL
REMARK 923 INTER-LIGAND FREE ENERGY PREDICTED BY IDOCK:    6.02 KCAL/MOL
REMARK 924 INTRA-LIGAND FREE ENERGY PREDICTED BY IDOCK:    0.30 KCAL/MOL
REMARK 927      BINDING AFFINITY PREDICTED BY RF-SCORE:    0.00 PKD
ROOT
HETATM    1  C   UNL     1      -6.051  15.746  66.488  1.00  0.00     1.476 C  
HETATM    2  N   UNL     1      -5.954  14.671  67.465  1.00  0.00    -0.349 NA 
HETATM    3  H   UNL     1      -5.127  14.562  68.052  1.00  0.00     0.000 HD 
ENDROOT
BRANCH   2   4
HETATM    4  C   UNL     1      -7.097  13.744  67.574  1.00  0.00    -0.157 C  
HETATM    5  C   UNL     1      -7.286  13.017  66.217  1.00  0.00     2.260 C  
HETATM    6  C   UNL     1      -6.713  12.642  68.646  1.00  0.00    -0.088 C  
HETATM    7  C   UNL     1      -6.239  13.245  69.987  1.00  0.00    -0.079 C  
HETATM    8  C   UNL     1      -7.525  13.831  70.574  1.00  0.00     1.902 C  
HETATM    9  C   UNL     1      -8.586  13.463  69.522  1.00  0.00     1.300 C  
HETATM   10  C   UNL     1      -8.450  14.317  68.209  1.00  0.00    -0.167 C  
HETATM   11  C   UNL     1      -8.073  12.088  69.081  1.00  0.00     0.338 C  
HETATM   12  C   UNL     1      -9.705  14.071  67.332  1.00  0.00    -0.233 C  
HETATM   13  C   UNL     1      -8.463  15.828  68.518  1.00  0.00    -0.181 C  
ENDBRANCH   2   4
TORSDOF 1
ENDMDL
