MODEL        1
REMARK 921   NORMALIZED FREE ENERGY PREDICTED BY IDOCK:   -3.17 KCAL/MOL
REMARK 922        TOTAL FREE ENERGY PREDICTED BY IDOCK:   -3.56 KCAL/MOL
REMARK 923 INTER-LIGAND FREE ENERGY PREDICTED BY IDOCK:   -3.54 KCAL/MOL
REMARK 924 INTRA-LIGAND FREE ENERGY PREDICTED BY IDOCK:   -0.02 KCAL/MOL
REMARK 927      BINDING AFFINITY PREDICTED BY RF-SCORE:    0.00 PKD
ROOT
HETATM    1  C   UNL     1     -13.248  15.519  73.198  1.00  0.00    -0.549 C  
HETATM    2  N   UNL     1     -13.852  14.747  72.102  1.00  0.00    -0.429 NA 
ENDROOT
BRANCH   2   3
HETATM    3  C   UNL     1     -13.166  15.111  70.836  1.00  0.00    -0.433 C  
HETATM    4 CL   UNL     1     -11.087  16.180  69.432  1.00  0.00    -0.318 Cl 
HETATM    5  C   UNL     1     -11.875  15.920  71.012  1.00  0.00    -0.428 C  
ENDBRANCH   2   3
BRANCH   2   6
HETATM    6  C   UNL     1     -13.774  13.292  72.365  1.00  0.00    -0.578 C  
HETATM    7 CL   UNL     1     -12.815  10.794  71.828  1.00  0.00    -0.552 Cl 
HETATM    8  C   UNL     1     -12.957  12.503  71.331  1.00  0.00    -0.251 C  
ENDBRANCH   2   6
TORSDOF 2
ENDMDL
MODEL        2
REMARK 921   NORMALIZED FREE ENERGY PREDICTED BY IDOCK:   -3.17 KCAL/MOL
REMARK 922        TOTAL FREE ENERGY PREDICTED BY IDOCK:   -3.56 KCAL/MOL
REMARK 923 INTER-LIGAND FREE ENERGY PREDICTED BY IDOCK:   -3.50 KCAL/MOL
REMARK 924 INTRA-LIGAND FREE ENERGY PREDICTED BY IDOCK:   -0.06 KCAL/MOL
REMARK 927      BINDING AFFINITY PREDICTED BY RF-SCORE:    0.00 PKD
ROOT
HETATM    1  C   UNL     1     -12.237  14.728  64.166  1.00  0.00    -0.295 C  
HETATM    2  N   UNL     1     -12.578  13.321  64.423  1.00  0.00    -0.649 NA 
ENDROOT
BRANCH   2   3
HETATM    3  C   UNL     1     -11.827  12.472  63.464  1.00  0.00    -0.534 C  
HETATM    4 CL   UNL     1      -9.574  11.189  62.618  1.00  0.00    -0.310 Cl 
HETATM    5  C   UNL     1     -10.330  12.330  63.764  1.00  0.00    -0.435 C  
ENDBRANCH   2   3
BRANCH   2   6
HETATM    6  C   UNL     1     -12.286  12.948  65.826  1.00  0.00    -0.439 C  
HETATM    7 CL   UNL     1     -11.894  13.571  68.454  1.00  0.00    -0.395 Cl 
HETATM    8  C   UNL     1     -12.099  14.141  66.775  1.00  0.00    -0.442 C  
ENDBRANCH   2   6
TORSDOF 2
ENDMDL
MODEL        3
REMARK 921   NORMALIZED FREE ENERGY PREDICTED BY IDOCK:   -3.13 KCAL/MOL
REMARK 922        TOTAL FREE ENERGY PREDICTED BY IDOCK:   -3.52 KCAL/MOL
REMARK 923 INTER-LIGAND FREE ENERGY PREDICTED BY IDOCK:   -3.49 KCAL/MOL
REMARK 924 INTRA-LIGAND FREE ENERGY PREDICTED BY IDOCK:   -0.03 KCAL/MOL
REMARK 927      BINDING AFFINITY PREDICTED BY RF-SCORE:    0.00 PKD
ROOT
HETATM    1  C   UNL     1     -10.882  16.116  70.066  1.00  0.00    -0.349 C  
HETATM    2  N   UNL     1     -12.203  15.471  70.057  1.00  0.00    -0.372 NA 
ENDROOT
BRANCH   2   3
HETATM    3  C   UNL     1     -12.046  14.083  69.555  1.00  0.00    -0.347 C  
HETATM    4 CL   UNL     1     -11.542  12.265  67.584  1.00  0.00    -0.405 Cl 
HETATM    5  C   UNL     1     -11.844  13.965  68.039  1.00  0.00    -0.375 C  
ENDBRANCH   2   3
BRANCH   2   6
HETATM    6  C   UNL     1     -12.820  15.497  71.403  1.00  0.00    -0.465 C  
HETATM    7 CL   UNL     1     -12.709  15.917  74.098  1.00  0.00    -0.681 Cl 
HETATM    8  C   UNL     1     -11.834  15.768  72.549  1.00  0.00    -0.499 C  
ENDBRANCH   2   6
TORSDOF 2
ENDMDL
MODEL        4
REMARK 921   NORMALIZED FREE ENERGY PREDICTED BY IDOCK:   -3.02 KCAL/MOL
REMARK 922        TOTAL FREE ENERGY PREDICTED BY IDOCK:   -3.39 KCAL/MOL
REMARK 923 INTER-LIGAND FREE ENERGY PREDICTED BY IDOCK:   -3.33 KCAL/MOL
REMARK 924 INTRA-LIGAND FREE ENERGY PREDICTED BY IDOCK:   -0.06 KCAL/MOL
REMARK 927      BINDING AFFINITY PREDICTED BY RF-SCORE:    0.00 PKD
ROOT
HETATM    1  C   UNL     1      -8.696  15.925  66.355  1.00  0.00    -0.327 C  
HETATM    2  N   UNL     1      -9.684  16.771  65.668  1.00  0.00    -0.553 NA 
ENDROOT
BRANCH   2   3
HETATM    3  C   UNL     1     -10.796  15.907  65.196  1.00  0.00    -0.421 C  
HETATM    4 CL   UNL     1     -12.622  13.910  65.539  1.00  0.00    -0.546 Cl 
HETATM    5  C   UNL     1     -11.200  14.789  66.165  1.00  0.00    -0.337 C  
ENDBRANCH   2   3
BRANCH   2   6
HETATM    6  C   UNL     1     -10.173  17.851  66.554  1.00  0.00    -0.379 C  
HETATM    7 CL   UNL     1     -10.131  19.249  68.898  1.00  0.00    -0.478 Cl 
HETATM    8  C   UNL     1      -9.581  17.826  67.971  1.00  0.00    -0.291 C  
ENDBRANCH   2   6
TORSDOF 2
ENDMDL
MODEL        5
REMARK 921   NORMALIZED FREE ENERGY PREDICTED BY IDOCK:   -3.01 KCAL/MOL
REMARK 922        TOTAL FREE ENERGY PREDICTED BY IDOCK:   -3.39 KCAL/MOL
REMARK 923 INTER-LIGAND FREE ENERGY PREDICTED BY IDOCK:   -3.35 KCAL/MOL
REMARK 924 INTRA-LIGAND FREE ENERGY PREDICTED BY IDOCK:   -0.05 KCAL/MOL
REMARK 927      BINDING AFFINITY PREDICTED BY RF-SCORE:    0.00 PKD
ROOT
HETATM    1  C   UNL     1     -12.103  13.976  69.682  1.00  0.00    -0.355 C  
HETATM    2  N   UNL     1     -12.306  15.378  70.074  1.00  0.00    -0.358 NA 
ENDROOT
BRANCH   2   3
HETATM    3  C   UNL     1     -12.813  15.408  71.470  1.00  0.00    -0.429 C  
HETATM    4 CL   UNL     1     -12.578  16.021  74.117  1.00  0.00    -0.704 Cl 
HETATM    5  C   UNL     1     -11.807  15.914  72.511  1.00  0.00    -0.508 C  
ENDBRANCH   2   3
BRANCH   2   6
HETATM    6  C   UNL     1     -11.056  16.160  69.932  1.00  0.00    -0.357 C  
HETATM    7 CL   UNL     1      -9.385  17.798  68.527  1.00  0.00    -0.291 Cl 
HETATM    8  C   UNL     1     -10.842  16.767  68.538  1.00  0.00    -0.345 C  
ENDBRANCH   2   6
TORSDOF 2
ENDMDL
MODEL        6
REMARK 921   NORMALIZED FREE ENERGY PREDICTED BY IDOCK:   -3.01 KCAL/MOL
REMARK 922        TOTAL FREE ENERGY PREDICTED BY IDOCK:   -3.39 KCAL/MOL
REMARK 923 INTER-LIGAND FREE ENERGY PREDICTED BY IDOCK:   -3.33 KCAL/MOL
REMARK 924 INTRA-LIGAND FREE ENERGY PREDICTED BY IDOCK:   -0.06 KCAL/MOL
REMARK 927      BINDING AFFINITY PREDICTED BY RF-SCORE:    0.00 PKD
ROOT
HETATM    1  C   UNL     1     -12.151  15.439  70.017  1.00  0.00    -0.359 C  
HETATM    2  N   UNL     1     -12.865  14.329  70.665  1.00  0.00    -0.340 NA 
ENDROOT
BRANCH   2   3
HETATM    3  C   UNL     1     -12.097  13.079  70.440  1.00  0.00    -0.314 C  
HETATM    4 CL   UNL     1     -11.690  10.399  70.748  1.00  0.00    -0.436 Cl 
HETATM    5  C   UNL     1     -12.617  11.855  71.204  1.00  0.00    -0.288 C  
ENDBRANCH   2   3
BRANCH   2   6
HETATM    6  C   UNL     1     -13.065  14.593  72.109  1.00  0.00    -0.347 C  
HETATM    7 CL   UNL     1     -12.400  15.834  74.447  1.00  0.00    -0.784 Cl 
HETATM    8  C   UNL     1     -11.980  15.469  72.751  1.00  0.00    -0.466 C  
ENDBRANCH   2   6
TORSDOF 2
ENDMDL
MODEL        7
REMARK 921   NORMALIZED FREE ENERGY PREDICTED BY IDOCK:   -3.00 KCAL/MOL
REMARK 922        TOTAL FREE ENERGY PREDICTED BY IDOCK:   -3.38 KCAL/MOL
REMARK 923 INTER-LIGAND FREE ENERGY PREDICTED BY IDOCK:   -3.34 KCAL/MOL
REMARK 924 INTRA-LIGAND FREE ENERGY PREDICTED BY IDOCK:   -0.04 KCAL/MOL
REMARK 927      BINDING AFFINITY PREDICTED BY RF-SCORE:    0.00 PKD
ROOT
HETATM    1  C   UNL     1     -10.679  15.180  66.552  1.00  0.00    -0.310 C  
HETATM    2  N   UNL     1     -11.920  14.393  66.573  1.00  0.00    -0.406 NA 
ENDROOT
BRANCH   2   3
HETATM    3  C   UNL     1     -12.236  13.973  65.184  1.00  0.00    -0.436 C  
HETATM    4 CL   UNL     1     -12.620  12.084  63.255  1.00  0.00    -0.640 Cl 
HETATM    5  C   UNL     1     -12.091  12.471  64.915  1.00  0.00    -0.440 C  
ENDBRANCH   2   3
BRANCH   2   6
HETATM    6  C   UNL     1     -11.800  13.228  67.480  1.00  0.00    -0.358 C  
HETATM    7 CL   UNL     1     -11.841  12.090  69.961  1.00  0.00    -0.405 Cl 
HETATM    8  C   UNL     1     -11.852  13.578  68.974  1.00  0.00    -0.343 C  
ENDBRANCH   2   6
TORSDOF 2
ENDMDL
MODEL        8
REMARK 921   NORMALIZED FREE ENERGY PREDICTED BY IDOCK:   -3.00 KCAL/MOL
REMARK 922        TOTAL FREE ENERGY PREDICTED BY IDOCK:   -3.37 KCAL/MOL
REMARK 923 INTER-LIGAND FREE ENERGY PREDICTED BY IDOCK:   -3.32 KCAL/MOL
REMARK 924 INTRA-LIGAND FREE ENERGY PREDICTED BY IDOCK:   -0.05 KCAL/MOL
REMARK 927      BINDING AFFINITY PREDICTED BY RF-SCORE:    0.00 PKD
ROOT
HETATM    1  C   UNL     1     -10.709  10.719  67.156  1.00  0.00    -0.272 C  
HETATM    2  N   UNL     1     -11.818  11.663  67.361  1.00  0.00    -0.630 NA 
ENDROOT
BRANCH   2   3
HETATM    3  C   UNL     1     -11.893  11.995  68.806  1.00  0.00    -0.302 C  
HETATM    4 CL   UNL     1     -12.067  13.761  70.878  1.00  0.00    -0.407 Cl 
HETATM    5  C   UNL     1     -11.840  13.494  69.127  1.00  0.00    -0.340 C  
ENDBRANCH   2   3
BRANCH   2   6
HETATM    6  C   UNL     1     -11.646  12.878  66.531  1.00  0.00    -0.371 C  
HETATM    7 CL   UNL     1     -12.224  14.403  64.342  1.00  0.00    -0.501 Cl 
HETATM    8  C   UNL     1     -12.387  12.838  65.186  1.00  0.00    -0.496 C  
ENDBRANCH   2   6
TORSDOF 2
ENDMDL
MODEL        9
REMARK 921   NORMALIZED FREE ENERGY PREDICTED BY IDOCK:   -2.98 KCAL/MOL
REMARK 922        TOTAL FREE ENERGY PREDICTED BY IDOCK:   -3.36 KCAL/MOL
REMARK 923 INTER-LIGAND FREE ENERGY PREDICTED BY IDOCK:   -3.30 KCAL/MOL
REMARK 924 INTRA-LIGAND FREE ENERGY PREDICTED BY IDOCK:   -0.06 KCAL/MOL
REMARK 927      BINDING AFFINITY PREDICTED BY RF-SCORE:    0.00 PKD
ROOT
HETATM    1  C   UNL     1     -12.531  12.166  63.538  1.00  0.00    -0.555 C  
HETATM    2  N   UNL     1     -11.163  12.705  63.560  1.00  0.00    -0.464 NA 
ENDROOT
BRANCH   2   3
HETATM    3  C   UNL     1     -10.979  13.471  64.819  1.00  0.00    -0.373 C  
HETATM    4 CL   UNL     1     -11.891  14.537  67.159  1.00  0.00    -0.423 Cl 
HETATM    5  C   UNL     1     -12.266  13.724  65.614  1.00  0.00    -0.454 C  
ENDBRANCH   2   3
BRANCH   2   6
HETATM    6  C   UNL     1     -10.159  11.624  63.429  1.00  0.00    -0.440 C  
HETATM    7 CL   UNL     1      -8.925   9.360  64.322  1.00  0.00    -0.237 Cl 
HETATM    8  C   UNL     1     -10.057  10.700  64.651  1.00  0.00    -0.349 C  
ENDBRANCH   2   6
TORSDOF 2
ENDMDL
MODEL       10
REMARK 921   NORMALIZED FREE ENERGY PREDICTED BY IDOCK:   -2.98 KCAL/MOL
REMARK 922        TOTAL FREE ENERGY PREDICTED BY IDOCK:   -3.35 KCAL/MOL
REMARK 923 INTER-LIGAND FREE ENERGY PREDICTED BY IDOCK:   -3.32 KCAL/MOL
REMARK 924 INTRA-LIGAND FREE ENERGY PREDICTED BY IDOCK:   -0.03 KCAL/MOL
REMARK 927      BINDING AFFINITY PREDICTED BY RF-SCORE:    0.00 PKD
ROOT
HETATM    1  C   UNL     1     -11.229  16.138  69.035  1.00  0.00    -0.347 C  
HETATM    2  N   UNL     1     -11.519  14.826  69.632  1.00  0.00    -0.276 NA 
ENDROOT
BRANCH   2   3
HETATM    3  C   UNL     1     -12.505  15.014  70.727  1.00  0.00    -0.352 C  
HETATM    4 CL   UNL     1     -13.221  15.863  73.218  1.00  0.00    -0.672 Cl 
HETATM    5  C   UNL     1     -11.920  15.565  72.033  1.00  0.00    -0.434 C  
ENDBRANCH   2   3
BRANCH   2   6
HETATM    6  C   UNL     1     -12.013  13.872  68.612  1.00  0.00    -0.366 C  
HETATM    7 CL   UNL     1     -12.128  12.923  66.056  1.00  0.00    -0.497 Cl 
HETATM    8  C   UNL     1     -11.600  14.212  67.173  1.00  0.00    -0.377 C  
ENDBRANCH   2   6
TORSDOF 2
ENDMDL
MODEL       11
REMARK 921   NORMALIZED FREE ENERGY PREDICTED BY IDOCK:   -2.97 KCAL/MOL
REMARK 922        TOTAL FREE ENERGY PREDICTED BY IDOCK:   -3.35 KCAL/MOL
REMARK 923 INTER-LIGAND FREE ENERGY PREDICTED BY IDOCK:   -3.29 KCAL/MOL
REMARK 924 INTRA-LIGAND FREE ENERGY PREDICTED BY IDOCK:   -0.06 KCAL/MOL
REMARK 927      BINDING AFFINITY PREDICTED BY RF-SCORE:    0.00 PKD
ROOT
HETATM    1  C   UNL     1     -11.922  13.839  67.998  1.00  0.00    -0.355 C  
HETATM    2  N   UNL     1     -11.923  14.296  66.601  1.00  0.00    -0.427 NA 
ENDROOT
BRANCH   2   3
HETATM    3  C   UNL     1     -10.554  14.754  66.254  1.00  0.00    -0.305 C  
HETATM    4 CL   UNL     1      -8.601  16.653  66.112  1.00  0.00    -0.354 Cl 
HETATM    5  C   UNL     1     -10.311  16.257  66.438  1.00  0.00    -0.314 C  
ENDBRANCH   2   3
BRANCH   2   6
HETATM    6  C   UNL     1     -12.387  13.226  65.688  1.00  0.00    -0.465 C  
HETATM    7 CL   UNL     1     -12.552  12.063  63.224  1.00  0.00    -0.640 Cl 
HETATM    8  C   UNL     1     -12.076  13.477  64.205  1.00  0.00    -0.431 C  
ENDBRANCH   2   6
TORSDOF 2
ENDMDL
MODEL       12
REMARK 921   NORMALIZED FREE ENERGY PREDICTED BY IDOCK:   -2.97 KCAL/MOL
REMARK 922        TOTAL FREE ENERGY PREDICTED BY IDOCK:   -3.35 KCAL/MOL
REMARK 923 INTER-LIGAND FREE ENERGY PREDICTED BY IDOCK:   -3.32 KCAL/MOL
REMARK 924 INTRA-LIGAND FREE ENERGY PREDICTED BY IDOCK:   -0.03 KCAL/MOL
REMARK 927      BINDING AFFINITY PREDICTED BY RF-SCORE:    0.00 PKD
ROOT
HETATM    1  C   UNL     1     -10.884  15.252  65.635  1.00  0.00    -0.363 C  
HETATM    2  N   UNL     1     -11.142  14.047  66.438  1.00  0.00    -0.312 NA 
ENDROOT
BRANCH   2   3
HETATM    3  C   UNL     1     -11.811  14.456  67.699  1.00  0.00    -0.378 C  
HETATM    4 CL   UNL     1     -12.477  14.081  70.317  1.00  0.00    -0.410 Cl 
HETATM    5  C   UNL     1     -11.752  13.418  68.826  1.00  0.00    -0.340 C  
ENDBRANCH   2   3
BRANCH   2   6
HETATM    6  C   UNL     1     -11.954  13.065  65.684  1.00  0.00    -0.429 C  
HETATM    7 CL   UNL     1     -12.757  11.881  63.360  1.00  0.00    -0.655 Cl 
HETATM    8  C   UNL     1     -11.855  13.198  64.157  1.00  0.00    -0.429 C  
ENDBRANCH   2   6
TORSDOF 2
ENDMDL
MODEL       13
REMARK 921   NORMALIZED FREE ENERGY PREDICTED BY IDOCK:   -2.97 KCAL/MOL
REMARK 922        TOTAL FREE ENERGY PREDICTED BY IDOCK:   -3.34 KCAL/MOL
REMARK 923 INTER-LIGAND FREE ENERGY PREDICTED BY IDOCK:   -3.32 KCAL/MOL
REMARK 924 INTRA-LIGAND FREE ENERGY PREDICTED BY IDOCK:   -0.03 KCAL/MOL
REMARK 927      BINDING AFFINITY PREDICTED BY RF-SCORE:    0.00 PKD
ROOT
HETATM    1  C   UNL     1     -11.845  13.472  68.026  1.00  0.00    -0.365 C  
HETATM    2  N   UNL     1     -12.090  12.141  67.451  1.00  0.00    -0.515 NA 
ENDROOT
BRANCH   2   3
HETATM    3  C   UNL     1     -11.512  12.105  66.083  1.00  0.00    -0.371 C  
HETATM    4 CL   UNL     1     -11.551  12.710  63.424  1.00  0.00    -0.563 Cl 
HETATM    5  C   UNL     1     -12.409  12.697  64.989  1.00  0.00    -0.497 C  
ENDBRANCH   2   3
BRANCH   2   6
HETATM    6  C   UNL     1     -11.524  11.075  68.309  1.00  0.00    -0.304 C  
HETATM    7 CL   UNL     1     -11.436   9.643  70.631  1.00  0.00    -0.349 Cl 
HETATM    8  C   UNL     1     -12.082  11.049  69.739  1.00  0.00    -0.353 C  
ENDBRANCH   2   6
TORSDOF 2
ENDMDL
MODEL       14
REMARK 921   NORMALIZED FREE ENERGY PREDICTED BY IDOCK:   -2.97 KCAL/MOL
REMARK 922        TOTAL FREE ENERGY PREDICTED BY IDOCK:   -3.34 KCAL/MOL
REMARK 923 INTER-LIGAND FREE ENERGY PREDICTED BY IDOCK:   -3.29 KCAL/MOL
REMARK 924 INTRA-LIGAND FREE ENERGY PREDICTED BY IDOCK:   -0.04 KCAL/MOL
REMARK 927      BINDING AFFINITY PREDICTED BY RF-SCORE:    0.00 PKD
ROOT
HETATM    1  C   UNL     1     -14.131  14.888  72.083  1.00  0.00    -0.518 C  
HETATM    2  N   UNL     1     -12.990  13.990  71.851  1.00  0.00    -0.345 NA 
ENDROOT
BRANCH   2   3
HETATM    3  C   UNL     1     -13.402  12.606  72.195  1.00  0.00    -0.466 C  
HETATM    4 CL   UNL     1     -13.284   9.898  71.885  1.00  0.00    -0.530 Cl 
HETATM    5  C   UNL     1     -12.817  11.515  71.289  1.00  0.00    -0.360 C  
ENDBRANCH   2   3
BRANCH   2   6
HETATM    6  C   UNL     1     -12.510  14.085  70.453  1.00  0.00    -0.350 C  
HETATM    7 CL   UNL     1     -11.434  15.471  68.363  1.00  0.00    -0.357 Cl 
HETATM    8  C   UNL     1     -12.128  15.504  70.007  1.00  0.00    -0.368 C  
ENDBRANCH   2   6
TORSDOF 2
ENDMDL
MODEL       15
REMARK 921   NORMALIZED FREE ENERGY PREDICTED BY IDOCK:   -2.96 KCAL/MOL
REMARK 922        TOTAL FREE ENERGY PREDICTED BY IDOCK:   -3.34 KCAL/MOL
REMARK 923 INTER-LIGAND FREE ENERGY PREDICTED BY IDOCK:   -3.29 KCAL/MOL
REMARK 924 INTRA-LIGAND FREE ENERGY PREDICTED BY IDOCK:   -0.04 KCAL/MOL
REMARK 927      BINDING AFFINITY PREDICTED BY RF-SCORE:    0.00 PKD
ROOT
HETATM    1  C   UNL     1     -12.129  16.015  72.008  1.00  0.00    -0.525 C  
HETATM    2  N   UNL     1     -12.617  15.283  70.830  1.00  0.00    -0.386 NA 
ENDROOT
BRANCH   2   3
HETATM    3  C   UNL     1     -11.868  15.757  69.638  1.00  0.00    -0.340 C  
HETATM    4 CL   UNL     1     -10.955  15.473  67.084  1.00  0.00    -0.317 Cl 
HETATM    5  C   UNL     1     -11.762  14.738  68.497  1.00  0.00    -0.317 C  
ENDBRANCH   2   3
BRANCH   2   6
HETATM    6  C   UNL     1     -12.479  13.820  71.014  1.00  0.00    -0.380 C  
HETATM    7 CL   UNL     1     -13.333  11.424  72.003  1.00  0.00    -0.518 Cl 
HETATM    8  C   UNL     1     -13.507  13.200  71.971  1.00  0.00    -0.507 C  
ENDBRANCH   2   6
TORSDOF 2
ENDMDL
MODEL       16
REMARK 921   NORMALIZED FREE ENERGY PREDICTED BY IDOCK:   -2.94 KCAL/MOL
REMARK 922        TOTAL FREE ENERGY PREDICTED BY IDOCK:   -3.30 KCAL/MOL
REMARK 923 INTER-LIGAND FREE ENERGY PREDICTED BY IDOCK:   -3.27 KCAL/MOL
REMARK 924 INTRA-LIGAND FREE ENERGY PREDICTED BY IDOCK:   -0.03 KCAL/MOL
REMARK 927      BINDING AFFINITY PREDICTED BY RF-SCORE:    0.00 PKD
ROOT
HETATM    1  C   UNL     1     -11.780  14.675  67.652  1.00  0.00    -0.363 C  
HETATM    2  N   UNL     1     -11.429  13.384  67.043  1.00  0.00    -0.321 NA 
ENDROOT
BRANCH   2   3
HETATM    3  C   UNL     1     -11.651  12.314  68.048  1.00  0.00    -0.349 C  
HETATM    4 CL   UNL     1     -12.212  11.443  70.572  1.00  0.00    -0.465 Cl 
HETATM    5  C   UNL     1     -11.827  12.809  69.489  1.00  0.00    -0.316 C  
ENDBRANCH   2   3
BRANCH   2   6
HETATM    6  C   UNL     1     -12.213  13.143  65.810  1.00  0.00    -0.456 C  
HETATM    7 CL   UNL     1     -12.590  11.936  63.391  1.00  0.00    -0.674 Cl 
HETATM    8  C   UNL     1     -11.500  12.274  64.764  1.00  0.00    -0.329 C  
ENDBRANCH   2   6
TORSDOF 2
ENDMDL
MODEL       17
REMARK 921   NORMALIZED FREE ENERGY PREDICTED BY IDOCK:   -2.93 KCAL/MOL
REMARK 922        TOTAL FREE ENERGY PREDICTED BY IDOCK:   -3.30 KCAL/MOL
REMARK 923 INTER-LIGAND FREE ENERGY PREDICTED BY IDOCK:   -3.24 KCAL/MOL
REMARK 924 INTRA-LIGAND FREE ENERGY PREDICTED BY IDOCK:   -0.05 KCAL/MOL
REMARK 927      BINDING AFFINITY PREDICTED BY RF-SCORE:    0.00 PKD
ROOT
HETATM    1  C   UNL     1     -11.604  15.610  69.039  1.00  0.00    -0.386 C  
HETATM    2  N   UNL     1     -10.653  15.932  67.965  1.00  0.00    -0.277 NA 
ENDROOT
BRANCH   2   3
HETATM    3  C   UNL     1     -11.030  15.159  66.755  1.00  0.00    -0.321 C  
HETATM    4 CL   UNL     1     -12.585  13.360  65.420  1.00  0.00    -0.535 Cl 
HETATM    5  C   UNL     1     -12.141  14.124  66.971  1.00  0.00    -0.414 C  
ENDBRANCH   2   3
BRANCH   2   6
HETATM    6  C   UNL     1     -10.623  17.387  67.695  1.00  0.00    -0.350 C  
HETATM    7 CL   UNL     1     -10.510  19.522  65.998  1.00  0.00    -0.602 Cl 
HETATM    8  C   UNL     1     -10.384  17.755  66.224  1.00  0.00    -0.358 C  
ENDBRANCH   2   6
TORSDOF 2
ENDMDL
MODEL       18
REMARK 921   NORMALIZED FREE ENERGY PREDICTED BY IDOCK:   -2.93 KCAL/MOL
REMARK 922        TOTAL FREE ENERGY PREDICTED BY IDOCK:   -3.30 KCAL/MOL
REMARK 923 INTER-LIGAND FREE ENERGY PREDICTED BY IDOCK:   -3.24 KCAL/MOL
REMARK 924 INTRA-LIGAND FREE ENERGY PREDICTED BY IDOCK:   -0.06 KCAL/MOL
REMARK 927      BINDING AFFINITY PREDICTED BY RF-SCORE:    0.00 PKD
ROOT
HETATM    1  C   UNL     1     -14.408   8.438  71.871  1.00  0.00    -0.473 C  
HETATM    2  N   UNL     1     -13.211   9.118  72.388  1.00  0.00    -0.445 NA 
ENDROOT
BRANCH   2   3
HETATM    3  C   UNL     1     -12.027   8.268  72.102  1.00  0.00    -0.369 C  
HETATM    4 CL   UNL     1     -10.834   6.059  71.036  1.00  0.00    -0.329 Cl 
HETATM    5  C   UNL     1     -12.344   6.922  71.440  1.00  0.00    -0.376 C  
ENDBRANCH   2   3
BRANCH   2   6
HETATM    6  C   UNL     1     -13.067  10.469  71.800  1.00  0.00    -0.464 C  
HETATM    7 CL   UNL     1     -12.003  12.206  69.984  1.00  0.00    -0.410 Cl 
HETATM    8  C   UNL     1     -11.986  10.577  70.714  1.00  0.00    -0.370 C  
ENDBRANCH   2   6
TORSDOF 2
ENDMDL
MODEL       19
REMARK 921   NORMALIZED FREE ENERGY PREDICTED BY IDOCK:   -2.92 KCAL/MOL
REMARK 922        TOTAL FREE ENERGY PREDICTED BY IDOCK:   -3.29 KCAL/MOL
REMARK 923 INTER-LIGAND FREE ENERGY PREDICTED BY IDOCK:   -3.23 KCAL/MOL
REMARK 924 INTRA-LIGAND FREE ENERGY PREDICTED BY IDOCK:   -0.06 KCAL/MOL
REMARK 927      BINDING AFFINITY PREDICTED BY RF-SCORE:    0.00 PKD
ROOT
HETATM    1  C   UNL     1     -13.161  12.089  71.775  1.00  0.00    -0.355 C  
HETATM    2  N   UNL     1     -13.404  13.516  71.520  1.00  0.00    -0.321 NA 
ENDROOT
BRANCH   2   3
HETATM    3  C   UNL     1     -13.356  14.241  72.816  1.00  0.00    -0.525 C  
HETATM    4 CL   UNL     1     -12.322  16.120  74.500  1.00  0.00    -0.692 Cl 
HETATM    5  C   UNL     1     -12.191  15.227  72.960  1.00  0.00    -0.418 C  
ENDBRANCH   2   3
BRANCH   2   6
HETATM    6  C   UNL     1     -12.424  14.062  70.554  1.00  0.00    -0.359 C  
HETATM    7 CL   UNL     1     -10.668  13.781  68.484  1.00  0.00    -0.265 Cl 
HETATM    8  C   UNL     1     -11.714  13.000  69.702  1.00  0.00    -0.297 C  
ENDBRANCH   2   6
TORSDOF 2
ENDMDL
MODEL       20
REMARK 921   NORMALIZED FREE ENERGY PREDICTED BY IDOCK:   -2.92 KCAL/MOL
REMARK 922        TOTAL FREE ENERGY PREDICTED BY IDOCK:   -3.28 KCAL/MOL
REMARK 923 INTER-LIGAND FREE ENERGY PREDICTED BY IDOCK:   -3.23 KCAL/MOL
REMARK 924 INTRA-LIGAND FREE ENERGY PREDICTED BY IDOCK:   -0.05 KCAL/MOL
REMARK 927      BINDING AFFINITY PREDICTED BY RF-SCORE:    0.00 PKD
ROOT
HETATM    1  C   UNL     1     -10.722  16.179  69.163  1.00  0.00    -0.292 C  
HETATM    2  N   UNL     1     -12.023  15.498  69.099  1.00  0.00    -0.339 NA 
ENDROOT
BRANCH   2   3
HETATM    3  C   UNL     1     -11.821  14.152  68.504  1.00  0.00    -0.355 C  
HETATM    4 CL   UNL     1     -11.713  12.432  66.390  1.00  0.00    -0.458 Cl 
HETATM    5  C   UNL     1     -12.116  14.060  67.002  1.00  0.00    -0.420 C  
ENDBRANCH   2   3
BRANCH   2   6
HETATM    6  C   UNL     1     -12.649  15.413  70.438  1.00  0.00    -0.389 C  
HETATM    7 CL   UNL     1     -13.388  14.026  72.669  1.00  0.00    -0.616 Cl 
HETATM    8  C   UNL     1     -12.752  13.988  71.002  1.00  0.00    -0.361 C  
ENDBRANCH   2   6
TORSDOF 2
ENDMDL
MODEL       21
REMARK 921   NORMALIZED FREE ENERGY PREDICTED BY IDOCK:   -2.91 KCAL/MOL
REMARK 922        TOTAL FREE ENERGY PREDICTED BY IDOCK:   -3.28 KCAL/MOL
REMARK 923 INTER-LIGAND FREE ENERGY PREDICTED BY IDOCK:   -3.25 KCAL/MOL
REMARK 924 INTRA-LIGAND FREE ENERGY PREDICTED BY IDOCK:   -0.03 KCAL/MOL
REMARK 927      BINDING AFFINITY PREDICTED BY RF-SCORE:    0.00 PKD
ROOT
HETATM    1  C   UNL     1     -10.386  15.346  69.749  1.00  0.00    -0.286 C  
HETATM    2  N   UNL     1     -11.294  14.287  69.285  1.00  0.00    -0.270 NA 
ENDROOT
BRANCH   2   3
HETATM    3  C   UNL     1     -12.397  14.147  70.269  1.00  0.00    -0.356 C  
HETATM    4 CL   UNL     1     -14.226  15.171  72.014  1.00  0.00    -0.616 Cl 
HETATM    5  C   UNL     1     -12.815  15.452  70.958  1.00  0.00    -0.463 C  
ENDBRANCH   2   3
BRANCH   2   6
HETATM    6  C   UNL     1     -11.809  14.579  67.927  1.00  0.00    -0.336 C  
HETATM    7 CL   UNL     1     -12.785  13.801  65.501  1.00  0.00    -0.555 Cl 
HETATM    8  C   UNL     1     -12.034  13.338  67.052  1.00  0.00    -0.365 C  
ENDBRANCH   2   6
TORSDOF 2
ENDMDL
MODEL       22
REMARK 921   NORMALIZED FREE ENERGY PREDICTED BY IDOCK:   -2.88 KCAL/MOL
REMARK 922        TOTAL FREE ENERGY PREDICTED BY IDOCK:   -3.25 KCAL/MOL
REMARK 923 INTER-LIGAND FREE ENERGY PREDICTED BY IDOCK:   -3.20 KCAL/MOL
REMARK 924 INTRA-LIGAND FREE ENERGY PREDICTED BY IDOCK:   -0.05 KCAL/MOL
REMARK 927      BINDING AFFINITY PREDICTED BY RF-SCORE:    0.00 PKD
ROOT
HETATM    1  C   UNL     1     -11.066  10.829  67.788  1.00  0.00    -0.318 C  
HETATM    2  N   UNL     1     -11.907  11.865  67.171  1.00  0.00    -0.620 NA 
ENDROOT
BRANCH   2   3
HETATM    3  C   UNL     1     -11.814  13.099  67.993  1.00  0.00    -0.358 C  
HETATM    4 CL   UNL     1     -10.667  15.482  68.658  1.00  0.00    -0.243 Cl 
HETATM    5  C   UNL     1     -10.592  13.978  67.700  1.00  0.00    -0.249 C  
ENDBRANCH   2   3
BRANCH   2   6
HETATM    6  C   UNL     1     -11.506  12.114  65.767  1.00  0.00    -0.361 C  
HETATM    7 CL   UNL     1     -11.980  13.090  63.263  1.00  0.00    -0.601 Cl 
HETATM    8  C   UNL     1     -12.617  12.702  64.885  1.00  0.00    -0.450 C  
ENDBRANCH   2   6
TORSDOF 2
ENDMDL
MODEL       23
REMARK 921   NORMALIZED FREE ENERGY PREDICTED BY IDOCK:   -2.88 KCAL/MOL
REMARK 922        TOTAL FREE ENERGY PREDICTED BY IDOCK:   -3.24 KCAL/MOL
REMARK 923 INTER-LIGAND FREE ENERGY PREDICTED BY IDOCK:   -3.21 KCAL/MOL
REMARK 924 INTRA-LIGAND FREE ENERGY PREDICTED BY IDOCK:   -0.03 KCAL/MOL
REMARK 927      BINDING AFFINITY PREDICTED BY RF-SCORE:    0.00 PKD
ROOT
HETATM    1  C   UNL     1     -10.745  14.577  67.259  1.00  0.00    -0.287 C  
HETATM    2  N   UNL     1     -10.145  15.067  66.009  1.00  0.00    -0.282 NA 
ENDROOT
BRANCH   2   3
HETATM    3  C   UNL     1     -10.481  14.115  64.921  1.00  0.00    -0.438 C  
HETATM    4 CL   UNL     1     -12.247  12.858  63.265  1.00  0.00    -0.590 Cl 
HETATM    5  C   UNL     1     -11.983  13.921  64.674  1.00  0.00    -0.419 C  
ENDBRANCH   2   3
BRANCH   2   6
HETATM    6  C   UNL     1     -10.607  16.438  65.696  1.00  0.00    -0.323 C  
HETATM    7 CL   UNL     1     -10.466  19.150  65.971  1.00  0.00    -0.550 Cl 
HETATM    8  C   UNL     1      -9.939  17.540  66.532  1.00  0.00    -0.321 C  
ENDBRANCH   2   6
TORSDOF 2
ENDMDL
MODEL       24
REMARK 921   NORMALIZED FREE ENERGY PREDICTED BY IDOCK:   -2.87 KCAL/MOL
REMARK 922        TOTAL FREE ENERGY PREDICTED BY IDOCK:   -3.23 KCAL/MOL
REMARK 923 INTER-LIGAND FREE ENERGY PREDICTED BY IDOCK:   -3.24 KCAL/MOL
REMARK 924 INTRA-LIGAND FREE ENERGY PREDICTED BY IDOCK:    0.01 KCAL/MOL
REMARK 927      BINDING AFFINITY PREDICTED BY RF-SCORE:    0.00 PKD
ROOT
HETATM    1  C   UNL     1     -12.892  13.749  65.580  1.00  0.00    -0.408 C  
HETATM    2  N   UNL     1     -12.259  14.047  64.287  1.00  0.00    -0.598 NA 
ENDROOT
BRANCH   2   3
HETATM    3  C   UNL     1     -11.100  14.944  64.526  1.00  0.00    -0.235 C  
HETATM    4 CL   UNL     1      -9.252  16.131  66.143  1.00  0.00    -0.360 Cl 
HETATM    5  C   UNL     1     -10.730  15.140  66.002  1.00  0.00    -0.329 C  
ENDBRANCH   2   3
BRANCH   2   6
HETATM    6  C   UNL     1     -11.851  12.804  63.592  1.00  0.00    -0.532 C  
HETATM    7 CL   UNL     1     -10.029  10.860  63.002  1.00  0.00    -0.352 Cl 
HETATM    8  C   UNL     1     -10.369  12.440  63.760  1.00  0.00    -0.425 C  
ENDBRANCH   2   6
TORSDOF 2
ENDMDL
MODEL       25
REMARK 921   NORMALIZED FREE ENERGY PREDICTED BY IDOCK:   -2.87 KCAL/MOL
REMARK 922        TOTAL FREE ENERGY PREDICTED BY IDOCK:   -3.23 KCAL/MOL
REMARK 923 INTER-LIGAND FREE ENERGY PREDICTED BY IDOCK:   -3.19 KCAL/MOL
REMARK 924 INTRA-LIGAND FREE ENERGY PREDICTED BY IDOCK:   -0.04 KCAL/MOL
REMARK 927      BINDING AFFINITY PREDICTED BY RF-SCORE:    0.00 PKD
ROOT
HETATM    1  C   UNL     1     -13.112  10.552  71.529  1.00  0.00    -0.430 C  
HETATM    2  N   UNL     1     -12.260  11.571  70.896  1.00  0.00    -0.357 NA 
ENDROOT
BRANCH   2   3
HETATM    3  C   UNL     1     -11.991  11.156  69.496  1.00  0.00    -0.355 C  
HETATM    4 CL   UNL     1     -11.344  11.681  66.899  1.00  0.00    -0.379 Cl 
HETATM    5  C   UNL     1     -11.783  12.312  68.510  1.00  0.00    -0.331 C  
ENDBRANCH   2   3
BRANCH   2   6
HETATM    6  C   UNL     1     -12.892  12.909  70.957  1.00  0.00    -0.184 C  
HETATM    7 CL   UNL     1     -14.090  14.949  72.317  1.00  0.00    -0.572 Cl 
HETATM    8  C   UNL     1     -13.488  13.268  72.326  1.00  0.00    -0.582 C  
ENDBRANCH   2   6
TORSDOF 2
ENDMDL
MODEL       26
REMARK 921   NORMALIZED FREE ENERGY PREDICTED BY IDOCK:   -2.87 KCAL/MOL
REMARK 922        TOTAL FREE ENERGY PREDICTED BY IDOCK:   -3.23 KCAL/MOL
REMARK 923 INTER-LIGAND FREE ENERGY PREDICTED BY IDOCK:   -3.20 KCAL/MOL
REMARK 924 INTRA-LIGAND FREE ENERGY PREDICTED BY IDOCK:   -0.03 KCAL/MOL
REMARK 927      BINDING AFFINITY PREDICTED BY RF-SCORE:    0.00 PKD
ROOT
HETATM    1  C   UNL     1      -9.359  15.695  69.233  1.00  0.00    -0.267 C  
HETATM    2  N   UNL     1     -10.479  16.152  68.397  1.00  0.00    -0.261 NA 
ENDROOT
BRANCH   2   3
HETATM    3  C   UNL     1     -11.749  15.737  69.043  1.00  0.00    -0.396 C  
HETATM    4 CL   UNL     1     -13.379  15.445  71.210  1.00  0.00    -0.562 Cl 
HETATM    5  C   UNL     1     -11.762  15.850  70.572  1.00  0.00    -0.373 C  
ENDBRANCH   2   3
BRANCH   2   6
HETATM    6  C   UNL     1     -10.427  17.618  68.189  1.00  0.00    -0.385 C  
HETATM    7 CL   UNL     1     -10.475  19.827  66.588  1.00  0.00    -0.586 Cl 
HETATM    8  C   UNL     1     -10.393  18.049  66.715  1.00  0.00    -0.367 C  
ENDBRANCH   2   6
TORSDOF 2
ENDMDL
MODEL       27
REMARK 921   NORMALIZED FREE ENERGY PREDICTED BY IDOCK:   -2.85 KCAL/MOL
REMARK 922        TOTAL FREE ENERGY PREDICTED BY IDOCK:   -3.21 KCAL/MOL
REMARK 923 INTER-LIGAND FREE ENERGY PREDICTED BY IDOCK:   -3.17 KCAL/MOL
REMARK 924 INTRA-LIGAND FREE ENERGY PREDICTED BY IDOCK:   -0.03 KCAL/MOL
REMARK 927      BINDING AFFINITY PREDICTED BY RF-SCORE:    0.00 PKD
ROOT
HETATM    1  C   UNL     1     -10.467  14.907  68.877  1.00  0.00    -0.242 C  
HETATM    2  N   UNL     1     -11.181  13.662  69.197  1.00  0.00    -0.263 NA 
ENDROOT
BRANCH   2   3
HETATM    3  C   UNL     1     -12.162  13.947  70.276  1.00  0.00    -0.358 C  
HETATM    4 CL   UNL     1     -13.667  13.220  72.431  1.00  0.00    -0.700 Cl 
HETATM    5  C   UNL     1     -12.592  12.724  71.094  1.00  0.00    -0.271 C  
ENDBRANCH   2   3
BRANCH   2   6
HETATM    6  C   UNL     1     -11.840  13.099  67.997  1.00  0.00    -0.358 C  
HETATM    7 CL   UNL     1     -12.631  13.247  65.389  1.00  0.00    -0.539 Cl 
HETATM    8  C   UNL     1     -11.954  14.076  66.818  1.00  0.00    -0.444 C  
ENDBRANCH   2   6
TORSDOF 2
ENDMDL
MODEL       28
REMARK 921   NORMALIZED FREE ENERGY PREDICTED BY IDOCK:   -2.85 KCAL/MOL
REMARK 922        TOTAL FREE ENERGY PREDICTED BY IDOCK:   -3.21 KCAL/MOL
REMARK 923 INTER-LIGAND FREE ENERGY PREDICTED BY IDOCK:   -3.16 KCAL/MOL
REMARK 924 INTRA-LIGAND FREE ENERGY PREDICTED BY IDOCK:   -0.04 KCAL/MOL
REMARK 927      BINDING AFFINITY PREDICTED BY RF-SCORE:    0.00 PKD
ROOT
HETATM    1  C   UNL     1     -11.521  12.024  69.123  1.00  0.00    -0.300 C  
HETATM    2  N   UNL     1     -11.560  13.469  69.389  1.00  0.00    -0.297 NA 
ENDROOT
BRANCH   2   3
HETATM    3  C   UNL     1     -12.031  14.161  68.162  1.00  0.00    -0.332 C  
HETATM    4 CL   UNL     1     -12.738  14.204  65.528  1.00  0.00    -0.519 Cl 
HETATM    5  C   UNL     1     -12.033  13.297  66.895  1.00  0.00    -0.375 C  
ENDBRANCH   2   3
BRANCH   2   6
HETATM    6  C   UNL     1     -12.422  13.776  70.553  1.00  0.00    -0.339 C  
HETATM    7 CL   UNL     1     -13.983  15.471  72.015  1.00  0.00    -0.593 Cl 
HETATM    8  C   UNL     1     -12.837  15.250  70.664  1.00  0.00    -0.409 C  
ENDBRANCH   2   6
TORSDOF 2
ENDMDL
MODEL       29
REMARK 921   NORMALIZED FREE ENERGY PREDICTED BY IDOCK:   -2.82 KCAL/MOL
REMARK 922        TOTAL FREE ENERGY PREDICTED BY IDOCK:   -3.17 KCAL/MOL
REMARK 923 INTER-LIGAND FREE ENERGY PREDICTED BY IDOCK:   -3.15 KCAL/MOL
REMARK 924 INTRA-LIGAND FREE ENERGY PREDICTED BY IDOCK:   -0.03 KCAL/MOL
REMARK 927      BINDING AFFINITY PREDICTED BY RF-SCORE:    0.00 PKD
ROOT
HETATM    1  C   UNL     1     -11.293  10.508  70.266  1.00  0.00    -0.327 C  
HETATM    2  N   UNL     1     -12.439   9.904  70.960  1.00  0.00    -0.332 NA 
ENDROOT
BRANCH   2   3
HETATM    3  C   UNL     1     -11.954   8.742  71.748  1.00  0.00    -0.349 C  
HETATM    4 CL   UNL     1     -11.866   6.078  72.327  1.00  0.00    -0.355 Cl 
HETATM    5  C   UNL     1     -12.625   7.406  71.407  1.00  0.00    -0.370 C  
ENDBRANCH   2   3
BRANCH   2   6
HETATM    6  C   UNL     1     -13.128  10.895  71.819  1.00  0.00    -0.459 C  
HETATM    7 CL   UNL     1     -13.855  13.450  72.443  1.00  0.00    -0.693 Cl 
HETATM    8  C   UNL     1     -12.866  12.358  71.434  1.00  0.00    -0.260 C  
ENDBRANCH   2   6
TORSDOF 2
ENDMDL
MODEL       30
REMARK 921   NORMALIZED FREE ENERGY PREDICTED BY IDOCK:   -2.81 KCAL/MOL
REMARK 922        TOTAL FREE ENERGY PREDICTED BY IDOCK:   -3.17 KCAL/MOL
REMARK 923 INTER-LIGAND FREE ENERGY PREDICTED BY IDOCK:   -3.14 KCAL/MOL
REMARK 924 INTRA-LIGAND FREE ENERGY PREDICTED BY IDOCK:   -0.02 KCAL/MOL
REMARK 927      BINDING AFFINITY PREDICTED BY RF-SCORE:    0.00 PKD
ROOT
HETATM    1  C   UNL     1     -14.289   8.371  71.727  1.00  0.00    -0.472 C  
HETATM    2  N   UNL     1     -12.944   8.944  71.574  1.00  0.00    -0.336 NA 
ENDROOT
BRANCH   2   3
HETATM    3  C   UNL     1     -13.030  10.412  71.780  1.00  0.00    -0.475 C  
HETATM    4 CL   UNL     1     -12.656  12.993  70.983  1.00  0.00    -0.433 Cl 
HETATM    5  C   UNL     1     -12.370  11.257  70.683  1.00  0.00    -0.383 C  
ENDBRANCH   2   3
BRANCH   2   6
HETATM    6  C   UNL     1     -11.985   8.317  72.513  1.00  0.00    -0.356 C  
HETATM    7 CL   UNL     1      -9.454   7.861  73.425  1.00  0.00    -0.346 Cl 
HETATM    8  C   UNL     1     -10.509   8.535  72.153  1.00  0.00    -0.342 C  
ENDBRANCH   2   6
TORSDOF 2
ENDMDL
MODEL       31
REMARK 921   NORMALIZED FREE ENERGY PREDICTED BY IDOCK:   -2.81 KCAL/MOL
REMARK 922        TOTAL FREE ENERGY PREDICTED BY IDOCK:   -3.16 KCAL/MOL
REMARK 923 INTER-LIGAND FREE ENERGY PREDICTED BY IDOCK:   -3.13 KCAL/MOL
REMARK 924 INTRA-LIGAND FREE ENERGY PREDICTED BY IDOCK:   -0.03 KCAL/MOL
REMARK 927      BINDING AFFINITY PREDICTED BY RF-SCORE:    0.00 PKD
ROOT
HETATM    1  C   UNL     1     -11.857  12.536  69.885  1.00  0.00    -0.303 C  
HETATM    2  N   UNL     1     -12.373  11.964  71.138  1.00  0.00    -0.271 NA 
ENDROOT
BRANCH   2   3
HETATM    3  C   UNL     1     -13.360  12.911  71.716  1.00  0.00    -0.359 C  
HETATM    4 CL   UNL     1     -14.299  15.423  72.212  1.00  0.00    -0.638 Cl 
HETATM    5  C   UNL     1     -12.978  14.391  71.598  1.00  0.00    -0.341 C  
ENDBRANCH   2   3
BRANCH   2   6
HETATM    6  C   UNL     1     -12.969  10.627  70.910  1.00  0.00    -0.340 C  
HETATM    7 CL   UNL     1     -14.014   8.271  71.806  1.00  0.00    -0.441 Cl 
HETATM    8  C   UNL     1     -13.163   9.794  72.185  1.00  0.00    -0.436 C  
ENDBRANCH   2   6
TORSDOF 2
ENDMDL
MODEL       32
REMARK 921   NORMALIZED FREE ENERGY PREDICTED BY IDOCK:   -2.81 KCAL/MOL
REMARK 922        TOTAL FREE ENERGY PREDICTED BY IDOCK:   -3.16 KCAL/MOL
REMARK 923 INTER-LIGAND FREE ENERGY PREDICTED BY IDOCK:   -3.13 KCAL/MOL
REMARK 924 INTRA-LIGAND FREE ENERGY PREDICTED BY IDOCK:   -0.03 KCAL/MOL
REMARK 927      BINDING AFFINITY PREDICTED BY RF-SCORE:    0.00 PKD
ROOT
HETATM    1  C   UNL     1     -10.045  14.125  67.201  1.00  0.00    -0.258 C  
HETATM    2  N   UNL     1     -11.502  13.930  67.168  1.00  0.00    -0.329 NA 
ENDROOT
BRANCH   2   3
HETATM    3  C   UNL     1     -11.816  12.903  66.143  1.00  0.00    -0.429 C  
HETATM    4 CL   UNL     1     -12.596  12.139  63.643  1.00  0.00    -0.644 Cl 
HETATM    5  C   UNL     1     -12.383  13.456  64.829  1.00  0.00    -0.396 C  
ENDBRANCH   2   3
BRANCH   2   6
HETATM    6  C   UNL     1     -12.021  13.546  68.501  1.00  0.00    -0.344 C  
HETATM    7 CL   UNL     1     -12.530  14.068  71.131  1.00  0.00    -0.426 Cl 
HETATM    8  C   UNL     1     -11.739  14.569  69.611  1.00  0.00    -0.307 C  
ENDBRANCH   2   6
TORSDOF 2
ENDMDL
MODEL       33
REMARK 921   NORMALIZED FREE ENERGY PREDICTED BY IDOCK:   -2.81 KCAL/MOL
REMARK 922        TOTAL FREE ENERGY PREDICTED BY IDOCK:   -3.16 KCAL/MOL
REMARK 923 INTER-LIGAND FREE ENERGY PREDICTED BY IDOCK:   -3.13 KCAL/MOL
REMARK 924 INTRA-LIGAND FREE ENERGY PREDICTED BY IDOCK:   -0.03 KCAL/MOL
REMARK 927      BINDING AFFINITY PREDICTED BY RF-SCORE:    0.00 PKD
ROOT
HETATM    1  C   UNL     1     -11.773  12.133  68.617  1.00  0.00    -0.330 C  
HETATM    2  N   UNL     1     -12.084  13.569  68.557  1.00  0.00    -0.334 NA 
ENDROOT
BRANCH   2   3
HETATM    3  C   UNL     1     -11.566  14.214  69.790  1.00  0.00    -0.290 C  
HETATM    4 CL   UNL     1     -11.707  16.050  71.803  1.00  0.00    -0.560 Cl 
HETATM    5  C   UNL     1     -12.351  15.449  70.250  1.00  0.00    -0.388 C  
ENDBRANCH   2   3
BRANCH   2   6
HETATM    6  C   UNL     1     -11.517  14.190  67.338  1.00  0.00    -0.345 C  
HETATM    7 CL   UNL     1     -11.655  14.890  64.704  1.00  0.00    -0.407 Cl 
HETATM    8  C   UNL     1     -12.359  13.983  66.071  1.00  0.00    -0.473 C  
ENDBRANCH   2   6
TORSDOF 2
ENDMDL
MODEL       34
REMARK 921   NORMALIZED FREE ENERGY PREDICTED BY IDOCK:   -2.80 KCAL/MOL
REMARK 922        TOTAL FREE ENERGY PREDICTED BY IDOCK:   -3.15 KCAL/MOL
REMARK 923 INTER-LIGAND FREE ENERGY PREDICTED BY IDOCK:   -3.12 KCAL/MOL
REMARK 924 INTRA-LIGAND FREE ENERGY PREDICTED BY IDOCK:   -0.03 KCAL/MOL
REMARK 927      BINDING AFFINITY PREDICTED BY RF-SCORE:    0.00 PKD
ROOT
HETATM    1  C   UNL     1      -9.664  15.077  67.327  1.00  0.00    -0.220 C  
HETATM    2  N   UNL     1     -10.663  15.532  66.349  1.00  0.00    -0.307 NA 
ENDROOT
BRANCH   2   3
HETATM    3  C   UNL     1     -10.308  16.909  65.921  1.00  0.00    -0.315 C  
HETATM    4 CL   UNL     1      -9.880  19.559  66.406  1.00  0.00    -0.466 Cl 
HETATM    5  C   UNL     1     -10.456  17.981  67.008  1.00  0.00    -0.351 C  
ENDBRANCH   2   3
BRANCH   2   6
HETATM    6  C   UNL     1     -10.743  14.607  65.195  1.00  0.00    -0.414 C  
HETATM    7 CL   UNL     1     -12.151  13.087  63.419  1.00  0.00    -0.630 Cl 
HETATM    8  C   UNL     1     -12.154  14.072  64.907  1.00  0.00    -0.420 C  
ENDBRANCH   2   6
TORSDOF 2
ENDMDL
MODEL       35
REMARK 921   NORMALIZED FREE ENERGY PREDICTED BY IDOCK:   -2.78 KCAL/MOL
REMARK 922        TOTAL FREE ENERGY PREDICTED BY IDOCK:   -3.13 KCAL/MOL
REMARK 923 INTER-LIGAND FREE ENERGY PREDICTED BY IDOCK:   -3.07 KCAL/MOL
REMARK 924 INTRA-LIGAND FREE ENERGY PREDICTED BY IDOCK:   -0.06 KCAL/MOL
REMARK 927      BINDING AFFINITY PREDICTED BY RF-SCORE:    0.00 PKD
ROOT
HETATM    1  C   UNL     1     -10.336  14.116  69.032  1.00  0.00    -0.150 C  
HETATM    2  N   UNL     1     -10.680  15.343  69.766  1.00  0.00    -0.271 NA 
ENDROOT
BRANCH   2   3
HETATM    3  C   UNL     1     -11.082  16.381  68.784  1.00  0.00    -0.337 C  
HETATM    4 CL   UNL     1     -10.716  18.748  67.479  1.00  0.00    -0.494 Cl 
HETATM    5  C   UNL     1     -10.208  17.641  68.784  1.00  0.00    -0.373 C  
ENDBRANCH   2   3
BRANCH   2   6
HETATM    6  C   UNL     1     -11.748  15.090  70.760  1.00  0.00    -0.320 C  
HETATM    7 CL   UNL     1     -13.299  15.844  72.875  1.00  0.00    -0.620 Cl 
HETATM    8  C   UNL     1     -11.897  16.186  71.825  1.00  0.00    -0.506 C  
ENDBRANCH   2   6
TORSDOF 2
ENDMDL
MODEL       36
REMARK 921   NORMALIZED FREE ENERGY PREDICTED BY IDOCK:   -2.75 KCAL/MOL
REMARK 922        TOTAL FREE ENERGY PREDICTED BY IDOCK:   -3.10 KCAL/MOL
REMARK 923 INTER-LIGAND FREE ENERGY PREDICTED BY IDOCK:   -3.04 KCAL/MOL
REMARK 924 INTRA-LIGAND FREE ENERGY PREDICTED BY IDOCK:   -0.06 KCAL/MOL
REMARK 927      BINDING AFFINITY PREDICTED BY RF-SCORE:    0.00 PKD
ROOT
HETATM    1  C   UNL     1     -11.194  16.136  69.702  1.00  0.00    -0.331 C  
HETATM    2  N   UNL     1     -11.017  16.621  68.325  1.00  0.00    -0.359 NA 
ENDROOT
BRANCH   2   3
HETATM    3  C   UNL     1     -10.252  17.893  68.368  1.00  0.00    -0.394 C  
HETATM    4 CL   UNL     1      -9.854  20.502  67.679  1.00  0.00    -0.539 Cl 
HETATM    5  C   UNL     1     -10.778  18.993  67.438  1.00  0.00    -0.473 C  
ENDBRANCH   2   3
BRANCH   2   6
HETATM    6  C   UNL     1     -10.342  15.607  67.483  1.00  0.00    -0.277 C  
HETATM    7 CL   UNL     1     -10.037  14.231  65.146  1.00  0.00    -0.393 Cl 
HETATM    8  C   UNL     1     -11.014  15.360  66.125  1.00  0.00    -0.279 C  
ENDBRANCH   2   6
TORSDOF 2
ENDMDL
MODEL       37
REMARK 921   NORMALIZED FREE ENERGY PREDICTED BY IDOCK:   -2.75 KCAL/MOL
REMARK 922        TOTAL FREE ENERGY PREDICTED BY IDOCK:   -3.10 KCAL/MOL
REMARK 923 INTER-LIGAND FREE ENERGY PREDICTED BY IDOCK:   -3.06 KCAL/MOL
REMARK 924 INTRA-LIGAND FREE ENERGY PREDICTED BY IDOCK:   -0.04 KCAL/MOL
REMARK 927      BINDING AFFINITY PREDICTED BY RF-SCORE:    0.00 PKD
ROOT
HETATM    1  C   UNL     1     -11.481  12.078  67.479  1.00  0.00    -0.333 C  
HETATM    2  N   UNL     1     -12.257  12.909  66.547  1.00  0.00    -0.461 NA 
ENDROOT
BRANCH   2   3
HETATM    3  C   UNL     1     -11.971  14.337  66.839  1.00  0.00    -0.438 C  
HETATM    4 CL   UNL     1     -11.265  16.369  68.516  1.00  0.00    -0.363 Cl 
HETATM    5  C   UNL     1     -11.721  14.655  68.319  1.00  0.00    -0.328 C  
ENDBRANCH   2   3
BRANCH   2   6
HETATM    6  C   UNL     1     -11.947  12.568  65.140  1.00  0.00    -0.434 C  
HETATM    7 CL   UNL     1     -10.367  11.429  63.229  1.00  0.00    -0.418 Cl 
HETATM    8  C   UNL     1     -10.569  11.923  64.932  1.00  0.00    -0.287 C  
ENDBRANCH   2   6
TORSDOF 2
ENDMDL
MODEL       38
REMARK 921   NORMALIZED FREE ENERGY PREDICTED BY IDOCK:   -2.75 KCAL/MOL
REMARK 922        TOTAL FREE ENERGY PREDICTED BY IDOCK:   -3.10 KCAL/MOL
REMARK 923 INTER-LIGAND FREE ENERGY PREDICTED BY IDOCK:   -3.03 KCAL/MOL
REMARK 924 INTRA-LIGAND FREE ENERGY PREDICTED BY IDOCK:   -0.06 KCAL/MOL
REMARK 927      BINDING AFFINITY PREDICTED BY RF-SCORE:    0.00 PKD
ROOT
HETATM    1  C   UNL     1     -11.392  16.033  64.677  1.00  0.00    -0.306 C  
HETATM    2  N   UNL     1     -10.359  15.045  65.022  1.00  0.00    -0.385 NA 
ENDROOT
BRANCH   2   3
HETATM    3  C   UNL     1     -10.095  15.130  66.481  1.00  0.00    -0.269 C  
HETATM    4 CL   UNL     1     -10.877  15.016  69.092  1.00  0.00    -0.241 Cl 
HETATM    5  C   UNL     1     -11.342  15.029  67.369  1.00  0.00    -0.332 C  
ENDBRANCH   2   3
BRANCH   2   6
HETATM    6  C   UNL     1     -10.769  13.680  64.621  1.00  0.00    -0.421 C  
HETATM    7 CL   UNL     1     -12.461  11.941  63.371  1.00  0.00    -0.669 Cl 
HETATM    8  C   UNL     1     -12.140  13.605  63.934  1.00  0.00    -0.411 C  
ENDBRANCH   2   6
TORSDOF 2
ENDMDL
MODEL       39
REMARK 921   NORMALIZED FREE ENERGY PREDICTED BY IDOCK:   -2.74 KCAL/MOL
REMARK 922        TOTAL FREE ENERGY PREDICTED BY IDOCK:   -3.08 KCAL/MOL
REMARK 923 INTER-LIGAND FREE ENERGY PREDICTED BY IDOCK:   -3.02 KCAL/MOL
REMARK 924 INTRA-LIGAND FREE ENERGY PREDICTED BY IDOCK:   -0.06 KCAL/MOL
REMARK 927      BINDING AFFINITY PREDICTED BY RF-SCORE:    0.00 PKD
ROOT
HETATM    1  C   UNL     1     -10.461  19.537  66.175  1.00  0.00    -0.518 C  
HETATM    2  N   UNL     1      -9.544  18.403  65.987  1.00  0.00    -0.507 NA 
ENDROOT
BRANCH   2   3
HETATM    3  C   UNL     1      -8.205  18.791  66.497  1.00  0.00    -0.291 C  
HETATM    4 CL   UNL     1      -6.539  20.380  67.961  1.00  0.00    -0.324 Cl 
HETATM    5  C   UNL     1      -8.174  20.096  67.302  1.00  0.00    -0.336 C  
ENDBRANCH   2   3
BRANCH   2   6
HETATM    6  C   UNL     1     -10.053  17.187  66.663  1.00  0.00    -0.306 C  
HETATM    7 CL   UNL     1     -11.437  15.938  68.656  1.00  0.00    -0.382 Cl 
HETATM    8  C   UNL     1     -10.744  17.450  68.008  1.00  0.00    -0.359 C  
ENDBRANCH   2   6
TORSDOF 2
ENDMDL
MODEL       40
REMARK 921   NORMALIZED FREE ENERGY PREDICTED BY IDOCK:   -2.73 KCAL/MOL
REMARK 922        TOTAL FREE ENERGY PREDICTED BY IDOCK:   -3.08 KCAL/MOL
REMARK 923 INTER-LIGAND FREE ENERGY PREDICTED BY IDOCK:   -3.02 KCAL/MOL
REMARK 924 INTRA-LIGAND FREE ENERGY PREDICTED BY IDOCK:   -0.05 KCAL/MOL
REMARK 927      BINDING AFFINITY PREDICTED BY RF-SCORE:    0.00 PKD
ROOT
HETATM    1  C   UNL     1     -11.951  13.487  67.692  1.00  0.00    -0.336 C  
HETATM    2  N   UNL     1     -10.867  14.116  66.924  1.00  0.00    -0.293 NA 
ENDROOT
BRANCH   2   3
HETATM    3  C   UNL     1     -10.960  13.656  65.515  1.00  0.00    -0.293 C  
HETATM    4 CL   UNL     1     -12.170  12.283  63.493  1.00  0.00    -0.641 Cl 
HETATM    5  C   UNL     1     -12.087  12.654  65.237  1.00  0.00    -0.467 C  
ENDBRANCH   2   3
BRANCH   2   6
HETATM    6  C   UNL     1     -10.929  15.592  67.020  1.00  0.00    -0.261 C  
HETATM    7 CL   UNL     1     -10.570  18.092  65.986  1.00  0.00    -0.360 Cl 
HETATM    8  C   UNL     1     -10.310  16.334  65.827  1.00  0.00    -0.374 C  
ENDBRANCH   2   6
TORSDOF 2
ENDMDL
MODEL       41
REMARK 921   NORMALIZED FREE ENERGY PREDICTED BY IDOCK:   -2.73 KCAL/MOL
REMARK 922        TOTAL FREE ENERGY PREDICTED BY IDOCK:   -3.07 KCAL/MOL
REMARK 923 INTER-LIGAND FREE ENERGY PREDICTED BY IDOCK:   -3.05 KCAL/MOL
REMARK 924 INTRA-LIGAND FREE ENERGY PREDICTED BY IDOCK:   -0.03 KCAL/MOL
REMARK 927      BINDING AFFINITY PREDICTED BY RF-SCORE:    0.00 PKD
ROOT
HETATM    1  C   UNL     1     -12.224  14.558  64.310  1.00  0.00    -0.415 C  
HETATM    2  N   UNL     1     -10.828  14.528  64.769  1.00  0.00    -0.406 NA 
ENDROOT
BRANCH   2   3
HETATM    3  C   UNL     1     -10.757  15.172  66.105  1.00  0.00    -0.325 C  
HETATM    4 CL   UNL     1     -10.299  17.305  67.741  1.00  0.00    -0.342 Cl 
HETATM    5  C   UNL     1     -10.212  16.605  66.102  1.00  0.00    -0.348 C  
ENDBRANCH   2   3
BRANCH   2   6
HETATM    6  C   UNL     1     -10.306  13.142  64.803  1.00  0.00    -0.350 C  
HETATM    7 CL   UNL     1     -10.018  10.648  63.733  1.00  0.00    -0.392 Cl 
HETATM    8  C   UNL     1     -10.820  12.242  63.670  1.00  0.00    -0.469 C  
ENDBRANCH   2   6
TORSDOF 2
ENDMDL
MODEL       42
REMARK 921   NORMALIZED FREE ENERGY PREDICTED BY IDOCK:   -2.72 KCAL/MOL
REMARK 922        TOTAL FREE ENERGY PREDICTED BY IDOCK:   -3.06 KCAL/MOL
REMARK 923 INTER-LIGAND FREE ENERGY PREDICTED BY IDOCK:   -3.03 KCAL/MOL
REMARK 924 INTRA-LIGAND FREE ENERGY PREDICTED BY IDOCK:   -0.03 KCAL/MOL
REMARK 927      BINDING AFFINITY PREDICTED BY RF-SCORE:    0.00 PKD
ROOT
HETATM    1  C   UNL     1     -12.195  12.681  70.481  1.00  0.00    -0.299 C  
HETATM    2  N   UNL     1     -12.401  14.120  70.257  1.00  0.00    -0.340 NA 
ENDROOT
BRANCH   2   3
HETATM    3  C   UNL     1     -12.174  14.833  71.539  1.00  0.00    -0.347 C  
HETATM    4 CL   UNL     1     -12.632  15.238  74.197  1.00  0.00    -0.694 Cl 
HETATM    5  C   UNL     1     -13.091  14.400  72.689  1.00  0.00    -0.476 C  
ENDBRANCH   2   3
BRANCH   2   6
HETATM    6  C   UNL     1     -11.512  14.627  69.186  1.00  0.00    -0.294 C  
HETATM    7 CL   UNL     1     -10.986  15.236  66.578  1.00  0.00    -0.313 Cl 
HETATM    8  C   UNL     1     -12.073  14.465  67.766  1.00  0.00    -0.269 C  
ENDBRANCH   2   6
TORSDOF 2
ENDMDL
MODEL       43
REMARK 921   NORMALIZED FREE ENERGY PREDICTED BY IDOCK:   -2.71 KCAL/MOL
REMARK 922        TOTAL FREE ENERGY PREDICTED BY IDOCK:   -3.06 KCAL/MOL
REMARK 923 INTER-LIGAND FREE ENERGY PREDICTED BY IDOCK:   -3.00 KCAL/MOL
REMARK 924 INTRA-LIGAND FREE ENERGY PREDICTED BY IDOCK:   -0.06 KCAL/MOL
REMARK 927      BINDING AFFINITY PREDICTED BY RF-SCORE:    0.00 PKD
ROOT
HETATM    1  C   UNL     1     -11.050  15.325  64.720  1.00  0.00    -0.394 C  
HETATM    2  N   UNL     1     -10.271  15.935  65.807  1.00  0.00    -0.342 NA 
ENDROOT
BRANCH   2   3
HETATM    3  C   UNL     1     -10.521  17.398  65.803  1.00  0.00    -0.215 C  
HETATM    4 CL   UNL     1     -10.535  19.855  66.989  1.00  0.00    -0.577 Cl 
HETATM    5  C   UNL     1     -10.330  18.089  67.158  1.00  0.00    -0.374 C  
ENDBRANCH   2   3
BRANCH   2   6
HETATM    6  C   UNL     1     -10.610  15.328  67.115  1.00  0.00    -0.302 C  
HETATM    7 CL   UNL     1     -12.086  13.652  68.683  1.00  0.00    -0.384 Cl 
HETATM    8  C   UNL     1     -11.860  14.436  67.095  1.00  0.00    -0.410 C  
ENDBRANCH   2   6
TORSDOF 2
ENDMDL
MODEL       44
REMARK 921   NORMALIZED FREE ENERGY PREDICTED BY IDOCK:   -2.71 KCAL/MOL
REMARK 922        TOTAL FREE ENERGY PREDICTED BY IDOCK:   -3.05 KCAL/MOL
REMARK 923 INTER-LIGAND FREE ENERGY PREDICTED BY IDOCK:   -3.03 KCAL/MOL
REMARK 924 INTRA-LIGAND FREE ENERGY PREDICTED BY IDOCK:   -0.03 KCAL/MOL
REMARK 927      BINDING AFFINITY PREDICTED BY RF-SCORE:    0.00 PKD
ROOT
HETATM    1  C   UNL     1      -9.161  16.387  66.393  1.00  0.00    -0.306 C  
HETATM    2  N   UNL     1     -10.477  16.810  66.894  1.00  0.00    -0.296 NA 
ENDROOT
BRANCH   2   3
HETATM    3  C   UNL     1     -10.941  15.814  67.893  1.00  0.00    -0.324 C  
HETATM    4 CL   UNL     1     -12.031  13.412  68.589  1.00  0.00    -0.386 Cl 
HETATM    5  C   UNL     1     -11.639  14.583  67.300  1.00  0.00    -0.385 C  
ENDBRANCH   2   3
BRANCH   2   6
HETATM    6  C   UNL     1     -10.418  18.173  67.470  1.00  0.00    -0.410 C  
HETATM    7 CL   UNL     1      -9.860  20.839  67.299  1.00  0.00    -0.560 Cl 
HETATM    8  C   UNL     1      -9.746  19.216  66.565  1.00  0.00    -0.359 C  
ENDBRANCH   2   6
TORSDOF 2
ENDMDL
MODEL       45
REMARK 921   NORMALIZED FREE ENERGY PREDICTED BY IDOCK:   -2.70 KCAL/MOL
REMARK 922        TOTAL FREE ENERGY PREDICTED BY IDOCK:   -3.05 KCAL/MOL
REMARK 923 INTER-LIGAND FREE ENERGY PREDICTED BY IDOCK:   -2.98 KCAL/MOL
REMARK 924 INTRA-LIGAND FREE ENERGY PREDICTED BY IDOCK:   -0.06 KCAL/MOL
REMARK 927      BINDING AFFINITY PREDICTED BY RF-SCORE:    0.00 PKD
ROOT
HETATM    1  C   UNL     1     -11.367  14.912  66.924  1.00  0.00    -0.337 C  
HETATM    2  N   UNL     1     -10.373  15.837  67.488  1.00  0.00    -0.274 NA 
ENDROOT
BRANCH   2   3
HETATM    3  C   UNL     1     -10.291  17.032  66.611  1.00  0.00    -0.299 C  
HETATM    4 CL   UNL     1     -10.375  19.723  66.174  1.00  0.00    -0.598 Cl 
HETATM    5  C   UNL     1     -10.634  18.360  67.297  1.00  0.00    -0.402 C  
ENDBRANCH   2   3
BRANCH   2   6
HETATM    6  C   UNL     1     -10.715  16.206  68.881  1.00  0.00    -0.280 C  
HETATM    7 CL   UNL     1     -12.221  15.946  71.142  1.00  0.00    -0.457 Cl 
HETATM    8  C   UNL     1     -11.990  15.541  69.419  1.00  0.00    -0.336 C  
ENDBRANCH   2   6
TORSDOF 2
ENDMDL
MODEL       46
REMARK 921   NORMALIZED FREE ENERGY PREDICTED BY IDOCK:   -2.70 KCAL/MOL
REMARK 922        TOTAL FREE ENERGY PREDICTED BY IDOCK:   -3.04 KCAL/MOL
REMARK 923 INTER-LIGAND FREE ENERGY PREDICTED BY IDOCK:   -3.01 KCAL/MOL
REMARK 924 INTRA-LIGAND FREE ENERGY PREDICTED BY IDOCK:   -0.03 KCAL/MOL
REMARK 927      BINDING AFFINITY PREDICTED BY RF-SCORE:    0.00 PKD
ROOT
HETATM    1  C   UNL     1     -11.826  14.382  68.287  1.00  0.00    -0.326 C  
HETATM    2  N   UNL     1     -11.031  14.462  67.053  1.00  0.00    -0.298 NA 
ENDROOT
BRANCH   2   3
HETATM    3  C   UNL     1     -11.817  13.858  65.947  1.00  0.00    -0.382 C  
HETATM    4 CL   UNL     1     -12.139  13.078  63.353  1.00  0.00    -0.630 Cl 
HETATM    5  C   UNL     1     -11.158  13.948  64.565  1.00  0.00    -0.366 C  
ENDBRANCH   2   3
BRANCH   2   6
HETATM    6  C   UNL     1     -10.650  15.861  66.751  1.00  0.00    -0.309 C  
HETATM    7 CL   UNL     1     -10.122  18.430  67.503  1.00  0.00    -0.352 Cl 
HETATM    8  C   UNL     1     -10.737  16.815  67.950  1.00  0.00    -0.347 C  
ENDBRANCH   2   6
TORSDOF 2
ENDMDL
MODEL       47
REMARK 921   NORMALIZED FREE ENERGY PREDICTED BY IDOCK:   -2.70 KCAL/MOL
REMARK 922        TOTAL FREE ENERGY PREDICTED BY IDOCK:   -3.04 KCAL/MOL
REMARK 923 INTER-LIGAND FREE ENERGY PREDICTED BY IDOCK:   -2.98 KCAL/MOL
REMARK 924 INTRA-LIGAND FREE ENERGY PREDICTED BY IDOCK:   -0.06 KCAL/MOL
REMARK 927      BINDING AFFINITY PREDICTED BY RF-SCORE:    0.00 PKD
ROOT
HETATM    1  C   UNL     1     -10.816  11.932  66.260  1.00  0.00    -0.282 C  
HETATM    2  N   UNL     1     -11.999  12.616  66.804  1.00  0.00    -0.519 NA 
ENDROOT
BRANCH   2   3
HETATM    3  C   UNL     1     -11.861  12.692  68.280  1.00  0.00    -0.306 C  
HETATM    4 CL   UNL     1     -12.060  14.003  70.664  1.00  0.00    -0.416 Cl 
HETATM    5  C   UNL     1     -12.132  14.077  68.882  1.00  0.00    -0.316 C  
ENDBRANCH   2   3
BRANCH   2   6
HETATM    6  C   UNL     1     -12.164  13.959  66.201  1.00  0.00    -0.464 C  
HETATM    7 CL   UNL     1     -11.658  15.807  64.258  1.00  0.00    -0.314 Cl 
HETATM    8  C   UNL     1     -11.271  14.221  64.980  1.00  0.00    -0.364 C  
ENDBRANCH   2   6
TORSDOF 2
ENDMDL
MODEL       48
REMARK 921   NORMALIZED FREE ENERGY PREDICTED BY IDOCK:   -2.69 KCAL/MOL
REMARK 922        TOTAL FREE ENERGY PREDICTED BY IDOCK:   -3.03 KCAL/MOL
REMARK 923 INTER-LIGAND FREE ENERGY PREDICTED BY IDOCK:   -2.98 KCAL/MOL
REMARK 924 INTRA-LIGAND FREE ENERGY PREDICTED BY IDOCK:   -0.05 KCAL/MOL
REMARK 927      BINDING AFFINITY PREDICTED BY RF-SCORE:    0.00 PKD
ROOT
HETATM    1  C   UNL     1     -11.785  12.951  68.243  1.00  0.00    -0.350 C  
HETATM    2  N   UNL     1     -12.025  11.897  67.246  1.00  0.00    -0.599 NA 
ENDROOT
BRANCH   2   3
HETATM    3  C   UNL     1     -11.828  12.475  65.893  1.00  0.00    -0.430 C  
HETATM    4 CL   UNL     1     -12.214  14.409  64.008  1.00  0.00    -0.418 Cl 
HETATM    5  C   UNL     1     -12.637  13.748  65.611  1.00  0.00    -0.509 C  
ENDBRANCH   2   3
BRANCH   2   6
HETATM    6  C   UNL     1     -11.140  10.732  67.475  1.00  0.00    -0.308 C  
HETATM    7 CL   UNL     1      -8.990   9.177  66.837  1.00  0.00    -0.136 Cl 
HETATM    8  C   UNL     1     -10.082  10.515  66.384  1.00  0.00    -0.228 C  
ENDBRANCH   2   6
TORSDOF 2
ENDMDL
MODEL       49
REMARK 921   NORMALIZED FREE ENERGY PREDICTED BY IDOCK:   -2.68 KCAL/MOL
REMARK 922        TOTAL FREE ENERGY PREDICTED BY IDOCK:   -3.02 KCAL/MOL
REMARK 923 INTER-LIGAND FREE ENERGY PREDICTED BY IDOCK:   -2.95 KCAL/MOL
REMARK 924 INTRA-LIGAND FREE ENERGY PREDICTED BY IDOCK:   -0.06 KCAL/MOL
REMARK 927      BINDING AFFINITY PREDICTED BY RF-SCORE:    0.00 PKD
ROOT
HETATM    1  C   UNL     1     -12.617  12.413  64.477  1.00  0.00    -0.391 C  
HETATM    2  N   UNL     1     -12.114  12.540  65.853  1.00  0.00    -0.601 NA 
ENDROOT
BRANCH   2   3
HETATM    3  C   UNL     1     -11.113  11.469  66.089  1.00  0.00    -0.244 C  
HETATM    4 CL   UNL     1      -9.172   9.744  65.253  1.00  0.00    -0.268 Cl 
HETATM    5  C   UNL     1     -10.438  10.927  64.823  1.00  0.00    -0.303 C  
ENDBRANCH   2   3
BRANCH   2   6
HETATM    6  C   UNL     1     -11.541  13.884  66.092  1.00  0.00    -0.359 C  
HETATM    7 CL   UNL     1     -10.634  16.306  65.222  1.00  0.00    -0.397 Cl 
HETATM    8  C   UNL     1     -11.179  14.656  64.815  1.00  0.00    -0.389 C  
ENDBRANCH   2   6
TORSDOF 2
ENDMDL
MODEL       50
REMARK 921   NORMALIZED FREE ENERGY PREDICTED BY IDOCK:   -2.68 KCAL/MOL
REMARK 922        TOTAL FREE ENERGY PREDICTED BY IDOCK:   -3.01 KCAL/MOL
REMARK 923 INTER-LIGAND FREE ENERGY PREDICTED BY IDOCK:   -2.97 KCAL/MOL
REMARK 924 INTRA-LIGAND FREE ENERGY PREDICTED BY IDOCK:   -0.04 KCAL/MOL
REMARK 927      BINDING AFFINITY PREDICTED BY RF-SCORE:    0.00 PKD
ROOT
HETATM    1  C   UNL     1     -13.221   8.629  71.845  1.00  0.00    -0.375 C  
HETATM    2  N   UNL     1     -12.858   9.892  71.187  1.00  0.00    -0.357 NA 
ENDROOT
BRANCH   2   3
HETATM    3  C   UNL     1     -13.293  11.017  72.053  1.00  0.00    -0.288 C  
HETATM    4 CL   UNL     1     -13.746  13.663  72.537  1.00  0.00    -0.674 Cl 
HETATM    5  C   UNL     1     -13.066  12.413  71.459  1.00  0.00    -0.264 C  
ENDBRANCH   2   3
BRANCH   2   6
HETATM    6  C   UNL     1     -11.404   9.951  70.907  1.00  0.00    -0.370 C  
HETATM    7 CL   UNL     1      -8.855   9.022  71.199  1.00  0.00    -0.282 Cl 
HETATM    8  C   UNL     1     -10.561   8.959  71.721  1.00  0.00    -0.362 C  
ENDBRANCH   2   6
TORSDOF 2
ENDMDL
MODEL       51
REMARK 921   NORMALIZED FREE ENERGY PREDICTED BY IDOCK:   -2.66 KCAL/MOL
REMARK 922        TOTAL FREE ENERGY PREDICTED BY IDOCK:   -2.99 KCAL/MOL
REMARK 923 INTER-LIGAND FREE ENERGY PREDICTED BY IDOCK:   -2.95 KCAL/MOL
REMARK 924 INTRA-LIGAND FREE ENERGY PREDICTED BY IDOCK:   -0.04 KCAL/MOL
REMARK 927      BINDING AFFINITY PREDICTED BY RF-SCORE:    0.00 PKD
ROOT
HETATM    1  C   UNL     1     -12.548   6.939  71.573  1.00  0.00    -0.367 C  
HETATM    2  N   UNL     1     -11.325   7.731  71.375  1.00  0.00    -0.247 NA 
ENDROOT
BRANCH   2   3
HETATM    3  C   UNL     1     -10.879   7.565  69.968  1.00  0.00    -0.249 C  
HETATM    4 CL   UNL     1     -10.790   6.212  67.602  1.00  0.00    -0.387 Cl 
HETATM    5  C   UNL     1     -11.271   6.231  69.321  1.00  0.00    -0.389 C  
ENDBRANCH   2   3
BRANCH   2   6
HETATM    6  C   UNL     1     -11.551   9.156  71.710  1.00  0.00    -0.387 C  
HETATM    7 CL   UNL     1     -13.095  11.406  71.754  1.00  0.00    -0.577 Cl 
HETATM    8  C   UNL     1     -12.867   9.734  71.170  1.00  0.00    -0.345 C  
ENDBRANCH   2   6
TORSDOF 2
ENDMDL
MODEL       52
REMARK 921   NORMALIZED FREE ENERGY PREDICTED BY IDOCK:   -2.64 KCAL/MOL
REMARK 922        TOTAL FREE ENERGY PREDICTED BY IDOCK:   -2.98 KCAL/MOL
REMARK 923 INTER-LIGAND FREE ENERGY PREDICTED BY IDOCK:   -2.92 KCAL/MOL
REMARK 924 INTRA-LIGAND FREE ENERGY PREDICTED BY IDOCK:   -0.06 KCAL/MOL
REMARK 927      BINDING AFFINITY PREDICTED BY RF-SCORE:    0.00 PKD
ROOT
HETATM    1  C   UNL     1     -12.548  13.948  65.255  1.00  0.00    -0.478 C  
HETATM    2  N   UNL     1     -11.542  13.493  66.226  1.00  0.00    -0.331 NA 
ENDROOT
BRANCH   2   3
HETATM    3  C   UNL     1     -12.005  13.858  67.589  1.00  0.00    -0.368 C  
HETATM    4 CL   UNL     1     -12.226  13.408  70.271  1.00  0.00    -0.416 Cl 
HETATM    5  C   UNL     1     -11.742  12.796  68.665  1.00  0.00    -0.324 C  
ENDBRANCH   2   3
BRANCH   2   6
HETATM    6  C   UNL     1     -11.300  12.037  66.104  1.00  0.00    -0.351 C  
HETATM    7 CL   UNL     1      -9.819   9.902  65.270  1.00  0.00    -0.387 Cl 
HETATM    8  C   UNL     1     -10.096  11.665  65.227  1.00  0.00    -0.264 C  
ENDBRANCH   2   6
TORSDOF 2
ENDMDL
MODEL       53
REMARK 921   NORMALIZED FREE ENERGY PREDICTED BY IDOCK:   -2.64 KCAL/MOL
REMARK 922        TOTAL FREE ENERGY PREDICTED BY IDOCK:   -2.98 KCAL/MOL
REMARK 923 INTER-LIGAND FREE ENERGY PREDICTED BY IDOCK:   -2.94 KCAL/MOL
REMARK 924 INTRA-LIGAND FREE ENERGY PREDICTED BY IDOCK:   -0.03 KCAL/MOL
REMARK 927      BINDING AFFINITY PREDICTED BY RF-SCORE:    0.00 PKD
ROOT
HETATM    1  C   UNL     1     -11.479  12.316  66.131  1.00  0.00    -0.374 C  
HETATM    2  N   UNL     1     -12.017  12.199  67.495  1.00  0.00    -0.553 NA 
ENDROOT
BRANCH   2   3
HETATM    3  C   UNL     1     -11.419  11.000  68.135  1.00  0.00    -0.302 C  
HETATM    4 CL   UNL     1     -11.116   9.268  70.220  1.00  0.00    -0.279 Cl 
HETATM    5  C   UNL     1     -11.792  10.803  69.609  1.00  0.00    -0.320 C  
ENDBRANCH   2   3
BRANCH   2   6
HETATM    6  C   UNL     1     -11.754  13.426  68.281  1.00  0.00    -0.356 C  
HETATM    7 CL   UNL     1     -11.457  16.129  68.502  1.00  0.00    -0.369 Cl 
HETATM    8  C   UNL     1     -11.631  14.705  67.441  1.00  0.00    -0.389 C  
ENDBRANCH   2   6
TORSDOF 2
ENDMDL
MODEL       54
REMARK 921   NORMALIZED FREE ENERGY PREDICTED BY IDOCK:   -2.63 KCAL/MOL
REMARK 922        TOTAL FREE ENERGY PREDICTED BY IDOCK:   -2.96 KCAL/MOL
REMARK 923 INTER-LIGAND FREE ENERGY PREDICTED BY IDOCK:   -2.93 KCAL/MOL
REMARK 924 INTRA-LIGAND FREE ENERGY PREDICTED BY IDOCK:   -0.03 KCAL/MOL
REMARK 927      BINDING AFFINITY PREDICTED BY RF-SCORE:    0.00 PKD
ROOT
HETATM    1  C   UNL     1     -11.738  14.884  68.750  1.00  0.00    -0.325 C  
HETATM    2  N   UNL     1     -11.520  15.331  67.367  1.00  0.00    -0.292 NA 
ENDROOT
BRANCH   2   3
HETATM    3  C   UNL     1     -10.320  16.206  67.338  1.00  0.00    -0.294 C  
HETATM    4 CL   UNL     1      -8.988  18.506  67.948  1.00  0.00    -0.292 Cl 
HETATM    5  C   UNL     1     -10.530  17.607  67.925  1.00  0.00    -0.392 C  
ENDBRANCH   2   3
BRANCH   2   6
HETATM    6  C   UNL     1     -11.377  14.179  66.447  1.00  0.00    -0.338 C  
HETATM    7 CL   UNL     1     -12.208  12.663  64.336  1.00  0.00    -0.487 Cl 
HETATM    8  C   UNL     1     -12.555  13.986  65.482  1.00  0.00    -0.516 C  
ENDBRANCH   2   6
TORSDOF 2
ENDMDL
MODEL       55
REMARK 921   NORMALIZED FREE ENERGY PREDICTED BY IDOCK:   -2.63 KCAL/MOL
REMARK 922        TOTAL FREE ENERGY PREDICTED BY IDOCK:   -2.96 KCAL/MOL
REMARK 923 INTER-LIGAND FREE ENERGY PREDICTED BY IDOCK:   -2.92 KCAL/MOL
REMARK 924 INTRA-LIGAND FREE ENERGY PREDICTED BY IDOCK:   -0.04 KCAL/MOL
REMARK 927      BINDING AFFINITY PREDICTED BY RF-SCORE:    0.00 PKD
ROOT
HETATM    1  C   UNL     1     -11.006  15.356  65.110  1.00  0.00    -0.418 C  
HETATM    2  N   UNL     1     -11.665  14.494  66.102  1.00  0.00    -0.367 NA 
ENDROOT
BRANCH   2   3
HETATM    3  C   UNL     1     -12.408  13.429  65.381  1.00  0.00    -0.477 C  
HETATM    4 CL   UNL     1     -12.838  11.815  63.224  1.00  0.00    -0.499 Cl 
HETATM    5  C   UNL     1     -11.959  13.199  63.932  1.00  0.00    -0.488 C  
ENDBRANCH   2   3
BRANCH   2   6
HETATM    6  C   UNL     1     -10.683  13.925  67.053  1.00  0.00    -0.283 C  
HETATM    7 CL   UNL     1      -8.255  13.927  68.300  1.00  0.00    -0.152 Cl 
HETATM    8  C   UNL     1      -9.304  14.598  67.020  1.00  0.00    -0.232 C  
ENDBRANCH   2   6
TORSDOF 2
ENDMDL
MODEL       56
REMARK 921   NORMALIZED FREE ENERGY PREDICTED BY IDOCK:   -2.63 KCAL/MOL
REMARK 922        TOTAL FREE ENERGY PREDICTED BY IDOCK:   -2.96 KCAL/MOL
REMARK 923 INTER-LIGAND FREE ENERGY PREDICTED BY IDOCK:   -2.90 KCAL/MOL
REMARK 924 INTRA-LIGAND FREE ENERGY PREDICTED BY IDOCK:   -0.06 KCAL/MOL
REMARK 927      BINDING AFFINITY PREDICTED BY RF-SCORE:    0.00 PKD
ROOT
HETATM    1  C   UNL     1     -13.376   9.716  71.980  1.00  0.00    -0.457 C  
HETATM    2  N   UNL     1     -12.038  10.069  71.483  1.00  0.00    -0.395 NA 
ENDROOT
BRANCH   2   3
HETATM    3  C   UNL     1     -11.424   8.857  70.884  1.00  0.00    -0.288 C  
HETATM    4 CL   UNL     1     -11.388   6.189  70.319  1.00  0.00    -0.442 Cl 
HETATM    5  C   UNL     1     -12.149   7.543  71.199  1.00  0.00    -0.307 C  
ENDBRANCH   2   3
BRANCH   2   6
HETATM    6  C   UNL     1     -12.106  11.184  70.510  1.00  0.00    -0.381 C  
HETATM    7 CL   UNL     1     -11.984  12.177  67.971  1.00  0.00    -0.339 Cl 
HETATM    8  C   UNL     1     -11.730  10.795  69.073  1.00  0.00    -0.286 C  
ENDBRANCH   2   6
TORSDOF 2
ENDMDL
MODEL       57
REMARK 921   NORMALIZED FREE ENERGY PREDICTED BY IDOCK:   -2.62 KCAL/MOL
REMARK 922        TOTAL FREE ENERGY PREDICTED BY IDOCK:   -2.95 KCAL/MOL
REMARK 923 INTER-LIGAND FREE ENERGY PREDICTED BY IDOCK:   -2.89 KCAL/MOL
REMARK 924 INTRA-LIGAND FREE ENERGY PREDICTED BY IDOCK:   -0.05 KCAL/MOL
REMARK 927      BINDING AFFINITY PREDICTED BY RF-SCORE:    0.00 PKD
ROOT
HETATM    1  C   UNL     1     -13.090  11.797  71.863  1.00  0.00    -0.376 C  
HETATM    2  N   UNL     1     -13.013  10.567  71.062  1.00  0.00    -0.385 NA 
ENDROOT
BRANCH   2   3
HETATM    3  C   UNL     1     -11.972  10.749  70.018  1.00  0.00    -0.347 C  
HETATM    4 CL   UNL     1     -10.455  12.292  68.358  1.00  0.00    -0.235 Cl 
HETATM    5  C   UNL     1     -11.817  12.187  69.507  1.00  0.00    -0.321 C  
ENDBRANCH   2   3
BRANCH   2   6
HETATM    6  C   UNL     1     -12.729   9.390  71.915  1.00  0.00    -0.401 C  
HETATM    7 CL   UNL     1     -11.012   7.622  73.088  1.00  0.00    -0.452 Cl 
HETATM    8  C   UNL     1     -11.257   8.951  71.922  1.00  0.00    -0.377 C  
ENDBRANCH   2   6
TORSDOF 2
ENDMDL
MODEL       58
REMARK 921   NORMALIZED FREE ENERGY PREDICTED BY IDOCK:   -2.62 KCAL/MOL
REMARK 922        TOTAL FREE ENERGY PREDICTED BY IDOCK:   -2.95 KCAL/MOL
REMARK 923 INTER-LIGAND FREE ENERGY PREDICTED BY IDOCK:   -2.90 KCAL/MOL
REMARK 924 INTRA-LIGAND FREE ENERGY PREDICTED BY IDOCK:   -0.05 KCAL/MOL
REMARK 927      BINDING AFFINITY PREDICTED BY RF-SCORE:    0.00 PKD
ROOT
HETATM    1  C   UNL     1     -11.654   6.578  70.430  1.00  0.00    -0.407 C  
HETATM    2  N   UNL     1     -12.086   7.299  71.636  1.00  0.00    -0.308 NA 
ENDROOT
BRANCH   2   3
HETATM    3  C   UNL     1     -11.112   7.025  72.723  1.00  0.00    -0.284 C  
HETATM    4 CL   UNL     1      -8.883   7.617  74.180  1.00  0.00    -0.294 Cl 
HETATM    5  C   UNL     1      -9.905   7.971  72.759  1.00  0.00    -0.282 C  
ENDBRANCH   2   3
BRANCH   2   6
HETATM    6  C   UNL     1     -12.217   8.751  71.375  1.00  0.00    -0.309 C  
HETATM    7 CL   UNL     1     -13.243  11.217  71.934  1.00  0.00    -0.566 Cl 
HETATM    8  C   UNL     1     -13.275   9.458  72.235  1.00  0.00    -0.446 C  
ENDBRANCH   2   6
TORSDOF 2
ENDMDL
MODEL       59
REMARK 921   NORMALIZED FREE ENERGY PREDICTED BY IDOCK:   -2.60 KCAL/MOL
REMARK 922        TOTAL FREE ENERGY PREDICTED BY IDOCK:   -2.93 KCAL/MOL
REMARK 923 INTER-LIGAND FREE ENERGY PREDICTED BY IDOCK:   -2.89 KCAL/MOL
REMARK 924 INTRA-LIGAND FREE ENERGY PREDICTED BY IDOCK:   -0.05 KCAL/MOL
REMARK 927      BINDING AFFINITY PREDICTED BY RF-SCORE:    0.00 PKD
ROOT
HETATM    1  C   UNL     1     -12.644  13.932  65.289  1.00  0.00    -0.478 C  
HETATM    2  N   UNL     1     -11.375  13.238  65.550  1.00  0.00    -0.291 NA 
ENDROOT
BRANCH   2   3
HETATM    3  C   UNL     1     -10.384  14.233  66.034  1.00  0.00    -0.309 C  
HETATM    4 CL   UNL     1      -9.360  16.757  66.173  1.00  0.00    -0.303 Cl 
HETATM    5  C   UNL     1     -10.520  15.630  65.417  1.00  0.00    -0.411 C  
ENDBRANCH   2   3
BRANCH   2   6
HETATM    6  C   UNL     1     -11.558  12.135  66.522  1.00  0.00    -0.359 C  
HETATM    7 CL   UNL     1     -12.130  11.195  69.020  1.00  0.00    -0.384 Cl 
HETATM    8  C   UNL     1     -11.781  12.596  67.970  1.00  0.00    -0.350 C  
ENDBRANCH   2   6
TORSDOF 2
ENDMDL
MODEL       60
REMARK 921   NORMALIZED FREE ENERGY PREDICTED BY IDOCK:   -2.60 KCAL/MOL
REMARK 922        TOTAL FREE ENERGY PREDICTED BY IDOCK:   -2.92 KCAL/MOL
REMARK 923 INTER-LIGAND FREE ENERGY PREDICTED BY IDOCK:   -2.88 KCAL/MOL
REMARK 924 INTRA-LIGAND FREE ENERGY PREDICTED BY IDOCK:   -0.05 KCAL/MOL
REMARK 927      BINDING AFFINITY PREDICTED BY RF-SCORE:    0.00 PKD
ROOT
HETATM    1  C   UNL     1     -10.659  19.189  67.503  1.00  0.00    -0.471 C  
HETATM    2  N   UNL     1     -10.231  18.015  68.277  1.00  0.00    -0.378 NA 
ENDROOT
BRANCH   2   3
HETATM    3  C   UNL     1     -10.624  16.792  67.532  1.00  0.00    -0.309 C  
HETATM    4 CL   UNL     1     -10.624  15.204  65.314  1.00  0.00    -0.396 Cl 
HETATM    5  C   UNL     1     -10.207  16.773  66.057  1.00  0.00    -0.346 C  
ENDBRANCH   2   3
BRANCH   2   6
HETATM    6  C   UNL     1      -8.774  18.048  68.538  1.00  0.00    -0.295 C  
HETATM    7 CL   UNL     1      -6.432  19.384  68.963  1.00  0.00    -0.319 Cl 
HETATM    8  C   UNL     1      -8.153  19.453  68.495  1.00  0.00    -0.361 C  
ENDBRANCH   2   6
TORSDOF 2
ENDMDL
MODEL       61
REMARK 921   NORMALIZED FREE ENERGY PREDICTED BY IDOCK:   -2.59 KCAL/MOL
REMARK 922        TOTAL FREE ENERGY PREDICTED BY IDOCK:   -2.92 KCAL/MOL
REMARK 923 INTER-LIGAND FREE ENERGY PREDICTED BY IDOCK:   -2.89 KCAL/MOL
REMARK 924 INTRA-LIGAND FREE ENERGY PREDICTED BY IDOCK:   -0.03 KCAL/MOL
REMARK 927      BINDING AFFINITY PREDICTED BY RF-SCORE:    0.00 PKD
ROOT
HETATM    1  C   UNL     1     -10.578  18.753  66.011  1.00  0.00    -0.386 C  
HETATM    2  N   UNL     1      -9.439  17.826  65.927  1.00  0.00    -0.526 NA 
ENDROOT
BRANCH   2   3
HETATM    3  C   UNL     1      -8.486  18.152  67.018  1.00  0.00    -0.245 C  
HETATM    4 CL   UNL     1      -7.637  19.676  69.114  1.00  0.00    -0.347 Cl 
HETATM    5  C   UNL     1      -8.771  19.468  67.752  1.00  0.00    -0.319 C  
ENDBRANCH   2   3
BRANCH   2   6
HETATM    6  C   UNL     1      -9.889  16.417  65.999  1.00  0.00    -0.335 C  
HETATM    7 CL   UNL     1     -11.332  14.297  65.065  1.00  0.00    -0.348 Cl 
HETATM    8  C   UNL     1     -10.974  16.044  64.978  1.00  0.00    -0.380 C  
ENDBRANCH   2   6
TORSDOF 2
ENDMDL
MODEL       62
REMARK 921   NORMALIZED FREE ENERGY PREDICTED BY IDOCK:   -2.57 KCAL/MOL
REMARK 922        TOTAL FREE ENERGY PREDICTED BY IDOCK:   -2.90 KCAL/MOL
REMARK 923 INTER-LIGAND FREE ENERGY PREDICTED BY IDOCK:   -2.85 KCAL/MOL
REMARK 924 INTRA-LIGAND FREE ENERGY PREDICTED BY IDOCK:   -0.05 KCAL/MOL
REMARK 927      BINDING AFFINITY PREDICTED BY RF-SCORE:    0.00 PKD
ROOT
HETATM    1  C   UNL     1     -11.859  11.091  69.338  1.00  0.00    -0.335 C  
HETATM    2  N   UNL     1     -12.344  10.273  70.459  1.00  0.00    -0.293 NA 
ENDROOT
BRANCH   2   3
HETATM    3  C   UNL     1     -11.204   9.489  70.998  1.00  0.00    -0.362 C  
HETATM    4 CL   UNL     1      -8.581   8.742  71.029  1.00  0.00    -0.211 Cl 
HETATM    5  C   UNL     1      -9.897   9.627  70.209  1.00  0.00    -0.266 C  
ENDBRANCH   2   3
BRANCH   2   6
HETATM    6  C   UNL     1     -12.968  11.116  71.505  1.00  0.00    -0.437 C  
HETATM    7 CL   UNL     1     -13.674  13.539  72.544  1.00  0.00    -0.689 Cl 
HETATM    8  C   UNL     1     -12.763  12.625  71.310  1.00  0.00    -0.257 C  
ENDBRANCH   2   6
TORSDOF 2
ENDMDL
MODEL       63
REMARK 921   NORMALIZED FREE ENERGY PREDICTED BY IDOCK:   -2.56 KCAL/MOL
REMARK 922        TOTAL FREE ENERGY PREDICTED BY IDOCK:   -2.88 KCAL/MOL
REMARK 923 INTER-LIGAND FREE ENERGY PREDICTED BY IDOCK:   -2.85 KCAL/MOL
REMARK 924 INTRA-LIGAND FREE ENERGY PREDICTED BY IDOCK:   -0.03 KCAL/MOL
REMARK 927      BINDING AFFINITY PREDICTED BY RF-SCORE:    0.00 PKD
ROOT
HETATM    1  C   UNL     1     -11.009  10.636  67.510  1.00  0.00    -0.310 C  
HETATM    2  N   UNL     1     -11.891  11.745  67.118  1.00  0.00    -0.620 NA 
ENDROOT
BRANCH   2   3
HETATM    3  C   UNL     1     -11.745  12.836  68.115  1.00  0.00    -0.345 C  
HETATM    4 CL   UNL     1     -11.925  13.844  70.643  1.00  0.00    -0.388 Cl 
HETATM    5  C   UNL     1     -12.275  12.505  69.516  1.00  0.00    -0.080 C  
ENDBRANCH   2   3
BRANCH   2   6
HETATM    6  C   UNL     1     -11.583  12.214  65.748  1.00  0.00    -0.355 C  
HETATM    7 CL   UNL     1     -10.244  12.021  63.378  1.00  0.00    -0.464 Cl 
HETATM    8  C   UNL     1     -10.427  11.469  65.066  1.00  0.00    -0.290 C  
ENDBRANCH   2   6
TORSDOF 2
ENDMDL
MODEL       64
REMARK 921   NORMALIZED FREE ENERGY PREDICTED BY IDOCK:   -2.53 KCAL/MOL
REMARK 922        TOTAL FREE ENERGY PREDICTED BY IDOCK:   -2.86 KCAL/MOL
REMARK 923 INTER-LIGAND FREE ENERGY PREDICTED BY IDOCK:   -2.80 KCAL/MOL
REMARK 924 INTRA-LIGAND FREE ENERGY PREDICTED BY IDOCK:   -0.06 KCAL/MOL
REMARK 927      BINDING AFFINITY PREDICTED BY RF-SCORE:    0.00 PKD
ROOT
HETATM    1  C   UNL     1     -12.479  14.156  65.634  1.00  0.00    -0.469 C  
HETATM    2  N   UNL     1     -12.039  13.742  66.974  1.00  0.00    -0.410 NA 
ENDROOT
BRANCH   2   3
HETATM    3  C   UNL     1     -11.335  12.440  66.857  1.00  0.00    -0.333 C  
HETATM    4 CL   UNL     1     -10.723   9.932  67.739  1.00  0.00    -0.317 Cl 
HETATM    5  C   UNL     1     -11.507  11.503  68.059  1.00  0.00    -0.311 C  
ENDBRANCH   2   3
BRANCH   2   6
HETATM    6  C   UNL     1     -11.177  14.773  67.597  1.00  0.00    -0.323 C  
HETATM    7 CL   UNL     1     -10.458  16.367  69.693  1.00  0.00    -0.293 Cl 
HETATM    8  C   UNL     1     -11.644  15.236  68.985  1.00  0.00    -0.343 C  
ENDBRANCH   2   6
TORSDOF 2
ENDMDL
MODEL       65
REMARK 921   NORMALIZED FREE ENERGY PREDICTED BY IDOCK:   -2.52 KCAL/MOL
REMARK 922        TOTAL FREE ENERGY PREDICTED BY IDOCK:   -2.84 KCAL/MOL
REMARK 923 INTER-LIGAND FREE ENERGY PREDICTED BY IDOCK:   -2.78 KCAL/MOL
REMARK 924 INTRA-LIGAND FREE ENERGY PREDICTED BY IDOCK:   -0.06 KCAL/MOL
REMARK 927      BINDING AFFINITY PREDICTED BY RF-SCORE:    0.00 PKD
ROOT
HETATM    1  C   UNL     1     -10.586  13.801  65.145  1.00  0.00    -0.374 C  
HETATM    2  N   UNL     1     -11.257  14.960  65.751  1.00  0.00    -0.338 NA 
ENDROOT
BRANCH   2   3
HETATM    3  C   UNL     1     -11.687  14.592  67.124  1.00  0.00    -0.399 C  
HETATM    4 CL   UNL     1     -12.027  12.802  69.154  1.00  0.00    -0.323 Cl 
HETATM    5  C   UNL     1     -11.608  13.094  67.444  1.00  0.00    -0.356 C  
ENDBRANCH   2   3
BRANCH   2   6
HETATM    6  C   UNL     1     -10.372  16.147  65.758  1.00  0.00    -0.378 C  
HETATM    7 CL   UNL     1      -7.922  17.325  66.001  1.00  0.00    -0.274 Cl 
HETATM    8  C   UNL     1      -8.921  15.855  66.166  1.00  0.00    -0.341 C  
ENDBRANCH   2   6
TORSDOF 2
ENDMDL
MODEL       66
REMARK 921   NORMALIZED FREE ENERGY PREDICTED BY IDOCK:   -2.52 KCAL/MOL
REMARK 922        TOTAL FREE ENERGY PREDICTED BY IDOCK:   -2.84 KCAL/MOL
REMARK 923 INTER-LIGAND FREE ENERGY PREDICTED BY IDOCK:   -2.78 KCAL/MOL
REMARK 924 INTRA-LIGAND FREE ENERGY PREDICTED BY IDOCK:   -0.06 KCAL/MOL
REMARK 927      BINDING AFFINITY PREDICTED BY RF-SCORE:    0.00 PKD
ROOT
HETATM    1  C   UNL     1      -9.571  10.808  67.655  1.00  0.00    -0.158 C  
HETATM    2  N   UNL     1     -10.613  11.597  68.328  1.00  0.00    -0.197 NA 
ENDROOT
BRANCH   2   3
HETATM    3  C   UNL     1     -11.626  11.998  67.319  1.00  0.00    -0.313 C  
HETATM    4 CL   UNL     1     -12.772  13.802  65.624  1.00  0.00    -0.548 Cl 
HETATM    5  C   UNL     1     -11.598  13.481  66.931  1.00  0.00    -0.363 C  
ENDBRANCH   2   3
BRANCH   2   6
HETATM    6  C   UNL     1     -11.225  10.837  69.442  1.00  0.00    -0.276 C  
HETATM    7 CL   UNL     1     -12.870  10.645  71.611  1.00  0.00    -0.553 Cl 
HETATM    8  C   UNL     1     -12.073  11.686  70.400  1.00  0.00    -0.373 C  
ENDBRANCH   2   6
TORSDOF 2
ENDMDL
MODEL       67
REMARK 921   NORMALIZED FREE ENERGY PREDICTED BY IDOCK:   -2.50 KCAL/MOL
REMARK 922        TOTAL FREE ENERGY PREDICTED BY IDOCK:   -2.82 KCAL/MOL
REMARK 923 INTER-LIGAND FREE ENERGY PREDICTED BY IDOCK:   -2.79 KCAL/MOL
REMARK 924 INTRA-LIGAND FREE ENERGY PREDICTED BY IDOCK:   -0.03 KCAL/MOL
REMARK 927      BINDING AFFINITY PREDICTED BY RF-SCORE:    0.00 PKD
ROOT
HETATM    1  C   UNL     1      -9.982  11.006  67.298  1.00  0.00    -0.181 C  
HETATM    2  N   UNL     1     -10.679  12.300  67.320  1.00  0.00    -0.226 NA 
ENDROOT
BRANCH   2   3
HETATM    3  C   UNL     1     -11.585  12.367  66.146  1.00  0.00    -0.396 C  
HETATM    4 CL   UNL     1     -12.194  13.133  63.599  1.00  0.00    -0.562 Cl 
HETATM    5  C   UNL     1     -11.080  13.240  64.990  1.00  0.00    -0.309 C  
ENDBRANCH   2   3
BRANCH   2   6
HETATM    6  C   UNL     1     -11.417  12.490  68.590  1.00  0.00    -0.306 C  
HETATM    7 CL   UNL     1     -12.587  11.535  70.863  1.00  0.00    -0.459 Cl 
HETATM    8  C   UNL     1     -11.835  11.185  69.282  1.00  0.00    -0.352 C  
ENDBRANCH   2   6
TORSDOF 2
ENDMDL
MODEL       68
REMARK 921   NORMALIZED FREE ENERGY PREDICTED BY IDOCK:   -2.49 KCAL/MOL
REMARK 922        TOTAL FREE ENERGY PREDICTED BY IDOCK:   -2.81 KCAL/MOL
REMARK 923 INTER-LIGAND FREE ENERGY PREDICTED BY IDOCK:   -2.78 KCAL/MOL
REMARK 924 INTRA-LIGAND FREE ENERGY PREDICTED BY IDOCK:   -0.03 KCAL/MOL
REMARK 927      BINDING AFFINITY PREDICTED BY RF-SCORE:    0.00 PKD
ROOT
HETATM    1  C   UNL     1     -10.771  18.856  67.531  1.00  0.00    -0.434 C  
HETATM    2  N   UNL     1      -9.960  17.633  67.624  1.00  0.00    -0.310 NA 
ENDROOT
BRANCH   2   3
HETATM    3  C   UNL     1      -8.788  17.910  68.492  1.00  0.00    -0.289 C  
HETATM    4 CL   UNL     1      -6.807  19.530  69.438  1.00  0.00    -0.375 Cl 
HETATM    5  C   UNL     1      -8.115  19.267  68.251  1.00  0.00    -0.332 C  
ENDBRANCH   2   3
BRANCH   2   6
HETATM    6  C   UNL     1     -10.761  16.497  68.137  1.00  0.00    -0.343 C  
HETATM    7 CL   UNL     1     -11.918  14.042  67.854  1.00  0.00    -0.406 Cl 
HETATM    8  C   UNL     1     -11.077  15.419  67.091  1.00  0.00    -0.291 C  
ENDBRANCH   2   6
TORSDOF 2
ENDMDL
MODEL       69
REMARK 921   NORMALIZED FREE ENERGY PREDICTED BY IDOCK:   -2.49 KCAL/MOL
REMARK 922        TOTAL FREE ENERGY PREDICTED BY IDOCK:   -2.80 KCAL/MOL
REMARK 923 INTER-LIGAND FREE ENERGY PREDICTED BY IDOCK:   -2.76 KCAL/MOL
REMARK 924 INTRA-LIGAND FREE ENERGY PREDICTED BY IDOCK:   -0.05 KCAL/MOL
REMARK 927      BINDING AFFINITY PREDICTED BY RF-SCORE:    0.00 PKD
ROOT
HETATM    1  C   UNL     1     -11.973  11.097  69.507  1.00  0.00    -0.355 C  
HETATM    2  N   UNL     1     -11.894  11.224  68.044  1.00  0.00    -0.624 NA 
ENDROOT
BRANCH   2   3
HETATM    3  C   UNL     1     -11.765  12.663  67.702  1.00  0.00    -0.361 C  
HETATM    4 CL   UNL     1     -11.633  15.305  68.366  1.00  0.00    -0.357 Cl 
HETATM    5  C   UNL     1     -11.936  13.624  68.885  1.00  0.00    -0.356 C  
ENDBRANCH   2   3
BRANCH   2   6
HETATM    6  C   UNL     1     -10.767  10.431  67.499  1.00  0.00    -0.287 C  
HETATM    7 CL   UNL     1      -8.825   9.969  65.639  1.00  0.00    -0.169 Cl 
HETATM    8  C   UNL     1     -10.266  10.902  66.126  1.00  0.00    -0.249 C  
ENDBRANCH   2   6
TORSDOF 2
ENDMDL
MODEL       70
REMARK 921   NORMALIZED FREE ENERGY PREDICTED BY IDOCK:   -2.47 KCAL/MOL
REMARK 922        TOTAL FREE ENERGY PREDICTED BY IDOCK:   -2.78 KCAL/MOL
REMARK 923 INTER-LIGAND FREE ENERGY PREDICTED BY IDOCK:   -2.72 KCAL/MOL
REMARK 924 INTRA-LIGAND FREE ENERGY PREDICTED BY IDOCK:   -0.06 KCAL/MOL
REMARK 927      BINDING AFFINITY PREDICTED BY RF-SCORE:    0.00 PKD
ROOT
HETATM    1  C   UNL     1     -11.462  13.044  68.175  1.00  0.00    -0.319 C  
HETATM    2  N   UNL     1     -10.859  12.604  66.908  1.00  0.00    -0.249 NA 
ENDROOT
BRANCH   2   3
HETATM    3  C   UNL     1     -10.238  11.272  67.119  1.00  0.00    -0.201 C  
HETATM    4 CL   UNL     1     -10.303   8.679  67.963  1.00  0.00    -0.274 Cl 
HETATM    5  C   UNL     1     -11.107  10.271  67.890  1.00  0.00    -0.276 C  
ENDBRANCH   2   3
BRANCH   2   6
HETATM    6  C   UNL     1     -11.863  12.571  65.820  1.00  0.00    -0.437 C  
HETATM    7 CL   UNL     1     -12.644  11.953  63.280  1.00  0.00    -0.635 Cl 
HETATM    8  C   UNL     1     -11.320  12.085  64.469  1.00  0.00    -0.330 C  
ENDBRANCH   2   6
TORSDOF 2
ENDMDL
MODEL       71
REMARK 921   NORMALIZED FREE ENERGY PREDICTED BY IDOCK:   -2.45 KCAL/MOL
REMARK 922        TOTAL FREE ENERGY PREDICTED BY IDOCK:   -2.76 KCAL/MOL
REMARK 923 INTER-LIGAND FREE ENERGY PREDICTED BY IDOCK:   -2.73 KCAL/MOL
REMARK 924 INTRA-LIGAND FREE ENERGY PREDICTED BY IDOCK:   -0.03 KCAL/MOL
REMARK 927      BINDING AFFINITY PREDICTED BY RF-SCORE:    0.00 PKD
ROOT
HETATM    1  C   UNL     1      -9.830   9.508  69.942  1.00  0.00    -0.226 C  
HETATM    2  N   UNL     1     -10.972  10.184  70.575  1.00  0.00    -0.314 NA 
ENDROOT
BRANCH   2   3
HETATM    3  C   UNL     1     -11.563  11.129  69.594  1.00  0.00    -0.326 C  
HETATM    4 CL   UNL     1     -11.557  12.467  67.217  1.00  0.00    -0.418 Cl 
HETATM    5  C   UNL     1     -10.683  11.425  68.373  1.00  0.00    -0.203 C  
ENDBRANCH   2   3
BRANCH   2   6
HETATM    6  C   UNL     1     -11.973   9.205  71.059  1.00  0.00    -0.282 C  
HETATM    7 CL   UNL     1     -14.329   8.571  72.281  1.00  0.00    -0.510 Cl 
HETATM    8  C   UNL     1     -13.118   9.819  71.876  1.00  0.00    -0.446 C  
ENDBRANCH   2   6
TORSDOF 2
ENDMDL
MODEL       72
REMARK 921   NORMALIZED FREE ENERGY PREDICTED BY IDOCK:   -2.45 KCAL/MOL
REMARK 922        TOTAL FREE ENERGY PREDICTED BY IDOCK:   -2.76 KCAL/MOL
REMARK 923 INTER-LIGAND FREE ENERGY PREDICTED BY IDOCK:   -2.70 KCAL/MOL
REMARK 924 INTRA-LIGAND FREE ENERGY PREDICTED BY IDOCK:   -0.06 KCAL/MOL
REMARK 927      BINDING AFFINITY PREDICTED BY RF-SCORE:    0.00 PKD
ROOT
HETATM    1  C   UNL     1     -10.244  18.073  66.721  1.00  0.00    -0.364 C  
HETATM    2  N   UNL     1      -9.742  17.039  65.804  1.00  0.00    -0.547 NA 
ENDROOT
BRANCH   2   3
HETATM    3  C   UNL     1      -9.008  16.022  66.598  1.00  0.00    -0.260 C  
HETATM    4 CL   UNL     1      -8.285  14.849  68.952  1.00  0.00    -0.163 Cl 
HETATM    5  C   UNL     1      -9.098  16.202  68.118  1.00  0.00    -0.189 C  
ENDBRANCH   2   3
BRANCH   2   6
HETATM    6  C   UNL     1     -10.847  16.431  65.028  1.00  0.00    -0.273 C  
HETATM    7 CL   UNL     1     -12.264  14.276  64.137  1.00  0.00    -0.475 Cl 
HETATM    8  C   UNL     1     -10.815  14.897  64.973  1.00  0.00    -0.423 C  
ENDBRANCH   2   6
TORSDOF 2
ENDMDL
MODEL       73
REMARK 921   NORMALIZED FREE ENERGY PREDICTED BY IDOCK:   -2.45 KCAL/MOL
REMARK 922        TOTAL FREE ENERGY PREDICTED BY IDOCK:   -2.76 KCAL/MOL
REMARK 923 INTER-LIGAND FREE ENERGY PREDICTED BY IDOCK:   -2.73 KCAL/MOL
REMARK 924 INTRA-LIGAND FREE ENERGY PREDICTED BY IDOCK:   -0.03 KCAL/MOL
REMARK 927      BINDING AFFINITY PREDICTED BY RF-SCORE:    0.00 PKD
ROOT
HETATM    1  C   UNL     1     -11.578   6.520  70.463  1.00  0.00    -0.393 C  
HETATM    2  N   UNL     1     -10.988   7.336  71.534  1.00  0.00    -0.232 NA 
ENDROOT
BRANCH   2   3
HETATM    3  C   UNL     1     -11.996   8.332  71.977  1.00  0.00    -0.348 C  
HETATM    4 CL   UNL     1     -13.197  10.779  71.853  1.00  0.00    -0.571 Cl 
HETATM    5  C   UNL     1     -11.855   9.719  71.337  1.00  0.00    -0.408 C  
ENDBRANCH   2   3
BRANCH   2   6
HETATM    6  C   UNL     1     -10.528   6.490  72.660  1.00  0.00    -0.211 C  
HETATM    7 CL   UNL     1     -10.729   4.285  74.255  1.00  0.00    -0.296 Cl 
HETATM    8  C   UNL     1     -11.453   5.308  72.985  1.00  0.00    -0.269 C  
ENDBRANCH   2   6
TORSDOF 2
ENDMDL
MODEL       74
REMARK 921   NORMALIZED FREE ENERGY PREDICTED BY IDOCK:   -2.44 KCAL/MOL
REMARK 922        TOTAL FREE ENERGY PREDICTED BY IDOCK:   -2.75 KCAL/MOL
REMARK 923 INTER-LIGAND FREE ENERGY PREDICTED BY IDOCK:   -2.71 KCAL/MOL
REMARK 924 INTRA-LIGAND FREE ENERGY PREDICTED BY IDOCK:   -0.04 KCAL/MOL
REMARK 927      BINDING AFFINITY PREDICTED BY RF-SCORE:    0.00 PKD
ROOT
HETATM    1  C   UNL     1     -10.445  16.009  66.944  1.00  0.00    -0.306 C  
HETATM    2  N   UNL     1     -11.029  16.742  68.077  1.00  0.00    -0.338 NA 
ENDROOT
BRANCH   2   3
HETATM    3  C   UNL     1     -11.354  15.768  69.149  1.00  0.00    -0.349 C  
HETATM    4 CL   UNL     1     -11.883  13.248  70.051  1.00  0.00    -0.386 Cl 
HETATM    5  C   UNL     1     -11.634  14.341  68.662  1.00  0.00    -0.317 C  
ENDBRANCH   2   3
BRANCH   2   6
HETATM    6  C   UNL     1     -10.113  17.800  68.560  1.00  0.00    -0.377 C  
HETATM    7 CL   UNL     1      -7.624  18.874  68.872  1.00  0.00    -0.358 Cl 
HETATM    8  C   UNL     1      -8.622  17.476  68.388  1.00  0.00    -0.275 C  
ENDBRANCH   2   6
TORSDOF 2
ENDMDL
MODEL       75
REMARK 921   NORMALIZED FREE ENERGY PREDICTED BY IDOCK:   -2.43 KCAL/MOL
REMARK 922        TOTAL FREE ENERGY PREDICTED BY IDOCK:   -2.74 KCAL/MOL
REMARK 923 INTER-LIGAND FREE ENERGY PREDICTED BY IDOCK:   -2.69 KCAL/MOL
REMARK 924 INTRA-LIGAND FREE ENERGY PREDICTED BY IDOCK:   -0.05 KCAL/MOL
REMARK 927      BINDING AFFINITY PREDICTED BY RF-SCORE:    0.00 PKD
ROOT
HETATM    1  C   UNL     1     -10.869  19.443  67.015  1.00  0.00    -0.432 C  
HETATM    2  N   UNL     1      -9.800  19.745  67.978  1.00  0.00    -0.395 NA 
ENDROOT
BRANCH   2   3
HETATM    3  C   UNL     1      -9.425  18.487  68.673  1.00  0.00    -0.345 C  
HETATM    4 CL   UNL     1      -9.885  15.904  69.418  1.00  0.00    -0.268 Cl 
HETATM    5  C   UNL     1     -10.506  17.400  68.668  1.00  0.00    -0.355 C  
ENDBRANCH   2   3
BRANCH   2   6
HETATM    6  C   UNL     1      -8.635  20.366  67.309  1.00  0.00    -0.329 C  
HETATM    7 CL   UNL     1      -6.884  20.581  65.226  1.00  0.00    -0.275 Cl 
HETATM    8  C   UNL     1      -8.198  19.664  66.015  1.00  0.00    -0.295 C  
ENDBRANCH   2   6
TORSDOF 2
ENDMDL
MODEL       76
REMARK 921   NORMALIZED FREE ENERGY PREDICTED BY IDOCK:   -2.43 KCAL/MOL
REMARK 922        TOTAL FREE ENERGY PREDICTED BY IDOCK:   -2.74 KCAL/MOL
REMARK 923 INTER-LIGAND FREE ENERGY PREDICTED BY IDOCK:   -2.71 KCAL/MOL
REMARK 924 INTRA-LIGAND FREE ENERGY PREDICTED BY IDOCK:   -0.03 KCAL/MOL
REMARK 927      BINDING AFFINITY PREDICTED BY RF-SCORE:    0.00 PKD
ROOT
HETATM    1  C   UNL     1     -11.217  11.104  68.266  1.00  0.00    -0.279 C  
HETATM    2  N   UNL     1     -11.414  11.747  69.574  1.00  0.00    -0.291 NA 
ENDROOT
BRANCH   2   3
HETATM    3  C   UNL     1     -11.754  13.175  69.349  1.00  0.00    -0.327 C  
HETATM    4 CL   UNL     1     -11.472  15.552  68.042  1.00  0.00    -0.336 Cl 
HETATM    5  C   UNL     1     -10.882  13.889  68.309  1.00  0.00    -0.249 C  
ENDBRANCH   2   3
BRANCH   2   6
HETATM    6  C   UNL     1     -12.463  11.055  70.358  1.00  0.00    -0.313 C  
HETATM    7 CL   UNL     1     -13.267   9.242  72.233  1.00  0.00    -0.510 Cl 
HETATM    8  C   UNL     1     -11.945   9.904  71.233  1.00  0.00    -0.402 C  
ENDBRANCH   2   6
TORSDOF 2
ENDMDL
MODEL       77
REMARK 921   NORMALIZED FREE ENERGY PREDICTED BY IDOCK:   -2.43 KCAL/MOL
REMARK 922        TOTAL FREE ENERGY PREDICTED BY IDOCK:   -2.73 KCAL/MOL
REMARK 923 INTER-LIGAND FREE ENERGY PREDICTED BY IDOCK:   -2.70 KCAL/MOL
REMARK 924 INTRA-LIGAND FREE ENERGY PREDICTED BY IDOCK:   -0.03 KCAL/MOL
REMARK 927      BINDING AFFINITY PREDICTED BY RF-SCORE:    0.00 PKD
ROOT
HETATM    1  C   UNL     1     -10.878  10.435  67.640  1.00  0.00    -0.306 C  
HETATM    2  N   UNL     1     -11.965  11.361  67.989  1.00  0.00    -0.640 NA 
ENDROOT
BRANCH   2   3
HETATM    3  C   UNL     1     -12.026  11.479  69.468  1.00  0.00    -0.335 C  
HETATM    4 CL   UNL     1     -12.792  10.606  71.936  1.00  0.00    -0.537 Cl 
HETATM    5  C   UNL     1     -12.907  10.433  70.163  1.00  0.00    -0.025 C  
ENDBRANCH   2   3
BRANCH   2   6
HETATM    6  C   UNL     1     -11.772  12.680  67.345  1.00  0.00    -0.369 C  
HETATM    7 CL   UNL     1     -10.237  14.837  66.682  1.00  0.00    -0.264 Cl 
HETATM    8  C   UNL     1     -10.408  13.328  67.620  1.00  0.00    -0.230 C  
ENDBRANCH   2   6
TORSDOF 2
ENDMDL
MODEL       78
REMARK 921   NORMALIZED FREE ENERGY PREDICTED BY IDOCK:   -2.41 KCAL/MOL
REMARK 922        TOTAL FREE ENERGY PREDICTED BY IDOCK:   -2.72 KCAL/MOL
REMARK 923 INTER-LIGAND FREE ENERGY PREDICTED BY IDOCK:   -2.68 KCAL/MOL
REMARK 924 INTRA-LIGAND FREE ENERGY PREDICTED BY IDOCK:   -0.04 KCAL/MOL
REMARK 927      BINDING AFFINITY PREDICTED BY RF-SCORE:    0.00 PKD
ROOT
HETATM    1  C   UNL     1     -11.361  11.897  66.967  1.00  0.00    -0.329 C  
HETATM    2  N   UNL     1     -12.133  12.134  68.196  1.00  0.00    -0.417 NA 
ENDROOT
BRANCH   2   3
HETATM    3  C   UNL     1     -11.816  11.056  69.167  1.00  0.00    -0.337 C  
HETATM    4 CL   UNL     1     -10.070   9.474  70.541  1.00  0.00    -0.328 Cl 
HETATM    5  C   UNL     1     -10.331  10.684  69.254  1.00  0.00    -0.218 C  
ENDBRANCH   2   3
BRANCH   2   6
HETATM    6  C   UNL     1     -11.847  13.475  68.757  1.00  0.00    -0.355 C  
HETATM    7 CL   UNL     1     -11.721  15.240  70.835  1.00  0.00    -0.346 Cl 
HETATM    8  C   UNL     1     -12.240  13.642  70.232  1.00  0.00    -0.353 C  
ENDBRANCH   2   6
TORSDOF 2
ENDMDL
MODEL       79
REMARK 921   NORMALIZED FREE ENERGY PREDICTED BY IDOCK:   -2.40 KCAL/MOL
REMARK 922        TOTAL FREE ENERGY PREDICTED BY IDOCK:   -2.70 KCAL/MOL
REMARK 923 INTER-LIGAND FREE ENERGY PREDICTED BY IDOCK:   -2.67 KCAL/MOL
REMARK 924 INTRA-LIGAND FREE ENERGY PREDICTED BY IDOCK:   -0.03 KCAL/MOL
REMARK 927      BINDING AFFINITY PREDICTED BY RF-SCORE:    0.00 PKD
ROOT
HETATM    1  C   UNL     1     -11.831  15.440  69.025  1.00  0.00    -0.335 C  
HETATM    2  N   UNL     1     -10.656  15.427  68.142  1.00  0.00    -0.257 NA 
ENDROOT
BRANCH   2   3
HETATM    3  C   UNL     1     -10.525  14.070  67.554  1.00  0.00    -0.252 C  
HETATM    4 CL   UNL     1     -11.565  11.750  66.564  1.00  0.00    -0.339 Cl 
HETATM    5  C   UNL     1     -11.845  13.305  67.396  1.00  0.00    -0.366 C  
ENDBRANCH   2   3
BRANCH   2   6
HETATM    6  C   UNL     1     -10.762  16.467  67.094  1.00  0.00    -0.220 C  
HETATM    7 CL   UNL     1     -10.473  19.032  66.206  1.00  0.00    -0.513 Cl 
HETATM    8  C   UNL     1     -10.453  17.891  67.579  1.00  0.00    -0.390 C  
ENDBRANCH   2   6
TORSDOF 2
ENDMDL
MODEL       80
REMARK 921   NORMALIZED FREE ENERGY PREDICTED BY IDOCK:   -2.39 KCAL/MOL
REMARK 922        TOTAL FREE ENERGY PREDICTED BY IDOCK:   -2.70 KCAL/MOL
REMARK 923 INTER-LIGAND FREE ENERGY PREDICTED BY IDOCK:   -2.67 KCAL/MOL
REMARK 924 INTRA-LIGAND FREE ENERGY PREDICTED BY IDOCK:   -0.03 KCAL/MOL
REMARK 927      BINDING AFFINITY PREDICTED BY RF-SCORE:    0.00 PKD
ROOT
HETATM    1  C   UNL     1      -9.489  17.139  68.103  1.00  0.00    -0.269 C  
HETATM    2  N   UNL     1      -9.806  15.705  68.036  1.00  0.00    -0.209 NA 
ENDROOT
BRANCH   2   3
HETATM    3  C   UNL     1     -10.129  15.229  69.405  1.00  0.00    -0.264 C  
HETATM    4 CL   UNL     1     -11.424  15.439  71.796  1.00  0.00    -0.480 Cl 
HETATM    5  C   UNL     1     -11.006  16.182  70.228  1.00  0.00    -0.340 C  
ENDBRANCH   2   3
BRANCH   2   6
HETATM    6  C   UNL     1     -10.917  15.446  67.092  1.00  0.00    -0.317 C  
HETATM    7 CL   UNL     1     -11.883  14.888  64.602  1.00  0.00    -0.430 Cl 
HETATM    8  C   UNL     1     -10.490  15.341  65.621  1.00  0.00    -0.358 C  
ENDBRANCH   2   6
TORSDOF 2
ENDMDL
MODEL       81
REMARK 921   NORMALIZED FREE ENERGY PREDICTED BY IDOCK:   -2.38 KCAL/MOL
REMARK 922        TOTAL FREE ENERGY PREDICTED BY IDOCK:   -2.69 KCAL/MOL
REMARK 923 INTER-LIGAND FREE ENERGY PREDICTED BY IDOCK:   -2.65 KCAL/MOL
REMARK 924 INTRA-LIGAND FREE ENERGY PREDICTED BY IDOCK:   -0.03 KCAL/MOL
REMARK 927      BINDING AFFINITY PREDICTED BY RF-SCORE:    0.00 PKD
ROOT
HETATM    1  C   UNL     1     -12.569  13.905  66.073  1.00  0.00    -0.423 C  
HETATM    2  N   UNL     1     -11.513  13.207  65.325  1.00  0.00    -0.295 NA 
ENDROOT
BRANCH   2   3
HETATM    3  C   UNL     1     -10.346  14.116  65.200  1.00  0.00    -0.405 C  
HETATM    4 CL   UNL     1      -8.741  16.132  66.098  1.00  0.00    -0.372 Cl 
HETATM    5  C   UNL     1     -10.248  15.193  66.288  1.00  0.00    -0.288 C  
ENDBRANCH   2   3
BRANCH   2   6
HETATM    6  C   UNL     1     -11.144  11.933  65.982  1.00  0.00    -0.322 C  
HETATM    7 CL   UNL     1     -10.039   9.437  65.951  1.00  0.00    -0.332 Cl 
HETATM    8  C   UNL     1     -10.578  10.869  65.030  1.00  0.00    -0.217 C  
ENDBRANCH   2   6
TORSDOF 2
ENDMDL
MODEL       82
REMARK 921   NORMALIZED FREE ENERGY PREDICTED BY IDOCK:   -2.37 KCAL/MOL
REMARK 922        TOTAL FREE ENERGY PREDICTED BY IDOCK:   -2.68 KCAL/MOL
REMARK 923 INTER-LIGAND FREE ENERGY PREDICTED BY IDOCK:   -2.64 KCAL/MOL
REMARK 924 INTRA-LIGAND FREE ENERGY PREDICTED BY IDOCK:   -0.03 KCAL/MOL
REMARK 927      BINDING AFFINITY PREDICTED BY RF-SCORE:    0.00 PKD
ROOT
HETATM    1  C   UNL     1      -6.087  19.769  68.676  1.00  0.00    -0.247 C  
HETATM    2  N   UNL     1      -7.075  20.505  67.874  1.00  0.00    -0.295 NA 
ENDROOT
BRANCH   2   3
HETATM    3  C   UNL     1      -6.430  20.929  66.605  1.00  0.00    -0.284 C  
HETATM    4 CL   UNL     1      -5.999  20.712  63.920  1.00  0.00    -0.319 Cl 
HETATM    5  C   UNL     1      -6.724  20.026  65.400  1.00  0.00    -0.296 C  
ENDBRANCH   2   3
BRANCH   2   6
HETATM    6  C   UNL     1      -8.281  19.683  67.625  1.00  0.00    -0.300 C  
HETATM    7 CL   UNL     1     -10.954  19.410  67.146  1.00  0.00    -0.552 Cl 
HETATM    8  C   UNL     1      -9.595  20.478  67.593  1.00  0.00    -0.349 C  
ENDBRANCH   2   6
TORSDOF 2
ENDMDL
MODEL       83
REMARK 921   NORMALIZED FREE ENERGY PREDICTED BY IDOCK:   -2.36 KCAL/MOL
REMARK 922        TOTAL FREE ENERGY PREDICTED BY IDOCK:   -2.67 KCAL/MOL
REMARK 923 INTER-LIGAND FREE ENERGY PREDICTED BY IDOCK:   -2.64 KCAL/MOL
REMARK 924 INTRA-LIGAND FREE ENERGY PREDICTED BY IDOCK:   -0.03 KCAL/MOL
REMARK 927      BINDING AFFINITY PREDICTED BY RF-SCORE:    0.00 PKD
ROOT
HETATM    1  C   UNL     1     -11.706  14.754  69.623  1.00  0.00    -0.314 C  
HETATM    2  N   UNL     1     -12.015  13.641  68.714  1.00  0.00    -0.360 NA 
ENDROOT
BRANCH   2   3
HETATM    3  C   UNL     1     -11.857  14.117  67.316  1.00  0.00    -0.419 C  
HETATM    4 CL   UNL     1     -10.620  15.603  65.392  1.00  0.00    -0.407 Cl 
HETATM    5  C   UNL     1     -10.802  15.213  67.124  1.00  0.00    -0.320 C  
ENDBRANCH   2   3
BRANCH   2   6
HETATM    6  C   UNL     1     -11.155  12.468  68.991  1.00  0.00    -0.234 C  
HETATM    7 CL   UNL     1     -10.752   9.780  69.242  1.00  0.00    -0.233 Cl 
HETATM    8  C   UNL     1     -11.905  11.129  69.044  1.00  0.00    -0.348 C  
ENDBRANCH   2   6
TORSDOF 2
ENDMDL
MODEL       84
REMARK 921   NORMALIZED FREE ENERGY PREDICTED BY IDOCK:   -2.36 KCAL/MOL
REMARK 922        TOTAL FREE ENERGY PREDICTED BY IDOCK:   -2.66 KCAL/MOL
REMARK 923 INTER-LIGAND FREE ENERGY PREDICTED BY IDOCK:   -2.61 KCAL/MOL
REMARK 924 INTRA-LIGAND FREE ENERGY PREDICTED BY IDOCK:   -0.05 KCAL/MOL
REMARK 927      BINDING AFFINITY PREDICTED BY RF-SCORE:    0.00 PKD
ROOT
HETATM    1  C   UNL     1      -9.664  10.725  63.084  1.00  0.00    -0.357 C  
HETATM    2  N   UNL     1      -9.667  11.050  64.518  1.00  0.00    -0.253 NA 
ENDROOT
BRANCH   2   3
HETATM    3  C   UNL     1     -10.833  11.925  64.800  1.00  0.00    -0.307 C  
HETATM    4 CL   UNL     1     -12.225  14.258  64.550  1.00  0.00    -0.479 Cl 
HETATM    5  C   UNL     1     -10.713  13.355  64.257  1.00  0.00    -0.355 C  
ENDBRANCH   2   3
BRANCH   2   6
HETATM    6  C   UNL     1      -9.695   9.822  65.345  1.00  0.00    -0.313 C  
HETATM    7 CL   UNL     1     -10.471   8.423  67.555  1.00  0.00    -0.329 Cl 
HETATM    8  C   UNL     1     -10.372   9.993  66.713  1.00  0.00    -0.217 C  
ENDBRANCH   2   6
TORSDOF 2
ENDMDL
MODEL       85
REMARK 921   NORMALIZED FREE ENERGY PREDICTED BY IDOCK:   -2.35 KCAL/MOL
REMARK 922        TOTAL FREE ENERGY PREDICTED BY IDOCK:   -2.65 KCAL/MOL
REMARK 923 INTER-LIGAND FREE ENERGY PREDICTED BY IDOCK:   -2.61 KCAL/MOL
REMARK 924 INTRA-LIGAND FREE ENERGY PREDICTED BY IDOCK:   -0.04 KCAL/MOL
REMARK 927      BINDING AFFINITY PREDICTED BY RF-SCORE:    0.00 PKD
ROOT
HETATM    1  C   UNL     1     -12.117  11.674  70.117  1.00  0.00    -0.333 C  
HETATM    2  N   UNL     1     -12.041  11.311  68.694  1.00  0.00    -0.570 NA 
ENDROOT
BRANCH   2   3
HETATM    3  C   UNL     1     -11.751  12.539  67.910  1.00  0.00    -0.359 C  
HETATM    4 CL   UNL     1     -11.376  15.230  67.679  1.00  0.00    -0.330 Cl 
HETATM    5  C   UNL     1     -11.871  13.850  68.696  1.00  0.00    -0.372 C  
ENDBRANCH   2   3
BRANCH   2   6
HETATM    6  C   UNL     1     -11.020  10.263  68.463  1.00  0.00    -0.247 C  
HETATM    7 CL   UNL     1      -9.211   8.424  69.352  1.00  0.00    -0.154 Cl 
HETATM    8  C   UNL     1     -10.309   9.778  69.735  1.00  0.00    -0.246 C  
ENDBRANCH   2   6
TORSDOF 2
ENDMDL
MODEL       86
REMARK 921   NORMALIZED FREE ENERGY PREDICTED BY IDOCK:   -2.35 KCAL/MOL
REMARK 922        TOTAL FREE ENERGY PREDICTED BY IDOCK:   -2.64 KCAL/MOL
REMARK 923 INTER-LIGAND FREE ENERGY PREDICTED BY IDOCK:   -2.60 KCAL/MOL
REMARK 924 INTRA-LIGAND FREE ENERGY PREDICTED BY IDOCK:   -0.04 KCAL/MOL
REMARK 927      BINDING AFFINITY PREDICTED BY RF-SCORE:    0.00 PKD
ROOT
HETATM    1  C   UNL     1     -10.141  19.833  68.510  1.00  0.00    -0.445 C  
HETATM    2  N   UNL     1      -8.985  19.288  67.783  1.00  0.00    -0.301 NA 
ENDROOT
BRANCH   2   3
HETATM    3  C   UNL     1      -7.824  19.246  68.708  1.00  0.00    -0.353 C  
HETATM    4 CL   UNL     1      -5.784  17.950  69.973  1.00  0.00    -0.244 Cl 
HETATM    5  C   UNL     1      -7.244  17.847  68.951  1.00  0.00    -0.256 C  
ENDBRANCH   2   3
BRANCH   2   6
HETATM    6  C   UNL     1      -9.286  17.950  67.224  1.00  0.00    -0.254 C  
HETATM    7 CL   UNL     1     -10.578  16.306  65.471  1.00  0.00    -0.393 Cl 
HETATM    8  C   UNL     1     -10.403  17.938  66.171  1.00  0.00    -0.352 C  
ENDBRANCH   2   6
TORSDOF 2
ENDMDL
MODEL       87
REMARK 921   NORMALIZED FREE ENERGY PREDICTED BY IDOCK:   -2.34 KCAL/MOL
REMARK 922        TOTAL FREE ENERGY PREDICTED BY IDOCK:   -2.64 KCAL/MOL
REMARK 923 INTER-LIGAND FREE ENERGY PREDICTED BY IDOCK:   -2.61 KCAL/MOL
REMARK 924 INTRA-LIGAND FREE ENERGY PREDICTED BY IDOCK:   -0.03 KCAL/MOL
REMARK 927      BINDING AFFINITY PREDICTED BY RF-SCORE:    0.00 PKD
ROOT
HETATM    1  C   UNL     1     -11.002  16.717  68.419  1.00  0.00    -0.345 C  
HETATM    2  N   UNL     1     -10.026  17.764  68.753  1.00  0.00    -0.364 NA 
ENDROOT
BRANCH   2   3
HETATM    3  C   UNL     1      -8.661  17.196  68.616  1.00  0.00    -0.260 C  
HETATM    4 CL   UNL     1      -5.943  17.417  68.552  1.00  0.00    -0.159 Cl 
HETATM    5  C   UNL     1      -7.530  18.232  68.591  1.00  0.00    -0.295 C  
ENDBRANCH   2   3
BRANCH   2   6
HETATM    6  C   UNL     1     -10.207  18.958  67.897  1.00  0.00    -0.394 C  
HETATM    7 CL   UNL     1     -10.743  20.144  65.498  1.00  0.00    -0.365 Cl 
HETATM    8  C   UNL     1     -10.393  18.647  66.405  1.00  0.00    -0.432 C  
ENDBRANCH   2   6
TORSDOF 2
ENDMDL
MODEL       88
REMARK 921   NORMALIZED FREE ENERGY PREDICTED BY IDOCK:   -2.34 KCAL/MOL
REMARK 922        TOTAL FREE ENERGY PREDICTED BY IDOCK:   -2.64 KCAL/MOL
REMARK 923 INTER-LIGAND FREE ENERGY PREDICTED BY IDOCK:   -2.58 KCAL/MOL
REMARK 924 INTRA-LIGAND FREE ENERGY PREDICTED BY IDOCK:   -0.06 KCAL/MOL
REMARK 927      BINDING AFFINITY PREDICTED BY RF-SCORE:    0.00 PKD
ROOT
HETATM    1  C   UNL     1     -12.529  13.526  70.932  1.00  0.00    -0.369 C  
HETATM    2  N   UNL     1     -12.219  13.510  69.495  1.00  0.00    -0.280 NA 
ENDROOT
BRANCH   2   3
HETATM    3  C   UNL     1     -11.156  14.513  69.231  1.00  0.00    -0.270 C  
HETATM    4 CL   UNL     1     -10.303  17.007  68.532  1.00  0.00    -0.336 Cl 
HETATM    5  C   UNL     1     -11.657  15.854  68.683  1.00  0.00    -0.380 C  
ENDBRANCH   2   3
BRANCH   2   6
HETATM    6  C   UNL     1     -11.813  12.156  69.050  1.00  0.00    -0.306 C  
HETATM    7 CL   UNL     1     -10.796  10.434  67.194  1.00  0.00    -0.324 Cl 
HETATM    8  C   UNL     1     -11.396  12.071  67.575  1.00  0.00    -0.319 C  
ENDBRANCH   2   6
TORSDOF 2
ENDMDL
MODEL       89
REMARK 921   NORMALIZED FREE ENERGY PREDICTED BY IDOCK:   -2.33 KCAL/MOL
REMARK 922        TOTAL FREE ENERGY PREDICTED BY IDOCK:   -2.63 KCAL/MOL
REMARK 923 INTER-LIGAND FREE ENERGY PREDICTED BY IDOCK:   -2.60 KCAL/MOL
REMARK 924 INTRA-LIGAND FREE ENERGY PREDICTED BY IDOCK:   -0.03 KCAL/MOL
REMARK 927      BINDING AFFINITY PREDICTED BY RF-SCORE:    0.00 PKD
ROOT
HETATM    1  C   UNL     1     -12.852  10.539  70.853  1.00  0.00    -0.394 C  
HETATM    2  N   UNL     1     -11.513   9.958  71.028  1.00  0.00    -0.363 NA 
ENDROOT
BRANCH   2   3
HETATM    3  C   UNL     1     -11.632   8.749  71.882  1.00  0.00    -0.361 C  
HETATM    4 CL   UNL     1     -10.632   6.926  73.647  1.00  0.00    -0.384 Cl 
HETATM    5  C   UNL     1     -10.327   8.304  72.554  1.00  0.00    -0.331 C  
ENDBRANCH   2   3
BRANCH   2   6
HETATM    6  C   UNL     1     -10.891   9.643  69.721  1.00  0.00    -0.250 C  
HETATM    7 CL   UNL     1     -10.512  10.107  67.058  1.00  0.00    -0.301 Cl 
HETATM    8  C   UNL     1     -11.430  10.471  68.545  1.00  0.00    -0.215 C  
ENDBRANCH   2   6
TORSDOF 2
ENDMDL
MODEL       90
REMARK 921   NORMALIZED FREE ENERGY PREDICTED BY IDOCK:   -2.30 KCAL/MOL
REMARK 922        TOTAL FREE ENERGY PREDICTED BY IDOCK:   -2.59 KCAL/MOL
REMARK 923 INTER-LIGAND FREE ENERGY PREDICTED BY IDOCK:   -2.54 KCAL/MOL
REMARK 924 INTRA-LIGAND FREE ENERGY PREDICTED BY IDOCK:   -0.05 KCAL/MOL
REMARK 927      BINDING AFFINITY PREDICTED BY RF-SCORE:    0.00 PKD
ROOT
HETATM    1  C   UNL     1     -10.366  19.670  67.810  1.00  0.00    -0.454 C  
HETATM    2  N   UNL     1      -9.510  18.601  67.275  1.00  0.00    -0.294 NA 
ENDROOT
BRANCH   2   3
HETATM    3  C   UNL     1     -10.369  17.623  66.560  1.00  0.00    -0.337 C  
HETATM    4 CL   UNL     1     -11.385  15.120  66.179  1.00  0.00    -0.278 Cl 
HETATM    5  C   UNL     1     -10.212  16.169  67.022  1.00  0.00    -0.285 C  
ENDBRANCH   2   3
BRANCH   2   6
HETATM    6  C   UNL     1      -8.458  19.151  66.390  1.00  0.00    -0.318 C  
HETATM    7 CL   UNL     1      -6.129  18.922  64.986  1.00  0.00    -0.313 Cl 
HETATM    8  C   UNL     1      -7.258  18.217  66.175  1.00  0.00    -0.266 C  
ENDBRANCH   2   6
TORSDOF 2
ENDMDL
MODEL       91
REMARK 921   NORMALIZED FREE ENERGY PREDICTED BY IDOCK:   -2.30 KCAL/MOL
REMARK 922        TOTAL FREE ENERGY PREDICTED BY IDOCK:   -2.59 KCAL/MOL
REMARK 923 INTER-LIGAND FREE ENERGY PREDICTED BY IDOCK:   -2.54 KCAL/MOL
REMARK 924 INTRA-LIGAND FREE ENERGY PREDICTED BY IDOCK:   -0.05 KCAL/MOL
REMARK 927      BINDING AFFINITY PREDICTED BY RF-SCORE:    0.00 PKD
ROOT
HETATM    1  C   UNL     1     -10.002  11.376  67.487  1.00  0.00    -0.182 C  
HETATM    2  N   UNL     1     -10.691  11.123  66.213  1.00  0.00    -0.261 NA 
ENDROOT
BRANCH   2   3
HETATM    3  C   UNL     1     -10.797  12.405  65.472  1.00  0.00    -0.281 C  
HETATM    4 CL   UNL     1     -12.215  14.496  64.444  1.00  0.00    -0.507 Cl 
HETATM    5  C   UNL     1     -12.230  12.891  65.226  1.00  0.00    -0.476 C  
ENDBRANCH   2   3
BRANCH   2   6
HETATM    6  C   UNL     1      -9.984  10.092  65.418  1.00  0.00    -0.294 C  
HETATM    7 CL   UNL     1      -8.713   9.243  63.157  1.00  0.00    -0.214 Cl 
HETATM    8  C   UNL     1      -9.686  10.501  63.969  1.00  0.00    -0.323 C  
ENDBRANCH   2   6
TORSDOF 2
ENDMDL
MODEL       92
REMARK 921   NORMALIZED FREE ENERGY PREDICTED BY IDOCK:   -2.30 KCAL/MOL
REMARK 922        TOTAL FREE ENERGY PREDICTED BY IDOCK:   -2.59 KCAL/MOL
REMARK 923 INTER-LIGAND FREE ENERGY PREDICTED BY IDOCK:   -2.53 KCAL/MOL
REMARK 924 INTRA-LIGAND FREE ENERGY PREDICTED BY IDOCK:   -0.06 KCAL/MOL
REMARK 927      BINDING AFFINITY PREDICTED BY RF-SCORE:    0.00 PKD
ROOT
HETATM    1  C   UNL     1     -12.622   7.025  71.580  1.00  0.00    -0.385 C  
HETATM    2  N   UNL     1     -11.466   6.227  71.147  1.00  0.00    -0.314 NA 
ENDROOT
BRANCH   2   3
HETATM    3  C   UNL     1     -11.395   6.266  69.664  1.00  0.00    -0.422 C  
HETATM    4 CL   UNL     1     -10.540   7.345  67.310  1.00  0.00    -0.378 Cl 
HETATM    5  C   UNL     1     -10.666   7.484  69.085  1.00  0.00    -0.151 C  
ENDBRANCH   2   3
BRANCH   2   6
HETATM    6  C   UNL     1     -10.214   6.720  71.765  1.00  0.00    -0.190 C  
HETATM    7 CL   UNL     1      -8.855   8.066  73.712  1.00  0.00    -0.331 Cl 
HETATM    8  C   UNL     1     -10.424   7.652  72.967  1.00  0.00    -0.356 C  
ENDBRANCH   2   6
TORSDOF 2
ENDMDL
MODEL       93
REMARK 921   NORMALIZED FREE ENERGY PREDICTED BY IDOCK:   -2.29 KCAL/MOL
REMARK 922        TOTAL FREE ENERGY PREDICTED BY IDOCK:   -2.59 KCAL/MOL
REMARK 923 INTER-LIGAND FREE ENERGY PREDICTED BY IDOCK:   -2.56 KCAL/MOL
REMARK 924 INTRA-LIGAND FREE ENERGY PREDICTED BY IDOCK:   -0.03 KCAL/MOL
REMARK 927      BINDING AFFINITY PREDICTED BY RF-SCORE:    0.00 PKD
ROOT
HETATM    1  C   UNL     1      -9.901  10.949  63.377  1.00  0.00    -0.362 C  
HETATM    2  N   UNL     1     -10.597  10.870  64.670  1.00  0.00    -0.313 NA 
ENDROOT
BRANCH   2   3
HETATM    3  C   UNL     1      -9.628  10.418  65.700  1.00  0.00    -0.226 C  
HETATM    4 CL   UNL     1      -8.551   8.527  67.345  1.00  0.00    -0.126 Cl 
HETATM    5  C   UNL     1      -9.852   8.990  66.213  1.00  0.00    -0.291 C  
ENDBRANCH   2   3
BRANCH   2   6
HETATM    6  C   UNL     1     -11.208  12.171  65.029  1.00  0.00    -0.322 C  
HETATM    7 CL   UNL     1     -12.367  14.552  64.372  1.00  0.00    -0.482 Cl 
HETATM    8  C   UNL     1     -11.509  13.083  63.832  1.00  0.00    -0.435 C  
ENDBRANCH   2   6
TORSDOF 2
ENDMDL
MODEL       94
REMARK 921   NORMALIZED FREE ENERGY PREDICTED BY IDOCK:   -2.29 KCAL/MOL
REMARK 922        TOTAL FREE ENERGY PREDICTED BY IDOCK:   -2.58 KCAL/MOL
REMARK 923 INTER-LIGAND FREE ENERGY PREDICTED BY IDOCK:   -2.51 KCAL/MOL
REMARK 924 INTRA-LIGAND FREE ENERGY PREDICTED BY IDOCK:   -0.06 KCAL/MOL
REMARK 927      BINDING AFFINITY PREDICTED BY RF-SCORE:    0.00 PKD
ROOT
HETATM    1  C   UNL     1      -9.377   9.964  69.602  1.00  0.00    -0.228 C  
HETATM    2  N   UNL     1     -10.411  10.541  68.731  1.00  0.00    -0.184 NA 
ENDROOT
BRANCH   2   3
HETATM    3  C   UNL     1     -10.835   9.507  67.754  1.00  0.00    -0.195 C  
HETATM    4 CL   UNL     1     -10.980   6.933  66.864  1.00  0.00    -0.421 Cl 
HETATM    5  C   UNL     1     -10.297   8.098  68.031  1.00  0.00    -0.211 C  
ENDBRANCH   2   3
BRANCH   2   6
HETATM    6  C   UNL     1     -11.557  11.045  69.523  1.00  0.00    -0.313 C  
HETATM    7 CL   UNL     1     -13.117  11.061  71.762  1.00  0.00    -0.585 Cl 
HETATM    8  C   UNL     1     -11.811  10.280  70.830  1.00  0.00    -0.377 C  
ENDBRANCH   2   6
TORSDOF 2
ENDMDL
MODEL       95
REMARK 921   NORMALIZED FREE ENERGY PREDICTED BY IDOCK:   -2.28 KCAL/MOL
REMARK 922        TOTAL FREE ENERGY PREDICTED BY IDOCK:   -2.57 KCAL/MOL
REMARK 923 INTER-LIGAND FREE ENERGY PREDICTED BY IDOCK:   -2.51 KCAL/MOL
REMARK 924 INTRA-LIGAND FREE ENERGY PREDICTED BY IDOCK:   -0.05 KCAL/MOL
REMARK 927      BINDING AFFINITY PREDICTED BY RF-SCORE:    0.00 PKD
ROOT
HETATM    1  C   UNL     1      -7.828  19.208  68.688  1.00  0.00    -0.354 C  
HETATM    2  N   UNL     1      -8.790  19.596  67.646  1.00  0.00    -0.313 NA 
ENDROOT
BRANCH   2   3
HETATM    3  C   UNL     1      -8.039  19.885  66.398  1.00  0.00    -0.331 C  
HETATM    4 CL   UNL     1      -6.109  19.332  64.551  1.00  0.00    -0.295 Cl 
HETATM    5  C   UNL     1      -6.842  18.963  66.136  1.00  0.00    -0.238 C  
ENDBRANCH   2   3
BRANCH   2   6
HETATM    6  C   UNL     1      -9.808  18.541  67.437  1.00  0.00    -0.312 C  
HETATM    7 CL   UNL     1     -11.147  16.296  68.221  1.00  0.00    -0.352 Cl 
HETATM    8  C   UNL     1      -9.793  17.427  68.494  1.00  0.00    -0.320 C  
ENDBRANCH   2   6
TORSDOF 2
ENDMDL
MODEL       96
REMARK 921   NORMALIZED FREE ENERGY PREDICTED BY IDOCK:   -2.28 KCAL/MOL
REMARK 922        TOTAL FREE ENERGY PREDICTED BY IDOCK:   -2.57 KCAL/MOL
REMARK 923 INTER-LIGAND FREE ENERGY PREDICTED BY IDOCK:   -2.51 KCAL/MOL
REMARK 924 INTRA-LIGAND FREE ENERGY PREDICTED BY IDOCK:   -0.05 KCAL/MOL
REMARK 927      BINDING AFFINITY PREDICTED BY RF-SCORE:    0.00 PKD
ROOT
HETATM    1  C   UNL     1     -13.130   7.167  71.578  1.00  0.00    -0.375 C  
HETATM    2  N   UNL     1     -11.921   7.988  71.419  1.00  0.00    -0.293 NA 
ENDROOT
BRANCH   2   3
HETATM    3  C   UNL     1     -11.030   7.747  72.582  1.00  0.00    -0.364 C  
HETATM    4 CL   UNL     1      -8.679   8.044  73.933  1.00  0.00    -0.331 Cl 
HETATM    5  C   UNL     1      -9.603   8.284  72.424  1.00  0.00    -0.294 C  
ENDBRANCH   2   3
BRANCH   2   6
HETATM    6  C   UNL     1     -11.237   7.692  70.139  1.00  0.00    -0.180 C  
HETATM    7 CL   UNL     1     -10.475   5.980  68.155  1.00  0.00    -0.251 Cl 
HETATM    8  C   UNL     1     -11.191   6.200  69.775  1.00  0.00    -0.423 C  
ENDBRANCH   2   6
TORSDOF 2
ENDMDL
MODEL       97
REMARK 921   NORMALIZED FREE ENERGY PREDICTED BY IDOCK:   -2.26 KCAL/MOL
REMARK 922        TOTAL FREE ENERGY PREDICTED BY IDOCK:   -2.55 KCAL/MOL
REMARK 923 INTER-LIGAND FREE ENERGY PREDICTED BY IDOCK:   -2.49 KCAL/MOL
REMARK 924 INTRA-LIGAND FREE ENERGY PREDICTED BY IDOCK:   -0.06 KCAL/MOL
REMARK 927      BINDING AFFINITY PREDICTED BY RF-SCORE:    0.00 PKD
ROOT
HETATM    1  C   UNL     1     -10.311   6.945  73.768  1.00  0.00    -0.376 C  
HETATM    2  N   UNL     1     -10.462   7.917  72.674  1.00  0.00    -0.293 NA 
ENDROOT
BRANCH   2   3
HETATM    3  C   UNL     1      -9.792   7.373  71.466  1.00  0.00    -0.173 C  
HETATM    4 CL   UNL     1      -8.465   7.660  69.100  1.00  0.00    -0.137 Cl 
HETATM    5  C   UNL     1      -9.368   8.427  70.435  1.00  0.00    -0.161 C  
ENDBRANCH   2   3
BRANCH   2   6
HETATM    6  C   UNL     1     -11.890   8.216  72.418  1.00  0.00    -0.388 C  
HETATM    7 CL   UNL     1     -14.386   7.507  71.571  1.00  0.00    -0.592 Cl 
HETATM    8  C   UNL     1     -12.654   7.095  71.698  1.00  0.00    -0.375 C  
ENDBRANCH   2   6
TORSDOF 2
ENDMDL
MODEL       98
REMARK 921   NORMALIZED FREE ENERGY PREDICTED BY IDOCK:   -2.26 KCAL/MOL
REMARK 922        TOTAL FREE ENERGY PREDICTED BY IDOCK:   -2.55 KCAL/MOL
REMARK 923 INTER-LIGAND FREE ENERGY PREDICTED BY IDOCK:   -2.49 KCAL/MOL
REMARK 924 INTRA-LIGAND FREE ENERGY PREDICTED BY IDOCK:   -0.06 KCAL/MOL
REMARK 927      BINDING AFFINITY PREDICTED BY RF-SCORE:    0.00 PKD
ROOT
HETATM    1  C   UNL     1     -12.305  12.823  65.258  1.00  0.00    -0.488 C  
HETATM    2  N   UNL     1     -10.936  13.358  65.266  1.00  0.00    -0.288 NA 
ENDROOT
BRANCH   2   3
HETATM    3  C   UNL     1     -10.771  14.209  66.471  1.00  0.00    -0.289 C  
HETATM    4 CL   UNL     1     -11.306  14.861  69.065  1.00  0.00    -0.290 Cl 
HETATM    5  C   UNL     1     -11.693  13.853  67.644  1.00  0.00    -0.368 C  
ENDBRANCH   2   3
BRANCH   2   6
HETATM    6  C   UNL     1      -9.935  12.268  65.227  1.00  0.00    -0.230 C  
HETATM    7 CL   UNL     1      -9.243   9.639  64.982  1.00  0.00    -0.292 Cl 
HETATM    8  C   UNL     1     -10.536  10.856  65.168  1.00  0.00    -0.246 C  
ENDBRANCH   2   6
TORSDOF 2
ENDMDL
MODEL       99
REMARK 921   NORMALIZED FREE ENERGY PREDICTED BY IDOCK:   -2.24 KCAL/MOL
REMARK 922        TOTAL FREE ENERGY PREDICTED BY IDOCK:   -2.53 KCAL/MOL
REMARK 923 INTER-LIGAND FREE ENERGY PREDICTED BY IDOCK:   -2.47 KCAL/MOL
REMARK 924 INTRA-LIGAND FREE ENERGY PREDICTED BY IDOCK:   -0.06 KCAL/MOL
REMARK 927      BINDING AFFINITY PREDICTED BY RF-SCORE:    0.00 PKD
ROOT
HETATM    1  C   UNL     1     -10.739  12.937  68.668  1.00  0.00    -0.247 C  
HETATM    2  N   UNL     1     -11.670  11.801  68.612  1.00  0.00    -0.311 NA 
ENDROOT
BRANCH   2   3
HETATM    3  C   UNL     1     -11.172  10.834  67.600  1.00  0.00    -0.299 C  
HETATM    4 CL   UNL     1      -9.611  10.149  65.471  1.00  0.00    -0.286 Cl 
HETATM    5  C   UNL     1     -10.235  11.433  66.544  1.00  0.00    -0.221 C  
ENDBRANCH   2   3
BRANCH   2   6
HETATM    6  C   UNL     1     -11.822  11.167  69.942  1.00  0.00    -0.363 C  
HETATM    7 CL   UNL     1     -11.122   9.321  71.826  1.00  0.00    -0.439 Cl 
HETATM    8  C   UNL     1     -10.963   9.911  70.149  1.00  0.00    -0.301 C  
ENDBRANCH   2   6
TORSDOF 2
ENDMDL
MODEL      100
REMARK 921   NORMALIZED FREE ENERGY PREDICTED BY IDOCK:   -2.24 KCAL/MOL
REMARK 922        TOTAL FREE ENERGY PREDICTED BY IDOCK:   -2.52 KCAL/MOL
REMARK 923 INTER-LIGAND FREE ENERGY PREDICTED BY IDOCK:   -2.49 KCAL/MOL
REMARK 924 INTRA-LIGAND FREE ENERGY PREDICTED BY IDOCK:   -0.03 KCAL/MOL
REMARK 927      BINDING AFFINITY PREDICTED BY RF-SCORE:    0.00 PKD
ROOT
HETATM    1  C   UNL     1     -11.756  14.506  68.254  1.00  0.00    -0.335 C  
HETATM    2  N   UNL     1     -10.510  15.214  68.581  1.00  0.00    -0.228 NA 
ENDROOT
BRANCH   2   3
HETATM    3  C   UNL     1     -10.554  15.608  70.012  1.00  0.00    -0.332 C  
HETATM    4 CL   UNL     1     -11.868  16.048  72.361  1.00  0.00    -0.604 Cl 
HETATM    5  C   UNL     1     -11.962  15.693  70.614  1.00  0.00    -0.402 C  
ENDBRANCH   2   3
BRANCH   2   6
HETATM    6  C   UNL     1      -9.325  14.377  68.283  1.00  0.00    -0.206 C  
HETATM    7 CL   UNL     1      -8.128  12.230  67.096  1.00  0.00    -0.179 Cl 
HETATM    8  C   UNL     1      -9.639  13.080  67.522  1.00  0.00    -0.204 C  
ENDBRANCH   2   6
TORSDOF 2
ENDMDL
MODEL      101
REMARK 921   NORMALIZED FREE ENERGY PREDICTED BY IDOCK:   -2.23 KCAL/MOL
REMARK 922        TOTAL FREE ENERGY PREDICTED BY IDOCK:   -2.52 KCAL/MOL
REMARK 923 INTER-LIGAND FREE ENERGY PREDICTED BY IDOCK:   -2.49 KCAL/MOL
REMARK 924 INTRA-LIGAND FREE ENERGY PREDICTED BY IDOCK:   -0.03 KCAL/MOL
REMARK 927      BINDING AFFINITY PREDICTED BY RF-SCORE:    0.00 PKD
ROOT
HETATM    1  C   UNL     1     -11.316  15.056  65.034  1.00  0.00    -0.394 C  
HETATM    2  N   UNL     1     -10.028  14.872  65.719  1.00  0.00    -0.326 NA 
ENDROOT
BRANCH   2   3
HETATM    3  C   UNL     1      -9.689  16.131  66.429  1.00  0.00    -0.286 C  
HETATM    4 CL   UNL     1      -7.923  18.024  67.288  1.00  0.00    -0.215 Cl 
HETATM    5  C   UNL     1      -8.188  16.430  66.530  1.00  0.00    -0.306 C  
ENDBRANCH   2   3
BRANCH   2   6
HETATM    6  C   UNL     1     -10.076  13.719  66.647  1.00  0.00    -0.277 C  
HETATM    7 CL   UNL     1     -11.401  11.693  67.907  1.00  0.00    -0.341 Cl 
HETATM    8  C   UNL     1     -11.485  13.159  66.892  1.00  0.00    -0.341 C  
ENDBRANCH   2   6
TORSDOF 2
ENDMDL
MODEL      102
REMARK 921   NORMALIZED FREE ENERGY PREDICTED BY IDOCK:   -2.21 KCAL/MOL
REMARK 922        TOTAL FREE ENERGY PREDICTED BY IDOCK:   -2.50 KCAL/MOL
REMARK 923 INTER-LIGAND FREE ENERGY PREDICTED BY IDOCK:   -2.45 KCAL/MOL
REMARK 924 INTRA-LIGAND FREE ENERGY PREDICTED BY IDOCK:   -0.05 KCAL/MOL
REMARK 927      BINDING AFFINITY PREDICTED BY RF-SCORE:    0.00 PKD
ROOT
HETATM    1  C   UNL     1     -12.589   8.471  71.494  1.00  0.00    -0.316 C  
HETATM    2  N   UNL     1     -11.370   8.729  70.714  1.00  0.00    -0.269 NA 
ENDROOT
BRANCH   2   3
HETATM    3  C   UNL     1     -11.231  10.196  70.529  1.00  0.00    -0.336 C  
HETATM    4 CL   UNL     1     -12.167  12.754  70.682  1.00  0.00    -0.439 Cl 
HETATM    5  C   UNL     1     -12.502  11.005  70.816  1.00  0.00    -0.396 C  
ENDBRANCH   2   3
BRANCH   2   6
HETATM    6  C   UNL     1     -10.179   8.148  71.374  1.00  0.00    -0.198 C  
HETATM    7 CL   UNL     1      -8.861   7.204  73.570  1.00  0.00    -0.168 Cl 
HETATM    8  C   UNL     1     -10.287   8.046  72.902  1.00  0.00    -0.327 C  
ENDBRANCH   2   6
TORSDOF 2
ENDMDL
MODEL      103
REMARK 921   NORMALIZED FREE ENERGY PREDICTED BY IDOCK:   -2.21 KCAL/MOL
REMARK 922        TOTAL FREE ENERGY PREDICTED BY IDOCK:   -2.49 KCAL/MOL
REMARK 923 INTER-LIGAND FREE ENERGY PREDICTED BY IDOCK:   -2.45 KCAL/MOL
REMARK 924 INTRA-LIGAND FREE ENERGY PREDICTED BY IDOCK:   -0.04 KCAL/MOL
REMARK 927      BINDING AFFINITY PREDICTED BY RF-SCORE:    0.00 PKD
ROOT
HETATM    1  C   UNL     1     -11.188   8.399  72.269  1.00  0.00    -0.376 C  
HETATM    2  N   UNL     1     -11.562   8.836  70.917  1.00  0.00    -0.282 NA 
ENDROOT
BRANCH   2   3
HETATM    3  C   UNL     1     -11.982  10.259  70.981  1.00  0.00    -0.385 C  
HETATM    4 CL   UNL     1     -13.508  12.289  71.977  1.00  0.00    -0.521 Cl 
HETATM    5  C   UNL     1     -13.188  10.535  71.887  1.00  0.00    -0.420 C  
ENDBRANCH   2   3
BRANCH   2   6
HETATM    6  C   UNL     1     -10.447   8.640  69.962  1.00  0.00    -0.223 C  
HETATM    7 CL   UNL     1      -9.309   8.913  67.497  1.00  0.00    -0.152 Cl 
HETATM    8  C   UNL     1     -10.764   9.062  68.520  1.00  0.00    -0.095 C  
ENDBRANCH   2   6
TORSDOF 2
ENDMDL
MODEL      104
REMARK 921   NORMALIZED FREE ENERGY PREDICTED BY IDOCK:   -2.20 KCAL/MOL
REMARK 922        TOTAL FREE ENERGY PREDICTED BY IDOCK:   -2.48 KCAL/MOL
REMARK 923 INTER-LIGAND FREE ENERGY PREDICTED BY IDOCK:   -2.46 KCAL/MOL
REMARK 924 INTRA-LIGAND FREE ENERGY PREDICTED BY IDOCK:   -0.02 KCAL/MOL
REMARK 927      BINDING AFFINITY PREDICTED BY RF-SCORE:    0.00 PKD
ROOT
HETATM    1  C   UNL     1     -10.588  15.334  66.325  1.00  0.00    -0.309 C  
HETATM    2  N   UNL     1      -9.610  16.336  65.876  1.00  0.00    -0.424 NA 
ENDROOT
BRANCH   2   3
HETATM    3  C   UNL     1     -10.226  17.682  65.995  1.00  0.00    -0.297 C  
HETATM    4 CL   UNL     1     -11.033  19.855  67.433  1.00  0.00    -0.374 Cl 
HETATM    5  C   UNL     1     -10.405  18.184  67.434  1.00  0.00    -0.389 C  
ENDBRANCH   2   3
BRANCH   2   6
HETATM    6  C   UNL     1      -8.353  16.242  66.653  1.00  0.00    -0.280 C  
HETATM    7 CL   UNL     1      -5.805  17.039  67.219  1.00  0.00    -0.169 Cl 
HETATM    8  C   UNL     1      -7.214  17.128  66.127  1.00  0.00    -0.218 C  
ENDBRANCH   2   6
TORSDOF 2
ENDMDL
MODEL      105
REMARK 921   NORMALIZED FREE ENERGY PREDICTED BY IDOCK:   -2.16 KCAL/MOL
REMARK 922        TOTAL FREE ENERGY PREDICTED BY IDOCK:   -2.44 KCAL/MOL
REMARK 923 INTER-LIGAND FREE ENERGY PREDICTED BY IDOCK:   -2.39 KCAL/MOL
REMARK 924 INTRA-LIGAND FREE ENERGY PREDICTED BY IDOCK:   -0.05 KCAL/MOL
REMARK 927      BINDING AFFINITY PREDICTED BY RF-SCORE:    0.00 PKD
ROOT
HETATM    1  C   UNL     1     -12.020  14.335  67.136  1.00  0.00    -0.417 C  
HETATM    2  N   UNL     1     -10.841  15.161  66.834  1.00  0.00    -0.313 NA 
ENDROOT
BRANCH   2   3
HETATM    3  C   UNL     1     -10.853  16.345  67.730  1.00  0.00    -0.306 C  
HETATM    4 CL   UNL     1     -10.383  18.977  68.268  1.00  0.00    -0.432 Cl 
HETATM    5  C   UNL     1     -10.188  17.599  67.150  1.00  0.00    -0.342 C  
ENDBRANCH   2   3
BRANCH   2   6
HETATM    6  C   UNL     1      -9.590  14.380  66.978  1.00  0.00    -0.247 C  
HETATM    7 CL   UNL     1      -7.829  12.902  68.448  1.00  0.00    -0.137 Cl 
HETATM    8  C   UNL     1      -9.274  13.950  68.418  1.00  0.00    -0.194 C  
ENDBRANCH   2   6
TORSDOF 2
ENDMDL
MODEL      106
REMARK 921   NORMALIZED FREE ENERGY PREDICTED BY IDOCK:   -2.14 KCAL/MOL
REMARK 922        TOTAL FREE ENERGY PREDICTED BY IDOCK:   -2.42 KCAL/MOL
REMARK 923 INTER-LIGAND FREE ENERGY PREDICTED BY IDOCK:   -2.39 KCAL/MOL
REMARK 924 INTRA-LIGAND FREE ENERGY PREDICTED BY IDOCK:   -0.03 KCAL/MOL
REMARK 927      BINDING AFFINITY PREDICTED BY RF-SCORE:    0.00 PKD
ROOT
HETATM    1  C   UNL     1      -9.794   9.973  67.737  1.00  0.00    -0.157 C  
HETATM    2  N   UNL     1     -10.326  10.857  68.785  1.00  0.00    -0.189 NA 
ENDROOT
BRANCH   2   3
HETATM    3  C   UNL     1     -11.193  11.878  68.144  1.00  0.00    -0.258 C  
HETATM    4 CL   UNL     1     -12.182  13.192  65.968  1.00  0.00    -0.486 Cl 
HETATM    5  C   UNL     1     -10.998  12.032  66.631  1.00  0.00    -0.287 C  
ENDBRANCH   2   3
BRANCH   2   6
HETATM    6  C   UNL     1     -11.061  10.085  69.813  1.00  0.00    -0.274 C  
HETATM    7 CL   UNL     1     -11.156   8.600  72.101  1.00  0.00    -0.432 Cl 
HETATM    8  C   UNL     1     -10.163   9.374  70.836  1.00  0.00    -0.303 C  
ENDBRANCH   2   6
TORSDOF 2
ENDMDL
MODEL      107
REMARK 921   NORMALIZED FREE ENERGY PREDICTED BY IDOCK:   -2.14 KCAL/MOL
REMARK 922        TOTAL FREE ENERGY PREDICTED BY IDOCK:   -2.42 KCAL/MOL
REMARK 923 INTER-LIGAND FREE ENERGY PREDICTED BY IDOCK:   -2.45 KCAL/MOL
REMARK 924 INTRA-LIGAND FREE ENERGY PREDICTED BY IDOCK:    0.03 KCAL/MOL
REMARK 927      BINDING AFFINITY PREDICTED BY RF-SCORE:    0.00 PKD
ROOT
HETATM    1  C   UNL     1      -9.971   8.538  70.933  1.00  0.00    -0.191 C  
HETATM    2  N   UNL     1     -10.584   8.648  72.265  1.00  0.00    -0.336 NA 
ENDROOT
BRANCH   2   3
HETATM    3  C   UNL     1     -12.061   8.611  72.108  1.00  0.00    -0.381 C  
HETATM    4 CL   UNL     1     -14.395   7.355  71.465  1.00  0.00    -0.599 Cl 
HETATM    5  C   UNL     1     -12.610   7.325  71.478  1.00  0.00    -0.379 C  
ENDBRANCH   2   3
BRANCH   2   6
HETATM    6  C   UNL     1     -10.105   7.575  73.165  1.00  0.00    -0.308 C  
HETATM    7 CL   UNL     1      -8.726   5.269  73.646  1.00  0.00    -0.110 Cl 
HETATM    8  C   UNL     1      -9.379   6.425  72.452  1.00  0.00    -0.140 C  
ENDBRANCH   2   6
TORSDOF 2
ENDMDL
MODEL      108
REMARK 921   NORMALIZED FREE ENERGY PREDICTED BY IDOCK:   -2.14 KCAL/MOL
REMARK 922        TOTAL FREE ENERGY PREDICTED BY IDOCK:   -2.41 KCAL/MOL
REMARK 923 INTER-LIGAND FREE ENERGY PREDICTED BY IDOCK:   -2.35 KCAL/MOL
REMARK 924 INTRA-LIGAND FREE ENERGY PREDICTED BY IDOCK:   -0.06 KCAL/MOL
REMARK 927      BINDING AFFINITY PREDICTED BY RF-SCORE:    0.00 PKD
ROOT
HETATM    1  C   UNL     1     -10.893   6.654  67.381  1.00  0.00    -0.363 C  
HETATM    2  N   UNL     1     -10.239   7.719  68.156  1.00  0.00    -0.196 NA 
ENDROOT
BRANCH   2   3
HETATM    3  C   UNL     1     -10.643   9.030  67.588  1.00  0.00    -0.231 C  
HETATM    4 CL   UNL     1     -11.365  11.650  67.822  1.00  0.00    -0.334 Cl 
HETATM    5  C   UNL     1     -11.027  10.092  68.625  1.00  0.00    -0.204 C  
ENDBRANCH   2   3
BRANCH   2   6
HETATM    6  C   UNL     1     -10.580   7.621  69.594  1.00  0.00    -0.243 C  
HETATM    7 CL   UNL     1     -11.707   6.334  71.721  1.00  0.00    -0.364 Cl 
HETATM    8  C   UNL     1     -11.483   6.431  69.953  1.00  0.00    -0.415 C  
ENDBRANCH   2   6
TORSDOF 2
ENDMDL
MODEL      109
REMARK 921   NORMALIZED FREE ENERGY PREDICTED BY IDOCK:   -2.13 KCAL/MOL
REMARK 922        TOTAL FREE ENERGY PREDICTED BY IDOCK:   -2.40 KCAL/MOL
REMARK 923 INTER-LIGAND FREE ENERGY PREDICTED BY IDOCK:   -2.38 KCAL/MOL
REMARK 924 INTRA-LIGAND FREE ENERGY PREDICTED BY IDOCK:   -0.03 KCAL/MOL
REMARK 927      BINDING AFFINITY PREDICTED BY RF-SCORE:    0.00 PKD
ROOT
HETATM    1  C   UNL     1     -11.208  16.337  68.457  1.00  0.00    -0.359 C  
HETATM    2  N   UNL     1      -9.803  16.707  68.682  1.00  0.00    -0.241 NA 
ENDROOT
BRANCH   2   3
HETATM    3  C   UNL     1      -8.948  15.543  68.339  1.00  0.00    -0.189 C  
HETATM    4 CL   UNL     1      -6.968  13.749  68.890  1.00  0.00    -0.108 Cl 
HETATM    5  C   UNL     1      -7.836  15.239  69.351  1.00  0.00    -0.227 C  
ENDBRANCH   2   3
BRANCH   2   6
HETATM    6  C   UNL     1      -9.433  17.906  67.895  1.00  0.00    -0.272 C  
HETATM    7 CL   UNL     1      -9.718  20.539  67.237  1.00  0.00    -0.605 Cl 
HETATM    8  C   UNL     1     -10.342  19.122  68.124  1.00  0.00    -0.376 C  
ENDBRANCH   2   6
TORSDOF 2
ENDMDL
MODEL      110
REMARK 921   NORMALIZED FREE ENERGY PREDICTED BY IDOCK:   -2.12 KCAL/MOL
REMARK 922        TOTAL FREE ENERGY PREDICTED BY IDOCK:   -2.39 KCAL/MOL
REMARK 923 INTER-LIGAND FREE ENERGY PREDICTED BY IDOCK:   -2.34 KCAL/MOL
REMARK 924 INTRA-LIGAND FREE ENERGY PREDICTED BY IDOCK:   -0.06 KCAL/MOL
REMARK 927      BINDING AFFINITY PREDICTED BY RF-SCORE:    0.00 PKD
ROOT
HETATM    1  C   UNL     1     -11.543  14.474  68.086  1.00  0.00    -0.331 C  
HETATM    2  N   UNL     1     -11.467  13.018  68.274  1.00  0.00    -0.290 NA 
ENDROOT
BRANCH   2   3
HETATM    3  C   UNL     1     -10.063  12.587  68.051  1.00  0.00    -0.220 C  
HETATM    4 CL   UNL     1      -8.103  11.398  66.574  1.00  0.00    -0.162 Cl 
HETATM    5  C   UNL     1      -9.841  11.739  66.792  1.00  0.00    -0.198 C  
ENDBRANCH   2   3
BRANCH   2   6
HETATM    6  C   UNL     1     -11.950  12.625  69.617  1.00  0.00    -0.286 C  
HETATM    7 CL   UNL     1     -12.539  10.754  71.515  1.00  0.00    -0.504 Cl 
HETATM    8  C   UNL     1     -12.089  11.110  69.825  1.00  0.00    -0.344 C  
ENDBRANCH   2   6
TORSDOF 2
ENDMDL
MODEL      111
REMARK 921   NORMALIZED FREE ENERGY PREDICTED BY IDOCK:   -2.12 KCAL/MOL
REMARK 922        TOTAL FREE ENERGY PREDICTED BY IDOCK:   -2.39 KCAL/MOL
REMARK 923 INTER-LIGAND FREE ENERGY PREDICTED BY IDOCK:   -2.35 KCAL/MOL
REMARK 924 INTRA-LIGAND FREE ENERGY PREDICTED BY IDOCK:   -0.05 KCAL/MOL
REMARK 927      BINDING AFFINITY PREDICTED BY RF-SCORE:    0.00 PKD
ROOT
HETATM    1  C   UNL     1      -8.814   8.182  73.022  1.00  0.00    -0.248 C  
HETATM    2  N   UNL     1      -9.569   8.425  71.784  1.00  0.00    -0.208 NA 
ENDROOT
BRANCH   2   3
HETATM    3  C   UNL     1      -9.354   7.276  70.868  1.00  0.00    -0.159 C  
HETATM    4 CL   UNL     1     -10.237   5.157  69.396  1.00  0.00    -0.303 Cl 
HETATM    5  C   UNL     1     -10.598   6.419  70.605  1.00  0.00    -0.237 C  
ENDBRANCH   2   3
BRANCH   2   6
HETATM    6  C   UNL     1     -11.008   8.634  72.067  1.00  0.00    -0.362 C  
HETATM    7 CL   UNL     1     -13.374   9.939  71.682  1.00  0.00    -0.479 Cl 
HETATM    8  C   UNL     1     -11.615   9.870  71.386  1.00  0.00    -0.352 C  
ENDBRANCH   2   6
TORSDOF 2
ENDMDL
MODEL      112
REMARK 921   NORMALIZED FREE ENERGY PREDICTED BY IDOCK:   -2.12 KCAL/MOL
REMARK 922        TOTAL FREE ENERGY PREDICTED BY IDOCK:   -2.39 KCAL/MOL
REMARK 923 INTER-LIGAND FREE ENERGY PREDICTED BY IDOCK:   -2.33 KCAL/MOL
REMARK 924 INTRA-LIGAND FREE ENERGY PREDICTED BY IDOCK:   -0.06 KCAL/MOL
REMARK 927      BINDING AFFINITY PREDICTED BY RF-SCORE:    0.00 PKD
ROOT
HETATM    1  C   UNL     1      -9.387  10.511  69.074  1.00  0.00    -0.196 C  
HETATM    2  N   UNL     1      -9.961   9.494  69.967  1.00  0.00    -0.221 NA 
ENDROOT
BRANCH   2   3
HETATM    3  C   UNL     1     -11.272   9.986  70.460  1.00  0.00    -0.336 C  
HETATM    4 CL   UNL     1     -13.485   9.803  72.044  1.00  0.00    -0.501 Cl 
HETATM    5  C   UNL     1     -11.992   9.041  71.430  1.00  0.00    -0.332 C  
ENDBRANCH   2   3
BRANCH   2   6
HETATM    6  C   UNL     1     -10.093   8.190  69.278  1.00  0.00    -0.202 C  
HETATM    7 CL   UNL     1     -10.508   6.674  67.047  1.00  0.00    -0.332 Cl 
HETATM    8  C   UNL     1     -10.521   8.289  67.807  1.00  0.00    -0.215 C  
ENDBRANCH   2   6
TORSDOF 2
ENDMDL
MODEL      113
REMARK 921   NORMALIZED FREE ENERGY PREDICTED BY IDOCK:   -2.09 KCAL/MOL
REMARK 922        TOTAL FREE ENERGY PREDICTED BY IDOCK:   -2.36 KCAL/MOL
REMARK 923 INTER-LIGAND FREE ENERGY PREDICTED BY IDOCK:   -2.32 KCAL/MOL
REMARK 924 INTRA-LIGAND FREE ENERGY PREDICTED BY IDOCK:   -0.05 KCAL/MOL
REMARK 927      BINDING AFFINITY PREDICTED BY RF-SCORE:    0.00 PKD
ROOT
HETATM    1  C   UNL     1     -11.150   6.113  69.416  1.00  0.00    -0.409 C  
HETATM    2  N   UNL     1     -10.974   6.695  70.754  1.00  0.00    -0.254 NA 
ENDROOT
BRANCH   2   3
HETATM    3  C   UNL     1     -12.316   6.913  71.353  1.00  0.00    -0.376 C  
HETATM    4 CL   UNL     1     -14.403   8.503  72.100  1.00  0.00    -0.531 Cl 
HETATM    5  C   UNL     1     -12.729   8.384  71.490  1.00  0.00    -0.308 C  
ENDBRANCH   2   3
BRANCH   2   6
HETATM    6  C   UNL     1     -10.131   5.829  71.608  1.00  0.00    -0.194 C  
HETATM    7 CL   UNL     1      -9.780   3.696  73.276  1.00  0.00    -0.144 Cl 
HETATM    8  C   UNL     1     -10.909   4.766  72.398  1.00  0.00    -0.102 C  
ENDBRANCH   2   6
TORSDOF 2
ENDMDL
MODEL      114
REMARK 921   NORMALIZED FREE ENERGY PREDICTED BY IDOCK:   -2.09 KCAL/MOL
REMARK 922        TOTAL FREE ENERGY PREDICTED BY IDOCK:   -2.36 KCAL/MOL
REMARK 923 INTER-LIGAND FREE ENERGY PREDICTED BY IDOCK:   -2.31 KCAL/MOL
REMARK 924 INTRA-LIGAND FREE ENERGY PREDICTED BY IDOCK:   -0.05 KCAL/MOL
REMARK 927      BINDING AFFINITY PREDICTED BY RF-SCORE:    0.00 PKD
ROOT
HETATM    1  C   UNL     1     -10.188  15.368  68.320  1.00  0.00    -0.229 C  
HETATM    2  N   UNL     1      -9.351  16.467  67.816  1.00  0.00    -0.210 NA 
ENDROOT
BRANCH   2   3
HETATM    3  C   UNL     1     -10.242  17.543  67.311  1.00  0.00    -0.335 C  
HETATM    4 CL   UNL     1     -10.770  19.706  65.736  1.00  0.00    -0.579 Cl 
HETATM    5  C   UNL     1      -9.568  18.548  66.369  1.00  0.00    -0.316 C  
ENDBRANCH   2   3
BRANCH   2   6
HETATM    6  C   UNL     1      -8.434  16.967  68.867  1.00  0.00    -0.202 C  
HETATM    7 CL   UNL     1      -5.969  17.742  69.744  1.00  0.00    -0.243 Cl 
HETATM    8  C   UNL     1      -6.955  16.993  68.457  1.00  0.00    -0.197 C  
ENDBRANCH   2   6
TORSDOF 2
ENDMDL
MODEL      115
REMARK 921   NORMALIZED FREE ENERGY PREDICTED BY IDOCK:   -2.09 KCAL/MOL
REMARK 922        TOTAL FREE ENERGY PREDICTED BY IDOCK:   -2.36 KCAL/MOL
REMARK 923 INTER-LIGAND FREE ENERGY PREDICTED BY IDOCK:   -2.29 KCAL/MOL
REMARK 924 INTRA-LIGAND FREE ENERGY PREDICTED BY IDOCK:   -0.06 KCAL/MOL
REMARK 927      BINDING AFFINITY PREDICTED BY RF-SCORE:    0.00 PKD
ROOT
HETATM    1  C   UNL     1      -9.907  16.646  66.284  1.00  0.00    -0.310 C  
HETATM    2  N   UNL     1     -10.715  15.808  67.181  1.00  0.00    -0.318 NA 
ENDROOT
BRANCH   2   3
HETATM    3  C   UNL     1     -11.521  14.875  66.355  1.00  0.00    -0.280 C  
HETATM    4 CL   UNL     1     -12.088  13.582  64.021  1.00  0.00    -0.501 Cl 
HETATM    5  C   UNL     1     -11.135  14.829  64.871  1.00  0.00    -0.407 C  
ENDBRANCH   2   3
BRANCH   2   6
HETATM    6  C   UNL     1      -9.861  15.082  68.149  1.00  0.00    -0.216 C  
HETATM    7 CL   UNL     1      -7.434  14.205  69.036  1.00  0.00    -0.112 Cl 
HETATM    8  C   UNL     1      -8.386  14.971  67.735  1.00  0.00    -0.150 C  
ENDBRANCH   2   6
TORSDOF 2
ENDMDL
MODEL      116
REMARK 921   NORMALIZED FREE ENERGY PREDICTED BY IDOCK:   -2.06 KCAL/MOL
REMARK 922        TOTAL FREE ENERGY PREDICTED BY IDOCK:   -2.33 KCAL/MOL
REMARK 923 INTER-LIGAND FREE ENERGY PREDICTED BY IDOCK:   -2.30 KCAL/MOL
REMARK 924 INTRA-LIGAND FREE ENERGY PREDICTED BY IDOCK:   -0.03 KCAL/MOL
REMARK 927      BINDING AFFINITY PREDICTED BY RF-SCORE:    0.00 PKD
ROOT
HETATM    1  C   UNL     1     -10.660  10.837  66.907  1.00  0.00    -0.258 C  
HETATM    2  N   UNL     1     -10.162  10.149  68.107  1.00  0.00    -0.163 NA 
ENDROOT
BRANCH   2   3
HETATM    3  C   UNL     1     -10.619  10.900  69.304  1.00  0.00    -0.217 C  
HETATM    4 CL   UNL     1     -12.215  12.726  70.552  1.00  0.00    -0.437 Cl 
HETATM    5  C   UNL     1     -11.659  11.991  69.023  1.00  0.00    -0.313 C  
ENDBRANCH   2   3
BRANCH   2   6
HETATM    6  C   UNL     1     -10.616   8.739  68.142  1.00  0.00    -0.147 C  
HETATM    7 CL   UNL     1     -10.827   6.248  67.048  1.00  0.00    -0.435 Cl 
HETATM    8  C   UNL     1     -10.373   7.962  66.841  1.00  0.00    -0.330 C  
ENDBRANCH   2   6
TORSDOF 2
ENDMDL
MODEL      117
REMARK 921   NORMALIZED FREE ENERGY PREDICTED BY IDOCK:   -2.06 KCAL/MOL
REMARK 922        TOTAL FREE ENERGY PREDICTED BY IDOCK:   -2.32 KCAL/MOL
REMARK 923 INTER-LIGAND FREE ENERGY PREDICTED BY IDOCK:   -2.27 KCAL/MOL
REMARK 924 INTRA-LIGAND FREE ENERGY PREDICTED BY IDOCK:   -0.05 KCAL/MOL
REMARK 927      BINDING AFFINITY PREDICTED BY RF-SCORE:    0.00 PKD
ROOT
HETATM    1  C   UNL     1     -11.399   6.446  69.550  1.00  0.00    -0.393 C  
HETATM    2  N   UNL     1     -10.604   7.492  70.209  1.00  0.00    -0.224 NA 
ENDROOT
BRANCH   2   3
HETATM    3  C   UNL     1      -9.780   8.176  69.180  1.00  0.00    -0.163 C  
HETATM    4 CL   UNL     1      -9.294  10.210  67.429  1.00  0.00    -0.163 Cl 
HETATM    5  C   UNL     1     -10.433   9.412  68.549  1.00  0.00    -0.208 C  
ENDBRANCH   2   3
BRANCH   2   6
HETATM    6  C   UNL     1     -11.473   8.447  70.934  1.00  0.00    -0.267 C  
HETATM    7 CL   UNL     1     -13.676   9.042  72.432  1.00  0.00    -0.520 Cl 
HETATM    8  C   UNL     1     -12.783   7.841  71.458  1.00  0.00    -0.332 C  
ENDBRANCH   2   6
TORSDOF 2
ENDMDL
MODEL      118
REMARK 921   NORMALIZED FREE ENERGY PREDICTED BY IDOCK:   -2.06 KCAL/MOL
REMARK 922        TOTAL FREE ENERGY PREDICTED BY IDOCK:   -2.32 KCAL/MOL
REMARK 923 INTER-LIGAND FREE ENERGY PREDICTED BY IDOCK:   -2.28 KCAL/MOL
REMARK 924 INTRA-LIGAND FREE ENERGY PREDICTED BY IDOCK:   -0.04 KCAL/MOL
REMARK 927      BINDING AFFINITY PREDICTED BY RF-SCORE:    0.00 PKD
ROOT
HETATM    1  C   UNL     1      -7.598  17.803  68.373  1.00  0.00    -0.269 C  
HETATM    2  N   UNL     1      -7.871  17.357  66.999  1.00  0.00    -0.200 NA 
ENDROOT
BRANCH   2   3
HETATM    3  C   UNL     1      -7.944  15.874  66.991  1.00  0.00    -0.235 C  
HETATM    4 CL   UNL     1      -9.286  13.518  66.693  1.00  0.00    -0.264 Cl 
HETATM    5  C   UNL     1      -9.354  15.298  66.814  1.00  0.00    -0.243 C  
ENDBRANCH   2   3
BRANCH   2   6
HETATM    6  C   UNL     1      -9.116  17.966  66.476  1.00  0.00    -0.261 C  
HETATM    7 CL   UNL     1     -10.575  20.107  65.618  1.00  0.00    -0.435 Cl 
HETATM    8  C   UNL     1      -9.085  19.499  66.391  1.00  0.00    -0.370 C  
ENDBRANCH   2   6
TORSDOF 2
ENDMDL
MODEL      119
REMARK 921   NORMALIZED FREE ENERGY PREDICTED BY IDOCK:   -2.06 KCAL/MOL
REMARK 922        TOTAL FREE ENERGY PREDICTED BY IDOCK:   -2.32 KCAL/MOL
REMARK 923 INTER-LIGAND FREE ENERGY PREDICTED BY IDOCK:   -2.28 KCAL/MOL
REMARK 924 INTRA-LIGAND FREE ENERGY PREDICTED BY IDOCK:   -0.04 KCAL/MOL
REMARK 927      BINDING AFFINITY PREDICTED BY RF-SCORE:    0.00 PKD
ROOT
HETATM    1  C   UNL     1     -12.492   8.357  72.108  1.00  0.00    -0.370 C  
HETATM    2  N   UNL     1     -11.072   8.528  71.768  1.00  0.00    -0.284 NA 
ENDROOT
BRANCH   2   3
HETATM    3  C   UNL     1     -10.510   7.200  71.415  1.00  0.00    -0.204 C  
HETATM    4 CL   UNL     1     -10.401   4.949  69.877  1.00  0.00    -0.303 Cl 
HETATM    5  C   UNL     1     -11.249   6.465  70.289  1.00  0.00    -0.382 C  
ENDBRANCH   2   3
BRANCH   2   6
HETATM    6  C   UNL     1     -10.899   9.503  70.667  1.00  0.00    -0.306 C  
HETATM    7 CL   UNL     1      -9.386  10.753  68.771  1.00  0.00    -0.177 Cl 
HETATM    8  C   UNL     1      -9.450   9.666  70.185  1.00  0.00    -0.253 C  
ENDBRANCH   2   6
TORSDOF 2
ENDMDL
MODEL      120
REMARK 921   NORMALIZED FREE ENERGY PREDICTED BY IDOCK:   -2.05 KCAL/MOL
REMARK 922        TOTAL FREE ENERGY PREDICTED BY IDOCK:   -2.32 KCAL/MOL
REMARK 923 INTER-LIGAND FREE ENERGY PREDICTED BY IDOCK:   -2.28 KCAL/MOL
REMARK 924 INTRA-LIGAND FREE ENERGY PREDICTED BY IDOCK:   -0.03 KCAL/MOL
REMARK 927      BINDING AFFINITY PREDICTED BY RF-SCORE:    0.00 PKD
ROOT
HETATM    1  C   UNL     1      -9.567   9.101  65.920  1.00  0.00    -0.273 C  
HETATM    2  N   UNL     1      -9.798   9.132  67.372  1.00  0.00    -0.173 NA 
ENDROOT
BRANCH   2   3
HETATM    3  C   UNL     1     -10.483  10.404  67.712  1.00  0.00    -0.226 C  
HETATM    4 CL   UNL     1     -11.821  12.686  67.046  1.00  0.00    -0.446 Cl 
HETATM    5  C   UNL     1     -10.899  11.255  66.506  1.00  0.00    -0.265 C  
ENDBRANCH   2   3
BRANCH   2   6
HETATM    6  C   UNL     1     -10.581   7.955  67.814  1.00  0.00    -0.175 C  
HETATM    7 CL   UNL     1     -11.518   6.273  69.748  1.00  0.00    -0.508 Cl 
HETATM    8  C   UNL     1     -10.424   7.612  69.303  1.00  0.00    -0.218 C  
ENDBRANCH   2   6
TORSDOF 2
ENDMDL
MODEL      121
REMARK 921   NORMALIZED FREE ENERGY PREDICTED BY IDOCK:   -2.04 KCAL/MOL
REMARK 922        TOTAL FREE ENERGY PREDICTED BY IDOCK:   -2.31 KCAL/MOL
REMARK 923 INTER-LIGAND FREE ENERGY PREDICTED BY IDOCK:   -2.27 KCAL/MOL
REMARK 924 INTRA-LIGAND FREE ENERGY PREDICTED BY IDOCK:   -0.04 KCAL/MOL
REMARK 927      BINDING AFFINITY PREDICTED BY RF-SCORE:    0.00 PKD
ROOT
HETATM    1  C   UNL     1     -10.305  17.805  66.308  1.00  0.00    -0.358 C  
HETATM    2  N   UNL     1      -9.736  16.451  66.246  1.00  0.00    -0.289 NA 
ENDROOT
BRANCH   2   3
HETATM    3  C   UNL     1      -8.376  16.485  66.841  1.00  0.00    -0.212 C  
HETATM    4 CL   UNL     1      -6.148  15.281  67.855  1.00  0.00    -0.156 Cl 
HETATM    5  C   UNL     1      -7.830  15.120  67.279  1.00  0.00    -0.211 C  
ENDBRANCH   2   3
BRANCH   2   6
HETATM    6  C   UNL     1     -10.608  15.472  66.933  1.00  0.00    -0.307 C  
HETATM    7 CL   UNL     1     -12.085  13.177  66.982  1.00  0.00    -0.408 Cl 
HETATM    8  C   UNL     1     -11.171  14.372  66.021  1.00  0.00    -0.333 C  
ENDBRANCH   2   6
TORSDOF 2
ENDMDL
MODEL      122
REMARK 921   NORMALIZED FREE ENERGY PREDICTED BY IDOCK:   -2.04 KCAL/MOL
REMARK 922        TOTAL FREE ENERGY PREDICTED BY IDOCK:   -2.31 KCAL/MOL
REMARK 923 INTER-LIGAND FREE ENERGY PREDICTED BY IDOCK:   -2.26 KCAL/MOL
REMARK 924 INTRA-LIGAND FREE ENERGY PREDICTED BY IDOCK:   -0.05 KCAL/MOL
REMARK 927      BINDING AFFINITY PREDICTED BY RF-SCORE:    0.00 PKD
ROOT
HETATM    1  C   UNL     1     -11.557   5.752  72.048  1.00  0.00    -0.162 C  
HETATM    2  N   UNL     1     -12.023   6.521  70.884  1.00  0.00    -0.348 NA 
ENDROOT
BRANCH   2   3
HETATM    3  C   UNL     1     -12.159   7.945  71.284  1.00  0.00    -0.296 C  
HETATM    4 CL   UNL     1     -13.592  10.068  72.220  1.00  0.00    -0.396 Cl 
HETATM    5  C   UNL     1     -13.587   8.381  71.636  1.00  0.00    -0.349 C  
ENDBRANCH   2   3
BRANCH   2   6
HETATM    6  C   UNL     1     -11.102   6.364  69.735  1.00  0.00    -0.396 C  
HETATM    7 CL   UNL     1      -8.929   7.121  68.267  1.00  0.00    -0.126 Cl 
HETATM    8  C   UNL     1     -10.067   7.490  69.592  1.00  0.00    -0.189 C  
ENDBRANCH   2   6
TORSDOF 2
ENDMDL
MODEL      123
REMARK 921   NORMALIZED FREE ENERGY PREDICTED BY IDOCK:   -2.04 KCAL/MOL
REMARK 922        TOTAL FREE ENERGY PREDICTED BY IDOCK:   -2.30 KCAL/MOL
REMARK 923 INTER-LIGAND FREE ENERGY PREDICTED BY IDOCK:   -2.27 KCAL/MOL
REMARK 924 INTRA-LIGAND FREE ENERGY PREDICTED BY IDOCK:   -0.03 KCAL/MOL
REMARK 927      BINDING AFFINITY PREDICTED BY RF-SCORE:    0.00 PKD
ROOT
HETATM    1  C   UNL     1     -11.422  11.872  66.858  1.00  0.00    -0.322 C  
HETATM    2  N   UNL     1     -10.273  12.212  67.710  1.00  0.00    -0.197 NA 
ENDROOT
BRANCH   2   3
HETATM    3  C   UNL     1     -10.522  13.540  68.328  1.00  0.00    -0.253 C  
HETATM    4 CL   UNL     1     -11.249  16.166  68.210  1.00  0.00    -0.357 Cl 
HETATM    5  C   UNL     1     -10.848  14.662  67.335  1.00  0.00    -0.298 C  
ENDBRANCH   2   3
BRANCH   2   6
HETATM    6  C   UNL     1     -10.039  11.169  68.735  1.00  0.00    -0.201 C  
HETATM    7 CL   UNL     1     -10.890   9.541  70.754  1.00  0.00    -0.356 Cl 
HETATM    8  C   UNL     1     -11.238  10.908  69.659  1.00  0.00    -0.282 C  
ENDBRANCH   2   6
TORSDOF 2
ENDMDL
MODEL      124
REMARK 921   NORMALIZED FREE ENERGY PREDICTED BY IDOCK:   -2.04 KCAL/MOL
REMARK 922        TOTAL FREE ENERGY PREDICTED BY IDOCK:   -2.30 KCAL/MOL
REMARK 923 INTER-LIGAND FREE ENERGY PREDICTED BY IDOCK:   -2.27 KCAL/MOL
REMARK 924 INTRA-LIGAND FREE ENERGY PREDICTED BY IDOCK:   -0.03 KCAL/MOL
REMARK 927      BINDING AFFINITY PREDICTED BY RF-SCORE:    0.00 PKD
ROOT
HETATM    1  C   UNL     1      -9.799  12.932  68.281  1.00  0.00    -0.228 C  
HETATM    2  N   UNL     1     -10.448  11.710  67.783  1.00  0.00    -0.183 NA 
ENDROOT
BRANCH   2   3
HETATM    3  C   UNL     1     -10.949  10.936  68.947  1.00  0.00    -0.229 C  
HETATM    4 CL   UNL     1     -11.159   8.653  70.424  1.00  0.00    -0.253 Cl 
HETATM    5  C   UNL     1     -10.617   9.439  68.916  1.00  0.00    -0.208 C  
ENDBRANCH   2   3
BRANCH   2   6
HETATM    6  C   UNL     1     -11.538  12.032  66.834  1.00  0.00    -0.318 C  
HETATM    7 CL   UNL     1     -12.535  12.286  64.306  1.00  0.00    -0.531 Cl 
HETATM    8  C   UNL     1     -11.116  12.027  65.357  1.00  0.00    -0.320 C  
ENDBRANCH   2   6
TORSDOF 2
ENDMDL
MODEL      125
REMARK 921   NORMALIZED FREE ENERGY PREDICTED BY IDOCK:   -2.04 KCAL/MOL
REMARK 922        TOTAL FREE ENERGY PREDICTED BY IDOCK:   -2.30 KCAL/MOL
REMARK 923 INTER-LIGAND FREE ENERGY PREDICTED BY IDOCK:   -2.26 KCAL/MOL
REMARK 924 INTRA-LIGAND FREE ENERGY PREDICTED BY IDOCK:   -0.04 KCAL/MOL
REMARK 927      BINDING AFFINITY PREDICTED BY RF-SCORE:    0.00 PKD
ROOT
HETATM    1  C   UNL     1      -9.083  11.814  66.379  1.00  0.00    -0.213 C  
HETATM    2  N   UNL     1      -9.487  10.618  65.625  1.00  0.00    -0.199 NA 
ENDROOT
BRANCH   2   3
HETATM    3  C   UNL     1     -10.159   9.678  66.558  1.00  0.00    -0.244 C  
HETATM    4 CL   UNL     1     -10.454   8.481  68.991  1.00  0.00    -0.230 Cl 
HETATM    5  C   UNL     1      -9.482   9.534  67.926  1.00  0.00    -0.132 C  
ENDBRANCH   2   3
BRANCH   2   6
HETATM    6  C   UNL     1     -10.363  10.975  64.486  1.00  0.00    -0.354 C  
HETATM    7 CL   UNL     1     -12.403  12.404  63.370  1.00  0.00    -0.638 Cl 
HETATM    8  C   UNL     1     -11.506  11.937  64.841  1.00  0.00    -0.253 C  
ENDBRANCH   2   6
TORSDOF 2
ENDMDL
MODEL      126
REMARK 921   NORMALIZED FREE ENERGY PREDICTED BY IDOCK:   -2.03 KCAL/MOL
REMARK 922        TOTAL FREE ENERGY PREDICTED BY IDOCK:   -2.29 KCAL/MOL
REMARK 923 INTER-LIGAND FREE ENERGY PREDICTED BY IDOCK:   -2.25 KCAL/MOL
REMARK 924 INTRA-LIGAND FREE ENERGY PREDICTED BY IDOCK:   -0.04 KCAL/MOL
REMARK 927      BINDING AFFINITY PREDICTED BY RF-SCORE:    0.00 PKD
ROOT
HETATM    1  C   UNL     1      -8.509  10.537  67.748  1.00  0.00    -0.114 C  
HETATM    2  N   UNL     1      -9.930  10.778  68.039  1.00  0.00    -0.161 NA 
ENDROOT
BRANCH   2   3
HETATM    3  C   UNL     1     -10.440  11.797  67.087  1.00  0.00    -0.220 C  
HETATM    4 CL   UNL     1     -12.179  13.765  66.351  1.00  0.00    -0.477 Cl 
HETATM    5  C   UNL     1     -11.746  12.479  67.511  1.00  0.00    -0.374 C  
ENDBRANCH   2   3
BRANCH   2   6
HETATM    6  C   UNL     1     -10.712   9.523  67.964  1.00  0.00    -0.212 C  
HETATM    7 CL   UNL     1     -11.118   6.988  67.037  1.00  0.00    -0.387 Cl 
HETATM    8  C   UNL     1     -10.187   8.508  66.937  1.00  0.00    -0.305 C  
ENDBRANCH   2   6
TORSDOF 2
ENDMDL
MODEL      127
REMARK 921   NORMALIZED FREE ENERGY PREDICTED BY IDOCK:   -2.02 KCAL/MOL
REMARK 922        TOTAL FREE ENERGY PREDICTED BY IDOCK:   -2.28 KCAL/MOL
REMARK 923 INTER-LIGAND FREE ENERGY PREDICTED BY IDOCK:   -2.24 KCAL/MOL
REMARK 924 INTRA-LIGAND FREE ENERGY PREDICTED BY IDOCK:   -0.04 KCAL/MOL
REMARK 927      BINDING AFFINITY PREDICTED BY RF-SCORE:    0.00 PKD
ROOT
HETATM    1  C   UNL     1      -9.314  10.106  69.379  1.00  0.00    -0.219 C  
HETATM    2  N   UNL     1      -9.707   9.614  68.050  1.00  0.00    -0.144 NA 
ENDROOT
BRANCH   2   3
HETATM    3  C   UNL     1     -10.046   8.172  68.163  1.00  0.00    -0.198 C  
HETATM    4 CL   UNL     1     -10.710   5.752  67.095  1.00  0.00    -0.354 Cl 
HETATM    5  C   UNL     1     -10.455   7.501  66.846  1.00  0.00    -0.315 C  
ENDBRANCH   2   3
BRANCH   2   6
HETATM    6  C   UNL     1     -10.837  10.398  67.502  1.00  0.00    -0.301 C  
HETATM    7 CL   UNL     1     -11.849  12.480  66.057  1.00  0.00    -0.476 Cl 
HETATM    8  C   UNL     1     -10.425  11.697  66.796  1.00  0.00    -0.230 C  
ENDBRANCH   2   6
TORSDOF 2
ENDMDL
MODEL      128
REMARK 921   NORMALIZED FREE ENERGY PREDICTED BY IDOCK:   -1.99 KCAL/MOL
REMARK 922        TOTAL FREE ENERGY PREDICTED BY IDOCK:   -2.25 KCAL/MOL
REMARK 923 INTER-LIGAND FREE ENERGY PREDICTED BY IDOCK:   -2.22 KCAL/MOL
REMARK 924 INTRA-LIGAND FREE ENERGY PREDICTED BY IDOCK:   -0.03 KCAL/MOL
REMARK 927      BINDING AFFINITY PREDICTED BY RF-SCORE:    0.00 PKD
ROOT
HETATM    1  C   UNL     1     -10.637  17.269  68.311  1.00  0.00    -0.383 C  
HETATM    2  N   UNL     1      -9.701  16.413  69.055  1.00  0.00    -0.254 NA 
ENDROOT
BRANCH   2   3
HETATM    3  C   UNL     1     -10.484  15.553  69.979  1.00  0.00    -0.309 C  
HETATM    4 CL   UNL     1     -12.823  14.509  70.916  1.00  0.00    -0.408 Cl 
HETATM    5  C   UNL     1     -12.006  15.681  69.846  1.00  0.00    -0.360 C  
ENDBRANCH   2   3
BRANCH   2   6
HETATM    6  C   UNL     1      -8.867  15.606  68.136  1.00  0.00    -0.174 C  
HETATM    7 CL   UNL     1      -6.739  13.978  67.614  1.00  0.00    -0.190 Cl 
HETATM    8  C   UNL     1      -7.586  15.044  68.769  1.00  0.00    -0.137 C  
ENDBRANCH   2   6
TORSDOF 2
ENDMDL
MODEL      129
REMARK 921   NORMALIZED FREE ENERGY PREDICTED BY IDOCK:   -1.97 KCAL/MOL
REMARK 922        TOTAL FREE ENERGY PREDICTED BY IDOCK:   -2.23 KCAL/MOL
REMARK 923 INTER-LIGAND FREE ENERGY PREDICTED BY IDOCK:   -2.17 KCAL/MOL
REMARK 924 INTRA-LIGAND FREE ENERGY PREDICTED BY IDOCK:   -0.06 KCAL/MOL
REMARK 927      BINDING AFFINITY PREDICTED BY RF-SCORE:    0.00 PKD
ROOT
HETATM    1  C   UNL     1      -9.590   8.702  69.146  1.00  0.00    -0.163 C  
HETATM    2  N   UNL     1     -10.017   8.551  70.545  1.00  0.00    -0.184 NA 
ENDROOT
BRANCH   2   3
HETATM    3  C   UNL     1      -8.807   8.444  71.398  1.00  0.00    -0.181 C  
HETATM    4 CL   UNL     1      -7.538   7.824  73.732  1.00  0.00    -0.158 Cl 
HETATM    5  C   UNL     1      -9.076   8.041  72.853  1.00  0.00    -0.248 C  
ENDBRANCH   2   3
BRANCH   2   6
HETATM    6  C   UNL     1     -10.883   9.677  70.965  1.00  0.00    -0.342 C  
HETATM    7 CL   UNL     1     -13.245  10.688  71.886  1.00  0.00    -0.567 Cl 
HETATM    8  C   UNL     1     -12.339   9.285  71.256  1.00  0.00    -0.328 C  
ENDBRANCH   2   6
TORSDOF 2
ENDMDL
MODEL      130
REMARK 921   NORMALIZED FREE ENERGY PREDICTED BY IDOCK:   -1.97 KCAL/MOL
REMARK 922        TOTAL FREE ENERGY PREDICTED BY IDOCK:   -2.22 KCAL/MOL
REMARK 923 INTER-LIGAND FREE ENERGY PREDICTED BY IDOCK:   -2.17 KCAL/MOL
REMARK 924 INTRA-LIGAND FREE ENERGY PREDICTED BY IDOCK:   -0.06 KCAL/MOL
REMARK 927      BINDING AFFINITY PREDICTED BY RF-SCORE:    0.00 PKD
ROOT
HETATM    1  C   UNL     1     -10.338   7.621  67.036  1.00  0.00    -0.330 C  
HETATM    2  N   UNL     1      -9.926   9.017  67.241  1.00  0.00    -0.198 NA 
ENDROOT
BRANCH   2   3
HETATM    3  C   UNL     1     -10.535   9.849  66.172  1.00  0.00    -0.074 C  
HETATM    4 CL   UNL     1     -10.537  10.977  63.689  1.00  0.00    -0.400 Cl 
HETATM    5  C   UNL     1      -9.644  10.075  64.944  1.00  0.00    -0.310 C  
ENDBRANCH   2   3
BRANCH   2   6
HETATM    6  C   UNL     1     -10.309   9.496  68.589  1.00  0.00    -0.205 C  
HETATM    7 CL   UNL     1     -11.605  11.228  70.253  1.00  0.00    -0.392 Cl 
HETATM    8  C   UNL     1     -11.076  10.826  68.596  1.00  0.00    -0.259 C  
ENDBRANCH   2   6
TORSDOF 2
ENDMDL
MODEL      131
REMARK 921   NORMALIZED FREE ENERGY PREDICTED BY IDOCK:   -1.96 KCAL/MOL
REMARK 922        TOTAL FREE ENERGY PREDICTED BY IDOCK:   -2.22 KCAL/MOL
REMARK 923 INTER-LIGAND FREE ENERGY PREDICTED BY IDOCK:   -2.19 KCAL/MOL
REMARK 924 INTRA-LIGAND FREE ENERGY PREDICTED BY IDOCK:   -0.03 KCAL/MOL
REMARK 927      BINDING AFFINITY PREDICTED BY RF-SCORE:    0.00 PKD
ROOT
HETATM    1  C   UNL     1     -10.469  15.296  66.161  1.00  0.00    -0.309 C  
HETATM    2  N   UNL     1     -10.376  14.057  66.947  1.00  0.00    -0.267 NA 
ENDROOT
BRANCH   2   3
HETATM    3  C   UNL     1      -8.943  13.693  67.084  1.00  0.00    -0.231 C  
HETATM    4 CL   UNL     1      -6.351  14.263  67.713  1.00  0.00    -0.175 Cl 
HETATM    5  C   UNL     1      -8.015  14.856  67.454  1.00  0.00    -0.199 C  
ENDBRANCH   2   3
BRANCH   2   6
HETATM    6  C   UNL     1     -11.028  14.210  68.267  1.00  0.00    -0.251 C  
HETATM    7 CL   UNL     1     -12.226  15.716  70.203  1.00  0.00    -0.401 Cl 
HETATM    8  C   UNL     1     -11.316  15.665  68.668  1.00  0.00    -0.357 C  
ENDBRANCH   2   6
TORSDOF 2
ENDMDL
MODEL      132
REMARK 921   NORMALIZED FREE ENERGY PREDICTED BY IDOCK:   -1.95 KCAL/MOL
REMARK 922        TOTAL FREE ENERGY PREDICTED BY IDOCK:   -2.20 KCAL/MOL
REMARK 923 INTER-LIGAND FREE ENERGY PREDICTED BY IDOCK:   -2.17 KCAL/MOL
REMARK 924 INTRA-LIGAND FREE ENERGY PREDICTED BY IDOCK:   -0.03 KCAL/MOL
REMARK 927      BINDING AFFINITY PREDICTED BY RF-SCORE:    0.00 PKD
ROOT
HETATM    1  C   UNL     1     -10.736   5.650  70.516  1.00  0.00    -0.274 C  
HETATM    2  N   UNL     1     -11.555   6.060  71.665  1.00  0.00    -0.248 NA 
ENDROOT
BRANCH   2   3
HETATM    3  C   UNL     1     -10.963   5.479  72.897  1.00  0.00    -0.285 C  
HETATM    4 CL   UNL     1      -8.960   4.227  74.261  1.00  0.00    -0.100 Cl 
HETATM    5  C   UNL     1      -9.621   4.765  72.692  1.00  0.00    -0.135 C  
ENDBRANCH   2   3
BRANCH   2   6
HETATM    6  C   UNL     1     -11.654   7.535  71.752  1.00  0.00    -0.270 C  
HETATM    7 CL   UNL     1     -13.094   9.849  71.905  1.00  0.00    -0.530 Cl 
HETATM    8  C   UNL     1     -13.085   8.083  71.645  1.00  0.00    -0.329 C  
ENDBRANCH   2   6
TORSDOF 2
ENDMDL
MODEL      133
REMARK 921   NORMALIZED FREE ENERGY PREDICTED BY IDOCK:   -1.94 KCAL/MOL
REMARK 922        TOTAL FREE ENERGY PREDICTED BY IDOCK:   -2.20 KCAL/MOL
REMARK 923 INTER-LIGAND FREE ENERGY PREDICTED BY IDOCK:   -2.17 KCAL/MOL
REMARK 924 INTRA-LIGAND FREE ENERGY PREDICTED BY IDOCK:   -0.03 KCAL/MOL
REMARK 927      BINDING AFFINITY PREDICTED BY RF-SCORE:    0.00 PKD
ROOT
HETATM    1  C   UNL     1     -10.210   5.612  67.538  1.00  0.00    -0.202 C  
HETATM    2  N   UNL     1      -9.860   6.959  68.011  1.00  0.00    -0.136 NA 
ENDROOT
BRANCH   2   3
HETATM    3  C   UNL     1     -10.410   7.952  67.054  1.00  0.00    -0.341 C  
HETATM    4 CL   UNL     1     -10.147  10.025  65.300  1.00  0.00    -0.367 Cl 
HETATM    5  C   UNL     1      -9.394   8.976  66.532  1.00  0.00    -0.191 C  
ENDBRANCH   2   3
BRANCH   2   6
HETATM    6  C   UNL     1     -10.363   7.191  69.385  1.00  0.00    -0.198 C  
HETATM    7 CL   UNL     1     -11.589   6.355  71.675  1.00  0.00    -0.350 Cl 
HETATM    8  C   UNL     1     -11.159   6.018  69.976  1.00  0.00    -0.381 C  
ENDBRANCH   2   6
TORSDOF 2
ENDMDL
MODEL      134
REMARK 921   NORMALIZED FREE ENERGY PREDICTED BY IDOCK:   -1.93 KCAL/MOL
REMARK 922        TOTAL FREE ENERGY PREDICTED BY IDOCK:   -2.18 KCAL/MOL
REMARK 923 INTER-LIGAND FREE ENERGY PREDICTED BY IDOCK:   -2.15 KCAL/MOL
REMARK 924 INTRA-LIGAND FREE ENERGY PREDICTED BY IDOCK:   -0.03 KCAL/MOL
REMARK 927      BINDING AFFINITY PREDICTED BY RF-SCORE:    0.00 PKD
ROOT
HETATM    1  C   UNL     1      -9.414  12.905  68.007  1.00  0.00    -0.213 C  
HETATM    2  N   UNL     1      -9.441  14.209  67.327  1.00  0.00    -0.222 NA 
ENDROOT
BRANCH   2   3
HETATM    3  C   UNL     1      -8.044  14.685  67.165  1.00  0.00    -0.185 C  
HETATM    4 CL   UNL     1      -6.147  16.644  67.106  1.00  0.00    -0.192 Cl 
HETATM    5  C   UNL     1      -7.877  16.209  67.179  1.00  0.00    -0.200 C  
ENDBRANCH   2   3
BRANCH   2   6
HETATM    6  C   UNL     1     -10.140  14.117  66.024  1.00  0.00    -0.316 C  
HETATM    7 CL   UNL     1     -12.403  14.113  64.499  1.00  0.00    -0.440 Cl 
HETATM    8  C   UNL     1     -11.672  14.080  66.127  1.00  0.00    -0.384 C  
ENDBRANCH   2   6
TORSDOF 2
ENDMDL
MODEL      135
REMARK 921   NORMALIZED FREE ENERGY PREDICTED BY IDOCK:   -1.92 KCAL/MOL
REMARK 922        TOTAL FREE ENERGY PREDICTED BY IDOCK:   -2.17 KCAL/MOL
REMARK 923 INTER-LIGAND FREE ENERGY PREDICTED BY IDOCK:   -2.12 KCAL/MOL
REMARK 924 INTRA-LIGAND FREE ENERGY PREDICTED BY IDOCK:   -0.06 KCAL/MOL
REMARK 927      BINDING AFFINITY PREDICTED BY RF-SCORE:    0.00 PKD
ROOT
HETATM    1  C   UNL     1      -9.953   8.507  69.065  1.00  0.00    -0.193 C  
HETATM    2  N   UNL     1     -10.187   7.870  70.370  1.00  0.00    -0.195 NA 
ENDROOT
BRANCH   2   3
HETATM    3  C   UNL     1     -11.592   8.131  70.776  1.00  0.00    -0.238 C  
HETATM    4 CL   UNL     1     -13.480   9.404  72.278  1.00  0.00    -0.524 Cl 
HETATM    5  C   UNL     1     -11.751   9.073  71.975  1.00  0.00    -0.347 C  
ENDBRANCH   2   3
BRANCH   2   6
HETATM    6  C   UNL     1      -9.896   6.419  70.317  1.00  0.00    -0.168 C  
HETATM    7 CL   UNL     1      -9.880   3.923  71.420  1.00  0.00    -0.257 Cl 
HETATM    8  C   UNL     1     -10.124   5.677  71.642  1.00  0.00    -0.195 C  
ENDBRANCH   2   6
TORSDOF 2
ENDMDL
MODEL      136
REMARK 921   NORMALIZED FREE ENERGY PREDICTED BY IDOCK:   -1.92 KCAL/MOL
REMARK 922        TOTAL FREE ENERGY PREDICTED BY IDOCK:   -2.16 KCAL/MOL
REMARK 923 INTER-LIGAND FREE ENERGY PREDICTED BY IDOCK:   -2.13 KCAL/MOL
REMARK 924 INTRA-LIGAND FREE ENERGY PREDICTED BY IDOCK:   -0.04 KCAL/MOL
REMARK 927      BINDING AFFINITY PREDICTED BY RF-SCORE:    0.00 PKD
ROOT
HETATM    1  C   UNL     1     -12.522   8.668  72.412  1.00  0.00    -0.362 C  
HETATM    2  N   UNL     1     -12.048   8.377  71.051  1.00  0.00    -0.247 NA 
ENDROOT
BRANCH   2   3
HETATM    3  C   UNL     1     -11.234   9.526  70.581  1.00  0.00    -0.302 C  
HETATM    4 CL   UNL     1      -9.689  10.799  68.728  1.00  0.00    -0.187 Cl 
HETATM    5  C   UNL     1     -10.524   9.306  69.239  1.00  0.00    -0.218 C  
ENDBRANCH   2   3
BRANCH   2   6
HETATM    6  C   UNL     1     -11.280   7.111  71.011  1.00  0.00    -0.269 C  
HETATM    7 CL   UNL     1     -10.414   4.782  72.138  1.00  0.00    -0.264 Cl 
HETATM    8  C   UNL     1     -11.242   6.349  72.344  1.00  0.00    -0.277 C  
ENDBRANCH   2   6
TORSDOF 2
ENDMDL
MODEL      137
REMARK 921   NORMALIZED FREE ENERGY PREDICTED BY IDOCK:   -1.91 KCAL/MOL
REMARK 922        TOTAL FREE ENERGY PREDICTED BY IDOCK:   -2.16 KCAL/MOL
REMARK 923 INTER-LIGAND FREE ENERGY PREDICTED BY IDOCK:   -2.24 KCAL/MOL
REMARK 924 INTRA-LIGAND FREE ENERGY PREDICTED BY IDOCK:    0.08 KCAL/MOL
REMARK 927      BINDING AFFINITY PREDICTED BY RF-SCORE:    0.00 PKD
ROOT
HETATM    1  C   UNL     1      -9.490  11.212  66.938  1.00  0.00    -0.185 C  
HETATM    2  N   UNL     1      -9.341  12.488  66.223  1.00  0.00    -0.213 NA 
ENDROOT
BRANCH   2   3
HETATM    3  C   UNL     1     -10.644  12.833  65.600  1.00  0.00    -0.275 C  
HETATM    4 CL   UNL     1     -12.215  13.438  63.454  1.00  0.00    -0.530 Cl 
HETATM    5  C   UNL     1     -10.575  13.168  64.105  1.00  0.00    -0.361 C  
ENDBRANCH   2   3
BRANCH   2   6
HETATM    6  C   UNL     1      -8.870  13.558  67.131  1.00  0.00    -0.226 C  
HETATM    7 CL   UNL     1      -8.703  16.175  67.889  1.00  0.00    -0.173 Cl 
HETATM    8  C   UNL     1      -9.189  14.982  66.652  1.00  0.00    -0.276 C  
ENDBRANCH   2   6
TORSDOF 2
ENDMDL
MODEL      138
REMARK 921   NORMALIZED FREE ENERGY PREDICTED BY IDOCK:   -1.91 KCAL/MOL
REMARK 922        TOTAL FREE ENERGY PREDICTED BY IDOCK:   -2.15 KCAL/MOL
REMARK 923 INTER-LIGAND FREE ENERGY PREDICTED BY IDOCK:   -2.10 KCAL/MOL
REMARK 924 INTRA-LIGAND FREE ENERGY PREDICTED BY IDOCK:   -0.05 KCAL/MOL
REMARK 927      BINDING AFFINITY PREDICTED BY RF-SCORE:    0.00 PKD
ROOT
HETATM    1  C   UNL     1     -10.951   6.051  69.718  1.00  0.00    -0.401 C  
HETATM    2  N   UNL     1     -11.182   7.376  70.312  1.00  0.00    -0.267 NA 
ENDROOT
BRANCH   2   3
HETATM    3  C   UNL     1     -10.509   7.422  71.635  1.00  0.00    -0.197 C  
HETATM    4 CL   UNL     1     -10.279   6.717  74.260  1.00  0.00    -0.386 Cl 
HETATM    5  C   UNL     1     -11.252   6.695  72.763  1.00  0.00    -0.227 C  
ENDBRANCH   2   3
BRANCH   2   6
HETATM    6  C   UNL     1     -10.703   8.454  69.418  1.00  0.00    -0.152 C  
HETATM    7 CL   UNL     1      -9.561  10.895  68.984  1.00  0.00    -0.198 Cl 
HETATM    8  C   UNL     1     -10.247   9.727  70.147  1.00  0.00    -0.275 C  
ENDBRANCH   2   6
TORSDOF 2
ENDMDL
MODEL      139
REMARK 921   NORMALIZED FREE ENERGY PREDICTED BY IDOCK:   -1.89 KCAL/MOL
REMARK 922        TOTAL FREE ENERGY PREDICTED BY IDOCK:   -2.14 KCAL/MOL
REMARK 923 INTER-LIGAND FREE ENERGY PREDICTED BY IDOCK:   -2.09 KCAL/MOL
REMARK 924 INTRA-LIGAND FREE ENERGY PREDICTED BY IDOCK:   -0.05 KCAL/MOL
REMARK 927      BINDING AFFINITY PREDICTED BY RF-SCORE:    0.00 PKD
ROOT
HETATM    1  C   UNL     1     -12.526   7.051  71.339  1.00  0.00    -0.384 C  
HETATM    2  N   UNL     1     -11.443   8.029  71.517  1.00  0.00    -0.256 NA 
ENDROOT
BRANCH   2   3
HETATM    3  C   UNL     1     -10.146   7.338  71.311  1.00  0.00    -0.189 C  
HETATM    4 CL   UNL     1      -7.818   6.916  69.952  1.00  0.00    -0.112 Cl 
HETATM    5  C   UNL     1      -9.414   7.714  70.017  1.00  0.00    -0.161 C  
ENDBRANCH   2   3
BRANCH   2   6
HETATM    6  C   UNL     1     -11.602   9.177  70.596  1.00  0.00    -0.235 C  
HETATM    7 CL   UNL     1     -12.206  11.789  70.081  1.00  0.00    -0.363 Cl 
HETATM    8  C   UNL     1     -12.194  10.436  71.246  1.00  0.00    -0.389 C  
ENDBRANCH   2   6
TORSDOF 2
ENDMDL
MODEL      140
REMARK 921   NORMALIZED FREE ENERGY PREDICTED BY IDOCK:   -1.89 KCAL/MOL
REMARK 922        TOTAL FREE ENERGY PREDICTED BY IDOCK:   -2.14 KCAL/MOL
REMARK 923 INTER-LIGAND FREE ENERGY PREDICTED BY IDOCK:   -2.08 KCAL/MOL
REMARK 924 INTRA-LIGAND FREE ENERGY PREDICTED BY IDOCK:   -0.06 KCAL/MOL
REMARK 927      BINDING AFFINITY PREDICTED BY RF-SCORE:    0.00 PKD
ROOT
HETATM    1  C   UNL     1     -10.237   4.948  70.659  1.00  0.00    -0.211 C  
HETATM    2  N   UNL     1      -9.930   6.362  70.917  1.00  0.00    -0.184 NA 
ENDROOT
BRANCH   2   3
HETATM    3  C   UNL     1     -11.187   7.144  70.813  1.00  0.00    -0.279 C  
HETATM    4 CL   UNL     1     -13.743   7.730  71.566  1.00  0.00    -0.420 Cl 
HETATM    5  C   UNL     1     -12.339   6.633  71.687  1.00  0.00    -0.332 C  
ENDBRANCH   2   3
BRANCH   2   6
HETATM    6  C   UNL     1      -9.288   6.537  72.241  1.00  0.00    -0.137 C  
HETATM    7 CL   UNL     1      -8.317   8.094  74.261  1.00  0.00    -0.302 Cl 
HETATM    8  C   UNL     1      -8.952   7.993  72.596  1.00  0.00    -0.218 C  
ENDBRANCH   2   6
TORSDOF 2
ENDMDL
MODEL      141
REMARK 921   NORMALIZED FREE ENERGY PREDICTED BY IDOCK:   -1.88 KCAL/MOL
REMARK 922        TOTAL FREE ENERGY PREDICTED BY IDOCK:   -2.13 KCAL/MOL
REMARK 923 INTER-LIGAND FREE ENERGY PREDICTED BY IDOCK:   -2.10 KCAL/MOL
REMARK 924 INTRA-LIGAND FREE ENERGY PREDICTED BY IDOCK:   -0.03 KCAL/MOL
REMARK 927      BINDING AFFINITY PREDICTED BY RF-SCORE:    0.00 PKD
ROOT
HETATM    1  C   UNL     1     -10.199   6.324  71.845  1.00  0.00    -0.201 C  
HETATM    2  N   UNL     1     -10.045   7.757  72.134  1.00  0.00    -0.198 NA 
ENDROOT
BRANCH   2   3
HETATM    3  C   UNL     1     -11.390   8.334  72.385  1.00  0.00    -0.388 C  
HETATM    4 CL   UNL     1     -13.640   9.657  71.595  1.00  0.00    -0.422 Cl 
HETATM    5  C   UNL     1     -11.978   9.129  71.213  1.00  0.00    -0.325 C  
ENDBRANCH   2   3
BRANCH   2   6
HETATM    6  C   UNL     1      -9.135   7.976  73.282  1.00  0.00    -0.282 C  
HETATM    7 CL   UNL     1      -6.658   8.397  74.348  1.00  0.00    -0.157 Cl 
HETATM    8  C   UNL     1      -7.643   7.986  72.918  1.00  0.00    -0.130 C  
ENDBRANCH   2   6
TORSDOF 2
ENDMDL
MODEL      142
REMARK 921   NORMALIZED FREE ENERGY PREDICTED BY IDOCK:   -1.88 KCAL/MOL
REMARK 922        TOTAL FREE ENERGY PREDICTED BY IDOCK:   -2.13 KCAL/MOL
REMARK 923 INTER-LIGAND FREE ENERGY PREDICTED BY IDOCK:   -2.10 KCAL/MOL
REMARK 924 INTRA-LIGAND FREE ENERGY PREDICTED BY IDOCK:   -0.03 KCAL/MOL
REMARK 927      BINDING AFFINITY PREDICTED BY RF-SCORE:    0.00 PKD
ROOT
HETATM    1  C   UNL     1      -9.998  10.740  66.685  1.00  0.00    -0.206 C  
HETATM    2  N   UNL     1      -9.405  11.293  65.458  1.00  0.00    -0.222 NA 
ENDROOT
BRANCH   2   3
HETATM    3  C   UNL     1      -8.369  10.348  64.969  1.00  0.00    -0.166 C  
HETATM    4 CL   UNL     1      -7.471   7.847  64.354  1.00  0.00    -0.091 Cl 
HETATM    5  C   UNL     1      -8.739   8.865  65.091  1.00  0.00    -0.178 C  
ENDBRANCH   2   3
BRANCH   2   6
HETATM    6  C   UNL     1     -10.441  11.545  64.431  1.00  0.00    -0.325 C  
HETATM    7 CL   UNL     1     -12.284  13.145  63.210  1.00  0.00    -0.575 Cl 
HETATM    8  C   UNL     1     -11.166  12.891  64.578  1.00  0.00    -0.336 C  
ENDBRANCH   2   6
TORSDOF 2
ENDMDL
MODEL      143
REMARK 921   NORMALIZED FREE ENERGY PREDICTED BY IDOCK:   -1.87 KCAL/MOL
REMARK 922        TOTAL FREE ENERGY PREDICTED BY IDOCK:   -2.12 KCAL/MOL
REMARK 923 INTER-LIGAND FREE ENERGY PREDICTED BY IDOCK:   -2.06 KCAL/MOL
REMARK 924 INTRA-LIGAND FREE ENERGY PREDICTED BY IDOCK:   -0.06 KCAL/MOL
REMARK 927      BINDING AFFINITY PREDICTED BY RF-SCORE:    0.00 PKD
ROOT
HETATM    1  C   UNL     1      -9.416   8.719  71.325  1.00  0.00    -0.250 C  
HETATM    2  N   UNL     1     -10.697   8.643  70.607  1.00  0.00    -0.215 NA 
ENDROOT
BRANCH   2   3
HETATM    3  C   UNL     1     -10.750   9.751  69.620  1.00  0.00    -0.242 C  
HETATM    4 CL   UNL     1     -11.906  11.968  68.531  1.00  0.00    -0.384 Cl 
HETATM    5  C   UNL     1     -12.024  10.603  69.675  1.00  0.00    -0.268 C  
ENDBRANCH   2   3
BRANCH   2   6
HETATM    6  C   UNL     1     -10.868   7.324  69.956  1.00  0.00    -0.253 C  
HETATM    7 CL   UNL     1     -10.676   5.655  67.805  1.00  0.00    -0.276 Cl 
HETATM    8  C   UNL     1     -10.576   7.317  68.449  1.00  0.00    -0.170 C  
ENDBRANCH   2   6
TORSDOF 2
ENDMDL
MODEL      144
REMARK 921   NORMALIZED FREE ENERGY PREDICTED BY IDOCK:   -1.86 KCAL/MOL
REMARK 922        TOTAL FREE ENERGY PREDICTED BY IDOCK:   -2.10 KCAL/MOL
REMARK 923 INTER-LIGAND FREE ENERGY PREDICTED BY IDOCK:   -2.07 KCAL/MOL
REMARK 924 INTRA-LIGAND FREE ENERGY PREDICTED BY IDOCK:   -0.03 KCAL/MOL
REMARK 927      BINDING AFFINITY PREDICTED BY RF-SCORE:    0.00 PKD
ROOT
HETATM    1  C   UNL     1     -11.937  11.239  68.380  1.00  0.00    -0.185 C  
HETATM    2  N   UNL     1     -11.243  10.640  67.231  1.00  0.00    -0.356 NA 
ENDROOT
BRANCH   2   3
HETATM    3  C   UNL     1     -10.856  11.727  66.296  1.00  0.00    -0.281 C  
HETATM    4 CL   UNL     1     -10.290  12.692  63.808  1.00  0.00    -0.416 Cl 
HETATM    5  C   UNL     1     -10.621  11.280  64.848  1.00  0.00    -0.300 C  
ENDBRANCH   2   3
BRANCH   2   6
HETATM    6  C   UNL     1     -10.067   9.852  67.666  1.00  0.00    -0.197 C  
HETATM    7 CL   UNL     1      -8.931   7.735  68.959  1.00  0.00    -0.145 Cl 
HETATM    8  C   UNL     1     -10.397   8.693  68.618  1.00  0.00    -0.193 C  
ENDBRANCH   2   6
TORSDOF 2
ENDMDL
MODEL      145
REMARK 921   NORMALIZED FREE ENERGY PREDICTED BY IDOCK:   -1.86 KCAL/MOL
REMARK 922        TOTAL FREE ENERGY PREDICTED BY IDOCK:   -2.10 KCAL/MOL
REMARK 923 INTER-LIGAND FREE ENERGY PREDICTED BY IDOCK:   -2.07 KCAL/MOL
REMARK 924 INTRA-LIGAND FREE ENERGY PREDICTED BY IDOCK:   -0.03 KCAL/MOL
REMARK 927      BINDING AFFINITY PREDICTED BY RF-SCORE:    0.00 PKD
ROOT
HETATM    1  C   UNL     1     -10.830  15.978  67.501  1.00  0.00    -0.292 C  
HETATM    2  N   UNL     1      -9.418  15.677  67.223  1.00  0.00    -0.214 NA 
ENDROOT
BRANCH   2   3
HETATM    3  C   UNL     1      -9.343  14.362  66.537  1.00  0.00    -0.278 C  
HETATM    4 CL   UNL     1      -9.897  11.698  66.346  1.00  0.00    -0.224 Cl 
HETATM    5  C   UNL     1      -9.933  13.188  67.329  1.00  0.00    -0.230 C  
ENDBRANCH   2   3
BRANCH   2   6
HETATM    6  C   UNL     1      -8.792  16.749  66.415  1.00  0.00    -0.296 C  
HETATM    7 CL   UNL     1      -6.613  18.105  65.486  1.00  0.00    -0.276 Cl 
HETATM    8  C   UNL     1      -7.274  16.885  66.609  1.00  0.00    -0.259 C  
ENDBRANCH   2   6
TORSDOF 2
ENDMDL
MODEL      146
REMARK 921   NORMALIZED FREE ENERGY PREDICTED BY IDOCK:   -1.84 KCAL/MOL
REMARK 922        TOTAL FREE ENERGY PREDICTED BY IDOCK:   -2.08 KCAL/MOL
REMARK 923 INTER-LIGAND FREE ENERGY PREDICTED BY IDOCK:   -2.03 KCAL/MOL
REMARK 924 INTRA-LIGAND FREE ENERGY PREDICTED BY IDOCK:   -0.06 KCAL/MOL
REMARK 927      BINDING AFFINITY PREDICTED BY RF-SCORE:    0.00 PKD
ROOT
HETATM    1  C   UNL     1      -6.378  18.614  69.165  1.00  0.00    -0.259 C  
HETATM    2  N   UNL     1      -6.810  18.063  67.872  1.00  0.00    -0.196 NA 
ENDROOT
BRANCH   2   3
HETATM    3  C   UNL     1      -6.655  16.587  67.915  1.00  0.00    -0.141 C  
HETATM    4 CL   UNL     1      -7.550  14.075  68.492  1.00  0.00    -0.124 Cl 
HETATM    5  C   UNL     1      -7.792  15.839  68.622  1.00  0.00    -0.156 C  
ENDBRANCH   2   3
BRANCH   2   6
HETATM    6  C   UNL     1      -8.204  18.456  67.561  1.00  0.00    -0.248 C  
HETATM    7 CL   UNL     1     -10.453  19.928  68.029  1.00  0.00    -0.537 Cl 
HETATM    8  C   UNL     1      -8.834  19.416  68.580  1.00  0.00    -0.366 C  
ENDBRANCH   2   6
TORSDOF 2
ENDMDL
MODEL      147
REMARK 921   NORMALIZED FREE ENERGY PREDICTED BY IDOCK:   -1.81 KCAL/MOL
REMARK 922        TOTAL FREE ENERGY PREDICTED BY IDOCK:   -2.05 KCAL/MOL
REMARK 923 INTER-LIGAND FREE ENERGY PREDICTED BY IDOCK:   -1.99 KCAL/MOL
REMARK 924 INTRA-LIGAND FREE ENERGY PREDICTED BY IDOCK:   -0.06 KCAL/MOL
REMARK 927      BINDING AFFINITY PREDICTED BY RF-SCORE:    0.00 PKD
ROOT
HETATM    1  C   UNL     1     -11.772   6.060  72.248  1.00  0.00    -0.284 C  
HETATM    2  N   UNL     1     -11.041   6.854  71.249  1.00  0.00    -0.250 NA 
ENDROOT
BRANCH   2   3
HETATM    3  C   UNL     1      -9.586   6.626  71.440  1.00  0.00    -0.168 C  
HETATM    4 CL   UNL     1      -7.459   5.138  72.276  1.00  0.00    -0.092 Cl 
HETATM    5  C   UNL     1      -9.229   5.361  72.230  1.00  0.00    -0.142 C  
ENDBRANCH   2   3
BRANCH   2   6
HETATM    6  C   UNL     1     -11.471   6.510  69.874  1.00  0.00    -0.403 C  
HETATM    7 CL   UNL     1     -11.017   6.286  67.193  1.00  0.00    -0.448 Cl 
HETATM    8  C   UNL     1     -10.455   6.873  68.782  1.00  0.00    -0.205 C  
ENDBRANCH   2   6
TORSDOF 2
ENDMDL
MODEL      148
REMARK 921   NORMALIZED FREE ENERGY PREDICTED BY IDOCK:   -1.77 KCAL/MOL
REMARK 922        TOTAL FREE ENERGY PREDICTED BY IDOCK:   -2.00 KCAL/MOL
REMARK 923 INTER-LIGAND FREE ENERGY PREDICTED BY IDOCK:   -1.95 KCAL/MOL
REMARK 924 INTRA-LIGAND FREE ENERGY PREDICTED BY IDOCK:   -0.05 KCAL/MOL
REMARK 927      BINDING AFFINITY PREDICTED BY RF-SCORE:    0.00 PKD
ROOT
HETATM    1  C   UNL     1      -9.795   7.019  69.447  1.00  0.00    -0.160 C  
HETATM    2  N   UNL     1     -10.907   7.980  69.440  1.00  0.00    -0.155 NA 
ENDROOT
BRANCH   2   3
HETATM    3  C   UNL     1     -11.493   8.032  70.804  1.00  0.00    -0.263 C  
HETATM    4 CL   UNL     1     -13.154   9.102  72.685  1.00  0.00    -0.437 Cl 
HETATM    5  C   UNL     1     -12.419   9.227  71.063  1.00  0.00    -0.211 C  
ENDBRANCH   2   3
BRANCH   2   6
HETATM    6  C   UNL     1     -10.456   9.317  68.990  1.00  0.00    -0.216 C  
HETATM    7 CL   UNL     1     -10.126  11.229  67.070  1.00  0.00    -0.230 Cl 
HETATM    8  C   UNL     1     -10.560   9.545  67.475  1.00  0.00    -0.275 C  
ENDBRANCH   2   6
TORSDOF 2
ENDMDL
MODEL      149
REMARK 921   NORMALIZED FREE ENERGY PREDICTED BY IDOCK:   -1.76 KCAL/MOL
REMARK 922        TOTAL FREE ENERGY PREDICTED BY IDOCK:   -1.99 KCAL/MOL
REMARK 923 INTER-LIGAND FREE ENERGY PREDICTED BY IDOCK:   -1.94 KCAL/MOL
REMARK 924 INTRA-LIGAND FREE ENERGY PREDICTED BY IDOCK:   -0.05 KCAL/MOL
REMARK 927      BINDING AFFINITY PREDICTED BY RF-SCORE:    0.00 PKD
ROOT
HETATM    1  C   UNL     1      -7.781  13.748  68.334  1.00  0.00    -0.134 C  
HETATM    2  N   UNL     1      -9.228  13.495  68.268  1.00  0.00    -0.200 NA 
ENDROOT
BRANCH   2   3
HETATM    3  C   UNL     1      -9.907  14.750  67.858  1.00  0.00    -0.212 C  
HETATM    4 CL   UNL     1     -10.740  17.308  68.306  1.00  0.00    -0.372 Cl 
HETATM    5  C   UNL     1     -10.024  15.810  68.961  1.00  0.00    -0.234 C  
ENDBRANCH   2   3
BRANCH   2   6
HETATM    6  C   UNL     1      -9.535  12.381  67.341  1.00  0.00    -0.186 C  
HETATM    7 CL   UNL     1     -10.727  11.365  65.106  1.00  0.00    -0.345 Cl 
HETATM    8  C   UNL     1     -10.545  12.733  66.240  1.00  0.00    -0.257 C  
ENDBRANCH   2   6
TORSDOF 2
ENDMDL
MODEL      150
REMARK 921   NORMALIZED FREE ENERGY PREDICTED BY IDOCK:   -1.74 KCAL/MOL
REMARK 922        TOTAL FREE ENERGY PREDICTED BY IDOCK:   -1.97 KCAL/MOL
REMARK 923 INTER-LIGAND FREE ENERGY PREDICTED BY IDOCK:   -1.92 KCAL/MOL
REMARK 924 INTRA-LIGAND FREE ENERGY PREDICTED BY IDOCK:   -0.05 KCAL/MOL
REMARK 927      BINDING AFFINITY PREDICTED BY RF-SCORE:    0.00 PKD
ROOT
HETATM    1  C   UNL     1      -7.377  15.321  69.658  1.00  0.00    -0.188 C  
HETATM    2  N   UNL     1      -7.551  16.088  68.416  1.00  0.00    -0.140 NA 
ENDROOT
BRANCH   2   3
HETATM    3  C   UNL     1      -8.630  15.453  67.617  1.00  0.00    -0.167 C  
HETATM    4 CL   UNL     1      -9.874  13.285  66.524  1.00  0.00    -0.275 Cl 
HETATM    5  C   UNL     1      -8.455  13.947  67.381  1.00  0.00    -0.199 C  
ENDBRANCH   2   3
BRANCH   2   6
HETATM    6  C   UNL     1      -7.852  17.510  68.703  1.00  0.00    -0.272 C  
HETATM    7 CL   UNL     1      -9.338  19.774  68.366  1.00  0.00    -0.410 Cl 
HETATM    8  C   UNL     1      -8.969  18.110  67.836  1.00  0.00    -0.269 C  
ENDBRANCH   2   6
TORSDOF 2
ENDMDL
MODEL      151
REMARK 921   NORMALIZED FREE ENERGY PREDICTED BY IDOCK:   -1.73 KCAL/MOL
REMARK 922        TOTAL FREE ENERGY PREDICTED BY IDOCK:   -1.96 KCAL/MOL
REMARK 923 INTER-LIGAND FREE ENERGY PREDICTED BY IDOCK:   -2.05 KCAL/MOL
REMARK 924 INTRA-LIGAND FREE ENERGY PREDICTED BY IDOCK:    0.09 KCAL/MOL
REMARK 927      BINDING AFFINITY PREDICTED BY RF-SCORE:    0.00 PKD
ROOT
HETATM    1  C   UNL     1      -8.731  15.333  67.986  1.00  0.00    -0.160 C  
HETATM    2  N   UNL     1      -8.336  16.747  67.932  1.00  0.00    -0.192 NA 
ENDROOT
BRANCH   2   3
HETATM    3  C   UNL     1      -7.456  16.945  66.752  1.00  0.00    -0.241 C  
HETATM    4 CL   UNL     1      -5.130  17.749  65.575  1.00  0.00    -0.184 Cl 
HETATM    5  C   UNL     1      -6.147  17.691  67.041  1.00  0.00    -0.147 C  
ENDBRANCH   2   3
BRANCH   2   6
HETATM    6  C   UNL     1      -9.521  17.633  67.882  1.00  0.00    -0.276 C  
HETATM    7 CL   UNL     1     -10.851  19.831  66.958  1.00  0.00    -0.549 Cl 
HETATM    8  C   UNL     1      -9.320  18.918  67.065  1.00  0.00    -0.303 C  
ENDBRANCH   2   6
TORSDOF 2
ENDMDL
MODEL      152
REMARK 921   NORMALIZED FREE ENERGY PREDICTED BY IDOCK:   -1.73 KCAL/MOL
REMARK 922        TOTAL FREE ENERGY PREDICTED BY IDOCK:   -1.96 KCAL/MOL
REMARK 923 INTER-LIGAND FREE ENERGY PREDICTED BY IDOCK:   -1.93 KCAL/MOL
REMARK 924 INTRA-LIGAND FREE ENERGY PREDICTED BY IDOCK:   -0.03 KCAL/MOL
REMARK 927      BINDING AFFINITY PREDICTED BY RF-SCORE:    0.00 PKD
ROOT
HETATM    1  C   UNL     1     -10.350   9.134  67.109  1.00  0.00    -0.267 C  
HETATM    2  N   UNL     1      -9.895   8.671  68.427  1.00  0.00    -0.167 NA 
ENDROOT
BRANCH   2   3
HETATM    3  C   UNL     1     -10.605   9.451  69.472  1.00  0.00    -0.222 C  
HETATM    4 CL   UNL     1     -11.994  11.633  70.337  1.00  0.00    -0.457 Cl 
HETATM    5  C   UNL     1     -11.045  10.855  69.041  1.00  0.00    -0.246 C  
ENDBRANCH   2   3
BRANCH   2   6
HETATM    6  C   UNL     1     -10.116   7.215  68.589  1.00  0.00    -0.173 C  
HETATM    7 CL   UNL     1      -9.665   4.834  69.843  1.00  0.00    -0.255 Cl 
HETATM    8  C   UNL     1      -9.212   6.548  69.635  1.00  0.00    -0.143 C  
ENDBRANCH   2   6
TORSDOF 2
ENDMDL
MODEL      153
REMARK 921   NORMALIZED FREE ENERGY PREDICTED BY IDOCK:   -1.73 KCAL/MOL
REMARK 922        TOTAL FREE ENERGY PREDICTED BY IDOCK:   -1.96 KCAL/MOL
REMARK 923 INTER-LIGAND FREE ENERGY PREDICTED BY IDOCK:   -1.91 KCAL/MOL
REMARK 924 INTRA-LIGAND FREE ENERGY PREDICTED BY IDOCK:   -0.05 KCAL/MOL
REMARK 927      BINDING AFFINITY PREDICTED BY RF-SCORE:    0.00 PKD
ROOT
HETATM    1  C   UNL     1      -9.611  18.608  68.022  1.00  0.00    -0.316 C  
HETATM    2  N   UNL     1      -8.511  17.678  67.725  1.00  0.00    -0.224 NA 
ENDROOT
BRANCH   2   3
HETATM    3  C   UNL     1      -7.469  17.831  68.772  1.00  0.00    -0.263 C  
HETATM    4 CL   UNL     1      -5.771  19.326  70.295  1.00  0.00    -0.263 Cl 
HETATM    5  C   UNL     1      -6.915  19.253  68.926  1.00  0.00    -0.338 C  
ENDBRANCH   2   3
BRANCH   2   6
HETATM    6  C   UNL     1      -8.999  16.282  67.641  1.00  0.00    -0.192 C  
HETATM    7 CL   UNL     1      -8.876  13.642  68.322  1.00  0.00    -0.180 Cl 
HETATM    8  C   UNL     1      -8.118  15.257  68.371  1.00  0.00    -0.137 C  
ENDBRANCH   2   6
TORSDOF 2
ENDMDL
MODEL      154
REMARK 921   NORMALIZED FREE ENERGY PREDICTED BY IDOCK:   -1.72 KCAL/MOL
REMARK 922        TOTAL FREE ENERGY PREDICTED BY IDOCK:   -1.95 KCAL/MOL
REMARK 923 INTER-LIGAND FREE ENERGY PREDICTED BY IDOCK:   -1.90 KCAL/MOL
REMARK 924 INTRA-LIGAND FREE ENERGY PREDICTED BY IDOCK:   -0.05 KCAL/MOL
REMARK 927      BINDING AFFINITY PREDICTED BY RF-SCORE:    0.00 PKD
ROOT
HETATM    1  C   UNL     1      -9.539  11.094  62.755  1.00  0.00    -0.303 C  
HETATM    2  N   UNL     1      -8.791  10.728  63.967  1.00  0.00    -0.150 NA 
ENDROOT
BRANCH   2   3
HETATM    3  C   UNL     1      -9.647  11.002  65.149  1.00  0.00    -0.237 C  
HETATM    4 CL   UNL     1     -11.695  12.291  66.407  1.00  0.00    -0.447 Cl 
HETATM    5  C   UNL     1     -10.647  12.150  64.969  1.00  0.00    -0.291 C  
ENDBRANCH   2   3
BRANCH   2   6
HETATM    6  C   UNL     1      -8.361   9.311  63.922  1.00  0.00    -0.179 C  
HETATM    7 CL   UNL     1      -8.197   6.808  64.996  1.00  0.00    -0.123 Cl 
HETATM    8  C   UNL     1      -8.623   8.527  65.216  1.00  0.00    -0.165 C  
ENDBRANCH   2   6
TORSDOF 2
ENDMDL
MODEL      155
REMARK 921   NORMALIZED FREE ENERGY PREDICTED BY IDOCK:   -1.72 KCAL/MOL
REMARK 922        TOTAL FREE ENERGY PREDICTED BY IDOCK:   -1.95 KCAL/MOL
REMARK 923 INTER-LIGAND FREE ENERGY PREDICTED BY IDOCK:   -1.92 KCAL/MOL
REMARK 924 INTRA-LIGAND FREE ENERGY PREDICTED BY IDOCK:   -0.03 KCAL/MOL
REMARK 927      BINDING AFFINITY PREDICTED BY RF-SCORE:    0.00 PKD
ROOT
HETATM    1  C   UNL     1      -9.527   3.563  67.716  1.00  0.00    -0.178 C  
HETATM    2  N   UNL     1      -9.828   4.906  67.198  1.00  0.00    -0.175 NA 
ENDROOT
BRANCH   2   3
HETATM    3  C   UNL     1     -10.504   4.763  65.884  1.00  0.00    -0.274 C  
HETATM    4 CL   UNL     1     -10.664   3.800  63.337  1.00  0.00    -0.245 Cl 
HETATM    5  C   UNL     1      -9.693   4.014  64.819  1.00  0.00    -0.187 C  
ENDBRANCH   2   3
BRANCH   2   6
HETATM    6  C   UNL     1     -10.655   5.676  68.156  1.00  0.00    -0.183 C  
HETATM    7 CL   UNL     1     -11.344   6.420  70.689  1.00  0.00    -0.396 Cl 
HETATM    8  C   UNL     1     -10.399   5.336  69.631  1.00  0.00    -0.278 C  
ENDBRANCH   2   6
TORSDOF 2
ENDMDL
MODEL      156
REMARK 921   NORMALIZED FREE ENERGY PREDICTED BY IDOCK:   -1.72 KCAL/MOL
REMARK 922        TOTAL FREE ENERGY PREDICTED BY IDOCK:   -1.94 KCAL/MOL
REMARK 923 INTER-LIGAND FREE ENERGY PREDICTED BY IDOCK:   -1.90 KCAL/MOL
REMARK 924 INTRA-LIGAND FREE ENERGY PREDICTED BY IDOCK:   -0.04 KCAL/MOL
REMARK 927      BINDING AFFINITY PREDICTED BY RF-SCORE:    0.00 PKD
ROOT
HETATM    1  C   UNL     1      -8.421   7.438  71.289  1.00  0.00    -0.114 C  
HETATM    2  N   UNL     1      -9.542   7.312  70.346  1.00  0.00    -0.166 NA 
ENDROOT
BRANCH   2   3
HETATM    3  C   UNL     1     -10.797   7.668  71.055  1.00  0.00    -0.242 C  
HETATM    4 CL   UNL     1     -13.403   7.230  71.731  1.00  0.00    -0.393 Cl 
HETATM    5  C   UNL     1     -12.001   6.779  70.722  1.00  0.00    -0.378 C  
ENDBRANCH   2   3
BRANCH   2   6
HETATM    6  C   UNL     1      -9.333   8.159  69.149  1.00  0.00    -0.151 C  
HETATM    7 CL   UNL     1      -9.667   8.710  66.497  1.00  0.00    -0.301 Cl 
HETATM    8  C   UNL     1      -9.844   7.545  67.839  1.00  0.00    -0.154 C  
ENDBRANCH   2   6
TORSDOF 2
ENDMDL
MODEL      157
REMARK 921   NORMALIZED FREE ENERGY PREDICTED BY IDOCK:   -1.72 KCAL/MOL
REMARK 922        TOTAL FREE ENERGY PREDICTED BY IDOCK:   -1.94 KCAL/MOL
REMARK 923 INTER-LIGAND FREE ENERGY PREDICTED BY IDOCK:   -1.91 KCAL/MOL
REMARK 924 INTRA-LIGAND FREE ENERGY PREDICTED BY IDOCK:   -0.03 KCAL/MOL
REMARK 927      BINDING AFFINITY PREDICTED BY RF-SCORE:    0.00 PKD
ROOT
HETATM    1  C   UNL     1      -7.425  10.096  65.060  1.00  0.00    -0.140 C  
HETATM    2  N   UNL     1      -8.659   9.341  64.797  1.00  0.00    -0.175 NA 
ENDROOT
BRANCH   2   3
HETATM    3  C   UNL     1      -8.777   8.263  65.811  1.00  0.00    -0.166 C  
HETATM    4 CL   UNL     1      -7.962   6.963  68.067  1.00  0.00    -0.113 Cl 
HETATM    5  C   UNL     1      -7.637   8.215  66.836  1.00  0.00    -0.095 C  
ENDBRANCH   2   3
BRANCH   2   6
HETATM    6  C   UNL     1      -9.843  10.231  64.808  1.00  0.00    -0.334 C  
HETATM    7 CL   UNL     1     -11.654  11.848  63.562  1.00  0.00    -0.540 Cl 
HETATM    8  C   UNL     1     -10.132  10.920  63.467  1.00  0.00    -0.347 C  
ENDBRANCH   2   6
TORSDOF 2
ENDMDL
MODEL      158
REMARK 921   NORMALIZED FREE ENERGY PREDICTED BY IDOCK:   -1.72 KCAL/MOL
REMARK 922        TOTAL FREE ENERGY PREDICTED BY IDOCK:   -1.94 KCAL/MOL
REMARK 923 INTER-LIGAND FREE ENERGY PREDICTED BY IDOCK:   -1.91 KCAL/MOL
REMARK 924 INTRA-LIGAND FREE ENERGY PREDICTED BY IDOCK:   -0.03 KCAL/MOL
REMARK 927      BINDING AFFINITY PREDICTED BY RF-SCORE:    0.00 PKD
ROOT
HETATM    1  C   UNL     1      -9.725   6.298  67.434  1.00  0.00    -0.120 C  
HETATM    2  N   UNL     1     -10.332   7.550  67.907  1.00  0.00    -0.200 NA 
ENDROOT
BRANCH   2   3
HETATM    3  C   UNL     1     -10.546   7.445  69.373  1.00  0.00    -0.226 C  
HETATM    4 CL   UNL     1     -11.479   6.171  71.597  1.00  0.00    -0.344 Cl 
HETATM    5  C   UNL     1     -11.406   6.255  69.815  1.00  0.00    -0.436 C  
ENDBRANCH   2   3
BRANCH   2   6
HETATM    6  C   UNL     1      -9.489   8.718  67.562  1.00  0.00    -0.141 C  
HETATM    7 CL   UNL     1      -8.621  10.633  65.822  1.00  0.00    -0.178 Cl 
HETATM    8  C   UNL     1      -9.561   9.138  66.087  1.00  0.00    -0.266 C  
ENDBRANCH   2   6
TORSDOF 2
ENDMDL
MODEL      159
REMARK 921   NORMALIZED FREE ENERGY PREDICTED BY IDOCK:   -1.69 KCAL/MOL
REMARK 922        TOTAL FREE ENERGY PREDICTED BY IDOCK:   -1.92 KCAL/MOL
REMARK 923 INTER-LIGAND FREE ENERGY PREDICTED BY IDOCK:   -1.89 KCAL/MOL
REMARK 924 INTRA-LIGAND FREE ENERGY PREDICTED BY IDOCK:   -0.03 KCAL/MOL
REMARK 927      BINDING AFFINITY PREDICTED BY RF-SCORE:    0.00 PKD
ROOT
HETATM    1  C   UNL     1      -9.065   9.038  67.870  1.00  0.00    -0.135 C  
HETATM    2  N   UNL     1     -10.322   9.529  67.285  1.00  0.00    -0.240 NA 
ENDROOT
BRANCH   2   3
HETATM    3  C   UNL     1     -11.253   9.872  68.390  1.00  0.00    -0.074 C  
HETATM    4 CL   UNL     1     -12.100   9.712  70.978  1.00  0.00    -0.397 Cl 
HETATM    5  C   UNL     1     -11.003   9.117  69.701  1.00  0.00    -0.153 C  
ENDBRANCH   2   3
BRANCH   2   6
HETATM    6  C   UNL     1     -10.082  10.688  66.395  1.00  0.00    -0.225 C  
HETATM    7 CL   UNL     1      -9.993  11.855  63.930  1.00  0.00    -0.349 Cl 
HETATM    8  C   UNL     1     -10.156  10.363  64.896  1.00  0.00    -0.312 C  
ENDBRANCH   2   6
TORSDOF 2
ENDMDL
MODEL      160
REMARK 921   NORMALIZED FREE ENERGY PREDICTED BY IDOCK:   -1.68 KCAL/MOL
REMARK 922        TOTAL FREE ENERGY PREDICTED BY IDOCK:   -1.90 KCAL/MOL
REMARK 923 INTER-LIGAND FREE ENERGY PREDICTED BY IDOCK:   -1.85 KCAL/MOL
REMARK 924 INTRA-LIGAND FREE ENERGY PREDICTED BY IDOCK:   -0.05 KCAL/MOL
REMARK 927      BINDING AFFINITY PREDICTED BY RF-SCORE:    0.00 PKD
ROOT
HETATM    1  C   UNL     1     -10.346  12.941  65.518  1.00  0.00    -0.291 C  
HETATM    2  N   UNL     1     -10.333  11.744  66.371  1.00  0.00    -0.216 NA 
ENDROOT
BRANCH   2   3
HETATM    3  C   UNL     1      -8.930  11.461  66.765  1.00  0.00    -0.176 C  
HETATM    4 CL   UNL     1      -6.616  10.025  66.610  1.00  0.00    -0.071 Cl 
HETATM    5  C   UNL     1      -8.337  10.180  66.164  1.00  0.00    -0.131 C  
ENDBRANCH   2   3
BRANCH   2   6
HETATM    6  C   UNL     1     -11.206  11.920  67.554  1.00  0.00    -0.296 C  
HETATM    7 CL   UNL     1     -12.103  11.170  70.020  1.00  0.00    -0.410 Cl 
HETATM    8  C   UNL     1     -11.122  10.781  68.581  1.00  0.00    -0.259 C  
ENDBRANCH   2   6
TORSDOF 2
ENDMDL
MODEL      161
REMARK 921   NORMALIZED FREE ENERGY PREDICTED BY IDOCK:   -1.67 KCAL/MOL
REMARK 922        TOTAL FREE ENERGY PREDICTED BY IDOCK:   -1.89 KCAL/MOL
REMARK 923 INTER-LIGAND FREE ENERGY PREDICTED BY IDOCK:   -1.86 KCAL/MOL
REMARK 924 INTRA-LIGAND FREE ENERGY PREDICTED BY IDOCK:   -0.03 KCAL/MOL
REMARK 927      BINDING AFFINITY PREDICTED BY RF-SCORE:    0.00 PKD
ROOT
HETATM    1  C   UNL     1     -11.770  10.771  68.899  1.00  0.00    -0.267 C  
HETATM    2  N   UNL     1     -10.517  10.865  69.663  1.00  0.00    -0.151 NA 
ENDROOT
BRANCH   2   3
HETATM    3  C   UNL     1     -10.351   9.616  70.449  1.00  0.00    -0.291 C  
HETATM    4 CL   UNL     1     -11.198   7.776  72.276  1.00  0.00    -0.333 Cl 
HETATM    5  C   UNL     1     -11.445   9.362  71.494  1.00  0.00    -0.397 C  
ENDBRANCH   2   3
BRANCH   2   6
HETATM    6  C   UNL     1      -9.361  11.104  68.768  1.00  0.00    -0.149 C  
HETATM    7 CL   UNL     1      -7.908  10.583  66.518  1.00  0.00    -0.127 Cl 
HETATM    8  C   UNL     1      -9.247  10.113  67.601  1.00  0.00    -0.141 C  
ENDBRANCH   2   6
TORSDOF 2
ENDMDL
MODEL      162
REMARK 921   NORMALIZED FREE ENERGY PREDICTED BY IDOCK:   -1.67 KCAL/MOL
REMARK 922        TOTAL FREE ENERGY PREDICTED BY IDOCK:   -1.89 KCAL/MOL
REMARK 923 INTER-LIGAND FREE ENERGY PREDICTED BY IDOCK:   -1.86 KCAL/MOL
REMARK 924 INTRA-LIGAND FREE ENERGY PREDICTED BY IDOCK:   -0.03 KCAL/MOL
REMARK 927      BINDING AFFINITY PREDICTED BY RF-SCORE:    0.00 PKD
ROOT
HETATM    1  C   UNL     1     -11.644  10.268  68.841  1.00  0.00    -0.065 C  
HETATM    2  N   UNL     1     -11.128  10.424  70.208  1.00  0.00    -0.305 NA 
ENDROOT
BRANCH   2   3
HETATM    3  C   UNL     1     -12.203  11.004  71.053  1.00  0.00    -0.351 C  
HETATM    4 CL   UNL     1     -13.797  13.063  71.866  1.00  0.00    -0.294 Cl 
HETATM    5  C   UNL     1     -12.400  12.517  70.898  1.00  0.00    -0.255 C  
ENDBRANCH   2   3
BRANCH   2   6
HETATM    6  C   UNL     1     -10.646   9.133  70.750  1.00  0.00    -0.260 C  
HETATM    7 CL   UNL     1      -8.798   7.606  72.055  1.00  0.00    -0.138 Cl 
HETATM    8  C   UNL     1      -9.215   9.172  71.306  1.00  0.00    -0.191 C  
ENDBRANCH   2   6
TORSDOF 2
ENDMDL
MODEL      163
REMARK 921   NORMALIZED FREE ENERGY PREDICTED BY IDOCK:   -1.65 KCAL/MOL
REMARK 922        TOTAL FREE ENERGY PREDICTED BY IDOCK:   -1.87 KCAL/MOL
REMARK 923 INTER-LIGAND FREE ENERGY PREDICTED BY IDOCK:   -1.81 KCAL/MOL
REMARK 924 INTRA-LIGAND FREE ENERGY PREDICTED BY IDOCK:   -0.06 KCAL/MOL
REMARK 927      BINDING AFFINITY PREDICTED BY RF-SCORE:    0.00 PKD
ROOT
HETATM    1  C   UNL     1      -8.765  19.290  67.276  1.00  0.00    -0.292 C  
HETATM    2  N   UNL     1      -8.010  18.926  68.484  1.00  0.00    -0.336 NA 
ENDROOT
BRANCH   2   3
HETATM    3  C   UNL     1      -7.218  17.704  68.193  1.00  0.00    -0.218 C  
HETATM    4 CL   UNL     1      -6.830  15.004  68.239  1.00  0.00    -0.109 Cl 
HETATM    5  C   UNL     1      -7.802  16.406  68.765  1.00  0.00    -0.220 C  
ENDBRANCH   2   3
BRANCH   2   6
HETATM    6  C   UNL     1      -7.146  20.042  68.931  1.00  0.00    -0.229 C  
HETATM    7 CL   UNL     1      -5.275  21.121  70.600  1.00  0.00    -0.166 Cl 
HETATM    8  C   UNL     1      -6.386  19.771  70.238  1.00  0.00    -0.245 C  
ENDBRANCH   2   6
TORSDOF 2
ENDMDL
MODEL      164
REMARK 921   NORMALIZED FREE ENERGY PREDICTED BY IDOCK:   -1.64 KCAL/MOL
REMARK 922        TOTAL FREE ENERGY PREDICTED BY IDOCK:   -1.86 KCAL/MOL
REMARK 923 INTER-LIGAND FREE ENERGY PREDICTED BY IDOCK:   -1.79 KCAL/MOL
REMARK 924 INTRA-LIGAND FREE ENERGY PREDICTED BY IDOCK:   -0.06 KCAL/MOL
REMARK 927      BINDING AFFINITY PREDICTED BY RF-SCORE:    0.00 PKD
ROOT
HETATM    1  C   UNL     1      -8.806   4.973  68.156  1.00  0.00    -0.102 C  
HETATM    2  N   UNL     1     -10.192   5.439  68.000  1.00  0.00    -0.175 NA 
ENDROOT
BRANCH   2   3
HETATM    3  C   UNL     1     -10.231   6.899  68.270  1.00  0.00    -0.180 C  
HETATM    4 CL   UNL     1     -10.672   9.486  67.529  1.00  0.00    -0.344 Cl 
HETATM    5  C   UNL     1     -10.526   7.774  67.046  1.00  0.00    -0.349 C  
ENDBRANCH   2   3
BRANCH   2   6
HETATM    6  C   UNL     1     -10.715   5.121  66.651  1.00  0.00    -0.153 C  
HETATM    7 CL   UNL     1     -10.580   3.808  64.262  1.00  0.00    -0.267 Cl 
HETATM    8  C   UNL     1      -9.787   4.240  65.802  1.00  0.00    -0.223 C  
ENDBRANCH   2   6
TORSDOF 2
ENDMDL
MODEL      165
REMARK 921   NORMALIZED FREE ENERGY PREDICTED BY IDOCK:   -1.64 KCAL/MOL
REMARK 922        TOTAL FREE ENERGY PREDICTED BY IDOCK:   -1.85 KCAL/MOL
REMARK 923 INTER-LIGAND FREE ENERGY PREDICTED BY IDOCK:   -1.80 KCAL/MOL
REMARK 924 INTRA-LIGAND FREE ENERGY PREDICTED BY IDOCK:   -0.06 KCAL/MOL
REMARK 927      BINDING AFFINITY PREDICTED BY RF-SCORE:    0.00 PKD
ROOT
HETATM    1  C   UNL     1      -7.241  17.630  68.190  1.00  0.00    -0.218 C  
HETATM    2  N   UNL     1      -7.172  16.494  67.259  1.00  0.00    -0.151 NA 
ENDROOT
BRANCH   2   3
HETATM    3  C   UNL     1      -7.271  15.237  68.043  1.00  0.00    -0.128 C  
HETATM    4 CL   UNL     1      -6.216  12.956  69.103  1.00  0.00    -0.095 Cl 
HETATM    5  C   UNL     1      -6.010  14.365  68.026  1.00  0.00    -0.148 C  
ENDBRANCH   2   3
BRANCH   2   6
HETATM    6  C   UNL     1      -8.233  16.580  66.230  1.00  0.00    -0.325 C  
HETATM    7 CL   UNL     1     -10.667  15.880  65.213  1.00  0.00    -0.434 Cl 
HETATM    8  C   UNL     1      -9.388  15.588  66.424  1.00  0.00    -0.298 C  
ENDBRANCH   2   6
TORSDOF 2
ENDMDL
MODEL      166
REMARK 921   NORMALIZED FREE ENERGY PREDICTED BY IDOCK:   -1.63 KCAL/MOL
REMARK 922        TOTAL FREE ENERGY PREDICTED BY IDOCK:   -1.84 KCAL/MOL
REMARK 923 INTER-LIGAND FREE ENERGY PREDICTED BY IDOCK:   -1.81 KCAL/MOL
REMARK 924 INTRA-LIGAND FREE ENERGY PREDICTED BY IDOCK:   -0.03 KCAL/MOL
REMARK 927      BINDING AFFINITY PREDICTED BY RF-SCORE:    0.00 PKD
ROOT
HETATM    1  C   UNL     1      -8.791  16.578  66.898  1.00  0.00    -0.208 C  
HETATM    2  N   UNL     1      -9.464  16.055  68.096  1.00  0.00    -0.206 NA 
ENDROOT
BRANCH   2   3
HETATM    3  C   UNL     1     -10.103  14.761  67.749  1.00  0.00    -0.224 C  
HETATM    4 CL   UNL     1     -11.812  12.695  68.251  1.00  0.00    -0.373 Cl 
HETATM    5  C   UNL     1     -11.010  14.177  68.840  1.00  0.00    -0.259 C  
ENDBRANCH   2   3
BRANCH   2   6
HETATM    6  C   UNL     1      -8.514  15.909  69.223  1.00  0.00    -0.242 C  
HETATM    7 CL   UNL     1      -6.021  16.113  70.315  1.00  0.00    -0.129 Cl 
HETATM    8  C   UNL     1      -7.047  16.179  68.856  1.00  0.00    -0.166 C  
ENDBRANCH   2   6
TORSDOF 2
ENDMDL
MODEL      167
REMARK 921   NORMALIZED FREE ENERGY PREDICTED BY IDOCK:   -1.63 KCAL/MOL
REMARK 922        TOTAL FREE ENERGY PREDICTED BY IDOCK:   -1.84 KCAL/MOL
REMARK 923 INTER-LIGAND FREE ENERGY PREDICTED BY IDOCK:   -1.80 KCAL/MOL
REMARK 924 INTRA-LIGAND FREE ENERGY PREDICTED BY IDOCK:   -0.04 KCAL/MOL
REMARK 927      BINDING AFFINITY PREDICTED BY RF-SCORE:    0.00 PKD
ROOT
HETATM    1  C   UNL     1      -9.261  10.084  67.809  1.00  0.00    -0.134 C  
HETATM    2  N   UNL     1      -8.783  11.377  67.299  1.00  0.00    -0.144 NA 
ENDROOT
BRANCH   2   3
HETATM    3  C   UNL     1      -9.004  11.414  65.831  1.00  0.00    -0.177 C  
HETATM    4 CL   UNL     1      -9.692  10.260  63.457  1.00  0.00    -0.323 Cl 
HETATM    5  C   UNL     1      -9.324  10.057  65.192  1.00  0.00    -0.245 C  
ENDBRANCH   2   3
BRANCH   2   6
HETATM    6  C   UNL     1      -9.458  12.505  67.980  1.00  0.00    -0.209 C  
HETATM    7 CL   UNL     1     -11.423  13.528  69.575  1.00  0.00    -0.331 Cl 
HETATM    8  C   UNL     1     -10.777  12.130  68.673  1.00  0.00    -0.233 C  
ENDBRANCH   2   6
TORSDOF 2
ENDMDL
MODEL      168
REMARK 921   NORMALIZED FREE ENERGY PREDICTED BY IDOCK:   -1.59 KCAL/MOL
REMARK 922        TOTAL FREE ENERGY PREDICTED BY IDOCK:   -1.80 KCAL/MOL
REMARK 923 INTER-LIGAND FREE ENERGY PREDICTED BY IDOCK:   -1.78 KCAL/MOL
REMARK 924 INTRA-LIGAND FREE ENERGY PREDICTED BY IDOCK:   -0.03 KCAL/MOL
REMARK 927      BINDING AFFINITY PREDICTED BY RF-SCORE:    0.00 PKD
ROOT
HETATM    1  C   UNL     1      -8.489   9.525  65.277  1.00  0.00    -0.148 C  
HETATM    2  N   UNL     1      -9.141  10.492  66.172  1.00  0.00    -0.158 NA 
ENDROOT
BRANCH   2   3
HETATM    3  C   UNL     1     -10.501  10.776  65.647  1.00  0.00    -0.186 C  
HETATM    4 CL   UNL     1     -12.314  12.347  64.349  1.00  0.00    -0.529 Cl 
HETATM    5  C   UNL     1     -10.683  12.180  65.056  1.00  0.00    -0.297 C  
ENDBRANCH   2   3
BRANCH   2   6
HETATM    6  C   UNL     1      -9.188   9.986  67.563  1.00  0.00    -0.137 C  
HETATM    7 CL   UNL     1      -8.304   9.948  70.145  1.00  0.00    -0.201 Cl 
HETATM    8  C   UNL     1      -8.063  10.509  68.467  1.00  0.00    -0.121 C  
ENDBRANCH   2   6
TORSDOF 2
ENDMDL
MODEL      169
REMARK 921   NORMALIZED FREE ENERGY PREDICTED BY IDOCK:   -1.59 KCAL/MOL
REMARK 922        TOTAL FREE ENERGY PREDICTED BY IDOCK:   -1.80 KCAL/MOL
REMARK 923 INTER-LIGAND FREE ENERGY PREDICTED BY IDOCK:   -1.78 KCAL/MOL
REMARK 924 INTRA-LIGAND FREE ENERGY PREDICTED BY IDOCK:   -0.03 KCAL/MOL
REMARK 927      BINDING AFFINITY PREDICTED BY RF-SCORE:    0.00 PKD
ROOT
HETATM    1  C   UNL     1     -10.101  11.170  67.693  1.00  0.00    -0.179 C  
HETATM    2  N   UNL     1      -9.666  11.827  66.451  1.00  0.00    -0.209 NA 
ENDROOT
BRANCH   2   3
HETATM    3  C   UNL     1     -10.528  13.013  66.218  1.00  0.00    -0.276 C  
HETATM    4 CL   UNL     1     -12.870  14.192  65.466  1.00  0.00    -0.498 Cl 
HETATM    5  C   UNL     1     -11.885  12.707  65.573  1.00  0.00    -0.431 C  
ENDBRANCH   2   3
BRANCH   2   6
HETATM    6  C   UNL     1      -8.234  12.198  66.516  1.00  0.00     0.064 C  
HETATM    7 CL   UNL     1      -5.596  11.580  66.851  1.00  0.00    -0.115 Cl 
HETATM    8  C   UNL     1      -7.300  11.057  66.946  1.00  0.00    -0.133 C  
ENDBRANCH   2   6
TORSDOF 2
ENDMDL
MODEL      170
REMARK 921   NORMALIZED FREE ENERGY PREDICTED BY IDOCK:   -1.59 KCAL/MOL
REMARK 922        TOTAL FREE ENERGY PREDICTED BY IDOCK:   -1.80 KCAL/MOL
REMARK 923 INTER-LIGAND FREE ENERGY PREDICTED BY IDOCK:   -1.77 KCAL/MOL
REMARK 924 INTRA-LIGAND FREE ENERGY PREDICTED BY IDOCK:   -0.03 KCAL/MOL
REMARK 927      BINDING AFFINITY PREDICTED BY RF-SCORE:    0.00 PKD
ROOT
HETATM    1  C   UNL     1      -7.751   5.564  70.736  1.00  0.00    -0.091 C  
HETATM    2  N   UNL     1      -9.086   5.347  70.159  1.00  0.00    -0.132 NA 
ENDROOT
BRANCH   2   3
HETATM    3  C   UNL     1     -10.080   5.339  71.262  1.00  0.00    -0.213 C  
HETATM    4 CL   UNL     1     -11.124   4.332  73.572  1.00  0.00    -0.368 Cl 
HETATM    5  C   UNL     1      -9.961   4.155  72.229  1.00  0.00    -0.174 C  
ENDBRANCH   2   3
BRANCH   2   6
HETATM    6  C   UNL     1      -9.405   6.379  69.145  1.00  0.00    -0.132 C  
HETATM    7 CL   UNL     1     -10.882   7.330  67.057  1.00  0.00    -0.424 Cl 
HETATM    8  C   UNL     1     -10.482   5.964  68.134  1.00  0.00    -0.233 C  
ENDBRANCH   2   6
TORSDOF 2
ENDMDL
MODEL      171
REMARK 921   NORMALIZED FREE ENERGY PREDICTED BY IDOCK:   -1.57 KCAL/MOL
REMARK 922        TOTAL FREE ENERGY PREDICTED BY IDOCK:   -1.78 KCAL/MOL
REMARK 923 INTER-LIGAND FREE ENERGY PREDICTED BY IDOCK:   -1.74 KCAL/MOL
REMARK 924 INTRA-LIGAND FREE ENERGY PREDICTED BY IDOCK:   -0.04 KCAL/MOL
REMARK 927      BINDING AFFINITY PREDICTED BY RF-SCORE:    0.00 PKD
ROOT
HETATM    1  C   UNL     1     -10.808   5.914  69.475  1.00  0.00    -0.372 C  
HETATM    2  N   UNL     1      -9.885   5.183  70.356  1.00  0.00    -0.200 NA 
ENDROOT
BRANCH   2   3
HETATM    3  C   UNL     1     -10.466   5.149  71.722  1.00  0.00    -0.200 C  
HETATM    4 CL   UNL     1     -10.642   4.146  74.252  1.00  0.00    -0.290 Cl 
HETATM    5  C   UNL     1      -9.969   3.999  72.606  1.00  0.00    -0.155 C  
ENDBRANCH   2   3
BRANCH   2   6
HETATM    6  C   UNL     1      -9.622   3.820  69.841  1.00  0.00    -0.184 C  
HETATM    7 CL   UNL     1      -9.056   2.074  67.822  1.00  0.00    -0.190 Cl 
HETATM    8  C   UNL     1      -9.513   3.728  68.312  1.00  0.00    -0.153 C  
ENDBRANCH   2   6
TORSDOF 2
ENDMDL
MODEL      172
REMARK 921   NORMALIZED FREE ENERGY PREDICTED BY IDOCK:   -1.56 KCAL/MOL
REMARK 922        TOTAL FREE ENERGY PREDICTED BY IDOCK:   -1.77 KCAL/MOL
REMARK 923 INTER-LIGAND FREE ENERGY PREDICTED BY IDOCK:   -1.73 KCAL/MOL
REMARK 924 INTRA-LIGAND FREE ENERGY PREDICTED BY IDOCK:   -0.04 KCAL/MOL
REMARK 927      BINDING AFFINITY PREDICTED BY RF-SCORE:    0.00 PKD
ROOT
HETATM    1  C   UNL     1     -10.636   8.084  71.712  1.00  0.00    -0.238 C  
HETATM    2  N   UNL     1     -10.359   8.229  70.275  1.00  0.00    -0.204 NA 
ENDROOT
BRANCH   2   3
HETATM    3  C   UNL     1      -9.438   9.379  70.087  1.00  0.00    -0.240 C  
HETATM    4 CL   UNL     1      -6.972  10.542  70.162  1.00  0.00    -0.158 Cl 
HETATM    5  C   UNL     1      -8.000   9.137  70.560  1.00  0.00    -0.154 C  
ENDBRANCH   2   3
BRANCH   2   6
HETATM    6  C   UNL     1      -9.795   6.982  69.710  1.00  0.00    -0.169 C  
HETATM    7 CL   UNL     1      -9.759   4.268  69.422  1.00  0.00    -0.270 Cl 
HETATM    8  C   UNL     1     -10.411   5.694  70.275  1.00  0.00    -0.293 C  
ENDBRANCH   2   6
TORSDOF 2
ENDMDL
MODEL      173
REMARK 921   NORMALIZED FREE ENERGY PREDICTED BY IDOCK:   -1.55 KCAL/MOL
REMARK 922        TOTAL FREE ENERGY PREDICTED BY IDOCK:   -1.76 KCAL/MOL
REMARK 923 INTER-LIGAND FREE ENERGY PREDICTED BY IDOCK:   -1.73 KCAL/MOL
REMARK 924 INTRA-LIGAND FREE ENERGY PREDICTED BY IDOCK:   -0.03 KCAL/MOL
REMARK 927      BINDING AFFINITY PREDICTED BY RF-SCORE:    0.00 PKD
ROOT
HETATM    1  C   UNL     1      -8.629   6.583  68.712  1.00  0.00    -0.121 C  
HETATM    2  N   UNL     1     -10.036   6.202  68.523  1.00  0.00    -0.150 NA 
ENDROOT
BRANCH   2   3
HETATM    3  C   UNL     1     -10.095   5.087  67.544  1.00  0.00    -0.154 C  
HETATM    4 CL   UNL     1      -9.230   2.705  66.535  1.00  0.00    -0.123 Cl 
HETATM    5  C   UNL     1      -8.973   4.050  67.680  1.00  0.00    -0.129 C  
ENDBRANCH   2   3
BRANCH   2   6
HETATM    6  C   UNL     1     -10.667   5.830  69.811  1.00  0.00    -0.348 C  
HETATM    7 CL   UNL     1     -12.291   6.358  71.940  1.00  0.00    -0.363 Cl 
HETATM    8  C   UNL     1     -11.463   6.961  70.478  1.00  0.00    -0.342 C  
ENDBRANCH   2   6
TORSDOF 2
ENDMDL
MODEL      174
REMARK 921   NORMALIZED FREE ENERGY PREDICTED BY IDOCK:   -1.55 KCAL/MOL
REMARK 922        TOTAL FREE ENERGY PREDICTED BY IDOCK:   -1.75 KCAL/MOL
REMARK 923 INTER-LIGAND FREE ENERGY PREDICTED BY IDOCK:   -1.71 KCAL/MOL
REMARK 924 INTRA-LIGAND FREE ENERGY PREDICTED BY IDOCK:   -0.04 KCAL/MOL
REMARK 927      BINDING AFFINITY PREDICTED BY RF-SCORE:    0.00 PKD
ROOT
HETATM    1  C   UNL     1      -8.565   7.058  68.222  1.00  0.00    -0.129 C  
HETATM    2  N   UNL     1      -9.552   7.785  69.033  1.00  0.00    -0.154 NA 
ENDROOT
BRANCH   2   3
HETATM    3  C   UNL     1      -9.121   7.739  70.453  1.00  0.00    -0.155 C  
HETATM    4 CL   UNL     1      -9.462   8.279  73.105  1.00  0.00    -0.307 Cl 
HETATM    5  C   UNL     1     -10.013   8.521  71.424  1.00  0.00    -0.233 C  
ENDBRANCH   2   3
BRANCH   2   6
HETATM    6  C   UNL     1      -9.712   9.179  68.558  1.00  0.00    -0.155 C  
HETATM    7 CL   UNL     1     -10.873  11.060  66.958  1.00  0.00    -0.322 Cl 
HETATM    8  C   UNL     1     -10.646   9.334  67.349  1.00  0.00    -0.255 C  
ENDBRANCH   2   6
TORSDOF 2
ENDMDL
MODEL      175
REMARK 921   NORMALIZED FREE ENERGY PREDICTED BY IDOCK:   -1.55 KCAL/MOL
REMARK 922        TOTAL FREE ENERGY PREDICTED BY IDOCK:   -1.75 KCAL/MOL
REMARK 923 INTER-LIGAND FREE ENERGY PREDICTED BY IDOCK:   -1.69 KCAL/MOL
REMARK 924 INTRA-LIGAND FREE ENERGY PREDICTED BY IDOCK:   -0.06 KCAL/MOL
REMARK 927      BINDING AFFINITY PREDICTED BY RF-SCORE:    0.00 PKD
ROOT
HETATM    1  C   UNL     1      -9.514   3.106  68.474  1.00  0.00    -0.140 C  
HETATM    2  N   UNL     1      -9.187   4.520  68.708  1.00  0.00    -0.121 NA 
ENDROOT
BRANCH   2   3
HETATM    3  C   UNL     1      -9.360   5.260  67.433  1.00  0.00    -0.116 C  
HETATM    4 CL   UNL     1      -8.400   6.679  65.309  1.00  0.00    -0.134 Cl 
HETATM    5  C   UNL     1      -8.089   5.936  66.903  1.00  0.00    -0.102 C  
ENDBRANCH   2   3
BRANCH   2   6
HETATM    6  C   UNL     1     -10.025   5.092  69.788  1.00  0.00    -0.249 C  
HETATM    7 CL   UNL     1     -12.029   6.716  70.678  1.00  0.00    -0.449 Cl 
HETATM    8  C   UNL     1     -10.977   6.206  69.329  1.00  0.00    -0.381 C  
ENDBRANCH   2   6
TORSDOF 2
ENDMDL
MODEL      176
REMARK 921   NORMALIZED FREE ENERGY PREDICTED BY IDOCK:   -1.53 KCAL/MOL
REMARK 922        TOTAL FREE ENERGY PREDICTED BY IDOCK:   -1.73 KCAL/MOL
REMARK 923 INTER-LIGAND FREE ENERGY PREDICTED BY IDOCK:   -1.67 KCAL/MOL
REMARK 924 INTRA-LIGAND FREE ENERGY PREDICTED BY IDOCK:   -0.06 KCAL/MOL
REMARK 927      BINDING AFFINITY PREDICTED BY RF-SCORE:    0.00 PKD
ROOT
HETATM    1  C   UNL     1      -9.873   5.195  68.534  1.00  0.00    -0.155 C  
HETATM    2  N   UNL     1      -9.496   5.908  69.764  1.00  0.00    -0.146 NA 
ENDROOT
BRANCH   2   3
HETATM    3  C   UNL     1     -10.203   7.213  69.786  1.00  0.00    -0.208 C  
HETATM    4 CL   UNL     1     -10.277   9.929  69.543  1.00  0.00    -0.224 Cl 
HETATM    5  C   UNL     1      -9.296   8.440  69.627  1.00  0.00    -0.161 C  
ENDBRANCH   2   3
BRANCH   2   6
HETATM    6  C   UNL     1      -9.805   5.100  70.966  1.00  0.00    -0.196 C  
HETATM    7 CL   UNL     1     -11.023   4.745  73.382  1.00  0.00    -0.362 Cl 
HETATM    8  C   UNL     1     -10.588   5.853  72.052  1.00  0.00    -0.221 C  
ENDBRANCH   2   6
TORSDOF 2
ENDMDL
MODEL      177
REMARK 921   NORMALIZED FREE ENERGY PREDICTED BY IDOCK:   -1.53 KCAL/MOL
REMARK 922        TOTAL FREE ENERGY PREDICTED BY IDOCK:   -1.73 KCAL/MOL
REMARK 923 INTER-LIGAND FREE ENERGY PREDICTED BY IDOCK:   -1.70 KCAL/MOL
REMARK 924 INTRA-LIGAND FREE ENERGY PREDICTED BY IDOCK:   -0.03 KCAL/MOL
REMARK 927      BINDING AFFINITY PREDICTED BY RF-SCORE:    0.00 PKD
ROOT
HETATM    1  C   UNL     1      -8.672   9.364  69.967  1.00  0.00    -0.210 C  
HETATM    2  N   UNL     1      -9.496   8.266  69.441  1.00  0.00    -0.158 NA 
ENDROOT
BRANCH   2   3
HETATM    3  C   UNL     1      -8.668   7.034  69.401  1.00  0.00    -0.133 C  
HETATM    4 CL   UNL     1      -6.992   5.284  68.149  1.00  0.00    -0.060 Cl 
HETATM    5  C   UNL     1      -8.061   6.708  68.031  1.00  0.00    -0.110 C  
ENDBRANCH   2   3
BRANCH   2   6
HETATM    6  C   UNL     1     -10.718   8.076  70.255  1.00  0.00    -0.239 C  
HETATM    7 CL   UNL     1     -12.494   8.889  72.161  1.00  0.00    -0.447 Cl 
HETATM    8  C   UNL     1     -10.927   9.139  71.344  1.00  0.00    -0.344 C  
ENDBRANCH   2   6
TORSDOF 2
ENDMDL
MODEL      178
REMARK 921   NORMALIZED FREE ENERGY PREDICTED BY IDOCK:   -1.52 KCAL/MOL
REMARK 922        TOTAL FREE ENERGY PREDICTED BY IDOCK:   -1.73 KCAL/MOL
REMARK 923 INTER-LIGAND FREE ENERGY PREDICTED BY IDOCK:   -1.75 KCAL/MOL
REMARK 924 INTRA-LIGAND FREE ENERGY PREDICTED BY IDOCK:    0.02 KCAL/MOL
REMARK 927      BINDING AFFINITY PREDICTED BY RF-SCORE:    0.00 PKD
ROOT
HETATM    1  C   UNL     1     -10.295   5.162  67.262  1.00  0.00    -0.168 C  
HETATM    2  N   UNL     1      -9.924   6.077  68.351  1.00  0.00    -0.136 NA 
ENDROOT
BRANCH   2   3
HETATM    3  C   UNL     1      -9.472   7.360  67.755  1.00  0.00    -0.140 C  
HETATM    4 CL   UNL     1      -8.244   9.792  67.890  1.00  0.00    -0.113 Cl 
HETATM    5  C   UNL     1      -8.858   8.353  68.750  1.00  0.00    -0.140 C  
ENDBRANCH   2   3
BRANCH   2   6
HETATM    6  C   UNL     1     -11.052   6.280  69.289  1.00  0.00    -0.393 C  
HETATM    7 CL   UNL     1     -12.077   6.540  71.805  1.00  0.00    -0.395 Cl 
HETATM    8  C   UNL     1     -10.678   6.137  70.771  1.00  0.00    -0.266 C  
ENDBRANCH   2   6
TORSDOF 2
ENDMDL
MODEL      179
REMARK 921   NORMALIZED FREE ENERGY PREDICTED BY IDOCK:   -1.51 KCAL/MOL
REMARK 922        TOTAL FREE ENERGY PREDICTED BY IDOCK:   -1.72 KCAL/MOL
REMARK 923 INTER-LIGAND FREE ENERGY PREDICTED BY IDOCK:   -1.67 KCAL/MOL
REMARK 924 INTRA-LIGAND FREE ENERGY PREDICTED BY IDOCK:   -0.04 KCAL/MOL
REMARK 927      BINDING AFFINITY PREDICTED BY RF-SCORE:    0.00 PKD
ROOT
HETATM    1  C   UNL     1      -9.942   8.777  68.437  1.00  0.00    -0.179 C  
HETATM    2  N   UNL     1      -9.575   7.557  69.169  1.00  0.00    -0.157 NA 
ENDROOT
BRANCH   2   3
HETATM    3  C   UNL     1     -10.384   7.493  70.413  1.00  0.00    -0.214 C  
HETATM    4 CL   UNL     1     -12.425   6.497  71.924  1.00  0.00    -0.367 Cl 
HETATM    5  C   UNL     1     -11.617   6.585  70.334  1.00  0.00    -0.407 C  
ENDBRANCH   2   3
BRANCH   2   6
HETATM    6  C   UNL     1      -9.768   6.351  68.332  1.00  0.00    -0.131 C  
HETATM    7 CL   UNL     1      -8.819   4.331  66.761  1.00  0.00    -0.113 Cl 
HETATM    8  C   UNL     1      -8.497   5.862  67.621  1.00  0.00    -0.103 C  
ENDBRANCH   2   6
TORSDOF 2
ENDMDL
MODEL      180
REMARK 921   NORMALIZED FREE ENERGY PREDICTED BY IDOCK:   -1.51 KCAL/MOL
REMARK 922        TOTAL FREE ENERGY PREDICTED BY IDOCK:   -1.72 KCAL/MOL
REMARK 923 INTER-LIGAND FREE ENERGY PREDICTED BY IDOCK:   -1.68 KCAL/MOL
REMARK 924 INTRA-LIGAND FREE ENERGY PREDICTED BY IDOCK:   -0.03 KCAL/MOL
REMARK 927      BINDING AFFINITY PREDICTED BY RF-SCORE:    0.00 PKD
ROOT
HETATM    1  C   UNL     1      -5.994  17.701  69.495  1.00  0.00    -0.243 C  
HETATM    2  N   UNL     1      -6.670  16.865  68.493  1.00  0.00    -0.161 NA 
ENDROOT
BRANCH   2   3
HETATM    3  C   UNL     1      -6.598  15.449  68.934  1.00  0.00    -0.110 C  
HETATM    4 CL   UNL     1      -5.889  13.500  70.705  1.00  0.00    -0.183 Cl 
HETATM    5  C   UNL     1      -5.791  15.214  70.217  1.00  0.00    -0.147 C  
ENDBRANCH   2   3
BRANCH   2   6
HETATM    6  C   UNL     1      -8.071  17.301  68.289  1.00  0.00    -0.246 C  
HETATM    7 CL   UNL     1     -10.157  18.037  66.691  1.00  0.00    -0.353 Cl 
HETATM    8  C   UNL     1      -8.418  17.667  66.838  1.00  0.00    -0.241 C  
ENDBRANCH   2   6
TORSDOF 2
ENDMDL
MODEL      181
REMARK 921   NORMALIZED FREE ENERGY PREDICTED BY IDOCK:   -1.51 KCAL/MOL
REMARK 922        TOTAL FREE ENERGY PREDICTED BY IDOCK:   -1.71 KCAL/MOL
REMARK 923 INTER-LIGAND FREE ENERGY PREDICTED BY IDOCK:   -1.65 KCAL/MOL
REMARK 924 INTRA-LIGAND FREE ENERGY PREDICTED BY IDOCK:   -0.06 KCAL/MOL
REMARK 927      BINDING AFFINITY PREDICTED BY RF-SCORE:    0.00 PKD
ROOT
HETATM    1  C   UNL     1      -7.804   5.357  71.590  1.00  0.00    -0.111 C  
HETATM    2  N   UNL     1      -9.116   5.564  70.961  1.00  0.00    -0.143 NA 
ENDROOT
BRANCH   2   3
HETATM    3  C   UNL     1     -10.115   4.721  71.666  1.00  0.00    -0.194 C  
HETATM    4 CL   UNL     1     -10.993   3.305  73.826  1.00  0.00    -0.308 Cl 
HETATM    5  C   UNL     1      -9.662   4.192  73.032  1.00  0.00    -0.129 C  
ENDBRANCH   2   3
BRANCH   2   6
HETATM    6  C   UNL     1      -9.500   6.995  70.982  1.00  0.00    -0.159 C  
HETATM    7 CL   UNL     1     -11.304   9.000  71.397  1.00  0.00    -0.366 Cl 
HETATM    8  C   UNL     1     -10.990   7.249  71.254  1.00  0.00    -0.243 C  
ENDBRANCH   2   6
TORSDOF 2
ENDMDL
MODEL      182
REMARK 921   NORMALIZED FREE ENERGY PREDICTED BY IDOCK:   -1.49 KCAL/MOL
REMARK 922        TOTAL FREE ENERGY PREDICTED BY IDOCK:   -1.69 KCAL/MOL
REMARK 923 INTER-LIGAND FREE ENERGY PREDICTED BY IDOCK:   -1.67 KCAL/MOL
REMARK 924 INTRA-LIGAND FREE ENERGY PREDICTED BY IDOCK:   -0.03 KCAL/MOL
REMARK 927      BINDING AFFINITY PREDICTED BY RF-SCORE:    0.00 PKD
ROOT
HETATM    1  C   UNL     1      -8.217   5.418  68.307  1.00  0.00    -0.095 C  
HETATM    2  N   UNL     1      -9.592   5.109  67.885  1.00  0.00    -0.130 NA 
ENDROOT
BRANCH   2   3
HETATM    3  C   UNL     1     -10.510   6.092  68.514  1.00  0.00    -0.237 C  
HETATM    4 CL   UNL     1     -11.946   7.058  70.622  1.00  0.00    -0.382 Cl 
HETATM    5  C   UNL     1     -10.954   5.740  69.939  1.00  0.00    -0.319 C  
ENDBRANCH   2   3
BRANCH   2   6
HETATM    6  C   UNL     1      -9.713   5.115  66.409  1.00  0.00    -0.173 C  
HETATM    7 CL   UNL     1     -10.050   3.853  64.014  1.00  0.00    -0.195 Cl 
HETATM    8  C   UNL     1      -9.761   3.720  65.770  1.00  0.00    -0.135 C  
ENDBRANCH   2   6
TORSDOF 2
ENDMDL
MODEL      183
REMARK 921   NORMALIZED FREE ENERGY PREDICTED BY IDOCK:   -1.47 KCAL/MOL
REMARK 922        TOTAL FREE ENERGY PREDICTED BY IDOCK:   -1.67 KCAL/MOL
REMARK 923 INTER-LIGAND FREE ENERGY PREDICTED BY IDOCK:   -1.62 KCAL/MOL
REMARK 924 INTRA-LIGAND FREE ENERGY PREDICTED BY IDOCK:   -0.05 KCAL/MOL
REMARK 927      BINDING AFFINITY PREDICTED BY RF-SCORE:    0.00 PKD
ROOT
HETATM    1  C   UNL     1     -10.357   5.382  66.564  1.00  0.00    -0.269 C  
HETATM    2  N   UNL     1     -10.489   5.176  68.014  1.00  0.00    -0.076 NA 
ENDROOT
BRANCH   2   3
HETATM    3  C   UNL     1      -9.152   4.836  68.565  1.00  0.00    -0.117 C  
HETATM    4 CL   UNL     1      -6.560   5.434  69.169  1.00  0.00    -0.049 Cl 
HETATM    5  C   UNL     1      -8.076   5.908  68.353  1.00  0.00    -0.109 C  
ENDBRANCH   2   3
BRANCH   2   6
HETATM    6  C   UNL     1     -11.062   6.371  68.675  1.00  0.00    -0.311 C  
HETATM    7 CL   UNL     1     -11.833   7.762  70.893  1.00  0.00    -0.288 Cl 
HETATM    8  C   UNL     1     -11.275   6.219  70.188  1.00  0.00    -0.403 C  
ENDBRANCH   2   6
TORSDOF 2
ENDMDL
MODEL      184
REMARK 921   NORMALIZED FREE ENERGY PREDICTED BY IDOCK:   -1.45 KCAL/MOL
REMARK 922        TOTAL FREE ENERGY PREDICTED BY IDOCK:   -1.65 KCAL/MOL
REMARK 923 INTER-LIGAND FREE ENERGY PREDICTED BY IDOCK:   -1.59 KCAL/MOL
REMARK 924 INTRA-LIGAND FREE ENERGY PREDICTED BY IDOCK:   -0.05 KCAL/MOL
REMARK 927      BINDING AFFINITY PREDICTED BY RF-SCORE:    0.00 PKD
ROOT
HETATM    1  C   UNL     1     -10.480  13.209  67.829  1.00  0.00    -0.228 C  
HETATM    2  N   UNL     1      -9.050  13.025  68.118  1.00  0.00    -0.202 NA 
ENDROOT
BRANCH   2   3
HETATM    3  C   UNL     1      -8.480  12.101  67.105  1.00  0.00    -0.182 C  
HETATM    4 CL   UNL     1      -8.705  10.387  64.994  1.00  0.00    -0.186 Cl 
HETATM    5  C   UNL     1      -9.518  11.362  66.250  1.00  0.00    -0.209 C  
ENDBRANCH   2   3
BRANCH   2   6
HETATM    6  C   UNL     1      -8.336  14.322  68.134  1.00  0.00    -0.162 C  
HETATM    7 CL   UNL     1      -7.980  16.888  67.276  1.00  0.00    -0.189 Cl 
HETATM    8  C   UNL     1      -8.809  15.320  67.067  1.00  0.00    -0.237 C  
ENDBRANCH   2   6
TORSDOF 2
ENDMDL
MODEL      185
REMARK 921   NORMALIZED FREE ENERGY PREDICTED BY IDOCK:   -1.43 KCAL/MOL
REMARK 922        TOTAL FREE ENERGY PREDICTED BY IDOCK:   -1.62 KCAL/MOL
REMARK 923 INTER-LIGAND FREE ENERGY PREDICTED BY IDOCK:   -1.59 KCAL/MOL
REMARK 924 INTRA-LIGAND FREE ENERGY PREDICTED BY IDOCK:   -0.03 KCAL/MOL
REMARK 927      BINDING AFFINITY PREDICTED BY RF-SCORE:    0.00 PKD
ROOT
HETATM    1  C   UNL     1      -8.501   5.173  64.338  1.00  0.00    -0.138 C  
HETATM    2  N   UNL     1      -9.409   4.192  64.950  1.00  0.00    -0.155 NA 
ENDROOT
BRANCH   2   3
HETATM    3  C   UNL     1     -10.034   4.812  66.146  1.00  0.00    -0.241 C  
HETATM    4 CL   UNL     1     -10.301   5.142  68.841  1.00  0.00    -0.229 Cl 
HETATM    5  C   UNL     1      -9.576   4.229  67.489  1.00  0.00    -0.173 C  
ENDBRANCH   2   3
BRANCH   2   6
HETATM    6  C   UNL     1     -10.428   3.728  63.981  1.00  0.00    -0.261 C  
HETATM    7 CL   UNL     1     -11.647   1.775  62.516  1.00  0.00    -0.233 Cl 
HETATM    8  C   UNL     1     -10.289   2.255  63.570  1.00  0.00    -0.158 C  
ENDBRANCH   2   6
TORSDOF 2
ENDMDL
MODEL      186
REMARK 921   NORMALIZED FREE ENERGY PREDICTED BY IDOCK:   -1.42 KCAL/MOL
REMARK 922        TOTAL FREE ENERGY PREDICTED BY IDOCK:   -1.62 KCAL/MOL
REMARK 923 INTER-LIGAND FREE ENERGY PREDICTED BY IDOCK:   -1.59 KCAL/MOL
REMARK 924 INTRA-LIGAND FREE ENERGY PREDICTED BY IDOCK:   -0.03 KCAL/MOL
REMARK 927      BINDING AFFINITY PREDICTED BY RF-SCORE:    0.00 PKD
ROOT
HETATM    1  C   UNL     1      -8.970   3.287  66.992  1.00  0.00    -0.159 C  
HETATM    2  N   UNL     1      -9.857   4.228  66.293  1.00  0.00    -0.216 NA 
ENDROOT
BRANCH   2   3
HETATM    3  C   UNL     1      -9.634   5.587  66.848  1.00  0.00    -0.141 C  
HETATM    4 CL   UNL     1     -10.514   7.972  67.836  1.00  0.00    -0.275 Cl 
HETATM    5  C   UNL     1     -10.907   6.418  67.048  1.00  0.00    -0.392 C  
ENDBRANCH   2   3
BRANCH   2   6
HETATM    6  C   UNL     1      -9.628   4.192  64.830  1.00  0.00    -0.178 C  
HETATM    7 CL   UNL     1      -9.823   2.988  62.389  1.00  0.00    -0.092 Cl 
HETATM    8  C   UNL     1     -10.007   2.864  64.160  1.00  0.00    -0.135 C  
ENDBRANCH   2   6
TORSDOF 2
ENDMDL
MODEL      187
REMARK 921   NORMALIZED FREE ENERGY PREDICTED BY IDOCK:   -1.42 KCAL/MOL
REMARK 922        TOTAL FREE ENERGY PREDICTED BY IDOCK:   -1.61 KCAL/MOL
REMARK 923 INTER-LIGAND FREE ENERGY PREDICTED BY IDOCK:   -1.58 KCAL/MOL
REMARK 924 INTRA-LIGAND FREE ENERGY PREDICTED BY IDOCK:   -0.04 KCAL/MOL
REMARK 927      BINDING AFFINITY PREDICTED BY RF-SCORE:    0.00 PKD
ROOT
HETATM    1  C   UNL     1      -9.953  12.576  65.695  1.00  0.00    -0.245 C  
HETATM    2  N   UNL     1      -9.143  11.433  66.143  1.00  0.00    -0.204 NA 
ENDROOT
BRANCH   2   3
HETATM    3  C   UNL     1      -9.539  11.092  67.533  1.00  0.00    -0.168 C  
HETATM    4 CL   UNL     1     -11.209   9.948  69.362  1.00  0.00    -0.227 Cl 
HETATM    5  C   UNL     1     -10.911  10.419  67.666  1.00  0.00    -0.312 C  
ENDBRANCH   2   3
BRANCH   2   6
HETATM    6  C   UNL     1      -9.301  10.276  65.232  1.00  0.00    -0.215 C  
HETATM    7 CL   UNL     1      -9.084   9.090  62.784  1.00  0.00     0.009 Cl 
HETATM    8  C   UNL     1      -9.000  10.583  63.758  1.00  0.00    -0.215 C  
ENDBRANCH   2   6
TORSDOF 2
ENDMDL
MODEL      188
REMARK 921   NORMALIZED FREE ENERGY PREDICTED BY IDOCK:   -1.39 KCAL/MOL
REMARK 922        TOTAL FREE ENERGY PREDICTED BY IDOCK:   -1.58 KCAL/MOL
REMARK 923 INTER-LIGAND FREE ENERGY PREDICTED BY IDOCK:   -1.62 KCAL/MOL
REMARK 924 INTRA-LIGAND FREE ENERGY PREDICTED BY IDOCK:    0.04 KCAL/MOL
REMARK 927      BINDING AFFINITY PREDICTED BY RF-SCORE:    0.00 PKD
ROOT
HETATM    1  C   UNL     1      -9.888   5.404  68.754  1.00  0.00    -0.150 C  
HETATM    2  N   UNL     1      -9.287   4.946  70.015  1.00  0.00    -0.132 NA 
ENDROOT
BRANCH   2   3
HETATM    3  C   UNL     1      -9.582   5.950  71.069  1.00  0.00    -0.166 C  
HETATM    4 CL   UNL     1     -11.291   7.508  72.516  1.00  0.00    -0.355 Cl 
HETATM    5  C   UNL     1     -11.045   6.405  71.133  1.00  0.00    -0.291 C  
ENDBRANCH   2   3
BRANCH   2   6
HETATM    6  C   UNL     1      -9.784   3.602  70.388  1.00  0.00    -0.131 C  
HETATM    7 CL   UNL     1     -10.451   1.706  72.235  1.00  0.00    -0.231 Cl 
HETATM    8  C   UNL     1      -9.697   3.287  71.889  1.00  0.00    -0.163 C  
ENDBRANCH   2   6
TORSDOF 2
ENDMDL
MODEL      189
REMARK 921   NORMALIZED FREE ENERGY PREDICTED BY IDOCK:   -1.38 KCAL/MOL
REMARK 922        TOTAL FREE ENERGY PREDICTED BY IDOCK:   -1.56 KCAL/MOL
REMARK 923 INTER-LIGAND FREE ENERGY PREDICTED BY IDOCK:   -1.53 KCAL/MOL
REMARK 924 INTRA-LIGAND FREE ENERGY PREDICTED BY IDOCK:   -0.03 KCAL/MOL
REMARK 927      BINDING AFFINITY PREDICTED BY RF-SCORE:    0.00 PKD
ROOT
HETATM    1  C   UNL     1     -10.068   5.233  69.762  1.00  0.00    -0.264 C  
HETATM    2  N   UNL     1      -9.093   6.126  70.404  1.00  0.00    -0.152 NA 
ENDROOT
BRANCH   2   3
HETATM    3  C   UNL     1      -8.357   6.860  69.344  1.00  0.00    -0.132 C  
HETATM    4 CL   UNL     1      -6.872   6.965  67.058  1.00  0.00    -0.063 Cl 
HETATM    5  C   UNL     1      -7.604   5.970  68.347  1.00  0.00    -0.091 C  
ENDBRANCH   2   3
BRANCH   2   6
HETATM    6  C   UNL     1      -9.758   7.054  71.348  1.00  0.00    -0.169 C  
HETATM    7 CL   UNL     1     -11.974   8.040  72.598  1.00  0.00    -0.386 Cl 
HETATM    8  C   UNL     1     -11.292   6.988  71.328  1.00  0.00    -0.274 C  
ENDBRANCH   2   6
TORSDOF 2
ENDMDL
MODEL      190
REMARK 921   NORMALIZED FREE ENERGY PREDICTED BY IDOCK:   -1.37 KCAL/MOL
REMARK 922        TOTAL FREE ENERGY PREDICTED BY IDOCK:   -1.56 KCAL/MOL
REMARK 923 INTER-LIGAND FREE ENERGY PREDICTED BY IDOCK:   -1.64 KCAL/MOL
REMARK 924 INTRA-LIGAND FREE ENERGY PREDICTED BY IDOCK:    0.08 KCAL/MOL
REMARK 927      BINDING AFFINITY PREDICTED BY RF-SCORE:    0.00 PKD
ROOT
HETATM    1  C   UNL     1     -10.158   6.926  69.625  1.00  0.00    -0.184 C  
HETATM    2  N   UNL     1      -9.432   7.453  70.790  1.00  0.00    -0.167 NA 
ENDROOT
BRANCH   2   3
HETATM    3  C   UNL     1      -8.152   8.041  70.321  1.00  0.00    -0.113 C  
HETATM    4 CL   UNL     1      -6.394  10.109  70.052  1.00  0.00    -0.074 Cl 
HETATM    5  C   UNL     1      -8.019   9.553  70.538  1.00  0.00    -0.159 C  
ENDBRANCH   2   3
BRANCH   2   6
HETATM    6  C   UNL     1     -10.249   8.444  71.527  1.00  0.00    -0.228 C  
HETATM    7 CL   UNL     1     -12.383  10.133  71.731  1.00  0.00    -0.453 Cl 
HETATM    8  C   UNL     1     -11.386   9.067  70.703  1.00  0.00    -0.265 C  
ENDBRANCH   2   6
TORSDOF 2
ENDMDL
MODEL      191
REMARK 921   NORMALIZED FREE ENERGY PREDICTED BY IDOCK:   -1.36 KCAL/MOL
REMARK 922        TOTAL FREE ENERGY PREDICTED BY IDOCK:   -1.55 KCAL/MOL
REMARK 923 INTER-LIGAND FREE ENERGY PREDICTED BY IDOCK:   -1.50 KCAL/MOL
REMARK 924 INTRA-LIGAND FREE ENERGY PREDICTED BY IDOCK:   -0.04 KCAL/MOL
REMARK 927      BINDING AFFINITY PREDICTED BY RF-SCORE:    0.00 PKD
ROOT
HETATM    1  C   UNL     1     -10.127   6.212  70.638  1.00  0.00    -0.193 C  
HETATM    2  N   UNL     1      -8.904   6.401  69.844  1.00  0.00    -0.141 NA 
ENDROOT
BRANCH   2   3
HETATM    3  C   UNL     1      -8.612   5.137  69.121  1.00  0.00    -0.092 C  
HETATM    4 CL   UNL     1      -9.316   2.688  68.148  1.00  0.00    -0.257 Cl 
HETATM    5  C   UNL     1      -9.741   4.099  69.155  1.00  0.00    -0.135 C  
ENDBRANCH   2   3
BRANCH   2   6
HETATM    6  C   UNL     1      -9.043   7.542  68.910  1.00  0.00    -0.140 C  
HETATM    7 CL   UNL     1     -10.477   9.049  67.143  1.00  0.00    -0.342 Cl 
HETATM    8  C   UNL     1     -10.362   7.562  68.124  1.00  0.00    -0.200 C  
ENDBRANCH   2   6
TORSDOF 2
ENDMDL
MODEL      192
REMARK 921   NORMALIZED FREE ENERGY PREDICTED BY IDOCK:   -1.35 KCAL/MOL
REMARK 922        TOTAL FREE ENERGY PREDICTED BY IDOCK:   -1.54 KCAL/MOL
REMARK 923 INTER-LIGAND FREE ENERGY PREDICTED BY IDOCK:   -1.47 KCAL/MOL
REMARK 924 INTRA-LIGAND FREE ENERGY PREDICTED BY IDOCK:   -0.06 KCAL/MOL
REMARK 927      BINDING AFFINITY PREDICTED BY RF-SCORE:    0.00 PKD
ROOT
HETATM    1  C   UNL     1      -8.181   8.816  66.885  1.00  0.00    -0.108 C  
HETATM    2  N   UNL     1      -9.146   9.801  66.377  1.00  0.00    -0.151 NA 
ENDROOT
BRANCH   2   3
HETATM    3  C   UNL     1      -8.752  11.145  66.871  1.00  0.00    -0.152 C  
HETATM    4 CL   UNL     1      -6.904  12.977  67.688  1.00  0.00    -0.142 Cl 
HETATM    5  C   UNL     1      -7.269  11.289  67.233  1.00  0.00    -0.114 C  
ENDBRANCH   2   3
BRANCH   2   6
HETATM    6  C   UNL     1      -9.220   9.764  64.898  1.00  0.00    -0.257 C  
HETATM    7 CL   UNL     1      -9.598  10.960  62.474  1.00  0.00    -0.266 Cl 
HETATM    8  C   UNL     1      -9.684  11.079  64.253  1.00  0.00    -0.284 C  
ENDBRANCH   2   6
TORSDOF 2
ENDMDL
MODEL      193
REMARK 921   NORMALIZED FREE ENERGY PREDICTED BY IDOCK:   -1.33 KCAL/MOL
REMARK 922        TOTAL FREE ENERGY PREDICTED BY IDOCK:   -1.51 KCAL/MOL
REMARK 923 INTER-LIGAND FREE ENERGY PREDICTED BY IDOCK:   -1.48 KCAL/MOL
REMARK 924 INTRA-LIGAND FREE ENERGY PREDICTED BY IDOCK:   -0.03 KCAL/MOL
REMARK 927      BINDING AFFINITY PREDICTED BY RF-SCORE:    0.00 PKD
ROOT
HETATM    1  C   UNL     1      -7.783   7.516  66.642  1.00  0.00    -0.101 C  
HETATM    2  N   UNL     1      -8.712   8.524  67.174  1.00  0.00    -0.128 NA 
ENDROOT
BRANCH   2   3
HETATM    3  C   UNL     1      -9.283   9.286  66.035  1.00  0.00    -0.206 C  
HETATM    4 CL   UNL     1      -9.403   9.965  63.396  1.00  0.00    -0.289 Cl 
HETATM    5  C   UNL     1      -8.545   9.103  64.703  1.00  0.00    -0.182 C  
ENDBRANCH   2   3
BRANCH   2   6
HETATM    6  C   UNL     1      -9.772   7.896  67.995  1.00  0.00    -0.159 C  
HETATM    7 CL   UNL     1     -10.814   7.106  70.391  1.00  0.00    -0.258 Cl 
HETATM    8  C   UNL     1      -9.416   7.741  69.481  1.00  0.00    -0.160 C  
ENDBRANCH   2   6
TORSDOF 2
ENDMDL
MODEL      194
REMARK 921   NORMALIZED FREE ENERGY PREDICTED BY IDOCK:   -1.31 KCAL/MOL
REMARK 922        TOTAL FREE ENERGY PREDICTED BY IDOCK:   -1.49 KCAL/MOL
REMARK 923 INTER-LIGAND FREE ENERGY PREDICTED BY IDOCK:   -1.45 KCAL/MOL
REMARK 924 INTRA-LIGAND FREE ENERGY PREDICTED BY IDOCK:   -0.04 KCAL/MOL
REMARK 927      BINDING AFFINITY PREDICTED BY RF-SCORE:    0.00 PKD
ROOT
HETATM    1  C   UNL     1      -9.970   4.369  66.152  1.00  0.00    -0.238 C  
HETATM    2  N   UNL     1      -9.619   5.470  67.061  1.00  0.00    -0.129 NA 
ENDROOT
BRANCH   2   3
HETATM    3  C   UNL     1     -10.776   5.729  67.956  1.00  0.00    -0.209 C  
HETATM    4 CL   UNL     1     -11.875   6.551  70.313  1.00  0.00    -0.446 Cl 
HETATM    5  C   UNL     1     -10.405   6.148  69.384  1.00  0.00    -0.227 C  
ENDBRANCH   2   3
BRANCH   2   6
HETATM    6  C   UNL     1      -8.394   5.157  67.832  1.00  0.00    -0.097 C  
HETATM    7 CL   UNL     1      -5.848   4.192  68.023  1.00  0.00    -0.025 Cl 
HETATM    8  C   UNL     1      -7.326   4.386  67.042  1.00  0.00    -0.077 C  
ENDBRANCH   2   6
TORSDOF 2
ENDMDL
MODEL      195
REMARK 921   NORMALIZED FREE ENERGY PREDICTED BY IDOCK:   -1.31 KCAL/MOL
REMARK 922        TOTAL FREE ENERGY PREDICTED BY IDOCK:   -1.49 KCAL/MOL
REMARK 923 INTER-LIGAND FREE ENERGY PREDICTED BY IDOCK:   -1.45 KCAL/MOL
REMARK 924 INTRA-LIGAND FREE ENERGY PREDICTED BY IDOCK:   -0.04 KCAL/MOL
REMARK 927      BINDING AFFINITY PREDICTED BY RF-SCORE:    0.00 PKD
ROOT
HETATM    1  C   UNL     1      -9.777   4.849  70.090  1.00  0.00    -0.213 C  
HETATM    2  N   UNL     1      -9.442   4.938  71.519  1.00  0.00    -0.148 NA 
ENDROOT
BRANCH   2   3
HETATM    3  C   UNL     1      -9.403   6.371  71.905  1.00  0.00    -0.152 C  
HETATM    4 CL   UNL     1      -8.398   8.466  73.333  1.00  0.00    -0.239 Cl 
HETATM    5  C   UNL     1      -8.445   6.703  73.055  1.00  0.00    -0.117 C  
ENDBRANCH   2   3
BRANCH   2   6
HETATM    6  C   UNL     1     -10.410   4.177  72.343  1.00  0.00    -0.147 C  
HETATM    7 CL   UNL     1     -11.208   1.921  73.654  1.00  0.00    -0.274 Cl 
HETATM    8  C   UNL     1     -10.054   2.696  72.534  1.00  0.00    -0.162 C  
ENDBRANCH   2   6
TORSDOF 2
ENDMDL
MODEL      196
REMARK 921   NORMALIZED FREE ENERGY PREDICTED BY IDOCK:   -1.30 KCAL/MOL
REMARK 922        TOTAL FREE ENERGY PREDICTED BY IDOCK:   -1.48 KCAL/MOL
REMARK 923 INTER-LIGAND FREE ENERGY PREDICTED BY IDOCK:   -1.45 KCAL/MOL
REMARK 924 INTRA-LIGAND FREE ENERGY PREDICTED BY IDOCK:   -0.03 KCAL/MOL
REMARK 927      BINDING AFFINITY PREDICTED BY RF-SCORE:    0.00 PKD
ROOT
HETATM    1  C   UNL     1      -8.737   5.092  64.994  1.00  0.00    -0.151 C  
HETATM    2  N   UNL     1      -8.305   5.842  66.182  1.00  0.00    -0.119 NA 
ENDROOT
BRANCH   2   3
HETATM    3  C   UNL     1      -9.221   6.996  66.369  1.00  0.00    -0.149 C  
HETATM    4 CL   UNL     1      -9.949   9.596  65.978  1.00  0.00    -0.350 Cl 
HETATM    5  C   UNL     1      -8.706   8.326  65.803  1.00  0.00    -0.166 C  
ENDBRANCH   2   3
BRANCH   2   6
HETATM    6  C   UNL     1      -8.271   4.974  67.381  1.00  0.00    -0.106 C  
HETATM    7 CL   UNL     1      -9.321   3.020  68.972  1.00  0.00    -0.230 Cl 
HETATM    8  C   UNL     1      -9.534   4.124  67.585  1.00  0.00    -0.180 C  
ENDBRANCH   2   6
TORSDOF 2
ENDMDL
MODEL      197
REMARK 921   NORMALIZED FREE ENERGY PREDICTED BY IDOCK:   -1.26 KCAL/MOL
REMARK 922        TOTAL FREE ENERGY PREDICTED BY IDOCK:   -1.44 KCAL/MOL
REMARK 923 INTER-LIGAND FREE ENERGY PREDICTED BY IDOCK:   -1.38 KCAL/MOL
REMARK 924 INTRA-LIGAND FREE ENERGY PREDICTED BY IDOCK:   -0.06 KCAL/MOL
REMARK 927      BINDING AFFINITY PREDICTED BY RF-SCORE:    0.00 PKD
ROOT
HETATM    1  C   UNL     1      -8.277   6.870  67.789  1.00  0.00    -0.117 C  
HETATM    2  N   UNL     1      -8.099   7.960  68.760  1.00  0.00    -0.124 NA 
ENDROOT
BRANCH   2   3
HETATM    3  C   UNL     1      -7.325   9.048  68.109  1.00  0.00    -0.083 C  
HETATM    4 CL   UNL     1      -7.122  11.253  66.516  1.00  0.00    -0.126 Cl 
HETATM    5  C   UNL     1      -8.128   9.911  67.128  1.00  0.00    -0.117 C  
ENDBRANCH   2   3
BRANCH   2   6
HETATM    6  C   UNL     1      -9.403   8.446  69.265  1.00  0.00    -0.154 C  
HETATM    7 CL   UNL     1     -10.967   9.601  71.180  1.00  0.00    -0.430 Cl 
HETATM    8  C   UNL     1      -9.385   8.909  70.729  1.00  0.00    -0.230 C  
ENDBRANCH   2   6
TORSDOF 2
ENDMDL
MODEL      198
REMARK 921   NORMALIZED FREE ENERGY PREDICTED BY IDOCK:   -1.18 KCAL/MOL
REMARK 922        TOTAL FREE ENERGY PREDICTED BY IDOCK:   -1.35 KCAL/MOL
REMARK 923 INTER-LIGAND FREE ENERGY PREDICTED BY IDOCK:   -1.32 KCAL/MOL
REMARK 924 INTRA-LIGAND FREE ENERGY PREDICTED BY IDOCK:   -0.03 KCAL/MOL
REMARK 927      BINDING AFFINITY PREDICTED BY RF-SCORE:    0.00 PKD
ROOT
HETATM    1  C   UNL     1     -10.627   5.542  69.237  1.00  0.00    -0.255 C  
HETATM    2  N   UNL     1      -9.400   6.012  69.896  1.00  0.00    -0.147 NA 
ENDROOT
BRANCH   2   3
HETATM    3  C   UNL     1      -9.686   6.202  71.341  1.00  0.00    -0.167 C  
HETATM    4 CL   UNL     1     -10.543   7.687  73.463  1.00  0.00    -0.351 Cl 
HETATM    5  C   UNL     1     -10.108   7.624  71.733  1.00  0.00    -0.173 C  
ENDBRANCH   2   3
BRANCH   2   6
HETATM    6  C   UNL     1      -8.281   5.066  69.682  1.00  0.00    -0.088 C  
HETATM    7 CL   UNL     1      -7.182   2.860  68.510  1.00  0.00    -0.049 Cl 
HETATM    8  C   UNL     1      -8.636   3.849  68.815  1.00  0.00    -0.089 C  
ENDBRANCH   2   6
TORSDOF 2
ENDMDL
MODEL      199
REMARK 921   NORMALIZED FREE ENERGY PREDICTED BY IDOCK:   -1.18 KCAL/MOL
REMARK 922        TOTAL FREE ENERGY PREDICTED BY IDOCK:   -1.35 KCAL/MOL
REMARK 923 INTER-LIGAND FREE ENERGY PREDICTED BY IDOCK:   -1.30 KCAL/MOL
REMARK 924 INTRA-LIGAND FREE ENERGY PREDICTED BY IDOCK:   -0.05 KCAL/MOL
REMARK 927      BINDING AFFINITY PREDICTED BY RF-SCORE:    0.00 PKD
ROOT
HETATM    1  C   UNL     1      -9.072   7.114  68.336  1.00  0.00    -0.127 C  
HETATM    2  N   UNL     1      -9.944   5.988  67.973  1.00  0.00    -0.133 NA 
ENDROOT
BRANCH   2   3
HETATM    3  C   UNL     1      -9.936   5.842  66.495  1.00  0.00    -0.153 C  
HETATM    4 CL   UNL     1      -9.546   4.411  64.207  1.00  0.00    -0.123 Cl 
HETATM    5  C   UNL     1      -9.382   4.508  65.982  1.00  0.00    -0.157 C  
ENDBRANCH   2   3
BRANCH   2   6
HETATM    6  C   UNL     1      -9.514   4.740  68.646  1.00  0.00    -0.150 C  
HETATM    7 CL   UNL     1      -9.506   3.028  70.771  1.00  0.00    -0.224 Cl 
HETATM    8  C   UNL     1      -9.956   4.625  70.112  1.00  0.00    -0.233 C  
ENDBRANCH   2   6
TORSDOF 2
ENDMDL
MODEL      200
REMARK 921   NORMALIZED FREE ENERGY PREDICTED BY IDOCK:   -1.15 KCAL/MOL
REMARK 922        TOTAL FREE ENERGY PREDICTED BY IDOCK:   -1.31 KCAL/MOL
REMARK 923 INTER-LIGAND FREE ENERGY PREDICTED BY IDOCK:   -1.25 KCAL/MOL
REMARK 924 INTRA-LIGAND FREE ENERGY PREDICTED BY IDOCK:   -0.06 KCAL/MOL
REMARK 927      BINDING AFFINITY PREDICTED BY RF-SCORE:    0.00 PKD
ROOT
HETATM    1  C   UNL     1      -9.024   6.347  69.801  1.00  0.00    -0.141 C  
HETATM    2  N   UNL     1      -8.163   5.707  70.806  1.00  0.00    -0.116 NA 
ENDROOT
BRANCH   2   3
HETATM    3  C   UNL     1      -7.049   6.633  71.130  1.00  0.00    -0.076 C  
HETATM    4 CL   UNL     1      -6.048   8.937  72.195  1.00  0.00    -0.075 Cl 
HETATM    5  C   UNL     1      -7.480   7.975  71.736  1.00  0.00    -0.081 C  
ENDBRANCH   2   3
BRANCH   2   6
HETATM    6  C   UNL     1      -8.935   5.340  72.016  1.00  0.00    -0.134 C  
HETATM    7 CL   UNL     1     -11.275   4.776  73.302  1.00  0.00    -0.401 Cl 
HETATM    8  C   UNL     1     -10.459   5.370  71.830  1.00  0.00    -0.226 C  
ENDBRANCH   2   6
TORSDOF 2
ENDMDL
MODEL      201
REMARK 921   NORMALIZED FREE ENERGY PREDICTED BY IDOCK:   -1.11 KCAL/MOL
REMARK 922        TOTAL FREE ENERGY PREDICTED BY IDOCK:   -1.26 KCAL/MOL
REMARK 923 INTER-LIGAND FREE ENERGY PREDICTED BY IDOCK:   -1.23 KCAL/MOL
REMARK 924 INTRA-LIGAND FREE ENERGY PREDICTED BY IDOCK:   -0.04 KCAL/MOL
REMARK 927      BINDING AFFINITY PREDICTED BY RF-SCORE:    0.00 PKD
ROOT
HETATM    1  C   UNL     1     -10.088   5.042  69.880  1.00  0.00    -0.274 C  
HETATM    2  N   UNL     1      -9.990   6.492  70.108  1.00  0.00    -0.166 NA 
ENDROOT
BRANCH   2   3
HETATM    3  C   UNL     1      -9.619   6.721  71.528  1.00  0.00    -0.163 C  
HETATM    4 CL   UNL     1      -9.057   5.854  74.052  1.00  0.00    -0.126 Cl 
HETATM    5  C   UNL     1      -9.642   5.467  72.410  1.00  0.00    -0.150 C  
ENDBRANCH   2   3
BRANCH   2   6
HETATM    6  C   UNL     1      -9.015   7.114  69.183  1.00  0.00    -0.138 C  
HETATM    7 CL   UNL     1      -7.614   7.174  66.841  1.00  0.00    -0.099 Cl 
HETATM    8  C   UNL     1      -8.683   6.266  67.946  1.00  0.00    -0.114 C  
ENDBRANCH   2   6
TORSDOF 2
ENDMDL
MODEL      202
REMARK 921   NORMALIZED FREE ENERGY PREDICTED BY IDOCK:   -1.10 KCAL/MOL
REMARK 922        TOTAL FREE ENERGY PREDICTED BY IDOCK:   -1.25 KCAL/MOL
REMARK 923 INTER-LIGAND FREE ENERGY PREDICTED BY IDOCK:   -1.22 KCAL/MOL
REMARK 924 INTRA-LIGAND FREE ENERGY PREDICTED BY IDOCK:   -0.03 KCAL/MOL
REMARK 927      BINDING AFFINITY PREDICTED BY RF-SCORE:    0.00 PKD
ROOT
HETATM    1  C   UNL     1      -6.492  12.743  69.168  1.00  0.00    -0.109 C  
HETATM    2  N   UNL     1      -7.752  12.783  68.411  1.00  0.00    -0.131 NA 
ENDROOT
BRANCH   2   3
HETATM    3  C   UNL     1      -8.178  14.200  68.282  1.00  0.00    -0.148 C  
HETATM    4 CL   UNL     1     -10.075  16.159  68.213  1.00  0.00    -0.228 Cl 
HETATM    5  C   UNL     1      -9.696  14.415  68.239  1.00  0.00    -0.222 C  
ENDBRANCH   2   3
BRANCH   2   6
HETATM    6  C   UNL     1      -7.602  12.137  67.087  1.00  0.00    -0.132 C  
HETATM    7 CL   UNL     1      -6.335  10.443  65.362  1.00  0.00    -0.124 Cl 
HETATM    8  C   UNL     1      -6.336  11.280  66.939  1.00  0.00    -0.125 C  
ENDBRANCH   2   6
TORSDOF 2
ENDMDL
MODEL      203
REMARK 921   NORMALIZED FREE ENERGY PREDICTED BY IDOCK:   -1.00 KCAL/MOL
REMARK 922        TOTAL FREE ENERGY PREDICTED BY IDOCK:   -1.14 KCAL/MOL
REMARK 923 INTER-LIGAND FREE ENERGY PREDICTED BY IDOCK:   -1.10 KCAL/MOL
REMARK 924 INTRA-LIGAND FREE ENERGY PREDICTED BY IDOCK:   -0.03 KCAL/MOL
REMARK 927      BINDING AFFINITY PREDICTED BY RF-SCORE:    0.00 PKD
ROOT
HETATM    1  C   UNL     1     -10.367   5.181  66.226  1.00  0.00    -0.268 C  
HETATM    2  N   UNL     1      -9.906   4.187  67.206  1.00  0.00    -0.171 NA 
ENDROOT
BRANCH   2   3
HETATM    3  C   UNL     1      -8.819   3.385  66.588  1.00  0.00    -0.137 C  
HETATM    4 CL   UNL     1      -6.375   3.128  65.404  1.00  0.00    -0.030 Cl 
HETATM    5  C   UNL     1      -7.668   4.208  65.996  1.00  0.00    -0.090 C  
ENDBRANCH   2   3
BRANCH   2   6
HETATM    6  C   UNL     1      -9.458   4.838  68.458  1.00  0.00    -0.145 C  
HETATM    7 CL   UNL     1      -8.943   7.048  69.975  1.00  0.00    -0.142 Cl 
HETATM    8  C   UNL     1      -9.351   6.368  68.375  1.00  0.00    -0.121 C  
ENDBRANCH   2   6
TORSDOF 2
ENDMDL
MODEL      204
REMARK 921   NORMALIZED FREE ENERGY PREDICTED BY IDOCK:   -0.99 KCAL/MOL
REMARK 922        TOTAL FREE ENERGY PREDICTED BY IDOCK:   -1.13 KCAL/MOL
REMARK 923 INTER-LIGAND FREE ENERGY PREDICTED BY IDOCK:   -1.08 KCAL/MOL
REMARK 924 INTRA-LIGAND FREE ENERGY PREDICTED BY IDOCK:   -0.05 KCAL/MOL
REMARK 927      BINDING AFFINITY PREDICTED BY RF-SCORE:    0.00 PKD
ROOT
HETATM    1  C   UNL     1      -5.263  11.234  70.810  1.00  0.00    -0.119 C  
HETATM    2  N   UNL     1      -6.564  11.427  70.152  1.00  0.00    -0.165 NA 
ENDROOT
BRANCH   2   3
HETATM    3  C   UNL     1      -6.444  12.555  69.194  1.00  0.00    -0.099 C  
HETATM    4 CL   UNL     1      -7.447  14.222  67.282  1.00  0.00    -0.157 Cl 
HETATM    5  C   UNL     1      -7.666  12.766  68.291  1.00  0.00    -0.136 C  
ENDBRANCH   2   3
BRANCH   2   6
HETATM    6  C   UNL     1      -7.013  10.186  69.481  1.00  0.00    -0.086 C  
HETATM    7 CL   UNL     1      -8.808   8.165  69.103  1.00  0.00    -0.144 Cl 
HETATM    8  C   UNL     1      -8.285   9.566  70.077  1.00  0.00    -0.170 C  
ENDBRANCH   2   6
TORSDOF 2
ENDMDL
MODEL      205
REMARK 921   NORMALIZED FREE ENERGY PREDICTED BY IDOCK:   -0.96 KCAL/MOL
REMARK 922        TOTAL FREE ENERGY PREDICTED BY IDOCK:   -1.10 KCAL/MOL
REMARK 923 INTER-LIGAND FREE ENERGY PREDICTED BY IDOCK:   -1.04 KCAL/MOL
REMARK 924 INTRA-LIGAND FREE ENERGY PREDICTED BY IDOCK:   -0.06 KCAL/MOL
REMARK 927      BINDING AFFINITY PREDICTED BY RF-SCORE:    0.00 PKD
ROOT
HETATM    1  C   UNL     1      -8.486   5.711  66.804  1.00  0.00    -0.111 C  
HETATM    2  N   UNL     1      -7.794   6.956  67.167  1.00  0.00    -0.107 NA 
ENDROOT
BRANCH   2   3
HETATM    3  C   UNL     1      -7.311   7.607  65.922  1.00  0.00    -0.074 C  
HETATM    4 CL   UNL     1      -7.003   7.721  63.215  1.00  0.00    -0.071 Cl 
HETATM    5  C   UNL     1      -7.503   6.779  64.646  1.00  0.00    -0.097 C  
ENDBRANCH   2   3
BRANCH   2   6
HETATM    6  C   UNL     1      -8.680   7.854  67.943  1.00  0.00    -0.124 C  
HETATM    7 CL   UNL     1     -10.675   9.707  68.120  1.00  0.00    -0.276 Cl 
HETATM    8  C   UNL     1      -9.555   8.779  67.085  1.00  0.00    -0.175 C  
ENDBRANCH   2   6
TORSDOF 2
ENDMDL
MODEL      206
REMARK 921   NORMALIZED FREE ENERGY PREDICTED BY IDOCK:   -0.95 KCAL/MOL
REMARK 922        TOTAL FREE ENERGY PREDICTED BY IDOCK:   -1.09 KCAL/MOL
REMARK 923 INTER-LIGAND FREE ENERGY PREDICTED BY IDOCK:   -1.05 KCAL/MOL
REMARK 924 INTRA-LIGAND FREE ENERGY PREDICTED BY IDOCK:   -0.03 KCAL/MOL
REMARK 927      BINDING AFFINITY PREDICTED BY RF-SCORE:    0.00 PKD
ROOT
HETATM    1  C   UNL     1      -8.458   4.367  66.673  1.00  0.00    -0.105 C  
HETATM    2  N   UNL     1      -9.077   4.817  65.417  1.00  0.00    -0.151 NA 
ENDROOT
BRANCH   2   3
HETATM    3  C   UNL     1      -8.202   5.849  64.804  1.00  0.00    -0.129 C  
HETATM    4 CL   UNL     1      -5.974   7.421  64.769  1.00  0.00    -0.037 Cl 
HETATM    5  C   UNL     1      -7.010   6.278  65.668  1.00  0.00    -0.057 C  
ENDBRANCH   2   3
BRANCH   2   6
HETATM    6  C   UNL     1      -9.305   3.680  64.496  1.00  0.00    -0.149 C  
HETATM    7 CL   UNL     1     -10.792   2.346  62.636  1.00  0.00    -0.165 Cl 
HETATM    8  C   UNL     1     -10.686   3.675  63.824  1.00  0.00    -0.261 C  
ENDBRANCH   2   6
TORSDOF 2
ENDMDL
MODEL      207
REMARK 921   NORMALIZED FREE ENERGY PREDICTED BY IDOCK:   -0.92 KCAL/MOL
REMARK 922        TOTAL FREE ENERGY PREDICTED BY IDOCK:   -1.05 KCAL/MOL
REMARK 923 INTER-LIGAND FREE ENERGY PREDICTED BY IDOCK:   -1.01 KCAL/MOL
REMARK 924 INTRA-LIGAND FREE ENERGY PREDICTED BY IDOCK:   -0.04 KCAL/MOL
REMARK 927      BINDING AFFINITY PREDICTED BY RF-SCORE:    0.00 PKD
ROOT
HETATM    1  C   UNL     1      -5.135  11.735  70.847  1.00  0.00    -0.130 C  
HETATM    2  N   UNL     1      -6.205  12.306  70.016  1.00  0.00    -0.125 NA 
ENDROOT
BRANCH   2   3
HETATM    3  C   UNL     1      -5.788  13.662  69.576  1.00  0.00    -0.102 C  
HETATM    4 CL   UNL     1      -5.849  16.384  69.740  1.00  0.00    -0.181 Cl 
HETATM    5  C   UNL     1      -6.530  14.817  70.260  1.00  0.00    -0.145 C  
ENDBRANCH   2   3
BRANCH   2   6
HETATM    6  C   UNL     1      -6.512  11.430  68.862  1.00  0.00    -0.062 C  
HETATM    7 CL   UNL     1      -8.256  10.282  67.104  1.00  0.00    -0.121 Cl 
HETATM    8  C   UNL     1      -8.011  11.234  68.594  1.00  0.00    -0.145 C  
ENDBRANCH   2   6
TORSDOF 2
ENDMDL
MODEL      208
REMARK 921   NORMALIZED FREE ENERGY PREDICTED BY IDOCK:   -0.82 KCAL/MOL
REMARK 922        TOTAL FREE ENERGY PREDICTED BY IDOCK:   -0.95 KCAL/MOL
REMARK 923 INTER-LIGAND FREE ENERGY PREDICTED BY IDOCK:   -0.92 KCAL/MOL
REMARK 924 INTRA-LIGAND FREE ENERGY PREDICTED BY IDOCK:   -0.03 KCAL/MOL
REMARK 927      BINDING AFFINITY PREDICTED BY RF-SCORE:    0.00 PKD
ROOT
HETATM    1  C   UNL     1      -7.579   5.942  65.841  1.00  0.00    -0.086 C  
HETATM    2  N   UNL     1      -8.279   6.129  64.561  1.00  0.00    -0.114 NA 
ENDROOT
BRANCH   2   3
HETATM    3  C   UNL     1      -7.467   7.035  63.709  1.00  0.00    -0.096 C  
HETATM    4 CL   UNL     1      -6.899   9.472  62.623  1.00  0.00    -0.096 Cl 
HETATM    5  C   UNL     1      -8.028   8.455  63.560  1.00  0.00    -0.159 C  
ENDBRANCH   2   3
BRANCH   2   6
HETATM    6  C   UNL     1      -8.529   4.832  63.893  1.00  0.00    -0.132 C  
HETATM    7 CL   UNL     1      -9.347   2.228  63.916  1.00  0.00    -0.109 Cl 
HETATM    8  C   UNL     1      -8.936   3.696  64.844  1.00  0.00    -0.126 C  
ENDBRANCH   2   6
TORSDOF 2
ENDMDL
MODEL      209
REMARK 921   NORMALIZED FREE ENERGY PREDICTED BY IDOCK:    4.84 KCAL/MOL
REMARK 922        TOTAL FREE ENERGY PREDICTED BY IDOCK:    5.38 KCAL/MOL
REMARK 923 INTER-LIGAND FREE ENERGY PREDICTED BY IDOCK:    5.43 KCAL/MOL
REMARK 924 INTRA-LIGAND FREE ENERGY PREDICTED BY IDOCK:   -0.05 KCAL/MOL
REMARK 927      BINDING AFFINITY PREDICTED BY RF-SCORE:    0.00 PKD
ROOT
HETATM    1  C   UNL     1     -10.128  14.854  71.811  1.00  0.00     2.601 C  
HETATM    2  N   UNL     1     -10.863  14.303  70.662  1.00  0.00     0.450 NA 
ENDROOT
BRANCH   2   3
HETATM    3  C   UNL     1     -11.861  13.326  71.167  1.00  0.00     0.517 C  
HETATM    4 CL   UNL     1     -14.406  12.378  71.417  1.00  0.00     2.108 Cl 
HETATM    5  C   UNL     1     -13.322  13.689  70.875  1.00  0.00     0.041 C  
ENDBRANCH   2   3
BRANCH   2   6
HETATM    6  C   UNL     1     -11.504  15.378  69.871  1.00  0.00    -0.312 C  
HETATM    7 CL   UNL     1     -11.473  17.265  67.900  1.00  0.00     0.296 Cl 
HETATM    8  C   UNL     1     -10.562  16.095  68.893  1.00  0.00    -0.275 C  
ENDBRANCH   2   6
TORSDOF 2
ENDMDL
MODEL      210
REMARK 921   NORMALIZED FREE ENERGY PREDICTED BY IDOCK:   11.27 KCAL/MOL
REMARK 922        TOTAL FREE ENERGY PREDICTED BY IDOCK:   12.56 KCAL/MOL
REMARK 923 INTER-LIGAND FREE ENERGY PREDICTED BY IDOCK:   12.60 KCAL/MOL
REMARK 924 INTRA-LIGAND FREE ENERGY PREDICTED BY IDOCK:   -0.04 KCAL/MOL
REMARK 927      BINDING AFFINITY PREDICTED BY RF-SCORE:    0.00 PKD
ROOT
HETATM    1  C   UNL     1      -9.949   9.567  72.576  1.00  0.00     2.316 C  
HETATM    2  N   UNL     1      -9.163   9.314  71.360  1.00  0.00    -0.296 NA 
ENDROOT
BRANCH   2   3
HETATM    3  C   UNL     1      -8.001  10.238  71.349  1.00  0.00     2.892 C  
HETATM    4 CL   UNL     1      -6.842  12.664  70.888  1.00  0.00     2.079 Cl 
HETATM    5  C   UNL     1      -8.274  11.611  70.722  1.00  0.00     5.958 C  
ENDBRANCH   2   3
BRANCH   2   6
HETATM    6  C   UNL     1      -8.734   7.899  71.284  1.00  0.00    -0.134 C  
HETATM    7 CL   UNL     1      -7.639   5.780  69.958  1.00  0.00    -0.081 Cl 
HETATM    8  C   UNL     1      -8.261   7.452  69.893  1.00  0.00    -0.132 C  
ENDBRANCH   2   6
TORSDOF 2
ENDMDL
