MODEL        1
REMARK 921   NORMALIZED FREE ENERGY PREDICTED BY IDOCK:   -7.45 KCAL/MOL
REMARK 922        TOTAL FREE ENERGY PREDICTED BY IDOCK:  -10.34 KCAL/MOL
REMARK 923 INTER-LIGAND FREE ENERGY PREDICTED BY IDOCK:   -9.63 KCAL/MOL
REMARK 924 INTRA-LIGAND FREE ENERGY PREDICTED BY IDOCK:   -0.71 KCAL/MOL
REMARK 927      BINDING AFFINITY PREDICTED BY RF-SCORE:    0.00 PKD
ROOT
HETATM    1  C   UNL     1      -6.474  19.542  66.916  1.00  0.00    -0.200 C  
HETATM    2  C   UNL     1      -7.961  19.437  67.077  1.00  0.00    -0.287 A  
HETATM    3  C   UNL     1      -8.518  18.591  68.048  1.00  0.00    -0.302 A  
HETATM    4  C   UNL     1      -9.901  18.357  68.090  1.00  0.00    -0.365 A  
HETATM    5  C   UNL     1     -10.727  19.063  67.199  1.00  0.00    -0.541 A  
HETATM    6  C   UNL     1     -10.188  19.971  66.288  1.00  0.00    -0.595 A  
HETATM    7  C   UNL     1      -8.809  20.143  66.215  1.00  0.00    -0.302 A  
ENDROOT
BRANCH   4   8
HETATM    8  C   UNL     1     -10.471  17.289  69.018  1.00  0.00    -0.309 C  
BRANCH   8   9
HETATM    9  N   UNL     1     -11.272  16.271  68.320  1.00  0.00    -0.348 NA 
HETATM   10  C   UNL     1     -10.638  15.748  67.086  1.00  0.00    -0.313 C  
HETATM   11  C   UNL     1      -9.808  14.418  67.145  1.00  0.00    -0.254 C  
HETATM   12  N   UNL     1     -10.119  13.431  68.212  1.00  0.00    -0.243 NA 
HETATM   13  C   UNL     1     -10.424  14.221  69.425  1.00  0.00    -0.030 C  
HETATM   14  C   UNL     1     -11.610  15.171  69.224  1.00  0.00    -0.324 C  
BRANCH  12  15
HETATM   15  C   UNL     1     -11.237  12.486  67.871  1.00  0.00    -0.264 C  
BRANCH  15  16
HETATM   16  C   UNL     1     -11.303  12.125  66.385  1.00  0.00    -0.411 A  
HETATM   17  C   UNL     1     -12.284  12.746  65.577  1.00  0.00    -0.519 A  
HETATM   18  C   UNL     1     -10.384  11.271  65.785  1.00  0.00    -0.310 A  
HETATM   19  C   UNL     1     -12.312  12.532  64.198  1.00  0.00    -0.548 A  
HETATM   20  C   UNL     1     -11.376  11.691  63.611  1.00  0.00    -0.485 A  
HETATM   21  C   UNL     1     -10.421  11.051  64.405  1.00  0.00    -0.422 A  
ENDBRANCH  15  16
BRANCH  15  22
HETATM   22  C   UNL     1     -11.262  11.254  68.800  1.00  0.00    -0.311 A  
HETATM   23  C   UNL     1     -11.168   9.449  70.955  1.00  0.00    -0.325 A  
HETATM   24  C   UNL     1     -12.409  10.991  69.571  1.00  0.00    -0.266 A  
HETATM   25 CL   UNL     1     -11.064   8.478  72.373  1.00  0.00    -0.431 Cl 
HETATM   26  C   UNL     1     -10.045   9.621  70.151  1.00  0.00    -0.311 A  
HETATM   27  C   UNL     1     -10.102  10.488  69.055  1.00  0.00    -0.230 A  
HETATM   28  C   UNL     1     -12.360  10.097  70.645  1.00  0.00    -0.382 A  
ENDBRANCH  15  22
ENDBRANCH  12  15
ENDBRANCH   8   9
ENDBRANCH   4   8
TORSDOF 5
ENDMDL
MODEL        2
REMARK 921   NORMALIZED FREE ENERGY PREDICTED BY IDOCK:   -7.07 KCAL/MOL
REMARK 922        TOTAL FREE ENERGY PREDICTED BY IDOCK:   -9.85 KCAL/MOL
REMARK 923 INTER-LIGAND FREE ENERGY PREDICTED BY IDOCK:   -9.71 KCAL/MOL
REMARK 924 INTRA-LIGAND FREE ENERGY PREDICTED BY IDOCK:   -0.13 KCAL/MOL
REMARK 927      BINDING AFFINITY PREDICTED BY RF-SCORE:    0.00 PKD
ROOT
HETATM    1  C   UNL     1      -5.492  18.820  65.382  1.00  0.00    -0.223 C  
HETATM    2  C   UNL     1      -6.915  18.759  65.853  1.00  0.00    -0.303 A  
HETATM    3  C   UNL     1      -7.484  17.541  66.256  1.00  0.00    -0.355 A  
HETATM    4  C   UNL     1      -8.856  17.447  66.532  1.00  0.00    -0.290 A  
HETATM    5  C   UNL     1      -9.631  18.618  66.489  1.00  0.00    -0.351 A  
HETATM    6  C   UNL     1      -9.055  19.848  66.173  1.00  0.00    -0.393 A  
HETATM    7  C   UNL     1      -7.706  19.915  65.838  1.00  0.00    -0.327 A  
ENDROOT
BRANCH   4   8
HETATM    8  C   UNL     1      -9.498  16.084  66.776  1.00  0.00    -0.231 C  
BRANCH   8   9
HETATM    9  N   UNL     1      -9.739  15.796  68.199  1.00  0.00    -0.211 NA 
HETATM   10  C   UNL     1     -11.064  16.245  68.688  1.00  0.00    -0.356 C  
HETATM   11  C   UNL     1     -12.259  15.229  68.736  1.00  0.00    -0.049 C  
HETATM   12  N   UNL     1     -11.956  13.778  68.850  1.00  0.00    -0.353 NA 
HETATM   13  C   UNL     1     -10.756  13.543  68.017  1.00  0.00    -0.251 C  
HETATM   14  C   UNL     1      -9.551  14.370  68.476  1.00  0.00    -0.217 C  
BRANCH  12  15
HETATM   15  C   UNL     1     -11.752  13.301  70.260  1.00  0.00    -0.143 C  
BRANCH  15  16
HETATM   16  C   UNL     1     -12.443  14.175  71.310  1.00  0.00    -0.446 A  
HETATM   17  C   UNL     1     -11.643  14.899  72.225  1.00  0.00    -0.266 A  
HETATM   18  C   UNL     1     -13.822  14.347  71.345  1.00  0.00    -0.409 A  
HETATM   19  C   UNL     1     -12.222  15.793  73.127  1.00  0.00    -0.605 A  
HETATM   20  C   UNL     1     -13.601  15.967  73.136  1.00  0.00    -0.580 A  
HETATM   21  C   UNL     1     -14.401  15.236  72.256  1.00  0.00    -0.586 A  
ENDBRANCH  15  16
BRANCH  15  22
HETATM   22  C   UNL     1     -12.066  11.797  70.417  1.00  0.00    -0.440 A  
HETATM   23  C   UNL     1     -12.236   9.106  71.218  1.00  0.00    -0.327 A  
HETATM   24  C   UNL     1     -13.026  11.384  71.359  1.00  0.00    -0.468 A  
HETATM   25 CL   UNL     1     -12.224   7.497  71.830  1.00  0.00    -0.326 Cl 
HETATM   26  C   UNL     1     -11.341   9.472  70.216  1.00  0.00    -0.284 A  
HETATM   27  C   UNL     1     -11.282  10.802  69.789  1.00  0.00    -0.365 A  
HETATM   28  C   UNL     1     -13.106  10.047  71.760  1.00  0.00    -0.562 A  
ENDBRANCH  15  22
ENDBRANCH  12  15
ENDBRANCH   8   9
ENDBRANCH   4   8
TORSDOF 5
ENDMDL
MODEL        3
REMARK 921   NORMALIZED FREE ENERGY PREDICTED BY IDOCK:   -6.86 KCAL/MOL
REMARK 922        TOTAL FREE ENERGY PREDICTED BY IDOCK:   -9.58 KCAL/MOL
REMARK 923 INTER-LIGAND FREE ENERGY PREDICTED BY IDOCK:   -9.36 KCAL/MOL
REMARK 924 INTRA-LIGAND FREE ENERGY PREDICTED BY IDOCK:   -0.22 KCAL/MOL
REMARK 927      BINDING AFFINITY PREDICTED BY RF-SCORE:    0.00 PKD
ROOT
HETATM    1  C   UNL     1      -6.378  20.709  64.283  1.00  0.00    -0.343 C  
HETATM    2  C   UNL     1      -6.578  19.559  65.224  1.00  0.00    -0.309 A  
HETATM    3  C   UNL     1      -7.758  19.444  65.975  1.00  0.00    -0.310 A  
HETATM    4  C   UNL     1      -7.878  18.471  66.978  1.00  0.00    -0.236 A  
HETATM    5  C   UNL     1      -6.830  17.551  67.150  1.00  0.00    -0.196 A  
HETATM    6  C   UNL     1      -5.690  17.606  66.349  1.00  0.00    -0.241 A  
HETATM    7  C   UNL     1      -5.557  18.617  65.402  1.00  0.00    -0.238 A  
ENDROOT
BRANCH   4   8
HETATM    8  C   UNL     1      -9.082  18.482  67.917  1.00  0.00    -0.290 C  
BRANCH   8   9
HETATM    9  N   UNL     1     -10.179  17.607  67.473  1.00  0.00    -0.334 NA 
HETATM   10  C   UNL     1      -9.857  16.799  66.274  1.00  0.00    -0.309 C  
HETATM   11  C   UNL     1      -9.343  15.326  66.446  1.00  0.00    -0.296 C  
HETATM   12  N   UNL     1      -9.711  14.582  67.679  1.00  0.00    -0.213 NA 
HETATM   13  C   UNL     1      -9.660  15.567  68.782  1.00  0.00    -0.208 C  
HETATM   14  C   UNL     1     -10.622  16.740  68.567  1.00  0.00    -0.354 C  
BRANCH  12  15
HETATM   15  C   UNL     1     -11.048  13.898  67.610  1.00  0.00    -0.277 C  
BRANCH  15  16
HETATM   16  C   UNL     1     -11.280  13.137  66.302  1.00  0.00    -0.328 A  
HETATM   17  C   UNL     1     -12.440  13.425  65.545  1.00  0.00    -0.534 A  
HETATM   18  C   UNL     1     -10.355  12.233  65.793  1.00  0.00    -0.287 A  
HETATM   19  C   UNL     1     -12.640  12.837  64.295  1.00  0.00    -0.405 A  
HETATM   20  C   UNL     1     -11.696  11.950  63.791  1.00  0.00    -0.554 A  
HETATM   21  C   UNL     1     -10.562  11.638  64.544  1.00  0.00    -0.373 A  
ENDBRANCH  15  16
BRANCH  15  22
HETATM   22  C   UNL     1     -11.334  13.051  68.868  1.00  0.00    -0.333 A  
HETATM   23  C   UNL     1     -12.386  11.326  70.825  1.00  0.00    -0.398 A  
HETATM   24  C   UNL     1     -11.015  11.681  68.868  1.00  0.00    -0.282 A  
HETATM   25 CL   UNL     1     -13.166  10.248  71.917  1.00  0.00    -0.559 Cl 
HETATM   26  C   UNL     1     -12.641  12.692  70.902  1.00  0.00    -0.338 A  
HETATM   27  C   UNL     1     -12.086  13.557  69.953  1.00  0.00    -0.408 A  
HETATM   28  C   UNL     1     -11.543  10.823  69.838  1.00  0.00    -0.410 A  
ENDBRANCH  15  22
ENDBRANCH  12  15
ENDBRANCH   8   9
ENDBRANCH   4   8
TORSDOF 5
ENDMDL
MODEL        4
REMARK 921   NORMALIZED FREE ENERGY PREDICTED BY IDOCK:   -6.71 KCAL/MOL
REMARK 922        TOTAL FREE ENERGY PREDICTED BY IDOCK:   -9.38 KCAL/MOL
REMARK 923 INTER-LIGAND FREE ENERGY PREDICTED BY IDOCK:   -9.30 KCAL/MOL
REMARK 924 INTRA-LIGAND FREE ENERGY PREDICTED BY IDOCK:   -0.08 KCAL/MOL
REMARK 927      BINDING AFFINITY PREDICTED BY RF-SCORE:    0.00 PKD
ROOT
HETATM    1  C   UNL     1      -5.466  19.684  68.950  1.00  0.00    -0.226 C  
HETATM    2  C   UNL     1      -6.735  19.622  68.152  1.00  0.00    -0.299 A  
HETATM    3  C   UNL     1      -7.923  19.148  68.730  1.00  0.00    -0.382 A  
HETATM    4  C   UNL     1      -9.064  18.927  67.946  1.00  0.00    -0.334 A  
HETATM    5  C   UNL     1      -9.023  19.281  66.587  1.00  0.00    -0.369 A  
HETATM    6  C   UNL     1      -7.873  19.833  66.025  1.00  0.00    -0.344 A  
HETATM    7  C   UNL     1      -6.727  19.986  66.800  1.00  0.00    -0.241 A  
ENDROOT
BRANCH   4   8
HETATM    8  C   UNL     1     -10.283  18.229  68.545  1.00  0.00    -0.379 C  
BRANCH   8   9
HETATM    9  N   UNL     1      -9.981  16.902  69.105  1.00  0.00    -0.262 NA 
HETATM   10  C   UNL     1     -10.935  16.460  70.151  1.00  0.00    -0.285 C  
HETATM   11  C   UNL     1     -12.140  15.534  69.762  1.00  0.00    -0.349 C  
HETATM   12  N   UNL     1     -12.015  14.671  68.558  1.00  0.00    -0.297 NA 
HETATM   13  C   UNL     1     -11.282  15.473  67.553  1.00  0.00    -0.272 C  
HETATM   14  C   UNL     1      -9.894  15.900  68.041  1.00  0.00    -0.218 C  
BRANCH  12  15
HETATM   15  C   UNL     1     -11.340  13.353  68.812  1.00  0.00    -0.292 C  
BRANCH  15  16
HETATM   16  C   UNL     1     -12.045  12.496  69.868  1.00  0.00    -0.322 A  
HETATM   17  C   UNL     1     -11.986  11.088  69.750  1.00  0.00    -0.428 A  
HETATM   18  C   UNL     1     -12.672  13.050  70.978  1.00  0.00    -0.347 A  
HETATM   19  C   UNL     1     -12.519  10.266  70.745  1.00  0.00    -0.439 A  
HETATM   20  C   UNL     1     -13.126  10.836  71.858  1.00  0.00    -0.557 A  
HETATM   21  C   UNL     1     -13.213  12.225  71.969  1.00  0.00    -0.508 A  
ENDBRANCH  15  16
BRANCH  15  22
HETATM   22  C   UNL     1     -11.043  12.588  67.504  1.00  0.00    -0.311 A  
HETATM   23  C   UNL     1     -10.268  11.772  64.927  1.00  0.00    -0.273 A  
HETATM   24  C   UNL     1      -9.742  12.112  67.260  1.00  0.00    -0.193 A  
HETATM   25 CL   UNL     1      -9.748  11.438  63.320  1.00  0.00    -0.378 Cl 
HETATM   26  C   UNL     1     -11.587  12.149  65.162  1.00  0.00    -0.372 A  
HETATM   27  C   UNL     1     -11.984  12.518  66.452  1.00  0.00    -0.386 A  
HETATM   28  C   UNL     1      -9.357  11.712  65.977  1.00  0.00    -0.241 A  
ENDBRANCH  15  22
ENDBRANCH  12  15
ENDBRANCH   8   9
ENDBRANCH   4   8
TORSDOF 5
ENDMDL
MODEL        5
REMARK 921   NORMALIZED FREE ENERGY PREDICTED BY IDOCK:   -6.64 KCAL/MOL
REMARK 922        TOTAL FREE ENERGY PREDICTED BY IDOCK:   -9.29 KCAL/MOL
REMARK 923 INTER-LIGAND FREE ENERGY PREDICTED BY IDOCK:   -8.82 KCAL/MOL
REMARK 924 INTRA-LIGAND FREE ENERGY PREDICTED BY IDOCK:   -0.47 KCAL/MOL
REMARK 927      BINDING AFFINITY PREDICTED BY RF-SCORE:    0.00 PKD
ROOT
HETATM    1  C   UNL     1      -6.875  18.997  68.874  1.00  0.00    -0.347 C  
HETATM    2  C   UNL     1      -8.274  18.999  68.331  1.00  0.00    -0.382 A  
HETATM    3  C   UNL     1      -9.136  17.918  68.571  1.00  0.00    -0.289 A  
HETATM    4  C   UNL     1     -10.379  17.835  67.926  1.00  0.00    -0.388 A  
HETATM    5  C   UNL     1     -10.783  18.904  67.109  1.00  0.00    -0.506 A  
HETATM    6  C   UNL     1      -9.968  20.021  66.935  1.00  0.00    -0.584 A  
HETATM    7  C   UNL     1      -8.710  20.060  67.529  1.00  0.00    -0.415 A  
ENDROOT
BRANCH   4   8
HETATM    8  C   UNL     1     -11.219  16.566  68.040  1.00  0.00    -0.202 C  
BRANCH   8   9
HETATM    9  N   UNL     1     -10.552  15.486  68.785  1.00  0.00    -0.234 NA 
HETATM   10  C   UNL     1     -11.351  14.950  69.913  1.00  0.00    -0.277 C  
HETATM   11  C   UNL     1     -12.226  13.665  69.703  1.00  0.00    -0.270 C  
HETATM   12  N   UNL     1     -11.835  12.703  68.639  1.00  0.00    -0.315 NA 
HETATM   13  C   UNL     1     -11.354  13.521  67.504  1.00  0.00    -0.308 C  
HETATM   14  C   UNL     1     -10.159  14.403  67.881  1.00  0.00    -0.228 C  
BRANCH  12  15
HETATM   15  C   UNL     1     -10.808  11.693  69.069  1.00  0.00    -0.203 C  
BRANCH  15  16
HETATM   16  C   UNL     1     -11.338  10.672  70.079  1.00  0.00    -0.400 A  
HETATM   17  C   UNL     1     -10.430   9.753  70.656  1.00  0.00    -0.358 A  
HETATM   18  C   UNL     1     -12.660  10.666  70.508  1.00  0.00    -0.433 A  
HETATM   19  C   UNL     1     -10.844   8.877  71.661  1.00  0.00    -0.420 A  
HETATM   20  C   UNL     1     -12.165   8.897  72.092  1.00  0.00    -0.437 A  
HETATM   21  C   UNL     1     -13.075   9.781  71.508  1.00  0.00    -0.506 A  
ENDBRANCH  15  16
BRANCH  15  22
HETATM   22  C   UNL     1     -10.089  11.046  67.866  1.00  0.00    -0.199 A  
HETATM   23  C   UNL     1      -8.687   9.372  66.093  1.00  0.00    -0.147 A  
HETATM   24  C   UNL     1     -10.769  10.094  67.084  1.00  0.00    -0.286 A  
HETATM   25 CL   UNL     1      -7.809   8.237  65.140  1.00  0.00    -0.112 Cl 
HETATM   26  C   UNL     1      -8.005  10.368  66.785  1.00  0.00    -0.117 A  
HETATM   27  C   UNL     1      -8.707  11.227  67.637  1.00  0.00    -0.131 A  
HETATM   28  C   UNL     1     -10.070   9.259  66.206  1.00  0.00    -0.322 A  
ENDBRANCH  15  22
ENDBRANCH  12  15
ENDBRANCH   8   9
ENDBRANCH   4   8
TORSDOF 5
ENDMDL
MODEL        6
REMARK 921   NORMALIZED FREE ENERGY PREDICTED BY IDOCK:   -6.47 KCAL/MOL
REMARK 922        TOTAL FREE ENERGY PREDICTED BY IDOCK:   -9.07 KCAL/MOL
REMARK 923 INTER-LIGAND FREE ENERGY PREDICTED BY IDOCK:   -8.52 KCAL/MOL
REMARK 924 INTRA-LIGAND FREE ENERGY PREDICTED BY IDOCK:   -0.55 KCAL/MOL
REMARK 927      BINDING AFFINITY PREDICTED BY RF-SCORE:    0.00 PKD
ROOT
HETATM    1  C   UNL     1     -12.304   8.499  72.123  1.00  0.00    -0.444 C  
HETATM    2  C   UNL     1     -11.477   7.929  71.009  1.00  0.00    -0.298 A  
HETATM    3  C   UNL     1     -10.301   8.569  70.589  1.00  0.00    -0.232 A  
HETATM    4  C   UNL     1      -9.620   8.139  69.441  1.00  0.00    -0.167 A  
HETATM    5  C   UNL     1     -10.086   6.993  68.774  1.00  0.00    -0.170 A  
HETATM    6  C   UNL     1     -11.204   6.301  69.236  1.00  0.00    -0.458 A  
HETATM    7  C   UNL     1     -11.908   6.778  70.338  1.00  0.00    -0.395 A  
ENDROOT
BRANCH   4   8
HETATM    8  C   UNL     1      -8.460   8.960  68.884  1.00  0.00    -0.131 C  
BRANCH   8   9
HETATM    9  N   UNL     1      -8.820   9.756  67.700  1.00  0.00    -0.125 NA 
HETATM   10  C   UNL     1     -10.243  10.169  67.663  1.00  0.00    -0.203 C  
HETATM   11  C   UNL     1     -10.654  11.587  68.194  1.00  0.00    -0.196 C  
HETATM   12  N   UNL     1      -9.639  12.672  68.187  1.00  0.00    -0.216 NA 
HETATM   13  C   UNL     1      -8.356  12.035  68.556  1.00  0.00    -0.104 C  
HETATM   14  C   UNL     1      -7.948  10.926  67.581  1.00  0.00    -0.114 C  
BRANCH  12  15
HETATM   15  C   UNL     1      -9.535  13.410  66.881  1.00  0.00    -0.253 C  
BRANCH  15  16
HETATM   16  C   UNL     1     -10.509  12.906  65.813  1.00  0.00    -0.293 A  
HETATM   17  C   UNL     1     -11.875  13.258  65.918  1.00  0.00    -0.436 A  
HETATM   18  C   UNL     1     -10.087  12.183  64.703  1.00  0.00    -0.282 A  
HETATM   19  C   UNL     1     -12.779  12.915  64.912  1.00  0.00    -0.474 A  
HETATM   20  C   UNL     1     -12.338  12.209  63.800  1.00  0.00    -0.635 A  
HETATM   21  C   UNL     1     -10.997  11.832  63.701  1.00  0.00    -0.513 A  
ENDBRANCH  15  16
BRANCH  15  22
HETATM   22  C   UNL     1      -9.577  14.941  67.072  1.00  0.00    -0.245 A  
HETATM   23  C   UNL     1     -10.283  17.657  67.254  1.00  0.00    -0.343 A  
HETATM   24  C   UNL     1     -10.084  15.476  68.271  1.00  0.00    -0.218 A  
HETATM   25 CL   UNL     1     -10.873  19.274  67.309  1.00  0.00    -0.586 Cl 
HETATM   26  C   UNL     1      -9.697  17.175  66.087  1.00  0.00    -0.263 A  
HETATM   27  C   UNL     1      -9.310  15.833  66.009  1.00  0.00    -0.384 A  
HETATM   28  C   UNL     1     -10.439  16.825  68.359  1.00  0.00    -0.339 A  
ENDBRANCH  15  22
ENDBRANCH  12  15
ENDBRANCH   8   9
ENDBRANCH   4   8
TORSDOF 5
ENDMDL
MODEL        7
REMARK 921   NORMALIZED FREE ENERGY PREDICTED BY IDOCK:   -6.44 KCAL/MOL
REMARK 922        TOTAL FREE ENERGY PREDICTED BY IDOCK:   -9.03 KCAL/MOL
REMARK 923 INTER-LIGAND FREE ENERGY PREDICTED BY IDOCK:   -8.54 KCAL/MOL
REMARK 924 INTRA-LIGAND FREE ENERGY PREDICTED BY IDOCK:   -0.49 KCAL/MOL
REMARK 927      BINDING AFFINITY PREDICTED BY RF-SCORE:    0.00 PKD
ROOT
HETATM    1  C   UNL     1     -12.452   7.120  71.437  1.00  0.00    -0.427 C  
HETATM    2  C   UNL     1     -11.419   7.227  70.355  1.00  0.00    -0.279 A  
HETATM    3  C   UNL     1     -10.553   8.330  70.297  1.00  0.00    -0.230 A  
HETATM    4  C   UNL     1      -9.706   8.520  69.195  1.00  0.00    -0.170 A  
HETATM    5  C   UNL     1      -9.673   7.532  68.196  1.00  0.00    -0.167 A  
HETATM    6  C   UNL     1     -10.468   6.391  68.290  1.00  0.00    -0.270 A  
HETATM    7  C   UNL     1     -11.351   6.248  69.356  1.00  0.00    -0.448 A  
ENDROOT
BRANCH   4   8
HETATM    8  C   UNL     1      -8.916   9.818  69.050  1.00  0.00    -0.154 C  
BRANCH   8   9
HETATM    9  N   UNL     1      -9.199  10.540  67.799  1.00  0.00    -0.145 NA 
HETATM   10  C   UNL     1     -10.644  10.744  67.537  1.00  0.00    -0.237 C  
HETATM   11  C   UNL     1     -11.324  12.096  67.953  1.00  0.00    -0.300 C  
HETATM   12  N   UNL     1     -10.481  13.315  68.060  1.00  0.00    -0.236 NA 
HETATM   13  C   UNL     1      -9.193  12.872  68.638  1.00  0.00     0.041 C  
HETATM   14  C   UNL     1      -8.491  11.821  67.772  1.00  0.00    -0.147 C  
BRANCH  12  15
HETATM   15  C   UNL     1     -10.283  14.043  66.761  1.00  0.00    -0.264 C  
BRANCH  15  16
HETATM   16  C   UNL     1     -11.015  13.400  65.580  1.00  0.00    -0.294 A  
HETATM   17  C   UNL     1     -10.256  12.720  64.599  1.00  0.00    -0.321 A  
HETATM   18  C   UNL     1     -12.402  13.391  65.479  1.00  0.00    -0.528 A  
HETATM   19  C   UNL     1     -10.887  12.026  63.564  1.00  0.00    -0.509 A  
HETATM   20  C   UNL     1     -12.274  12.011  63.488  1.00  0.00    -0.653 A  
HETATM   21  C   UNL     1     -13.030  12.703  64.437  1.00  0.00    -0.232 A  
ENDBRANCH  15  16
BRANCH  15  22
HETATM   22  C   UNL     1     -10.554  15.557  66.895  1.00  0.00    -0.307 A  
HETATM   23  C   UNL     1     -10.399  18.346  67.229  1.00  0.00    -0.392 A  
HETATM   24  C   UNL     1     -10.318  16.403  65.795  1.00  0.00    -0.388 A  
HETATM   25 CL   UNL     1     -10.135  20.031  67.463  1.00  0.00    -0.550 Cl 
HETATM   26  C   UNL     1     -10.726  17.539  68.315  1.00  0.00    -0.309 A  
HETATM   27  C   UNL     1     -10.842  16.156  68.142  1.00  0.00    -0.329 A  
HETATM   28  C   UNL     1     -10.237  17.789  65.963  1.00  0.00    -0.296 A  
ENDBRANCH  15  22
ENDBRANCH  12  15
ENDBRANCH   8   9
ENDBRANCH   4   8
TORSDOF 5
ENDMDL
MODEL        8
REMARK 921   NORMALIZED FREE ENERGY PREDICTED BY IDOCK:   -6.32 KCAL/MOL
REMARK 922        TOTAL FREE ENERGY PREDICTED BY IDOCK:   -8.87 KCAL/MOL
REMARK 923 INTER-LIGAND FREE ENERGY PREDICTED BY IDOCK:   -8.21 KCAL/MOL
REMARK 924 INTRA-LIGAND FREE ENERGY PREDICTED BY IDOCK:   -0.67 KCAL/MOL
REMARK 927      BINDING AFFINITY PREDICTED BY RF-SCORE:    0.00 PKD
ROOT
HETATM    1  C   UNL     1      -9.059   7.903  72.186  1.00  0.00    -0.205 C  
HETATM    2  C   UNL     1     -10.419   8.459  71.883  1.00  0.00    -0.366 A  
HETATM    3  C   UNL     1     -10.561   9.633  71.127  1.00  0.00    -0.327 A  
HETATM    4  C   UNL     1     -11.813  10.250  70.987  1.00  0.00    -0.472 A  
HETATM    5  C   UNL     1     -12.939   9.615  71.539  1.00  0.00    -0.486 A  
HETATM    6  C   UNL     1     -12.817   8.403  72.218  1.00  0.00    -0.359 A  
HETATM    7  C   UNL     1     -11.560   7.837  72.405  1.00  0.00    -0.410 A  
ENDROOT
BRANCH   4   8
HETATM    8  C   UNL     1     -11.923  11.624  70.333  1.00  0.00    -0.358 C  
BRANCH   8   9
HETATM    9  N   UNL     1     -11.235  11.712  69.035  1.00  0.00    -0.242 NA 
HETATM   10  C   UNL     1     -12.144  11.945  67.887  1.00  0.00     0.089 C  
HETATM   11  C   UNL     1     -12.375  13.406  67.364  1.00  0.00    -0.065 C  
HETATM   12  N   UNL     1     -11.318  14.424  67.602  1.00  0.00    -0.313 NA 
HETATM   13  C   UNL     1     -10.781  14.147  68.953  1.00  0.00    -0.256 C  
HETATM   14  C   UNL     1     -10.191  12.738  69.073  1.00  0.00     0.128 C  
BRANCH  12  15
HETATM   15  C   UNL     1     -10.231  14.437  66.566  1.00  0.00    -0.274 C  
BRANCH  15  16
HETATM   16  C   UNL     1     -10.593  13.676  65.287  1.00  0.00    -0.354 A  
HETATM   17  C   UNL     1      -9.926  12.460  65.008  1.00  0.00    -0.219 A  
HETATM   18  C   UNL     1     -11.608  14.095  64.434  1.00  0.00    -0.377 A  
HETATM   19  C   UNL     1     -10.299  11.677  63.913  1.00  0.00    -0.417 A  
HETATM   20  C   UNL     1     -11.328  12.101  63.081  1.00  0.00    -0.263 A  
HETATM   21  C   UNL     1     -11.973  13.314  63.333  1.00  0.00    -0.491 A  
ENDBRANCH  15  16
BRANCH  15  22
HETATM   22  C   UNL     1      -9.698  15.861  66.298  1.00  0.00    -0.332 A  
HETATM   23  C   UNL     1      -8.667  18.472  66.461  1.00  0.00    -0.286 A  
HETATM   24  C   UNL     1      -8.310  16.089  66.284  1.00  0.00    -0.287 A  
HETATM   25 CL   UNL     1      -8.039  20.052  66.733  1.00  0.00    -0.339 Cl 
HETATM   26  C   UNL     1     -10.043  18.279  66.382  1.00  0.00    -0.406 A  
HETATM   27  C   UNL     1     -10.556  16.983  66.261  1.00  0.00    -0.185 A  
HETATM   28  C   UNL     1      -7.798  17.388  66.370  1.00  0.00    -0.337 A  
ENDBRANCH  15  22
ENDBRANCH  12  15
ENDBRANCH   8   9
ENDBRANCH   4   8
TORSDOF 5
ENDMDL
MODEL        9
REMARK 921   NORMALIZED FREE ENERGY PREDICTED BY IDOCK:   -6.28 KCAL/MOL
REMARK 922        TOTAL FREE ENERGY PREDICTED BY IDOCK:   -8.83 KCAL/MOL
REMARK 923 INTER-LIGAND FREE ENERGY PREDICTED BY IDOCK:   -9.12 KCAL/MOL
REMARK 924 INTRA-LIGAND FREE ENERGY PREDICTED BY IDOCK:    0.29 KCAL/MOL
REMARK 927      BINDING AFFINITY PREDICTED BY RF-SCORE:    0.00 PKD
ROOT
HETATM    1  C   UNL     1      -8.547   7.918  73.616  1.00  0.00    -0.316 C  
HETATM    2  C   UNL     1      -9.567   7.414  72.638  1.00  0.00    -0.204 A  
HETATM    3  C   UNL     1      -9.491   7.763  71.280  1.00  0.00    -0.173 A  
HETATM    4  C   UNL     1     -10.531   7.439  70.397  1.00  0.00    -0.230 A  
HETATM    5  C   UNL     1     -11.606   6.673  70.879  1.00  0.00    -0.416 A  
HETATM    6  C   UNL     1     -11.646   6.249  72.206  1.00  0.00    -0.355 A  
HETATM    7  C   UNL     1     -10.639   6.634  73.087  1.00  0.00    -0.299 A  
ENDROOT
BRANCH   4   8
HETATM    8  C   UNL     1     -10.530   7.993  68.974  1.00  0.00    -0.199 C  
BRANCH   8   9
HETATM    9  N   UNL     1      -9.987   9.357  68.876  1.00  0.00    -0.174 NA 
HETATM   10  C   UNL     1     -10.156   9.978  67.541  1.00  0.00    -0.198 C  
HETATM   11  C   UNL     1     -11.381  10.921  67.274  1.00  0.00    -0.151 C  
HETATM   12  N   UNL     1     -12.003  11.624  68.426  1.00  0.00    -0.533 NA 
HETATM   13  C   UNL     1     -11.981  10.665  69.552  1.00  0.00    -0.247 C  
HETATM   14  C   UNL     1     -10.561  10.216  69.913  1.00  0.00    -0.285 C  
BRANCH  12  15
HETATM   15  C   UNL     1     -11.336  12.921  68.790  1.00  0.00    -0.290 C  
BRANCH  15  16
HETATM   16  C   UNL     1     -10.985  13.791  67.581  1.00  0.00    -0.278 A  
HETATM   17  C   UNL     1      -9.662  14.272  67.450  1.00  0.00    -0.235 A  
HETATM   18  C   UNL     1     -11.898  14.059  66.567  1.00  0.00    -0.439 A  
HETATM   19  C   UNL     1      -9.268  14.976  66.311  1.00  0.00    -0.324 A  
HETATM   20  C   UNL     1     -10.187  15.220  65.299  1.00  0.00    -0.397 A  
HETATM   21  C   UNL     1     -11.504  14.773  65.432  1.00  0.00    -0.341 A  
ENDBRANCH  15  16
BRANCH  15  22
HETATM   22  C   UNL     1     -12.107  13.684  69.889  1.00  0.00    -0.406 A  
HETATM   23  C   UNL     1     -12.915  15.151  72.148  1.00  0.00    -0.353 A  
HETATM   24  C   UNL     1     -12.142  15.090  69.860  1.00  0.00    -0.376 A  
HETATM   25 CL   UNL     1     -13.245  16.046  73.582  1.00  0.00    -0.603 Cl 
HETATM   26  C   UNL     1     -12.979  13.761  72.170  1.00  0.00    -0.437 A  
HETATM   27  C   UNL     1     -12.615  13.031  71.034  1.00  0.00    -0.386 A  
HETATM   28  C   UNL     1     -12.539  15.819  70.986  1.00  0.00    -0.470 A  
ENDBRANCH  15  22
ENDBRANCH  12  15
ENDBRANCH   8   9
ENDBRANCH   4   8
TORSDOF 5
ENDMDL
MODEL       10
REMARK 921   NORMALIZED FREE ENERGY PREDICTED BY IDOCK:   -6.25 KCAL/MOL
REMARK 922        TOTAL FREE ENERGY PREDICTED BY IDOCK:   -8.79 KCAL/MOL
REMARK 923 INTER-LIGAND FREE ENERGY PREDICTED BY IDOCK:   -8.34 KCAL/MOL
REMARK 924 INTRA-LIGAND FREE ENERGY PREDICTED BY IDOCK:   -0.44 KCAL/MOL
REMARK 927      BINDING AFFINITY PREDICTED BY RF-SCORE:    0.00 PKD
ROOT
HETATM    1  C   UNL     1      -9.827   5.011  67.926  1.00  0.00    -0.200 C  
HETATM    2  C   UNL     1     -10.303   6.205  68.699  1.00  0.00    -0.250 A  
HETATM    3  C   UNL     1      -9.747   7.474  68.472  1.00  0.00    -0.159 A  
HETATM    4  C   UNL     1     -10.063   8.556  69.306  1.00  0.00    -0.203 A  
HETATM    5  C   UNL     1     -11.021   8.367  70.316  1.00  0.00    -0.236 A  
HETATM    6  C   UNL     1     -11.642   7.131  70.493  1.00  0.00    -0.331 A  
HETATM    7  C   UNL     1     -11.270   6.049  69.699  1.00  0.00    -0.428 A  
ENDROOT
BRANCH   4   8
HETATM    8  C   UNL     1      -9.306   9.875  69.172  1.00  0.00    -0.193 C  
BRANCH   8   9
HETATM    9  N   UNL     1      -9.504  10.535  67.871  1.00  0.00    -0.146 NA 
HETATM   10  C   UNL     1     -10.925  10.796  67.540  1.00  0.00    -0.312 C  
HETATM   11  C   UNL     1     -11.549  12.202  67.850  1.00  0.00    -0.347 C  
HETATM   12  N   UNL     1     -10.647  13.381  67.921  1.00  0.00    -0.240 NA 
HETATM   13  C   UNL     1      -9.406  12.909  68.574  1.00  0.00    -0.074 C  
HETATM   14  C   UNL     1      -8.729  11.774  67.799  1.00  0.00    -0.155 C  
BRANCH  12  15
HETATM   15  C   UNL     1     -10.363  14.020  66.591  1.00  0.00    -0.278 C  
BRANCH  15  16
HETATM   16  C   UNL     1     -11.059  13.327  65.416  1.00  0.00    -0.300 A  
HETATM   17  C   UNL     1     -10.266  12.641  64.466  1.00  0.00    -0.331 A  
HETATM   18  C   UNL     1     -12.443  13.280  65.294  1.00  0.00    -0.543 A  
HETATM   19  C   UNL     1     -10.861  11.903  63.441  1.00  0.00    -0.469 A  
HETATM   20  C   UNL     1     -12.246  11.851  63.344  1.00  0.00    -0.561 A  
HETATM   21  C   UNL     1     -13.036  12.548  64.261  1.00  0.00    -0.253 A  
ENDBRANCH  15  16
BRANCH  15  22
HETATM   22  C   UNL     1     -10.589  15.548  66.618  1.00  0.00    -0.307 A  
HETATM   23  C   UNL     1     -10.346  18.348  66.691  1.00  0.00    -0.396 A  
HETATM   24  C   UNL     1     -10.448  16.290  65.431  1.00  0.00    -0.365 A  
HETATM   25 CL   UNL     1     -10.027  20.040  66.751  1.00  0.00    -0.548 Cl 
HETATM   26  C   UNL     1     -10.578  17.647  67.870  1.00  0.00    -0.390 A  
HETATM   27  C   UNL     1     -10.738  16.258  67.831  1.00  0.00    -0.329 A  
HETATM   28  C   UNL     1     -10.323  17.682  65.469  1.00  0.00     0.001 A  
ENDBRANCH  15  22
ENDBRANCH  12  15
ENDBRANCH   8   9
ENDBRANCH   4   8
TORSDOF 5
ENDMDL
MODEL       11
REMARK 921   NORMALIZED FREE ENERGY PREDICTED BY IDOCK:   -6.24 KCAL/MOL
REMARK 922        TOTAL FREE ENERGY PREDICTED BY IDOCK:   -8.77 KCAL/MOL
REMARK 923 INTER-LIGAND FREE ENERGY PREDICTED BY IDOCK:   -8.23 KCAL/MOL
REMARK 924 INTRA-LIGAND FREE ENERGY PREDICTED BY IDOCK:   -0.54 KCAL/MOL
REMARK 927      BINDING AFFINITY PREDICTED BY RF-SCORE:    0.00 PKD
ROOT
HETATM    1  C   UNL     1     -10.698   7.178  67.554  1.00  0.00    -0.344 C  
HETATM    2  C   UNL     1     -10.079   8.533  67.377  1.00  0.00    -0.298 A  
HETATM    3  C   UNL     1     -10.783   9.563  66.736  1.00  0.00    -0.136 A  
HETATM    4  C   UNL     1     -10.151  10.773  66.415  1.00  0.00    -0.278 A  
HETATM    5  C   UNL     1      -8.824  10.969  66.835  1.00  0.00    -0.150 A  
HETATM    6  C   UNL     1      -8.146   9.982  67.549  1.00  0.00    -0.110 A  
HETATM    7  C   UNL     1      -8.765   8.761  67.802  1.00  0.00    -0.136 A  
ENDROOT
BRANCH   4   8
HETATM    8  C   UNL     1     -10.865  11.806  65.547  1.00  0.00    -0.297 C  
BRANCH   8   9
HETATM    9  N   UNL     1     -11.681  12.757  66.318  1.00  0.00    -0.382 NA 
HETATM   10  C   UNL     1     -11.749  12.453  67.767  1.00  0.00    -0.350 C  
HETATM   11  C   UNL     1     -10.768  13.174  68.758  1.00  0.00    -0.225 C  
HETATM   12  N   UNL     1     -10.213  14.498  68.373  1.00  0.00    -0.233 NA 
HETATM   13  C   UNL     1      -9.949  14.424  66.919  1.00  0.00    -0.261 C  
HETATM   14  C   UNL     1     -11.214  14.128  66.107  1.00  0.00    -0.326 C  
BRANCH  12  15
HETATM   15  C   UNL     1     -11.099  15.662  68.716  1.00  0.00    -0.307 C  
BRANCH  15  16
HETATM   16  C   UNL     1     -11.775  15.535  70.084  1.00  0.00    -0.367 A  
HETATM   17  C   UNL     1     -13.154  15.222  70.134  1.00  0.00    -0.030 A  
HETATM   18  C   UNL     1     -11.067  15.638  71.276  1.00  0.00    -0.315 A  
HETATM   19  C   UNL     1     -13.788  14.989  71.356  1.00  0.00    -0.560 A  
HETATM   20  C   UNL     1     -13.062  15.077  72.537  1.00  0.00    -0.480 A  
HETATM   21  C   UNL     1     -11.707  15.413  72.499  1.00  0.00    -0.564 A  
ENDBRANCH  15  16
BRANCH  15  22
HETATM   22  C   UNL     1     -10.388  17.017  68.510  1.00  0.00    -0.359 A  
HETATM   23  C   UNL     1      -8.903  19.212  67.570  1.00  0.00    -0.295 A  
HETATM   24  C   UNL     1     -10.986  17.996  67.696  1.00  0.00    -0.115 A  
HETATM   25 CL   UNL     1      -7.951  20.459  66.859  1.00  0.00    -0.344 Cl 
HETATM   26  C   UNL     1      -8.314  18.308  68.450  1.00  0.00    -0.323 A  
HETATM   27  C   UNL     1      -9.063  17.238  68.949  1.00  0.00    -0.172 A  
HETATM   28  C   UNL     1     -10.245  19.085  67.226  1.00  0.00    -0.476 A  
ENDBRANCH  15  22
ENDBRANCH  12  15
ENDBRANCH   8   9
ENDBRANCH   4   8
TORSDOF 5
ENDMDL
MODEL       12
REMARK 921   NORMALIZED FREE ENERGY PREDICTED BY IDOCK:   -6.22 KCAL/MOL
REMARK 922        TOTAL FREE ENERGY PREDICTED BY IDOCK:   -8.75 KCAL/MOL
REMARK 923 INTER-LIGAND FREE ENERGY PREDICTED BY IDOCK:   -7.79 KCAL/MOL
REMARK 924 INTRA-LIGAND FREE ENERGY PREDICTED BY IDOCK:   -0.96 KCAL/MOL
REMARK 927      BINDING AFFINITY PREDICTED BY RF-SCORE:    0.00 PKD
ROOT
HETATM    1  C   UNL     1     -11.774  15.389  64.408  1.00  0.00    -0.261 C  
HETATM    2  C   UNL     1     -11.435  13.931  64.503  1.00  0.00    -0.393 A  
HETATM    3  C   UNL     1     -10.706  13.434  65.594  1.00  0.00    -0.283 A  
HETATM    4  C   UNL     1     -10.240  12.112  65.604  1.00  0.00    -0.285 A  
HETATM    5  C   UNL     1     -10.600  11.266  64.541  1.00  0.00    -0.401 A  
HETATM    6  C   UNL     1     -11.397  11.729  63.495  1.00  0.00    -0.496 A  
HETATM    7  C   UNL     1     -11.798  13.062  63.467  1.00  0.00    -0.582 A  
ENDROOT
BRANCH   4   8
HETATM    8  C   UNL     1      -9.286  11.642  66.699  1.00  0.00    -0.191 C  
BRANCH   8   9
HETATM    9  N   UNL     1      -9.929  11.497  68.014  1.00  0.00    -0.183 NA 
HETATM   10  C   UNL     1     -11.038  10.515  68.037  1.00  0.00    -0.300 C  
HETATM   11  C   UNL     1     -10.761   9.042  68.502  1.00  0.00    -0.095 C  
HETATM   12  N   UNL     1      -9.619   8.787  69.418  1.00  0.00    -0.161 NA 
HETATM   13  C   UNL     1      -8.533   9.690  68.979  1.00  0.00    -0.131 C  
HETATM   14  C   UNL     1      -8.937  11.167  69.039  1.00  0.00    -0.015 C  
BRANCH  12  15
HETATM   15  C   UNL     1      -9.942   8.976  70.873  1.00  0.00    -0.260 C  
BRANCH  15  16
HETATM   16  C   UNL     1     -11.437   8.873  71.188  1.00  0.00    -0.364 A  
HETATM   17  C   UNL     1     -12.050   7.599  71.162  1.00  0.00    -0.322 A  
HETATM   18  C   UNL     1     -12.193   9.973  71.575  1.00  0.00    -0.496 A  
HETATM   19  C   UNL     1     -13.383   7.441  71.548  1.00  0.00    -0.435 A  
HETATM   20  C   UNL     1     -14.120   8.548  71.950  1.00  0.00    -0.519 A  
HETATM   21  C   UNL     1     -13.530   9.814  71.952  1.00  0.00    -0.485 A  
ENDBRANCH  15  16
BRANCH  15  22
HETATM   22  C   UNL     1      -9.064   8.091  71.785  1.00  0.00    -0.207 A  
HETATM   23  C   UNL     1      -8.006   6.115  73.483  1.00  0.00    -0.102 A  
HETATM   24  C   UNL     1      -8.465   6.933  71.257  1.00  0.00    -0.120 A  
HETATM   25 CL   UNL     1      -7.516   4.833  74.523  1.00  0.00    -0.084 Cl 
HETATM   26  C   UNL     1      -8.508   7.293  74.027  1.00  0.00    -0.214 A  
HETATM   27  C   UNL     1      -8.998   8.294  73.182  1.00  0.00    -0.301 A  
HETATM   28  C   UNL     1      -7.945   5.948  72.102  1.00  0.00    -0.107 A  
ENDBRANCH  15  22
ENDBRANCH  12  15
ENDBRANCH   8   9
ENDBRANCH   4   8
TORSDOF 5
ENDMDL
MODEL       13
REMARK 921   NORMALIZED FREE ENERGY PREDICTED BY IDOCK:   -6.20 KCAL/MOL
REMARK 922        TOTAL FREE ENERGY PREDICTED BY IDOCK:   -8.72 KCAL/MOL
REMARK 923 INTER-LIGAND FREE ENERGY PREDICTED BY IDOCK:   -8.56 KCAL/MOL
REMARK 924 INTRA-LIGAND FREE ENERGY PREDICTED BY IDOCK:   -0.15 KCAL/MOL
REMARK 927      BINDING AFFINITY PREDICTED BY RF-SCORE:    0.00 PKD
ROOT
HETATM    1  C   UNL     1      -6.851   5.827  66.107  1.00  0.00    -0.058 C  
HETATM    2  C   UNL     1      -8.283   6.068  66.484  1.00  0.00    -0.107 A  
HETATM    3  C   UNL     1      -8.624   7.085  67.389  1.00  0.00    -0.121 A  
HETATM    4  C   UNL     1      -9.935   7.204  67.875  1.00  0.00    -0.186 A  
HETATM    5  C   UNL     1     -10.920   6.343  67.363  1.00  0.00    -0.463 A  
HETATM    6  C   UNL     1     -10.606   5.386  66.400  1.00  0.00    -0.322 A  
HETATM    7  C   UNL     1      -9.288   5.237  65.975  1.00  0.00    -0.167 A  
ENDROOT
BRANCH   4   8
HETATM    8  C   UNL     1     -10.249   8.184  69.002  1.00  0.00    -0.220 C  
BRANCH   8   9
HETATM    9  N   UNL     1      -9.811   9.560  68.721  1.00  0.00    -0.164 NA 
HETATM   10  C   UNL     1     -10.298  10.095  67.428  1.00  0.00    -0.238 C  
HETATM   11  C   UNL     1     -11.599  10.972  67.391  1.00  0.00    -0.017 C  
HETATM   12  N   UNL     1     -11.992  11.716  68.617  1.00  0.00    -0.459 NA 
HETATM   13  C   UNL     1     -11.675  10.825  69.755  1.00  0.00    -0.324 C  
HETATM   14  C   UNL     1     -10.190  10.455  69.816  1.00  0.00    -0.184 C  
BRANCH  12  15
HETATM   15  C   UNL     1     -11.329  13.056  68.763  1.00  0.00    -0.289 C  
BRANCH  15  16
HETATM   16  C   UNL     1     -11.170  13.809  67.440  1.00  0.00    -0.330 A  
HETATM   17  C   UNL     1      -9.896  14.319  67.097  1.00  0.00    -0.252 A  
HETATM   18  C   UNL     1     -12.211  13.940  66.528  1.00  0.00    -0.482 A  
HETATM   19  C   UNL     1      -9.677  14.916  65.853  1.00  0.00    -0.366 A  
HETATM   20  C   UNL     1     -10.724  15.022  64.946  1.00  0.00    -0.420 A  
HETATM   21  C   UNL     1     -11.992  14.546  65.287  1.00  0.00    -0.353 A  
ENDBRANCH  15  16
BRANCH  15  22
HETATM   22  C   UNL     1     -11.977  13.909  69.876  1.00  0.00    -0.405 A  
HETATM   23  C   UNL     1     -12.600  15.334  72.218  1.00  0.00    -0.357 A  
HETATM   24  C   UNL     1     -11.609  15.259  70.017  1.00  0.00    -0.331 A  
HETATM   25 CL   UNL     1     -12.831  16.150  73.717  1.00  0.00    -0.660 Cl 
HETATM   26  C   UNL     1     -13.057  14.029  72.065  1.00  0.00    -0.487 A  
HETATM   27  C   UNL     1     -12.782  13.331  70.884  1.00  0.00    -0.332 A  
HETATM   28  C   UNL     1     -11.915  15.965  71.184  1.00  0.00    -0.472 A  
ENDBRANCH  15  22
ENDBRANCH  12  15
ENDBRANCH   8   9
ENDBRANCH   4   8
TORSDOF 5
ENDMDL
MODEL       14
REMARK 921   NORMALIZED FREE ENERGY PREDICTED BY IDOCK:   -6.19 KCAL/MOL
REMARK 922        TOTAL FREE ENERGY PREDICTED BY IDOCK:   -8.70 KCAL/MOL
REMARK 923 INTER-LIGAND FREE ENERGY PREDICTED BY IDOCK:   -7.96 KCAL/MOL
REMARK 924 INTRA-LIGAND FREE ENERGY PREDICTED BY IDOCK:   -0.74 KCAL/MOL
REMARK 927      BINDING AFFINITY PREDICTED BY RF-SCORE:    0.00 PKD
ROOT
HETATM    1  C   UNL     1      -9.614  20.961  66.757  1.00  0.00    -0.069 C  
HETATM    2  C   UNL     1      -8.475  20.169  67.327  1.00  0.00    -0.403 A  
HETATM    3  C   UNL     1      -8.607  18.792  67.563  1.00  0.00    -0.292 A  
HETATM    4  C   UNL     1      -7.612  18.083  68.252  1.00  0.00    -0.278 A  
HETATM    5  C   UNL     1      -6.436  18.760  68.615  1.00  0.00    -0.258 A  
HETATM    6  C   UNL     1      -6.260  20.108  68.306  1.00  0.00    -0.316 A  
HETATM    7  C   UNL     1      -7.284  20.814  67.681  1.00  0.00    -0.332 A  
ENDROOT
BRANCH   4   8
HETATM    8  C   UNL     1      -7.854  16.636  68.675  1.00  0.00    -0.234 C  
BRANCH   8   9
HETATM    9  N   UNL     1      -9.073  16.051  68.094  1.00  0.00    -0.186 NA 
HETATM   10  C   UNL     1      -8.843  15.320  66.825  1.00  0.00    -0.271 C  
HETATM   11  C   UNL     1      -8.641  13.764  66.852  1.00  0.00    -0.109 C  
HETATM   12  N   UNL     1      -9.223  12.989  67.979  1.00  0.00    -0.206 NA 
HETATM   13  C   UNL     1      -9.046  13.826  69.186  1.00  0.00     0.430 C  
HETATM   14  C   UNL     1      -9.743  15.185  69.066  1.00  0.00    -0.234 C  
BRANCH  12  15
HETATM   15  C   UNL     1     -10.661  12.600  67.782  1.00  0.00    -0.220 C  
BRANCH  15  16
HETATM   16  C   UNL     1     -11.032  12.348  66.318  1.00  0.00    -0.323 A  
HETATM   17  C   UNL     1     -12.053  13.131  65.731  1.00  0.00    -0.502 A  
HETATM   18  C   UNL     1     -10.350  11.433  65.524  1.00  0.00    -0.317 A  
HETATM   19  C   UNL     1     -12.351  13.013  64.372  1.00  0.00    -0.442 A  
HETATM   20  C   UNL     1     -11.646  12.108  63.588  1.00  0.00    -0.575 A  
HETATM   21  C   UNL     1     -10.656  11.309  64.166  1.00  0.00    -0.437 A  
ENDBRANCH  15  16
BRANCH  15  22
HETATM   22  C   UNL     1     -11.090  11.457  68.726  1.00  0.00    -0.290 A  
HETATM   23  C   UNL     1     -11.459   9.665  70.862  1.00  0.00    -0.353 A  
HETATM   24  C   UNL     1     -12.063  11.702  69.712  1.00  0.00    -0.357 A  
HETATM   25 CL   UNL     1     -11.565   8.658  72.255  1.00  0.00    -0.438 Cl 
HETATM   26  C   UNL     1     -10.557   9.353  69.850  1.00  0.00    -0.258 A  
HETATM   27  C   UNL     1     -10.400  10.224  68.767  1.00  0.00    -0.211 A  
HETATM   28  C   UNL     1     -12.242  10.813  70.777  1.00  0.00    -0.480 A  
ENDBRANCH  15  22
ENDBRANCH  12  15
ENDBRANCH   8   9
ENDBRANCH   4   8
TORSDOF 5
ENDMDL
MODEL       15
REMARK 921   NORMALIZED FREE ENERGY PREDICTED BY IDOCK:   -6.18 KCAL/MOL
REMARK 922        TOTAL FREE ENERGY PREDICTED BY IDOCK:   -8.69 KCAL/MOL
REMARK 923 INTER-LIGAND FREE ENERGY PREDICTED BY IDOCK:   -8.65 KCAL/MOL
REMARK 924 INTRA-LIGAND FREE ENERGY PREDICTED BY IDOCK:   -0.05 KCAL/MOL
REMARK 927      BINDING AFFINITY PREDICTED BY RF-SCORE:    0.00 PKD
ROOT
HETATM    1  C   UNL     1     -10.677  20.124  65.292  1.00  0.00     0.045 C  
HETATM    2  C   UNL     1      -9.957  19.526  66.464  1.00  0.00    -0.518 A  
HETATM    3  C   UNL     1     -10.596  18.597  67.299  1.00  0.00    -0.480 A  
HETATM    4  C   UNL     1      -9.991  18.167  68.489  1.00  0.00    -0.408 A  
HETATM    5  C   UNL     1      -8.690  18.612  68.779  1.00  0.00    -0.290 A  
HETATM    6  C   UNL     1      -8.015  19.467  67.910  1.00  0.00    -0.336 A  
HETATM    7  C   UNL     1      -8.653  19.938  66.766  1.00  0.00    -0.394 A  
ENDROOT
BRANCH   4   8
HETATM    8  C   UNL     1     -10.774  17.313  69.483  1.00  0.00     0.099 C  
BRANCH   8   9
HETATM    9  N   UNL     1     -10.184  15.984  69.708  1.00  0.00    -0.263 NA 
HETATM   10  C   UNL     1     -10.859  15.197  70.767  1.00  0.00    -0.151 C  
HETATM   11  C   UNL     1     -11.961  14.153  70.374  1.00  0.00    -0.330 C  
HETATM   12  N   UNL     1     -11.925  13.557  69.013  1.00  0.00    -0.341 NA 
HETATM   13  C   UNL     1     -11.511  14.645  68.100  1.00  0.00    -0.323 C  
HETATM   14  C   UNL     1     -10.138  15.222  68.459  1.00  0.00    -0.222 C  
BRANCH  12  15
HETATM   15  C   UNL     1     -11.026  12.359  68.889  1.00  0.00    -0.223 C  
BRANCH  15  16
HETATM   16  C   UNL     1     -11.405  11.208  69.825  1.00  0.00    -0.354 A  
HETATM   17  C   UNL     1     -10.430  10.230  70.130  1.00  0.00    -0.259 A  
HETATM   18  C   UNL     1     -12.646  11.134  70.448  1.00  0.00    -0.328 A  
HETATM   19  C   UNL     1     -10.694   9.225  71.062  1.00  0.00    -0.387 A  
HETATM   20  C   UNL     1     -11.932   9.176  71.690  1.00  0.00    -0.437 A  
HETATM   21  C   UNL     1     -12.911  10.121  71.375  1.00  0.00    -0.528 A  
ENDBRANCH  15  16
BRANCH  15  22
HETATM   22  C   UNL     1     -10.844  11.916  67.421  1.00  0.00    -0.289 A  
HETATM   23  C   UNL     1     -10.195  11.680  64.695  1.00  0.00    -0.281 A  
HETATM   24  C   UNL     1      -9.626  11.339  67.018  1.00  0.00    -0.197 A  
HETATM   25 CL   UNL     1      -9.729  11.693  63.037  1.00  0.00    -0.400 Cl 
HETATM   26  C   UNL     1     -11.445  12.167  65.065  1.00  0.00    -0.377 A  
HETATM   27  C   UNL     1     -11.784  12.249  66.420  1.00  0.00    -0.431 A  
HETATM   28  C   UNL     1      -9.303  11.227  65.662  1.00  0.00    -0.245 A  
ENDBRANCH  15  22
ENDBRANCH  12  15
ENDBRANCH   8   9
ENDBRANCH   4   8
TORSDOF 5
ENDMDL
MODEL       16
REMARK 921   NORMALIZED FREE ENERGY PREDICTED BY IDOCK:   -6.17 KCAL/MOL
REMARK 922        TOTAL FREE ENERGY PREDICTED BY IDOCK:   -8.68 KCAL/MOL
REMARK 923 INTER-LIGAND FREE ENERGY PREDICTED BY IDOCK:   -9.04 KCAL/MOL
REMARK 924 INTRA-LIGAND FREE ENERGY PREDICTED BY IDOCK:    0.35 KCAL/MOL
REMARK 927      BINDING AFFINITY PREDICTED BY RF-SCORE:    0.00 PKD
ROOT
HETATM    1  C   UNL     1      -6.866  18.401  65.925  1.00  0.00    -0.317 C  
HETATM    2  C   UNL     1      -8.239  18.622  66.486  1.00  0.00    -0.301 A  
HETATM    3  C   UNL     1      -8.825  17.675  67.341  1.00  0.00    -0.235 A  
HETATM    4  C   UNL     1     -10.168  17.792  67.728  1.00  0.00    -0.362 A  
HETATM    5  C   UNL     1     -10.887  18.928  67.321  1.00  0.00    -0.448 A  
HETATM    6  C   UNL     1     -10.286  19.916  66.544  1.00  0.00    -0.611 A  
HETATM    7  C   UNL     1      -8.972  19.755  66.112  1.00  0.00    -0.387 A  
ENDROOT
BRANCH   4   8
HETATM    8  C   UNL     1     -10.847  16.658  68.493  1.00  0.00    -0.356 C  
BRANCH   8   9
HETATM    9  N   UNL     1     -11.334  15.575  67.624  1.00  0.00    -0.301 NA 
HETATM   10  C   UNL     1     -10.310  15.041  66.696  1.00  0.00    -0.278 C  
HETATM   11  C   UNL     1      -9.497  13.758  67.093  1.00  0.00    -0.244 C  
HETATM   12  N   UNL     1     -10.105  12.797  68.049  1.00  0.00    -0.224 NA 
HETATM   13  C   UNL     1     -10.822  13.615  69.052  1.00  0.00    -0.204 C  
HETATM   14  C   UNL     1     -11.910  14.492  68.425  1.00  0.00    -0.316 C  
BRANCH  12  15
HETATM   15  C   UNL     1     -11.012  11.783  67.411  1.00  0.00    -0.262 C  
BRANCH  15  16
HETATM   16  C   UNL     1     -11.157  11.957  65.897  1.00  0.00    -0.365 A  
HETATM   17  C   UNL     1     -10.111  11.505  65.058  1.00  0.00    -0.315 A  
HETATM   18  C   UNL     1     -12.310  12.468  65.313  1.00  0.00    -0.469 A  
HETATM   19  C   UNL     1     -10.244  11.542  63.669  1.00  0.00    -0.450 A  
HETATM   20  C   UNL     1     -11.411  12.039  63.101  1.00  0.00    -0.255 A  
HETATM   21  C   UNL     1     -12.437  12.513  63.921  1.00  0.00    -0.540 A  
ENDBRANCH  15  16
BRANCH  15  22
HETATM   22  C   UNL     1     -10.658  10.339  67.829  1.00  0.00    -0.296 A  
HETATM   23  C   UNL     1     -10.662   7.631  68.586  1.00  0.00    -0.059 A  
HETATM   24  C   UNL     1     -10.652   9.320  66.859  1.00  0.00    -0.239 A  
HETATM   25 CL   UNL     1     -10.838   5.982  69.051  1.00  0.00    -0.391 Cl 
HETATM   26  C   UNL     1     -10.573   8.619  69.562  1.00  0.00    -0.218 A  
HETATM   27  C   UNL     1     -10.532   9.966  69.186  1.00  0.00    -0.235 A  
HETATM   28  C   UNL     1     -10.659   7.974  67.237  1.00  0.00    -0.360 A  
ENDBRANCH  15  22
ENDBRANCH  12  15
ENDBRANCH   8   9
ENDBRANCH   4   8
TORSDOF 5
ENDMDL
MODEL       17
REMARK 921   NORMALIZED FREE ENERGY PREDICTED BY IDOCK:   -6.17 KCAL/MOL
REMARK 922        TOTAL FREE ENERGY PREDICTED BY IDOCK:   -8.68 KCAL/MOL
REMARK 923 INTER-LIGAND FREE ENERGY PREDICTED BY IDOCK:   -8.60 KCAL/MOL
REMARK 924 INTRA-LIGAND FREE ENERGY PREDICTED BY IDOCK:   -0.08 KCAL/MOL
REMARK 927      BINDING AFFINITY PREDICTED BY RF-SCORE:    0.00 PKD
ROOT
HETATM    1  C   UNL     1      -6.960   8.554  62.841  1.00  0.00    -0.090 C  
HETATM    2  C   UNL     1      -8.055   8.748  63.847  1.00  0.00    -0.165 A  
HETATM    3  C   UNL     1      -8.916   9.854  63.763  1.00  0.00    -0.279 A  
HETATM    4  C   UNL     1      -9.827  10.133  64.793  1.00  0.00    -0.382 A  
HETATM    5  C   UNL     1      -9.927   9.229  65.864  1.00  0.00    -0.289 A  
HETATM    6  C   UNL     1      -9.135   8.082  65.910  1.00  0.00    -0.159 A  
HETATM    7  C   UNL     1      -8.189   7.853  64.914  1.00  0.00    -0.128 A  
ENDROOT
BRANCH   4   8
HETATM    8  C   UNL     1     -10.616  11.440  64.785  1.00  0.00    -0.316 C  
BRANCH   8   9
HETATM    9  N   UNL     1      -9.978  12.514  65.562  1.00  0.00    -0.257 NA 
HETATM   10  C   UNL     1     -10.439  13.875  65.198  1.00  0.00    -0.393 C  
HETATM   11  C   UNL     1     -11.582  14.555  66.031  1.00  0.00    -0.356 C  
HETATM   12  N   UNL     1     -11.786  14.130  67.440  1.00  0.00    -0.396 NA 
HETATM   13  C   UNL     1     -11.559  12.668  67.464  1.00  0.00    -0.359 C  
HETATM   14  C   UNL     1     -10.151  12.285  66.998  1.00  0.00    -0.212 C  
BRANCH  12  15
HETATM   15  C   UNL     1     -10.910  14.843  68.432  1.00  0.00    -0.251 C  
BRANCH  15  16
HETATM   16  C   UNL     1     -10.276  16.122  67.881  1.00  0.00    -0.261 A  
HETATM   17  C   UNL     1      -8.888  16.130  67.607  1.00  0.00    -0.191 A  
HETATM   18  C   UNL     1     -11.027  17.249  67.566  1.00  0.00    -0.102 A  
HETATM   19  C   UNL     1      -8.286  17.235  67.003  1.00  0.00    -0.231 A  
HETATM   20  C   UNL     1      -9.054  18.346  66.677  1.00  0.00    -0.301 A  
HETATM   21  C   UNL     1     -10.420  18.359  66.969  1.00  0.00    -0.429 A  
ENDBRANCH  15  16
BRANCH  15  22
HETATM   22  C   UNL     1     -11.615  15.047  69.791  1.00  0.00    -0.336 A  
HETATM   23  C   UNL     1     -12.350  15.151  72.503  1.00  0.00    -0.370 A  
HETATM   24  C   UNL     1     -11.275  16.155  70.587  1.00  0.00    -0.371 A  
HETATM   25 CL   UNL     1     -12.652  15.134  74.198  1.00  0.00    -0.655 Cl 
HETATM   26  C   UNL     1     -12.779  14.088  71.714  1.00  0.00    -0.406 A  
HETATM   27  C   UNL     1     -12.448  14.054  70.355  1.00  0.00    -0.418 A  
HETATM   28  C   UNL     1     -11.637  16.204  71.937  1.00  0.00    -0.491 A  
ENDBRANCH  15  22
ENDBRANCH  12  15
ENDBRANCH   8   9
ENDBRANCH   4   8
TORSDOF 5
ENDMDL
MODEL       18
REMARK 921   NORMALIZED FREE ENERGY PREDICTED BY IDOCK:   -6.10 KCAL/MOL
REMARK 922        TOTAL FREE ENERGY PREDICTED BY IDOCK:   -8.59 KCAL/MOL
REMARK 923 INTER-LIGAND FREE ENERGY PREDICTED BY IDOCK:   -7.61 KCAL/MOL
REMARK 924 INTRA-LIGAND FREE ENERGY PREDICTED BY IDOCK:   -0.98 KCAL/MOL
REMARK 927      BINDING AFFINITY PREDICTED BY RF-SCORE:    0.00 PKD
ROOT
HETATM    1  C   UNL     1     -11.199   4.236  73.579  1.00  0.00    -0.361 C  
HETATM    2  C   UNL     1     -10.739   5.651  73.387  1.00  0.00    -0.313 A  
HETATM    3  C   UNL     1     -11.320   6.466  72.403  1.00  0.00    -0.324 A  
HETATM    4  C   UNL     1     -10.780   7.726  72.104  1.00  0.00    -0.302 A  
HETATM    5  C   UNL     1      -9.704   8.195  72.876  1.00  0.00    -0.340 A  
HETATM    6  C   UNL     1      -9.177   7.426  73.913  1.00  0.00    -0.312 A  
HETATM    7  C   UNL     1      -9.680   6.150  74.155  1.00  0.00    -0.222 A  
ENDROOT
BRANCH   4   8
HETATM    8  C   UNL     1     -11.296   8.516  70.905  1.00  0.00    -0.268 C  
BRANCH   8   9
HETATM    9  N   UNL     1     -10.224   9.092  70.078  1.00  0.00    -0.193 NA 
HETATM   10  C   UNL     1      -9.951   8.335  68.833  1.00  0.00    -0.186 C  
HETATM   11  C   UNL     1     -10.625   8.782  67.489  1.00  0.00    -0.228 C  
HETATM   12  N   UNL     1     -11.034  10.203  67.335  1.00  0.00    -0.276 NA 
HETATM   13  C   UNL     1     -11.555  10.624  68.654  1.00  0.00    -0.227 C  
HETATM   14  C   UNL     1     -10.510  10.494  69.767  1.00  0.00    -0.200 C  
BRANCH  12  15
HETATM   15  C   UNL     1      -9.937  11.111  66.857  1.00  0.00    -0.198 C  
BRANCH  15  16
HETATM   16  C   UNL     1      -9.066  10.497  65.759  1.00  0.00    -0.204 A  
HETATM   17  C   UNL     1      -9.639  10.268  64.486  1.00  0.00    -0.378 A  
HETATM   18  C   UNL     1      -7.714  10.229  65.942  1.00  0.00    -0.137 A  
HETATM   19  C   UNL     1      -8.857   9.812  63.423  1.00  0.00    -0.258 A  
HETATM   20  C   UNL     1      -7.503   9.568  63.618  1.00  0.00    -0.115 A  
HETATM   21  C   UNL     1      -6.935   9.763  64.879  1.00  0.00    -0.124 A  
ENDBRANCH  15  16
BRANCH  15  22
HETATM   22  C   UNL     1     -10.460  12.521  66.505  1.00  0.00    -0.258 A  
HETATM   23  C   UNL     1     -11.236  14.918  65.256  1.00  0.00    -0.369 A  
HETATM   24  C   UNL     1     -11.749  12.665  65.961  1.00  0.00    -0.470 A  
HETATM   25 CL   UNL     1     -11.649  16.319  64.344  1.00  0.00    -0.274 Cl 
HETATM   26  C   UNL     1      -9.989  14.833  65.868  1.00  0.00    -0.351 A  
HETATM   27  C   UNL     1      -9.617  13.655  66.524  1.00  0.00    -0.294 A  
HETATM   28  C   UNL     1     -12.132  13.856  65.336  1.00  0.00    -0.423 A  
ENDBRANCH  15  22
ENDBRANCH  12  15
ENDBRANCH   8   9
ENDBRANCH   4   8
TORSDOF 5
ENDMDL
MODEL       19
REMARK 921   NORMALIZED FREE ENERGY PREDICTED BY IDOCK:   -6.06 KCAL/MOL
REMARK 922        TOTAL FREE ENERGY PREDICTED BY IDOCK:   -8.53 KCAL/MOL
REMARK 923 INTER-LIGAND FREE ENERGY PREDICTED BY IDOCK:   -8.26 KCAL/MOL
REMARK 924 INTRA-LIGAND FREE ENERGY PREDICTED BY IDOCK:   -0.27 KCAL/MOL
REMARK 927      BINDING AFFINITY PREDICTED BY RF-SCORE:    0.00 PKD
ROOT
HETATM    1  C   UNL     1      -6.924   6.252  70.044  1.00  0.00    -0.066 C  
HETATM    2  C   UNL     1      -8.380   6.298  69.689  1.00  0.00    -0.125 A  
HETATM    3  C   UNL     1      -8.872   7.275  68.809  1.00  0.00    -0.127 A  
HETATM    4  C   UNL     1     -10.252   7.431  68.608  1.00  0.00    -0.203 A  
HETATM    5  C   UNL     1     -11.127   6.525  69.232  1.00  0.00    -0.393 A  
HETATM    6  C   UNL     1     -10.639   5.498  70.039  1.00  0.00    -0.384 A  
HETATM    7  C   UNL     1      -9.272   5.397  70.281  1.00  0.00    -0.185 A  
ENDROOT
BRANCH   4   8
HETATM    8  C   UNL     1     -10.781   8.617  67.807  1.00  0.00    -0.110 C  
BRANCH   8   9
HETATM    9  N   UNL     1     -10.036   9.864  68.043  1.00  0.00    -0.163 NA 
HETATM   10  C   UNL     1     -10.073  10.812  66.904  1.00  0.00    -0.212 C  
HETATM   11  C   UNL     1     -11.134  11.968  66.891  1.00  0.00    -0.302 C  
HETATM   12  N   UNL     1     -11.675  12.453  68.188  1.00  0.00    -0.341 NA 
HETATM   13  C   UNL     1     -11.828  11.254  69.041  1.00  0.00    -0.352 C  
HETATM   14  C   UNL     1     -10.503  10.520  69.266  1.00  0.00    -0.235 C  
BRANCH  12  15
HETATM   15  C   UNL     1     -10.830  13.502  68.854  1.00  0.00    -0.224 C  
BRANCH  15  16
HETATM   16  C   UNL     1     -10.205  14.499  67.875  1.00  0.00    -0.231 A  
HETATM   17  C   UNL     1      -8.798  14.648  67.863  1.00  0.00    -0.170 A  
HETATM   18  C   UNL     1     -10.961  15.202  66.944  1.00  0.00    -0.323 A  
HETATM   19  C   UNL     1      -8.175  15.462  66.914  1.00  0.00    -0.281 A  
HETATM   20  C   UNL     1      -8.944  16.143  65.979  1.00  0.00    -0.334 A  
HETATM   21  C   UNL     1     -10.335  16.024  66.001  1.00  0.00    -0.366 A  
ENDBRANCH  15  16
BRANCH  15  22
HETATM   22  C   UNL     1     -11.565  14.182  70.030  1.00  0.00    -0.315 A  
HETATM   23  C   UNL     1     -12.378  15.230  72.510  1.00  0.00    -0.369 A  
HETATM   24  C   UNL     1     -11.196  15.483  70.418  1.00  0.00    -0.356 A  
HETATM   25 CL   UNL     1     -12.732  15.802  74.095  1.00  0.00    -0.700 Cl 
HETATM   26  C   UNL     1     -12.834  13.978  72.108  1.00  0.00    -0.410 A  
HETATM   27  C   UNL     1     -12.463  13.471  70.859  1.00  0.00    -0.448 A  
HETATM   28  C   UNL     1     -11.596  16.000  71.654  1.00  0.00    -0.538 A  
ENDBRANCH  15  22
ENDBRANCH  12  15
ENDBRANCH   8   9
ENDBRANCH   4   8
TORSDOF 5
ENDMDL
MODEL       20
REMARK 921   NORMALIZED FREE ENERGY PREDICTED BY IDOCK:   -6.05 KCAL/MOL
REMARK 922        TOTAL FREE ENERGY PREDICTED BY IDOCK:   -8.52 KCAL/MOL
REMARK 923 INTER-LIGAND FREE ENERGY PREDICTED BY IDOCK:   -7.93 KCAL/MOL
REMARK 924 INTRA-LIGAND FREE ENERGY PREDICTED BY IDOCK:   -0.59 KCAL/MOL
REMARK 927      BINDING AFFINITY PREDICTED BY RF-SCORE:    0.00 PKD
ROOT
HETATM    1  C   UNL     1      -6.297  19.999  69.825  1.00  0.00    -0.389 C  
HETATM    2  C   UNL     1      -7.213  19.816  68.651  1.00  0.00    -0.358 A  
HETATM    3  C   UNL     1      -8.254  18.876  68.695  1.00  0.00    -0.380 A  
HETATM    4  C   UNL     1      -9.002  18.579  67.546  1.00  0.00    -0.286 A  
HETATM    5  C   UNL     1      -8.749  19.311  66.374  1.00  0.00    -0.362 A  
HETATM    6  C   UNL     1      -7.774  20.307  66.347  1.00  0.00    -0.262 A  
HETATM    7  C   UNL     1      -6.995  20.545  67.476  1.00  0.00    -0.370 A  
ENDROOT
BRANCH   4   8
HETATM    8  C   UNL     1      -9.995  17.420  67.556  1.00  0.00    -0.298 C  
BRANCH   8   9
HETATM    9  N   UNL     1      -9.451  16.186  68.143  1.00  0.00    -0.207 NA 
HETATM   10  C   UNL     1     -10.312  15.588  69.191  1.00  0.00    -0.237 C  
HETATM   11  C   UNL     1     -11.313  14.441  68.811  1.00  0.00    -0.273 C  
HETATM   12  N   UNL     1     -11.013  13.597  67.625  1.00  0.00    -0.263 NA 
HETATM   13  C   UNL     1     -10.439  14.508  66.610  1.00  0.00    -0.274 C  
HETATM   14  C   UNL     1      -9.163  15.201  67.098  1.00  0.00    -0.213 C  
BRANCH  12  15
HETATM   15  C   UNL     1     -10.101  12.437  67.908  1.00  0.00    -0.208 C  
BRANCH  15  16
HETATM   16  C   UNL     1     -10.666  11.448  68.930  1.00  0.00    -0.248 A  
HETATM   17  C   UNL     1      -9.787  10.522  69.538  1.00  0.00    -0.170 A  
HETATM   18  C   UNL     1     -11.994  11.479  69.340  1.00  0.00    -0.392 A  
HETATM   19  C   UNL     1     -10.233   9.675  70.554  1.00  0.00    -0.351 A  
HETATM   20  C   UNL     1     -11.559   9.732  70.966  1.00  0.00    -0.455 A  
HETATM   21  C   UNL     1     -12.442  10.623  70.352  1.00  0.00    -0.421 A  
ENDBRANCH  15  16
BRANCH  15  22
HETATM   22  C   UNL     1      -9.602  11.759  66.614  1.00  0.00    -0.219 A  
HETATM   23  C   UNL     1      -8.813   9.974  64.589  1.00  0.00    -0.200 A  
HETATM   24  C   UNL     1     -10.536  11.261  65.688  1.00  0.00    -0.303 A  
HETATM   25 CL   UNL     1      -8.361   8.753  63.462  1.00  0.00    -0.171 Cl 
HETATM   26  C   UNL     1      -7.853  10.525  65.433  1.00  0.00    -0.119 A  
HETATM   27  C   UNL     1      -8.238  11.444  66.415  1.00  0.00    -0.124 A  
HETATM   28  C   UNL     1     -10.144  10.369  64.685  1.00  0.00    -0.378 A  
ENDBRANCH  15  22
ENDBRANCH  12  15
ENDBRANCH   8   9
ENDBRANCH   4   8
TORSDOF 5
ENDMDL
MODEL       21
REMARK 921   NORMALIZED FREE ENERGY PREDICTED BY IDOCK:   -5.99 KCAL/MOL
REMARK 922        TOTAL FREE ENERGY PREDICTED BY IDOCK:   -8.45 KCAL/MOL
REMARK 923 INTER-LIGAND FREE ENERGY PREDICTED BY IDOCK:   -8.07 KCAL/MOL
REMARK 924 INTRA-LIGAND FREE ENERGY PREDICTED BY IDOCK:   -0.38 KCAL/MOL
REMARK 927      BINDING AFFINITY PREDICTED BY RF-SCORE:    0.00 PKD
ROOT
HETATM    1  C   UNL     1      -9.007   2.486  65.897  1.00  0.00    -0.122 C  
HETATM    2  C   UNL     1      -9.206   3.222  67.188  1.00  0.00    -0.214 A  
HETATM    3  C   UNL     1      -9.156   4.624  67.229  1.00  0.00    -0.132 A  
HETATM    4  C   UNL     1      -9.170   5.307  68.454  1.00  0.00    -0.135 A  
HETATM    5  C   UNL     1      -9.332   4.564  69.635  1.00  0.00    -0.221 A  
HETATM    6  C   UNL     1      -9.470   3.177  69.596  1.00  0.00    -0.191 A  
HETATM    7  C   UNL     1      -9.388   2.507  68.378  1.00  0.00    -0.259 A  
ENDROOT
BRANCH   4   8
HETATM    8  C   UNL     1      -8.917   6.812  68.496  1.00  0.00    -0.121 C  
BRANCH   8   9
HETATM    9  N   UNL     1     -10.148   7.611  68.598  1.00  0.00    -0.185 NA 
HETATM   10  C   UNL     1     -10.376   8.197  69.940  1.00  0.00    -0.214 C  
HETATM   11  C   UNL     1      -9.922   9.671  70.230  1.00  0.00    -0.270 C  
HETATM   12  N   UNL     1      -9.812  10.620  69.092  1.00  0.00    -0.212 NA 
HETATM   13  C   UNL     1      -9.270   9.839  67.958  1.00  0.00    -0.124 C  
HETATM   14  C   UNL     1     -10.169   8.659  67.575  1.00  0.00    -0.245 C  
BRANCH  12  15
HETATM   15  C   UNL     1     -11.103  11.299  68.729  1.00  0.00    -0.233 C  
BRANCH  15  16
HETATM   16  C   UNL     1     -11.822  11.928  69.925  1.00  0.00    -0.418 A  
HETATM   17  C   UNL     1     -11.842  13.338  70.041  1.00  0.00    -0.365 A  
HETATM   18  C   UNL     1     -12.523  11.169  70.855  1.00  0.00    -0.509 A  
HETATM   19  C   UNL     1     -12.577  13.959  71.053  1.00  0.00    -0.444 A  
HETATM   20  C   UNL     1     -13.287  13.187  71.963  1.00  0.00    -0.587 A  
HETATM   21  C   UNL     1     -13.251  11.794  71.873  1.00  0.00    -0.468 A  
ENDBRANCH  15  16
BRANCH  15  22
HETATM   22  C   UNL     1     -10.937  12.268  67.538  1.00  0.00    -0.298 A  
HETATM   23  C   UNL     1     -10.951  14.448  65.762  1.00  0.00    -0.314 A  
HETATM   24  C   UNL     1      -9.904  13.223  67.561  1.00  0.00    -0.220 A  
HETATM   25 CL   UNL     1     -11.053  15.868  64.793  1.00  0.00    -0.454 Cl 
HETATM   26  C   UNL     1     -11.933  13.467  65.656  1.00  0.00    -0.429 A  
HETATM   27  C   UNL     1     -11.905  12.362  66.513  1.00  0.00    -0.407 A  
HETATM   28  C   UNL     1      -9.915  14.309  66.681  1.00  0.00    -0.279 A  
ENDBRANCH  15  22
ENDBRANCH  12  15
ENDBRANCH   8   9
ENDBRANCH   4   8
TORSDOF 5
ENDMDL
MODEL       22
REMARK 921   NORMALIZED FREE ENERGY PREDICTED BY IDOCK:   -5.98 KCAL/MOL
REMARK 922        TOTAL FREE ENERGY PREDICTED BY IDOCK:   -8.44 KCAL/MOL
REMARK 923 INTER-LIGAND FREE ENERGY PREDICTED BY IDOCK:   -8.21 KCAL/MOL
REMARK 924 INTRA-LIGAND FREE ENERGY PREDICTED BY IDOCK:   -0.23 KCAL/MOL
REMARK 927      BINDING AFFINITY PREDICTED BY RF-SCORE:    0.00 PKD
ROOT
HETATM    1  C   UNL     1     -12.160  13.204  63.371  1.00  0.00    -0.558 C  
HETATM    2  C   UNL     1     -11.637  13.730  64.674  1.00  0.00    -0.396 A  
HETATM    3  C   UNL     1     -11.736  12.965  65.847  1.00  0.00    -0.449 A  
HETATM    4  C   UNL     1     -11.408  13.517  67.094  1.00  0.00    -0.346 A  
HETATM    5  C   UNL     1     -10.886  14.821  67.134  1.00  0.00    -0.311 A  
HETATM    6  C   UNL     1     -10.704  15.556  65.963  1.00  0.00    -0.331 A  
HETATM    7  C   UNL     1     -11.096  15.019  64.740  1.00  0.00    -0.388 A  
ENDROOT
BRANCH   4   8
HETATM    8  C   UNL     1     -11.705  12.745  68.377  1.00  0.00    -0.339 C  
BRANCH   8   9
HETATM    9  N   UNL     1     -12.013  11.324  68.148  1.00  0.00    -0.641 NA 
HETATM   10  C   UNL     1     -11.036  10.629  67.277  1.00  0.00    -0.284 C  
HETATM   11  C   UNL     1      -9.861   9.814  67.925  1.00  0.00    -0.149 C  
HETATM   12  N   UNL     1     -10.041   9.275  69.298  1.00  0.00    -0.192 NA 
HETATM   13  C   UNL     1     -10.789  10.307  70.049  1.00  0.00    -0.307 C  
HETATM   14  C   UNL     1     -12.153  10.616  69.422  1.00  0.00    -0.178 C  
BRANCH  12  15
HETATM   15  C   UNL     1     -10.732   7.942  69.351  1.00  0.00    -0.168 C  
BRANCH  15  16
HETATM   16  C   UNL     1     -10.207   6.938  68.322  1.00  0.00    -0.201 A  
HETATM   17  C   UNL     1      -8.860   6.516  68.409  1.00  0.00    -0.123 A  
HETATM   18  C   UNL     1     -11.026   6.366  67.355  1.00  0.00    -0.463 A  
HETATM   19  C   UNL     1      -8.367   5.521  67.562  1.00  0.00    -0.100 A  
HETATM   20  C   UNL     1      -9.204   4.947  66.614  1.00  0.00    -0.126 A  
HETATM   21  C   UNL     1     -10.528   5.377  66.501  1.00  0.00    -0.352 A  
ENDBRANCH  15  16
BRANCH  15  22
HETATM   22  C   UNL     1     -10.789   7.372  70.785  1.00  0.00    -0.257 A  
HETATM   23  C   UNL     1     -10.659   5.795  73.110  1.00  0.00    -0.244 A  
HETATM   24  C   UNL     1      -9.615   7.324  71.559  1.00  0.00    -0.164 A  
HETATM   25 CL   UNL     1     -10.528   4.700  74.432  1.00  0.00    -0.319 Cl 
HETATM   26  C   UNL     1     -11.860   5.900  72.415  1.00  0.00    -0.263 A  
HETATM   27  C   UNL     1     -11.938   6.714  71.281  1.00  0.00    -0.409 A  
HETATM   28  C   UNL     1      -9.550   6.536  72.712  1.00  0.00    -0.157 A  
ENDBRANCH  15  22
ENDBRANCH  12  15
ENDBRANCH   8   9
ENDBRANCH   4   8
TORSDOF 5
ENDMDL
MODEL       23
REMARK 921   NORMALIZED FREE ENERGY PREDICTED BY IDOCK:   -5.97 KCAL/MOL
REMARK 922        TOTAL FREE ENERGY PREDICTED BY IDOCK:   -8.42 KCAL/MOL
REMARK 923 INTER-LIGAND FREE ENERGY PREDICTED BY IDOCK:   -8.54 KCAL/MOL
REMARK 924 INTRA-LIGAND FREE ENERGY PREDICTED BY IDOCK:    0.13 KCAL/MOL
REMARK 927      BINDING AFFINITY PREDICTED BY RF-SCORE:    0.00 PKD
ROOT
HETATM    1  C   UNL     1      -9.429   3.589  68.053  1.00  0.00    -0.217 C  
HETATM    2  C   UNL     1      -9.563   4.396  69.310  1.00  0.00    -0.261 A  
HETATM    3  C   UNL     1     -10.494   5.443  69.393  1.00  0.00    -0.331 A  
HETATM    4  C   UNL     1     -10.506   6.307  70.498  1.00  0.00    -0.274 A  
HETATM    5  C   UNL     1      -9.630   6.044  71.564  1.00  0.00    -0.175 A  
HETATM    6  C   UNL     1      -8.762   4.954  71.527  1.00  0.00    -0.141 A  
HETATM    7  C   UNL     1      -8.716   4.144  70.396  1.00  0.00    -0.121 A  
ENDROOT
BRANCH   4   8
HETATM    8  C   UNL     1     -11.386   7.555  70.487  1.00  0.00    -0.260 C  
BRANCH   8   9
HETATM    9  N   UNL     1     -10.637   8.798  70.242  1.00  0.00    -0.210 NA 
HETATM   10  C   UNL     1     -10.505   9.149  68.808  1.00  0.00    -0.212 C  
HETATM   11  C   UNL     1     -11.520  10.153  68.159  1.00  0.00     0.041 C  
HETATM   12  N   UNL     1     -12.201  11.143  69.033  1.00  0.00    -0.481 NA 
HETATM   13  C   UNL     1     -12.495  10.437  70.300  1.00  0.00    -0.223 C  
HETATM   14  C   UNL     1     -11.230   9.911  70.986  1.00  0.00    -0.364 C  
BRANCH  12  15
HETATM   15  C   UNL     1     -11.413  12.401  69.271  1.00  0.00    -0.288 C  
BRANCH  15  16
HETATM   16  C   UNL     1     -10.913  13.063  67.984  1.00  0.00    -0.274 A  
HETATM   17  C   UNL     1     -11.862  13.505  67.033  1.00  0.00    -0.447 A  
HETATM   18  C   UNL     1      -9.566  13.316  67.753  1.00  0.00    -0.214 A  
HETATM   19  C   UNL     1     -11.460  14.211  65.898  1.00  0.00    -0.338 A  
HETATM   20  C   UNL     1     -10.111  14.472  65.691  1.00  0.00    -0.384 A  
HETATM   21  C   UNL     1      -9.164  14.015  66.610  1.00  0.00    -0.262 A  
ENDBRANCH  15  16
BRANCH  15  22
HETATM   22  C   UNL     1     -12.146  13.378  70.215  1.00  0.00    -0.419 A  
HETATM   23  C   UNL     1     -12.904  15.174  72.241  1.00  0.00    -0.343 A  
HETATM   24  C   UNL     1     -11.961  14.764  70.056  1.00  0.00    -0.369 A  
HETATM   25 CL   UNL     1     -13.210  16.252  73.549  1.00  0.00    -0.539 Cl 
HETATM   26  C   UNL     1     -13.184  13.818  72.383  1.00  0.00    -0.580 A  
HETATM   27  C   UNL     1     -12.843  12.929  71.359  1.00  0.00    -0.377 A  
HETATM   28  C   UNL     1     -12.334  15.656  71.066  1.00  0.00    -0.481 A  
ENDBRANCH  15  22
ENDBRANCH  12  15
ENDBRANCH   8   9
ENDBRANCH   4   8
TORSDOF 5
ENDMDL
MODEL       24
REMARK 921   NORMALIZED FREE ENERGY PREDICTED BY IDOCK:   -5.96 KCAL/MOL
REMARK 922        TOTAL FREE ENERGY PREDICTED BY IDOCK:   -8.40 KCAL/MOL
REMARK 923 INTER-LIGAND FREE ENERGY PREDICTED BY IDOCK:   -7.60 KCAL/MOL
REMARK 924 INTRA-LIGAND FREE ENERGY PREDICTED BY IDOCK:   -0.80 KCAL/MOL
REMARK 927      BINDING AFFINITY PREDICTED BY RF-SCORE:    0.00 PKD
ROOT
HETATM    1  C   UNL     1      -9.971  18.494  68.588  1.00  0.00    -0.419 C  
HETATM    2  C   UNL     1     -10.447  17.362  67.726  1.00  0.00    -0.376 A  
HETATM    3  C   UNL     1     -11.189  16.305  68.277  1.00  0.00    -0.324 A  
HETATM    4  C   UNL     1     -11.487  15.165  67.516  1.00  0.00    -0.306 A  
HETATM    5  C   UNL     1     -11.111  15.144  66.163  1.00  0.00    -0.311 A  
HETATM    6  C   UNL     1     -10.450  16.228  65.586  1.00  0.00    -0.386 A  
HETATM    7  C   UNL     1     -10.102  17.325  66.370  1.00  0.00    -0.321 A  
ENDROOT
BRANCH   4   8
HETATM    8  C   UNL     1     -12.120  13.945  68.180  1.00  0.00    -0.282 C  
BRANCH   8   9
HETATM    9  N   UNL     1     -11.177  13.170  69.002  1.00  0.00    -0.257 NA 
HETATM   10  C   UNL     1     -11.803  12.506  70.170  1.00  0.00    -0.258 C  
HETATM   11  C   UNL     1     -12.253  11.006  70.062  1.00  0.00    -0.343 C  
HETATM   12  N   UNL     1     -11.573  10.129  69.073  1.00  0.00    -0.084 NA 
HETATM   13  C   UNL     1     -11.334  10.967  67.878  1.00  0.00    -0.308 C  
HETATM   14  C   UNL     1     -10.463  12.190  68.183  1.00  0.00    -0.211 C  
BRANCH  12  15
HETATM   15  C   UNL     1     -10.302   9.505  69.575  1.00  0.00    -0.217 C  
BRANCH  15  16
HETATM   16  C   UNL     1     -10.453   8.813  70.932  1.00  0.00    -0.278 A  
HETATM   17  C   UNL     1     -11.640   8.091  71.199  1.00  0.00    -0.307 A  
HETATM   18  C   UNL     1      -9.435   8.800  71.879  1.00  0.00    -0.362 A  
HETATM   19  C   UNL     1     -11.777   7.354  72.377  1.00  0.00    -0.306 A  
HETATM   20  C   UNL     1     -10.743   7.337  73.304  1.00  0.00    -0.428 A  
HETATM   21  C   UNL     1      -9.578   8.069  73.062  1.00  0.00    -0.347 A  
ENDBRANCH  15  16
BRANCH  15  22
HETATM   22  C   UNL     1      -9.628   8.615  68.508  1.00  0.00    -0.162 A  
HETATM   23  C   UNL     1      -8.572   7.481  66.161  1.00  0.00    -0.149 A  
HETATM   24  C   UNL     1      -8.313   8.900  68.099  1.00  0.00    -0.125 A  
HETATM   25 CL   UNL     1      -7.990   6.923  64.640  1.00  0.00    -0.122 Cl 
HETATM   26  C   UNL     1      -9.842   7.110  66.594  1.00  0.00    -0.237 A  
HETATM   27  C   UNL     1     -10.353   7.643  67.782  1.00  0.00    -0.282 A  
HETATM   28  C   UNL     1      -7.791   8.339  66.929  1.00  0.00    -0.096 A  
ENDBRANCH  15  22
ENDBRANCH  12  15
ENDBRANCH   8   9
ENDBRANCH   4   8
TORSDOF 5
ENDMDL
MODEL       25
REMARK 921   NORMALIZED FREE ENERGY PREDICTED BY IDOCK:   -5.90 KCAL/MOL
REMARK 922        TOTAL FREE ENERGY PREDICTED BY IDOCK:   -8.34 KCAL/MOL
REMARK 923 INTER-LIGAND FREE ENERGY PREDICTED BY IDOCK:   -8.05 KCAL/MOL
REMARK 924 INTRA-LIGAND FREE ENERGY PREDICTED BY IDOCK:   -0.28 KCAL/MOL
REMARK 927      BINDING AFFINITY PREDICTED BY RF-SCORE:    0.00 PKD
ROOT
HETATM    1  C   UNL     1      -6.819   4.188  64.977  1.00  0.00    -0.050 C  
HETATM    2  C   UNL     1      -8.109   4.710  65.535  1.00  0.00    -0.107 A  
HETATM    3  C   UNL     1      -8.112   5.724  66.507  1.00  0.00    -0.102 A  
HETATM    4  C   UNL     1      -9.299   6.094  67.155  1.00  0.00    -0.124 A  
HETATM    5  C   UNL     1     -10.503   5.497  66.743  1.00  0.00    -0.355 A  
HETATM    6  C   UNL     1     -10.519   4.552  65.718  1.00  0.00    -0.268 A  
HETATM    7  C   UNL     1      -9.325   4.146  65.130  1.00  0.00    -0.164 A  
ENDROOT
BRANCH   4   8
HETATM    8  C   UNL     1      -9.259   7.053  68.342  1.00  0.00    -0.129 C  
BRANCH   8   9
HETATM    9  N   UNL     1     -10.465   7.886  68.464  1.00  0.00    -0.195 NA 
HETATM   10  C   UNL     1     -10.718   8.381  69.838  1.00  0.00    -0.227 C  
HETATM   11  C   UNL     1     -10.224   9.813  70.249  1.00  0.00    -0.289 C  
HETATM   12  N   UNL     1     -10.045  10.837  69.187  1.00  0.00    -0.217 NA 
HETATM   13  C   UNL     1      -9.493  10.121  68.017  1.00  0.00    -0.145 C  
HETATM   14  C   UNL     1     -10.417   9.005  67.521  1.00  0.00    -0.272 C  
BRANCH  12  15
HETATM   15  C   UNL     1     -11.300  11.586  68.836  1.00  0.00    -0.268 C  
BRANCH  15  16
HETATM   16  C   UNL     1     -11.994  12.221  70.044  1.00  0.00    -0.379 A  
HETATM   17  C   UNL     1     -12.058  13.631  70.128  1.00  0.00    -0.431 A  
HETATM   18  C   UNL     1     -12.632  11.462  71.019  1.00  0.00    -0.487 A  
HETATM   19  C   UNL     1     -12.774  14.253  71.153  1.00  0.00    -0.430 A  
HETATM   20  C   UNL     1     -13.422  13.480  72.108  1.00  0.00    -0.631 A  
HETATM   21  C   UNL     1     -13.340  12.087  72.050  1.00  0.00    -0.447 A  
ENDBRANCH  15  16
BRANCH  15  22
HETATM   22  C   UNL     1     -11.081  12.574  67.670  1.00  0.00    -0.301 A  
HETATM   23  C   UNL     1     -10.985  14.794  65.946  1.00  0.00    -0.335 A  
HETATM   24  C   UNL     1     -10.008  13.482  67.723  1.00  0.00    -0.232 A  
HETATM   25 CL   UNL     1     -11.016  16.239  65.010  1.00  0.00    -0.377 Cl 
HETATM   26  C   UNL     1     -12.008  13.860  65.809  1.00  0.00    -0.419 A  
HETATM   27  C   UNL     1     -12.036  12.735  66.640  1.00  0.00    -0.411 A  
HETATM   28  C   UNL     1      -9.964  14.588  66.869  1.00  0.00    -0.259 A  
ENDBRANCH  15  22
ENDBRANCH  12  15
ENDBRANCH   8   9
ENDBRANCH   4   8
TORSDOF 5
ENDMDL
MODEL       26
REMARK 921   NORMALIZED FREE ENERGY PREDICTED BY IDOCK:   -5.90 KCAL/MOL
REMARK 922        TOTAL FREE ENERGY PREDICTED BY IDOCK:   -8.33 KCAL/MOL
REMARK 923 INTER-LIGAND FREE ENERGY PREDICTED BY IDOCK:   -7.80 KCAL/MOL
REMARK 924 INTRA-LIGAND FREE ENERGY PREDICTED BY IDOCK:   -0.54 KCAL/MOL
REMARK 927      BINDING AFFINITY PREDICTED BY RF-SCORE:    0.00 PKD
ROOT
HETATM    1  C   UNL     1     -10.651  11.480  63.480  1.00  0.00    -0.487 C  
HETATM    2  C   UNL     1     -10.199  11.949  64.831  1.00  0.00    -0.310 A  
HETATM    3  C   UNL     1      -9.489  11.092  65.687  1.00  0.00    -0.252 A  
HETATM    4  C   UNL     1      -9.216  11.466  67.011  1.00  0.00    -0.174 A  
HETATM    5  C   UNL     1      -9.583  12.755  67.434  1.00  0.00    -0.199 A  
HETATM    6  C   UNL     1     -10.211  13.643  66.562  1.00  0.00    -0.284 A  
HETATM    7  C   UNL     1     -10.535  13.235  65.271  1.00  0.00    -0.324 A  
ENDROOT
BRANCH   4   8
HETATM    8  C   UNL     1      -8.621  10.454  67.986  1.00  0.00    -0.123 C  
BRANCH   8   9
HETATM    9  N   UNL     1      -9.483  10.181  69.147  1.00  0.00    -0.195 NA 
HETATM   10  C   UNL     1     -10.731   9.455  68.812  1.00  0.00    -0.171 C  
HETATM   11  C   UNL     1     -10.785   7.894  68.964  1.00  0.00    -0.096 C  
HETATM   12  N   UNL     1      -9.865   7.240  69.931  1.00  0.00    -0.177 NA 
HETATM   13  C   UNL     1      -8.586   7.978  69.842  1.00  0.00    -0.135 C  
HETATM   14  C   UNL     1      -8.739   9.463  70.184  1.00  0.00    -0.221 C  
BRANCH  12  15
HETATM   15  C   UNL     1     -10.382   7.197  71.341  1.00  0.00    -0.196 C  
BRANCH  15  16
HETATM   16  C   UNL     1     -11.790   7.778  71.496  1.00  0.00    -0.324 A  
HETATM   17  C   UNL     1     -12.902   6.917  71.340  1.00  0.00    -0.365 A  
HETATM   18  C   UNL     1     -12.013   9.101  71.862  1.00  0.00    -0.443 A  
HETATM   19  C   UNL     1     -14.198   7.377  71.579  1.00  0.00    -0.571 A  
HETATM   20  C   UNL     1     -14.402   8.696  71.962  1.00  0.00    -0.512 A  
HETATM   21  C   UNL     1     -13.313   9.561  72.091  1.00  0.00    -0.545 A  
ENDBRANCH  15  16
BRANCH  15  22
HETATM   22  C   UNL     1     -10.226   5.798  71.976  1.00  0.00    -0.245 A  
HETATM   23  C   UNL     1     -10.523   3.142  72.852  1.00  0.00    -0.150 A  
HETATM   24  C   UNL     1      -9.779   4.724  71.185  1.00  0.00    -0.249 A  
HETATM   25 CL   UNL     1     -10.861   1.518  73.313  1.00  0.00    -0.213 Cl 
HETATM   26  C   UNL     1     -10.887   4.189  73.693  1.00  0.00    -0.346 A  
HETATM   27  C   UNL     1     -10.704   5.512  73.275  1.00  0.00    -0.314 A  
HETATM   28  C   UNL     1      -9.932   3.404  71.620  1.00  0.00    -0.177 A  
ENDBRANCH  15  22
ENDBRANCH  12  15
ENDBRANCH   8   9
ENDBRANCH   4   8
TORSDOF 5
ENDMDL
MODEL       27
REMARK 921   NORMALIZED FREE ENERGY PREDICTED BY IDOCK:   -5.89 KCAL/MOL
REMARK 922        TOTAL FREE ENERGY PREDICTED BY IDOCK:   -8.31 KCAL/MOL
REMARK 923 INTER-LIGAND FREE ENERGY PREDICTED BY IDOCK:   -8.01 KCAL/MOL
REMARK 924 INTRA-LIGAND FREE ENERGY PREDICTED BY IDOCK:   -0.30 KCAL/MOL
REMARK 927      BINDING AFFINITY PREDICTED BY RF-SCORE:    0.00 PKD
ROOT
HETATM    1  C   UNL     1     -10.634   4.936  66.181  1.00  0.00    -0.322 C  
HETATM    2  C   UNL     1     -10.353   5.485  67.548  1.00  0.00    -0.268 A  
HETATM    3  C   UNL     1     -10.408   6.866  67.791  1.00  0.00    -0.253 A  
HETATM    4  C   UNL     1      -9.981   7.397  69.017  1.00  0.00    -0.176 A  
HETATM    5  C   UNL     1      -9.586   6.508  70.031  1.00  0.00    -0.169 A  
HETATM    6  C   UNL     1      -9.611   5.130  69.826  1.00  0.00    -0.242 A  
HETATM    7  C   UNL     1      -9.975   4.621  68.583  1.00  0.00    -0.140 A  
ENDROOT
BRANCH   4   8
HETATM    8  C   UNL     1      -9.860   8.908  69.198  1.00  0.00    -0.180 C  
BRANCH   8   9
HETATM    9  N   UNL     1      -9.961   9.660  67.937  1.00  0.00    -0.158 NA 
HETATM   10  C   UNL     1     -11.274  10.314  67.730  1.00  0.00    -0.190 C  
HETATM   11  C   UNL     1     -11.462  11.820  68.130  1.00  0.00    -0.316 C  
HETATM   12  N   UNL     1     -10.267  12.704  68.159  1.00  0.00    -0.233 NA 
HETATM   13  C   UNL     1      -9.161  11.880  68.695  1.00  0.00    -0.061 C  
HETATM   14  C   UNL     1      -8.881  10.643  67.836  1.00  0.00    -0.131 C  
BRANCH  12  15
HETATM   15  C   UNL     1      -9.913  13.306  66.828  1.00  0.00    -0.263 C  
BRANCH  15  16
HETATM   16  C   UNL     1     -10.760  12.773  65.670  1.00  0.00    -0.297 A  
HETATM   17  C   UNL     1     -12.125  13.139  65.601  1.00  0.00    -0.501 A  
HETATM   18  C   UNL     1     -10.219  12.010  64.641  1.00  0.00    -0.313 A  
HETATM   19  C   UNL     1     -12.909  12.768  64.507  1.00  0.00    -0.323 A  
HETATM   20  C   UNL     1     -12.348  12.022  63.478  1.00  0.00    -0.661 A  
HETATM   21  C   UNL     1     -11.009  11.632  63.551  1.00  0.00    -0.485 A  
ENDBRANCH  15  16
BRANCH  15  22
HETATM   22  C   UNL     1      -9.855  14.848  66.883  1.00  0.00    -0.246 A  
HETATM   23  C   UNL     1     -10.399  17.603  67.037  1.00  0.00    -0.330 A  
HETATM   24  C   UNL     1      -9.928  15.500  68.128  1.00  0.00    -0.217 A  
HETATM   25 CL   UNL     1     -10.900  19.247  67.134  1.00  0.00    -0.574 Cl 
HETATM   26  C   UNL     1     -10.239  17.001  65.792  1.00  0.00    -0.262 A  
HETATM   27  C   UNL     1      -9.930  15.639  65.715  1.00  0.00    -0.390 A  
HETATM   28  C   UNL     1     -10.204  16.868  68.203  1.00  0.00    -0.311 A  
ENDBRANCH  15  22
ENDBRANCH  12  15
ENDBRANCH   8   9
ENDBRANCH   4   8
TORSDOF 5
ENDMDL
MODEL       28
REMARK 921   NORMALIZED FREE ENERGY PREDICTED BY IDOCK:   -5.88 KCAL/MOL
REMARK 922        TOTAL FREE ENERGY PREDICTED BY IDOCK:   -8.31 KCAL/MOL
REMARK 923 INTER-LIGAND FREE ENERGY PREDICTED BY IDOCK:   -7.69 KCAL/MOL
REMARK 924 INTRA-LIGAND FREE ENERGY PREDICTED BY IDOCK:   -0.62 KCAL/MOL
REMARK 927      BINDING AFFINITY PREDICTED BY RF-SCORE:    0.00 PKD
ROOT
HETATM    1  C   UNL     1     -12.216  13.564  63.582  1.00  0.00    -0.438 C  
HETATM    2  C   UNL     1     -11.670  14.159  64.846  1.00  0.00    -0.395 A  
HETATM    3  C   UNL     1     -12.042  13.647  66.098  1.00  0.00    -0.477 A  
HETATM    4  C   UNL     1     -11.673  14.304  67.281  1.00  0.00    -0.422 A  
HETATM    5  C   UNL     1     -10.842  15.434  67.189  1.00  0.00    -0.321 A  
HETATM    6  C   UNL     1     -10.398  15.898  65.952  1.00  0.00    -0.383 A  
HETATM    7  C   UNL     1     -10.826  15.275  64.784  1.00  0.00    -0.379 A  
ENDROOT
BRANCH   4   8
HETATM    8  C   UNL     1     -12.245  13.850  68.621  1.00  0.00    -0.178 C  
BRANCH   8   9
HETATM    9  N   UNL     1     -11.318  13.015  69.402  1.00  0.00    -0.237 NA 
HETATM   10  C   UNL     1     -11.958  12.301  70.532  1.00  0.00    -0.205 C  
HETATM   11  C   UNL     1     -12.436  10.818  70.342  1.00  0.00    -0.347 C  
HETATM   12  N   UNL     1     -11.772   9.982  69.309  1.00  0.00     0.004 NA 
HETATM   13  C   UNL     1     -11.515  10.879  68.160  1.00  0.00    -0.295 C  
HETATM   14  C   UNL     1     -10.621  12.067  68.531  1.00  0.00    -0.231 C  
BRANCH  12  15
HETATM   15  C   UNL     1     -10.513   9.308  69.777  1.00  0.00    -0.222 C  
BRANCH  15  16
HETATM   16  C   UNL     1     -10.712   8.430  71.015  1.00  0.00    -0.267 A  
HETATM   17  C   UNL     1     -11.598   7.331  70.934  1.00  0.00    -0.331 A  
HETATM   18  C   UNL     1      -9.995   8.627  72.190  1.00  0.00    -0.386 A  
HETATM   19  C   UNL     1     -11.729   6.439  72.000  1.00  0.00    -0.376 A  
HETATM   20  C   UNL     1     -10.991   6.639  73.160  1.00  0.00    -0.263 A  
HETATM   21  C   UNL     1     -10.134   7.738  73.260  1.00  0.00    -0.374 A  
ENDBRANCH  15  16
BRANCH  15  22
HETATM   22  C   UNL     1      -9.777   8.585  68.628  1.00  0.00    -0.171 A  
HETATM   23  C   UNL     1      -8.617   7.794  66.192  1.00  0.00    -0.151 A  
HETATM   24  C   UNL     1      -8.465   8.969  68.297  1.00  0.00    -0.129 A  
HETATM   25 CL   UNL     1      -7.975   7.453  64.631  1.00  0.00    -0.135 Cl 
HETATM   26  C   UNL     1      -9.880   7.324  66.538  1.00  0.00    -0.202 A  
HETATM   27  C   UNL     1     -10.442   7.684  67.767  1.00  0.00    -0.282 A  
HETATM   28  C   UNL     1      -7.891   8.579  67.083  1.00  0.00    -0.097 A  
ENDBRANCH  15  22
ENDBRANCH  12  15
ENDBRANCH   8   9
ENDBRANCH   4   8
TORSDOF 5
ENDMDL
MODEL       29
REMARK 921   NORMALIZED FREE ENERGY PREDICTED BY IDOCK:   -5.86 KCAL/MOL
REMARK 922        TOTAL FREE ENERGY PREDICTED BY IDOCK:   -8.28 KCAL/MOL
REMARK 923 INTER-LIGAND FREE ENERGY PREDICTED BY IDOCK:   -7.39 KCAL/MOL
REMARK 924 INTRA-LIGAND FREE ENERGY PREDICTED BY IDOCK:   -0.90 KCAL/MOL
REMARK 927      BINDING AFFINITY PREDICTED BY RF-SCORE:    0.00 PKD
ROOT
HETATM    1  C   UNL     1     -10.886  16.287  65.290  1.00  0.00    -0.310 C  
HETATM    2  C   UNL     1     -11.118  14.836  64.990  1.00  0.00    -0.412 A  
HETATM    3  C   UNL     1     -10.367  13.842  65.636  1.00  0.00    -0.321 A  
HETATM    4  C   UNL     1     -10.458  12.500  65.237  1.00  0.00    -0.313 A  
HETATM    5  C   UNL     1     -11.388  12.158  64.242  1.00  0.00    -0.426 A  
HETATM    6  C   UNL     1     -12.200  13.128  63.656  1.00  0.00    -0.553 A  
HETATM    7  C   UNL     1     -12.052  14.465  64.016  1.00  0.00    -0.312 A  
ENDROOT
BRANCH   4   8
HETATM    8  C   UNL     1      -9.496  11.462  65.810  1.00  0.00    -0.233 C  
BRANCH   8   9
HETATM    9  N   UNL     1     -10.117  10.147  66.032  1.00  0.00    -0.255 NA 
HETATM   10  C   UNL     1      -9.183   9.006  65.875  1.00  0.00    -0.230 C  
HETATM   11  C   UNL     1      -8.483   8.397  67.140  1.00  0.00    -0.123 C  
HETATM   12  N   UNL     1      -9.145   8.547  68.462  1.00  0.00    -0.136 NA 
HETATM   13  C   UNL     1      -9.742   9.900  68.470  1.00  0.00    -0.154 C  
HETATM   14  C   UNL     1     -10.764  10.097  67.344  1.00  0.00    -0.277 C  
BRANCH  12  15
HETATM   15  C   UNL     1     -10.168   7.488  68.762  1.00  0.00    -0.197 C  
BRANCH  15  16
HETATM   16  C   UNL     1      -9.940   6.181  67.998  1.00  0.00    -0.156 A  
HETATM   17  C   UNL     1     -10.728   5.918  66.852  1.00  0.00    -0.395 A  
HETATM   18  C   UNL     1      -8.937   5.283  68.341  1.00  0.00    -0.116 A  
HETATM   19  C   UNL     1     -10.483   4.795  66.061  1.00  0.00    -0.332 A  
HETATM   20  C   UNL     1      -9.463   3.916  66.407  1.00  0.00    -0.204 A  
HETATM   21  C   UNL     1      -8.700   4.153  67.553  1.00  0.00    -0.117 A  
ENDBRANCH  15  16
BRANCH  15  22
HETATM   22  C   UNL     1     -10.363   7.281  70.280  1.00  0.00    -0.219 A  
HETATM   23  C   UNL     1     -10.366   6.364  72.939  1.00  0.00    -0.208 A  
HETATM   24  C   UNL     1      -9.331   7.639  71.166  1.00  0.00    -0.161 A  
HETATM   25 CL   UNL     1     -10.282   5.664  74.509  1.00  0.00    -0.288 Cl 
HETATM   26  C   UNL     1     -11.445   6.074  72.109  1.00  0.00    -0.356 A  
HETATM   27  C   UNL     1     -11.464   6.562  70.799  1.00  0.00    -0.419 A  
HETATM   28  C   UNL     1      -9.331   7.178  72.487  1.00  0.00    -0.161 A  
ENDBRANCH  15  22
ENDBRANCH  12  15
ENDBRANCH   8   9
ENDBRANCH   4   8
TORSDOF 5
ENDMDL
MODEL       30
REMARK 921   NORMALIZED FREE ENERGY PREDICTED BY IDOCK:   -5.84 KCAL/MOL
REMARK 922        TOTAL FREE ENERGY PREDICTED BY IDOCK:   -8.26 KCAL/MOL
REMARK 923 INTER-LIGAND FREE ENERGY PREDICTED BY IDOCK:   -8.35 KCAL/MOL
REMARK 924 INTRA-LIGAND FREE ENERGY PREDICTED BY IDOCK:    0.09 KCAL/MOL
REMARK 927      BINDING AFFINITY PREDICTED BY RF-SCORE:    0.00 PKD
ROOT
HETATM    1  C   UNL     1     -14.404  13.271  72.539  1.00  0.00    -0.092 C  
HETATM    2  C   UNL     1     -13.493  14.389  72.126  1.00  0.00    -0.507 A  
HETATM    3  C   UNL     1     -13.191  14.605  70.773  1.00  0.00    -0.333 A  
HETATM    4  C   UNL     1     -12.210  15.534  70.395  1.00  0.00    -0.443 A  
HETATM    5  C   UNL     1     -11.604  16.313  71.395  1.00  0.00    -0.424 A  
HETATM    6  C   UNL     1     -11.962  16.165  72.734  1.00  0.00    -0.638 A  
HETATM    7  C   UNL     1     -12.889  15.193  73.100  1.00  0.00    -0.606 A  
ENDROOT
BRANCH   4   8
HETATM    8  C   UNL     1     -11.753  15.618  68.941  1.00  0.00    -0.384 C  
BRANCH   8   9
HETATM    9  N   UNL     1     -12.007  14.389  68.174  1.00  0.00    -0.316 NA 
HETATM   10  C   UNL     1     -11.708  14.509  66.727  1.00  0.00    -0.377 C  
HETATM   11  C   UNL     1     -10.315  14.036  66.181  1.00  0.00    -0.297 C  
HETATM   12  N   UNL     1      -9.569  12.997  66.938  1.00  0.00    -0.236 NA 
HETATM   13  C   UNL     1      -9.792  13.294  68.370  1.00  0.00    -0.218 C  
HETATM   14  C   UNL     1     -11.275  13.260  68.752  1.00  0.00    -0.276 C  
BRANCH  12  15
HETATM   15  C   UNL     1      -9.960  11.586  66.598  1.00  0.00    -0.207 C  
BRANCH  15  16
HETATM   16  C   UNL     1      -9.458  11.125  65.227  1.00  0.00    -0.257 A  
HETATM   17  C   UNL     1      -8.252  10.388  65.158  1.00  0.00    -0.158 A  
HETATM   18  C   UNL     1     -10.183  11.334  64.059  1.00  0.00    -0.403 A  
HETATM   19  C   UNL     1      -7.812   9.852  63.946  1.00  0.00    -0.148 A  
HETATM   20  C   UNL     1      -8.558  10.054  62.791  1.00  0.00    -0.196 A  
HETATM   21  C   UNL     1      -9.735  10.805  62.845  1.00  0.00    -0.337 A  
ENDBRANCH  15  16
BRANCH  15  22
HETATM   22  C   UNL     1      -9.624  10.598  67.735  1.00  0.00    -0.172 A  
HETATM   23  C   UNL     1      -9.299   9.250  70.182  1.00  0.00    -0.228 A  
HETATM   24  C   UNL     1     -10.623   9.736  68.221  1.00  0.00    -0.271 A  
HETATM   25 CL   UNL     1      -9.172   8.563  71.756  1.00  0.00    -0.289 Cl 
HETATM   26  C   UNL     1      -8.258  10.023  69.678  1.00  0.00    -0.185 A  
HETATM   27  C   UNL     1      -8.402  10.663  68.443  1.00  0.00    -0.127 A  
HETATM   28  C   UNL     1     -10.463   9.070  69.440  1.00  0.00    -0.229 A  
ENDBRANCH  15  22
ENDBRANCH  12  15
ENDBRANCH   8   9
ENDBRANCH   4   8
TORSDOF 5
ENDMDL
MODEL       31
REMARK 921   NORMALIZED FREE ENERGY PREDICTED BY IDOCK:   -5.83 KCAL/MOL
REMARK 922        TOTAL FREE ENERGY PREDICTED BY IDOCK:   -8.24 KCAL/MOL
REMARK 923 INTER-LIGAND FREE ENERGY PREDICTED BY IDOCK:   -7.88 KCAL/MOL
REMARK 924 INTRA-LIGAND FREE ENERGY PREDICTED BY IDOCK:   -0.36 KCAL/MOL
REMARK 927      BINDING AFFINITY PREDICTED BY RF-SCORE:    0.00 PKD
ROOT
HETATM    1  C   UNL     1     -14.231  14.374  72.024  1.00  0.00    -0.639 C  
HETATM    2  C   UNL     1     -13.134  14.238  71.011  1.00  0.00    -0.394 A  
HETATM    3  C   UNL     1     -12.637  15.364  70.337  1.00  0.00    -0.433 A  
HETATM    4  C   UNL     1     -11.737  15.224  69.270  1.00  0.00    -0.359 A  
HETATM    5  C   UNL     1     -11.270  13.937  68.952  1.00  0.00    -0.304 A  
HETATM    6  C   UNL     1     -11.693  12.822  69.674  1.00  0.00    -0.372 A  
HETATM    7  C   UNL     1     -12.636  12.970  70.687  1.00  0.00    -0.270 A  
ENDROOT
BRANCH   4   8
HETATM    8  C   UNL     1     -11.358  16.434  68.422  1.00  0.00    -0.268 C  
BRANCH   8   9
HETATM    9  N   UNL     1     -10.008  16.344  67.841  1.00  0.00    -0.239 NA 
HETATM   10  C   UNL     1      -9.931  16.783  66.428  1.00  0.00    -0.304 C  
HETATM   11  C   UNL     1      -9.495  18.253  66.095  1.00  0.00    -0.155 C  
HETATM   12  N   UNL     1      -8.649  18.984  67.074  1.00  0.00    -0.285 NA 
HETATM   13  C   UNL     1      -9.142  18.594  68.413  1.00  0.00    -0.324 C  
HETATM   14  C   UNL     1      -9.045  17.085  68.657  1.00  0.00    -0.271 C  
BRANCH  12  15
HETATM   15  C   UNL     1      -7.176  18.725  66.929  1.00  0.00    -0.212 C  
BRANCH  15  16
HETATM   16  C   UNL     1      -6.591  19.233  65.608  1.00  0.00    -0.287 A  
HETATM   17  C   UNL     1      -6.807  20.583  65.244  1.00  0.00    -0.234 A  
HETATM   18  C   UNL     1      -5.790  18.440  64.795  1.00  0.00    -0.099 A  
HETATM   19  C   UNL     1      -6.202  21.120  64.106  1.00  0.00    -0.281 A  
HETATM   20  C   UNL     1      -5.390  20.319  63.314  1.00  0.00    -0.258 A  
HETATM   21  C   UNL     1      -5.194  18.978  63.650  1.00  0.00    -0.280 A  
ENDBRANCH  15  16
BRANCH  15  22
HETATM   22  C   UNL     1      -6.378  19.188  68.167  1.00  0.00    -0.238 A  
HETATM   23  C   UNL     1      -5.512  20.012  70.712  1.00  0.00    -0.270 A  
HETATM   24  C   UNL     1      -6.005  18.244  69.142  1.00  0.00    -0.225 A  
HETATM   25 CL   UNL     1      -5.148  20.514  72.319  1.00  0.00    -0.088 Cl 
HETATM   26  C   UNL     1      -5.785  20.965  69.736  1.00  0.00    -0.213 A  
HETATM   27  C   UNL     1      -6.178  20.556  68.457  1.00  0.00    -0.357 A  
HETATM   28  C   UNL     1      -5.579  18.656  70.409  1.00  0.00    -0.219 A  
ENDBRANCH  15  22
ENDBRANCH  12  15
ENDBRANCH   8   9
ENDBRANCH   4   8
TORSDOF 5
ENDMDL
MODEL       32
REMARK 921   NORMALIZED FREE ENERGY PREDICTED BY IDOCK:   -5.83 KCAL/MOL
REMARK 922        TOTAL FREE ENERGY PREDICTED BY IDOCK:   -8.24 KCAL/MOL
REMARK 923 INTER-LIGAND FREE ENERGY PREDICTED BY IDOCK:   -7.38 KCAL/MOL
REMARK 924 INTRA-LIGAND FREE ENERGY PREDICTED BY IDOCK:   -0.86 KCAL/MOL
REMARK 927      BINDING AFFINITY PREDICTED BY RF-SCORE:    0.00 PKD
ROOT
HETATM    1  C   UNL     1     -11.265   3.730  73.386  1.00  0.00    -0.280 C  
HETATM    2  C   UNL     1     -10.943   5.190  73.262  1.00  0.00    -0.375 A  
HETATM    3  C   UNL     1     -11.462   5.950  72.202  1.00  0.00    -0.333 A  
HETATM    4  C   UNL     1     -11.029   7.266  71.983  1.00  0.00    -0.271 A  
HETATM    5  C   UNL     1     -10.137   7.840  72.905  1.00  0.00    -0.363 A  
HETATM    6  C   UNL     1      -9.685   7.120  74.009  1.00  0.00    -0.314 A  
HETATM    7  C   UNL     1     -10.072   5.793  74.177  1.00  0.00    -0.264 A  
ENDROOT
BRANCH   4   8
HETATM    8  C   UNL     1     -11.448   8.012  70.720  1.00  0.00    -0.263 C  
BRANCH   8   9
HETATM    9  N   UNL     1     -10.319   8.611  69.990  1.00  0.00    -0.201 NA 
HETATM   10  C   UNL     1     -10.050   7.980  68.676  1.00  0.00    -0.199 C  
HETATM   11  C   UNL     1     -10.653   8.613  67.373  1.00  0.00    -0.228 C  
HETATM   12  N   UNL     1     -10.975  10.064  67.370  1.00  0.00    -0.256 NA 
HETATM   13  C   UNL     1     -11.514  10.368  68.714  1.00  0.00    -0.175 C  
HETATM   14  C   UNL     1     -10.514  10.053  69.832  1.00  0.00    -0.274 C  
BRANCH  12  15
HETATM   15  C   UNL     1      -9.813  10.953  67.026  1.00  0.00    -0.183 C  
BRANCH  15  16
HETATM   16  C   UNL     1      -9.189  10.645  65.662  1.00  0.00    -0.227 A  
HETATM   17  C   UNL     1      -7.814  10.317  65.602  1.00  0.00    -0.151 A  
HETATM   18  C   UNL     1      -9.940  10.599  64.493  1.00  0.00    -0.410 A  
HETATM   19  C   UNL     1      -7.227   9.923  64.399  1.00  0.00    -0.134 A  
HETATM   20  C   UNL     1      -7.996   9.864  63.243  1.00  0.00    -0.151 A  
HETATM   21  C   UNL     1      -9.347  10.213  63.287  1.00  0.00    -0.332 A  
ENDBRANCH  15  16
BRANCH  15  22
HETATM   22  C   UNL     1     -10.144  12.448  67.222  1.00  0.00    -0.214 A  
HETATM   23  C   UNL     1     -11.032  14.958  68.128  1.00  0.00    -0.272 A  
HETATM   24  C   UNL     1      -9.348  13.226  68.083  1.00  0.00    -0.220 A  
HETATM   25 CL   UNL     1     -11.651  16.411  68.815  1.00  0.00    -0.245 Cl 
HETATM   26  C   UNL     1     -11.794  14.250  67.204  1.00  0.00    -0.454 A  
HETATM   27  C   UNL     1     -11.336  13.020  66.722  1.00  0.00    -0.365 A  
HETATM   28  C   UNL     1      -9.793  14.472  68.537  1.00  0.00    -0.231 A  
ENDBRANCH  15  22
ENDBRANCH  12  15
ENDBRANCH   8   9
ENDBRANCH   4   8
TORSDOF 5
ENDMDL
MODEL       33
REMARK 921   NORMALIZED FREE ENERGY PREDICTED BY IDOCK:   -5.82 KCAL/MOL
REMARK 922        TOTAL FREE ENERGY PREDICTED BY IDOCK:   -8.23 KCAL/MOL
REMARK 923 INTER-LIGAND FREE ENERGY PREDICTED BY IDOCK:   -7.79 KCAL/MOL
REMARK 924 INTRA-LIGAND FREE ENERGY PREDICTED BY IDOCK:   -0.44 KCAL/MOL
REMARK 927      BINDING AFFINITY PREDICTED BY RF-SCORE:    0.00 PKD
ROOT
HETATM    1  C   UNL     1      -9.318   2.404  70.953  1.00  0.00    -0.213 C  
HETATM    2  C   UNL     1      -9.150   3.158  69.668  1.00  0.00    -0.204 A  
HETATM    3  C   UNL     1      -8.796   4.517  69.675  1.00  0.00    -0.125 A  
HETATM    4  C   UNL     1      -8.806   5.268  68.491  1.00  0.00    -0.102 A  
HETATM    5  C   UNL     1      -9.084   4.609  67.281  1.00  0.00    -0.132 A  
HETATM    6  C   UNL     1      -9.351   3.241  67.255  1.00  0.00    -0.229 A  
HETATM    7  C   UNL     1      -9.403   2.522  68.446  1.00  0.00    -0.259 A  
ENDROOT
BRANCH   4   8
HETATM    8  C   UNL     1      -8.613   6.781  68.540  1.00  0.00    -0.125 C  
BRANCH   8   9
HETATM    9  N   UNL     1      -9.876   7.531  68.620  1.00  0.00    -0.162 NA 
HETATM   10  C   UNL     1     -10.149   8.109  69.957  1.00  0.00    -0.196 C  
HETATM   11  C   UNL     1      -9.758   9.600  70.252  1.00  0.00    -0.259 C  
HETATM   12  N   UNL     1      -9.667  10.551  69.114  1.00  0.00    -0.212 NA 
HETATM   13  C   UNL     1      -9.076   9.791  67.991  1.00  0.00    -0.125 C  
HETATM   14  C   UNL     1      -9.921   8.576  67.595  1.00  0.00    -0.198 C  
BRANCH  12  15
HETATM   15  C   UNL     1     -10.977  11.179  68.729  1.00  0.00    -0.219 C  
BRANCH  15  16
HETATM   16  C   UNL     1     -11.749  11.763  69.914  1.00  0.00    -0.399 A  
HETATM   17  C   UNL     1     -11.793  13.169  70.070  1.00  0.00    -0.360 A  
HETATM   18  C   UNL     1     -12.474  10.969  70.796  1.00  0.00    -0.491 A  
HETATM   19  C   UNL     1     -12.574  13.751  71.070  1.00  0.00    -0.446 A  
HETATM   20  C   UNL     1     -13.306  12.944  71.931  1.00  0.00    -0.530 A  
HETATM   21  C   UNL     1     -13.247  11.554  71.803  1.00  0.00    -0.456 A  
ENDBRANCH  15  16
BRANCH  15  22
HETATM   22  C   UNL     1     -10.827  12.166  67.551  1.00  0.00    -0.283 A  
HETATM   23  C   UNL     1     -10.840  14.383  65.821  1.00  0.00    -0.307 A  
HETATM   24  C   UNL     1      -9.763  13.088  67.552  1.00  0.00    -0.206 A  
HETATM   25 CL   UNL     1     -10.933  15.826  64.885  1.00  0.00    -0.463 Cl 
HETATM   26  C   UNL     1     -11.856  13.436  65.735  1.00  0.00    -0.412 A  
HETATM   27  C   UNL     1     -11.831  12.313  66.568  1.00  0.00    -0.378 A  
HETATM   28  C   UNL     1      -9.774  14.192  66.695  1.00  0.00    -0.297 A  
ENDBRANCH  15  22
ENDBRANCH  12  15
ENDBRANCH   8   9
ENDBRANCH   4   8
TORSDOF 5
ENDMDL
MODEL       34
REMARK 921   NORMALIZED FREE ENERGY PREDICTED BY IDOCK:   -5.82 KCAL/MOL
REMARK 922        TOTAL FREE ENERGY PREDICTED BY IDOCK:   -8.23 KCAL/MOL
REMARK 923 INTER-LIGAND FREE ENERGY PREDICTED BY IDOCK:   -7.69 KCAL/MOL
REMARK 924 INTRA-LIGAND FREE ENERGY PREDICTED BY IDOCK:   -0.54 KCAL/MOL
REMARK 927      BINDING AFFINITY PREDICTED BY RF-SCORE:    0.00 PKD
ROOT
HETATM    1  C   UNL     1     -11.025   6.406  68.380  1.00  0.00    -0.390 C  
HETATM    2  C   UNL     1     -10.232   7.281  67.454  1.00  0.00    -0.304 A  
HETATM    3  C   UNL     1     -10.531   8.647  67.329  1.00  0.00    -0.360 A  
HETATM    4  C   UNL     1      -9.911   9.429  66.344  1.00  0.00    -0.346 A  
HETATM    5  C   UNL     1      -8.915   8.840  65.547  1.00  0.00    -0.231 A  
HETATM    6  C   UNL     1      -8.552   7.506  65.724  1.00  0.00    -0.158 A  
HETATM    7  C   UNL     1      -9.222   6.724  66.661  1.00  0.00    -0.184 A  
ENDROOT
BRANCH   4   8
HETATM    8  C   UNL     1     -10.385  10.858  66.088  1.00  0.00    -0.248 C  
BRANCH   8   9
HETATM    9  N   UNL     1      -9.667  11.865  66.887  1.00  0.00    -0.198 NA 
HETATM   10  C   UNL     1      -9.339  13.103  66.140  1.00  0.00    -0.072 C  
HETATM   11  C   UNL     1     -10.292  14.345  66.241  1.00  0.00    -0.295 C  
HETATM   12  N   UNL     1     -11.142  14.495  67.451  1.00  0.00    -0.303 NA 
HETATM   13  C   UNL     1     -11.588  13.130  67.810  1.00  0.00    -0.337 C  
HETATM   14  C   UNL     1     -10.417  12.188  68.103  1.00  0.00    -0.211 C  
BRANCH  12  15
HETATM   15  C   UNL     1     -10.459  15.174  68.604  1.00  0.00    -0.234 C  
BRANCH  15  16
HETATM   16  C   UNL     1      -9.986  16.595  68.285  1.00  0.00    -0.261 A  
HETATM   17  C   UNL     1      -8.636  16.935  68.538  1.00  0.00    -0.251 A  
HETATM   18  C   UNL     1     -10.812  17.537  67.684  1.00  0.00    -0.229 A  
HETATM   19  C   UNL     1      -8.132  18.182  68.162  1.00  0.00    -0.289 A  
HETATM   20  C   UNL     1      -8.967  19.105  67.545  1.00  0.00    -0.332 A  
HETATM   21  C   UNL     1     -10.308  18.789  67.318  1.00  0.00    -0.469 A  
ENDBRANCH  15  16
BRANCH  15  22
HETATM   22  C   UNL     1     -11.283  15.083  69.906  1.00  0.00    -0.303 A  
HETATM   23  C   UNL     1     -12.856  15.562  72.188  1.00  0.00    -0.408 A  
HETATM   24  C   UNL     1     -12.688  15.042  69.835  1.00  0.00    -0.125 A  
HETATM   25 CL   UNL     1     -13.813  16.022  73.543  1.00  0.00    -0.145 Cl 
HETATM   26  C   UNL     1     -11.470  15.515  72.305  1.00  0.00    -0.496 A  
HETATM   27  C   UNL     1     -10.688  15.238  71.179  1.00  0.00     0.008 A  
HETATM   28  C   UNL     1     -13.468  15.285  70.969  1.00  0.00    -0.516 A  
ENDBRANCH  15  22
ENDBRANCH  12  15
ENDBRANCH   8   9
ENDBRANCH   4   8
TORSDOF 5
ENDMDL
MODEL       35
REMARK 921   NORMALIZED FREE ENERGY PREDICTED BY IDOCK:   -5.82 KCAL/MOL
REMARK 922        TOTAL FREE ENERGY PREDICTED BY IDOCK:   -8.23 KCAL/MOL
REMARK 923 INTER-LIGAND FREE ENERGY PREDICTED BY IDOCK:   -8.01 KCAL/MOL
REMARK 924 INTRA-LIGAND FREE ENERGY PREDICTED BY IDOCK:   -0.22 KCAL/MOL
REMARK 927      BINDING AFFINITY PREDICTED BY RF-SCORE:    0.00 PKD
ROOT
HETATM    1  C   UNL     1      -9.982  20.067  66.203  1.00  0.00    -0.580 C  
HETATM    2  C   UNL     1      -9.644  18.893  67.073  1.00  0.00    -0.348 A  
HETATM    3  C   UNL     1     -10.560  17.845  67.249  1.00  0.00    -0.341 A  
HETATM    4  C   UNL     1     -10.321  16.834  68.192  1.00  0.00    -0.318 A  
HETATM    5  C   UNL     1      -9.100  16.840  68.887  1.00  0.00    -0.230 A  
HETATM    6  C   UNL     1      -8.148  17.831  68.654  1.00  0.00    -0.277 A  
HETATM    7  C   UNL     1      -8.427  18.864  67.764  1.00  0.00    -0.310 A  
ENDROOT
BRANCH   4   8
HETATM    8  C   UNL     1     -11.409  15.813  68.514  1.00  0.00    -0.374 C  
BRANCH   8   9
HETATM    9  N   UNL     1     -11.564  14.775  67.482  1.00  0.00    -0.358 NA 
HETATM   10  C   UNL     1     -10.315  14.466  66.747  1.00  0.00    -0.273 C  
HETATM   11  C   UNL     1      -9.426  13.256  67.203  1.00  0.00    -0.240 C  
HETATM   12  N   UNL     1     -10.070  12.135  67.935  1.00  0.00    -0.192 NA 
HETATM   13  C   UNL     1     -11.075  12.753  68.828  1.00  0.00    -0.260 C  
HETATM   14  C   UNL     1     -12.130  13.555  68.060  1.00  0.00    -0.262 C  
BRANCH  12  15
HETATM   15  C   UNL     1     -10.687  11.092  67.046  1.00  0.00    -0.270 C  
BRANCH  15  16
HETATM   16  C   UNL     1     -10.046  11.013  65.658  1.00  0.00    -0.310 A  
HETATM   17  C   UNL     1      -8.753  10.453  65.537  1.00  0.00    -0.190 A  
HETATM   18  C   UNL     1     -10.720  11.397  64.505  1.00  0.00    -0.391 A  
HETATM   19  C   UNL     1      -8.174  10.259  64.282  1.00  0.00    -0.157 A  
HETATM   20  C   UNL     1      -8.868  10.632  63.138  1.00  0.00    -0.216 A  
HETATM   21  C   UNL     1     -10.134  11.212  63.249  1.00  0.00    -0.426 A  
ENDBRANCH  15  16
BRANCH  15  22
HETATM   22  C   UNL     1     -10.797   9.720  67.747  1.00  0.00    -0.306 A  
HETATM   23  C   UNL     1     -10.346   7.275  69.061  1.00  0.00    -0.205 A  
HETATM   24  C   UNL     1     -10.752   9.654  69.151  1.00  0.00    -0.237 A  
HETATM   25 CL   UNL     1      -9.901   5.812  69.853  1.00  0.00    -0.217 Cl 
HETATM   26  C   UNL     1     -10.480   7.298  67.675  1.00  0.00    -0.310 A  
HETATM   27  C   UNL     1     -10.743   8.507  67.024  1.00  0.00    -0.190 A  
HETATM   28  C   UNL     1     -10.523   8.439  69.803  1.00  0.00    -0.220 A  
ENDBRANCH  15  22
ENDBRANCH  12  15
ENDBRANCH   8   9
ENDBRANCH   4   8
TORSDOF 5
ENDMDL
MODEL       36
REMARK 921   NORMALIZED FREE ENERGY PREDICTED BY IDOCK:   -5.81 KCAL/MOL
REMARK 922        TOTAL FREE ENERGY PREDICTED BY IDOCK:   -8.22 KCAL/MOL
REMARK 923 INTER-LIGAND FREE ENERGY PREDICTED BY IDOCK:   -7.31 KCAL/MOL
REMARK 924 INTRA-LIGAND FREE ENERGY PREDICTED BY IDOCK:   -0.92 KCAL/MOL
REMARK 927      BINDING AFFINITY PREDICTED BY RF-SCORE:    0.00 PKD
ROOT
HETATM    1  C   UNL     1      -8.094   8.216  74.543  1.00  0.00    -0.265 C  
HETATM    2  C   UNL     1      -9.160   7.585  73.696  1.00  0.00    -0.305 A  
HETATM    3  C   UNL     1      -9.520   8.147  72.461  1.00  0.00    -0.339 A  
HETATM    4  C   UNL     1     -10.627   7.664  71.749  1.00  0.00    -0.250 A  
HETATM    5  C   UNL     1     -11.311   6.544  72.251  1.00  0.00    -0.318 A  
HETATM    6  C   UNL     1     -10.906   5.927  73.433  1.00  0.00    -0.275 A  
HETATM    7  C   UNL     1      -9.845   6.457  74.163  1.00  0.00    -0.296 A  
ENDROOT
BRANCH   4   8
HETATM    8  C   UNL     1     -11.126   8.406  70.511  1.00  0.00    -0.252 C  
BRANCH   8   9
HETATM    9  N   UNL     1     -10.042   8.942  69.673  1.00  0.00    -0.194 NA 
HETATM   10  C   UNL     1      -9.962   8.326  68.327  1.00  0.00    -0.191 C  
HETATM   11  C   UNL     1     -10.656   9.031  67.108  1.00  0.00    -0.220 C  
HETATM   12  N   UNL     1     -10.872  10.500  67.164  1.00  0.00    -0.278 NA 
HETATM   13  C   UNL     1     -11.239  10.808  68.564  1.00  0.00    -0.279 C  
HETATM   14  C   UNL     1     -10.150  10.398  69.560  1.00  0.00    -0.219 C  
BRANCH  12  15
HETATM   15  C   UNL     1      -9.693  11.314  66.710  1.00  0.00    -0.193 C  
BRANCH  15  16
HETATM   16  C   UNL     1      -9.152  10.897  65.340  1.00  0.00    -0.218 A  
HETATM   17  C   UNL     1      -7.815  10.444  65.246  1.00  0.00    -0.137 A  
HETATM   18  C   UNL     1      -9.949  10.872  64.201  1.00  0.00    -0.403 A  
HETATM   19  C   UNL     1      -7.312   9.950  64.041  1.00  0.00    -0.132 A  
HETATM   20  C   UNL     1      -8.127   9.915  62.917  1.00  0.00    -0.140 A  
HETATM   21  C   UNL     1      -9.439  10.387  62.992  1.00  0.00    -0.362 A  
ENDBRANCH  15  16
BRANCH  15  22
HETATM   22  C   UNL     1      -9.952  12.832  66.827  1.00  0.00    -0.237 A  
HETATM   23  C   UNL     1     -10.267  15.594  66.407  1.00  0.00    -0.290 A  
HETATM   24  C   UNL     1     -11.183  13.359  66.396  1.00  0.00    -0.323 A  
HETATM   25 CL   UNL     1     -10.406  17.259  65.987  1.00  0.00    -0.349 Cl 
HETATM   26  C   UNL     1      -9.070  15.109  66.923  1.00  0.00    -0.270 A  
HETATM   27  C   UNL     1      -8.925  13.739  67.170  1.00  0.00    -0.241 A  
HETATM   28  C   UNL     1     -11.337  14.733  66.183  1.00  0.00    -0.330 A  
ENDBRANCH  15  22
ENDBRANCH  12  15
ENDBRANCH   8   9
ENDBRANCH   4   8
TORSDOF 5
ENDMDL
MODEL       37
REMARK 921   NORMALIZED FREE ENERGY PREDICTED BY IDOCK:   -5.81 KCAL/MOL
REMARK 922        TOTAL FREE ENERGY PREDICTED BY IDOCK:   -8.22 KCAL/MOL
REMARK 923 INTER-LIGAND FREE ENERGY PREDICTED BY IDOCK:   -8.17 KCAL/MOL
REMARK 924 INTRA-LIGAND FREE ENERGY PREDICTED BY IDOCK:   -0.04 KCAL/MOL
REMARK 927      BINDING AFFINITY PREDICTED BY RF-SCORE:    0.00 PKD
ROOT
HETATM    1  C   UNL     1     -10.534  19.752  66.866  1.00  0.00    -0.596 C  
HETATM    2  C   UNL     1      -9.710  18.526  66.603  1.00  0.00    -0.353 A  
HETATM    3  C   UNL     1     -10.322  17.276  66.429  1.00  0.00    -0.316 A  
HETATM    4  C   UNL     1      -9.554  16.104  66.356  1.00  0.00    -0.312 A  
HETATM    5  C   UNL     1      -8.154  16.219  66.363  1.00  0.00    -0.334 A  
HETATM    6  C   UNL     1      -7.538  17.467  66.449  1.00  0.00    -0.342 A  
HETATM    7  C   UNL     1      -8.313  18.614  66.588  1.00  0.00    -0.297 A  
ENDROOT
BRANCH   4   8
HETATM    8  C   UNL     1     -10.235  14.738  66.364  1.00  0.00    -0.291 C  
BRANCH   8   9
HETATM    9  N   UNL     1      -9.902  13.925  67.544  1.00  0.00    -0.232 NA 
HETATM   10  C   UNL     1     -11.000  13.823  68.535  1.00  0.00    -0.262 C  
HETATM   11  C   UNL     1     -11.963  12.585  68.502  1.00  0.00    -0.219 C  
HETATM   12  N   UNL     1     -11.467  11.313  67.915  1.00  0.00    -0.433 NA 
HETATM   13  C   UNL     1     -10.637  11.695  66.751  1.00  0.00    -0.244 C  
HETATM   14  C   UNL     1      -9.457  12.590  67.141  1.00  0.00    -0.208 C  
BRANCH  12  15
HETATM   15  C   UNL     1     -10.706  10.445  68.877  1.00  0.00    -0.224 C  
BRANCH  15  16
HETATM   16  C   UNL     1     -11.528  10.012  70.094  1.00  0.00    -0.344 A  
HETATM   17  C   UNL     1     -11.318   8.720  70.630  1.00  0.00    -0.289 A  
HETATM   18  C   UNL     1     -12.413  10.868  70.738  1.00  0.00    -0.489 A  
HETATM   19  C   UNL     1     -11.962   8.320  71.802  1.00  0.00    -0.364 A  
HETATM   20  C   UNL     1     -12.830   9.196  72.444  1.00  0.00    -0.438 A  
HETATM   21  C   UNL     1     -13.065  10.463  71.906  1.00  0.00    -0.563 A  
ENDBRANCH  15  16
BRANCH  15  22
HETATM   22  C   UNL     1      -9.999   9.270  68.168  1.00  0.00    -0.206 A  
HETATM   23  C   UNL     1      -8.612   7.573  66.406  1.00  0.00    -0.140 A  
HETATM   24  C   UNL     1      -8.595   9.180  68.209  1.00  0.00    -0.129 A  
HETATM   25 CL   UNL     1      -7.759   6.666  65.216  1.00  0.00    -0.092 Cl 
HETATM   26  C   UNL     1     -10.003   7.574  66.409  1.00  0.00    -0.119 A  
HETATM   27  C   UNL     1     -10.695   8.388  67.312  1.00  0.00    -0.230 A  
HETATM   28  C   UNL     1      -7.907   8.340  67.329  1.00  0.00    -0.105 A  
ENDBRANCH  15  22
ENDBRANCH  12  15
ENDBRANCH   8   9
ENDBRANCH   4   8
TORSDOF 5
ENDMDL
MODEL       38
REMARK 921   NORMALIZED FREE ENERGY PREDICTED BY IDOCK:   -5.80 KCAL/MOL
REMARK 922        TOTAL FREE ENERGY PREDICTED BY IDOCK:   -8.21 KCAL/MOL
REMARK 923 INTER-LIGAND FREE ENERGY PREDICTED BY IDOCK:   -9.34 KCAL/MOL
REMARK 924 INTRA-LIGAND FREE ENERGY PREDICTED BY IDOCK:    1.13 KCAL/MOL
REMARK 927      BINDING AFFINITY PREDICTED BY RF-SCORE:    0.00 PKD
ROOT
HETATM    1  C   UNL     1      -7.051   8.858  65.231  1.00  0.00    -0.080 C  
HETATM    2  C   UNL     1      -8.066   9.675  64.488  1.00  0.00    -0.143 A  
HETATM    3  C   UNL     1      -8.681  10.780  65.097  1.00  0.00    -0.174 A  
HETATM    4  C   UNL     1      -9.750  11.440  64.474  1.00  0.00    -0.268 A  
HETATM    5  C   UNL     1     -10.129  11.032  63.184  1.00  0.00    -0.350 A  
HETATM    6  C   UNL     1      -9.465   9.991  62.537  1.00  0.00    -0.232 A  
HETATM    7  C   UNL     1      -8.450   9.303  63.194  1.00  0.00    -0.212 A  
ENDROOT
BRANCH   4   8
HETATM    8  C   UNL     1     -10.537  12.509  65.228  1.00  0.00    -0.290 C  
BRANCH   8   9
HETATM    9  N   UNL     1     -11.501  11.956  66.192  1.00  0.00    -0.391 NA 
HETATM   10  C   UNL     1     -10.982  10.807  66.972  1.00  0.00    -0.227 C  
HETATM   11  C   UNL     1     -10.369  11.049  68.396  1.00  0.00    -0.183 C  
HETATM   12  N   UNL     1     -10.807  12.242  69.167  1.00  0.00    -0.154 NA 
HETATM   13  C   UNL     1     -10.960  13.334  68.180  1.00  0.00    -0.255 C  
HETATM   14  C   UNL     1     -11.987  13.003  67.093  1.00  0.00    -0.329 C  
BRANCH  12  15
HETATM   15  C   UNL     1     -12.066  12.034  69.961  1.00  0.00    -0.280 C  
BRANCH  15  16
HETATM   16  C   UNL     1     -12.097  10.706  70.723  1.00  0.00    -0.474 A  
HETATM   17  C   UNL     1     -10.879  10.026  70.954  1.00  0.00    -0.276 A  
HETATM   18  C   UNL     1     -13.268  10.186  71.264  1.00  0.00    -0.453 A  
HETATM   19  C   UNL     1     -10.844   8.870  71.736  1.00  0.00    -0.436 A  
HETATM   20  C   UNL     1     -12.020   8.374  72.286  1.00  0.00    -0.455 A  
HETATM   21  C   UNL     1     -13.232   9.023  72.040  1.00  0.00    -0.486 A  
ENDBRANCH  15  16
BRANCH  15  22
HETATM   22  C   UNL     1     -12.405  13.253  70.846  1.00  0.00    -0.413 A  
HETATM   23  C   UNL     1     -12.565  15.220  72.849  1.00  0.00    -0.408 A  
HETATM   24  C   UNL     1     -11.574  14.387  70.809  1.00  0.00    -0.224 A  
HETATM   25 CL   UNL     1     -12.547  16.332  74.164  1.00  0.00    -0.630 Cl 
HETATM   26  C   UNL     1     -13.462  14.156  72.856  1.00  0.00    -0.466 A  
HETATM   27  C   UNL     1     -13.409  13.197  71.838  1.00  0.00    -0.546 A  
HETATM   28  C   UNL     1     -11.651  15.362  71.809  1.00  0.00    -0.501 A  
ENDBRANCH  15  22
ENDBRANCH  12  15
ENDBRANCH   8   9
ENDBRANCH   4   8
TORSDOF 5
ENDMDL
MODEL       39
REMARK 921   NORMALIZED FREE ENERGY PREDICTED BY IDOCK:   -5.80 KCAL/MOL
REMARK 922        TOTAL FREE ENERGY PREDICTED BY IDOCK:   -8.20 KCAL/MOL
REMARK 923 INTER-LIGAND FREE ENERGY PREDICTED BY IDOCK:   -7.93 KCAL/MOL
REMARK 924 INTRA-LIGAND FREE ENERGY PREDICTED BY IDOCK:   -0.27 KCAL/MOL
REMARK 927      BINDING AFFINITY PREDICTED BY RF-SCORE:    0.00 PKD
ROOT
HETATM    1  C   UNL     1      -6.483   9.828  63.638  1.00  0.00    -0.118 C  
HETATM    2  C   UNL     1      -7.864  10.387  63.807  1.00  0.00    -0.065 A  
HETATM    3  C   UNL     1      -8.487  10.392  65.065  1.00  0.00    -0.180 A  
HETATM    4  C   UNL     1      -9.836  10.752  65.197  1.00  0.00    -0.333 A  
HETATM    5  C   UNL     1     -10.525  11.200  64.057  1.00  0.00    -0.447 A  
HETATM    6  C   UNL     1      -9.888  11.280  62.820  1.00  0.00    -0.241 A  
HETATM    7  C   UNL     1      -8.568  10.857  62.691  1.00  0.00    -0.272 A  
ENDROOT
BRANCH   4   8
HETATM    8  C   UNL     1     -10.553  10.565  66.531  1.00  0.00    -0.174 C  
BRANCH   8   9
HETATM    9  N   UNL     1     -11.424  11.695  66.892  1.00  0.00    -0.491 NA 
HETATM   10  C   UNL     1     -12.080  11.552  68.213  1.00  0.00    -0.002 C  
HETATM   11  C   UNL     1     -11.433  12.219  69.478  1.00  0.00    -0.249 C  
HETATM   12  N   UNL     1     -10.556  13.404  69.287  1.00  0.00    -0.001 NA 
HETATM   13  C   UNL     1      -9.784  13.148  68.051  1.00  0.00    -0.224 C  
HETATM   14  C   UNL     1     -10.684  12.957  66.826  1.00  0.00    -0.261 C  
BRANCH  12  15
HETATM   15  C   UNL     1     -11.294  14.712  69.219  1.00  0.00    -0.286 C  
BRANCH  15  16
HETATM   16  C   UNL     1     -12.164  14.990  70.447  1.00  0.00    -0.393 A  
HETATM   17  C   UNL     1     -11.583  15.643  71.558  1.00  0.00    -0.507 A  
HETATM   18  C   UNL     1     -13.523  14.696  70.478  1.00  0.00     0.052 A  
HETATM   19  C   UNL     1     -12.362  16.015  72.655  1.00  0.00    -0.594 A  
HETATM   20  C   UNL     1     -13.722  15.731  72.663  1.00  0.00    -0.622 A  
HETATM   21  C   UNL     1     -14.299  15.061  71.582  1.00  0.00    -0.680 A  
ENDBRANCH  15  16
BRANCH  15  22
HETATM   22  C   UNL     1     -10.362  15.888  68.852  1.00  0.00    -0.228 A  
HETATM   23  C   UNL     1      -8.700  17.769  67.585  1.00  0.00    -0.244 A  
HETATM   24  C   UNL     1     -10.904  17.039  68.251  1.00  0.00    -0.341 A  
HETATM   25 CL   UNL     1      -7.701  18.827  66.665  1.00  0.00    -0.250 Cl 
HETATM   26  C   UNL     1      -8.132  16.688  68.253  1.00  0.00    -0.198 A  
HETATM   27  C   UNL     1      -8.955  15.773  68.917  1.00  0.00    -0.226 A  
HETATM   28  C   UNL     1     -10.077  17.971  67.617  1.00  0.00    -0.352 A  
ENDBRANCH  15  22
ENDBRANCH  12  15
ENDBRANCH   8   9
ENDBRANCH   4   8
TORSDOF 5
ENDMDL
MODEL       40
REMARK 921   NORMALIZED FREE ENERGY PREDICTED BY IDOCK:   -5.78 KCAL/MOL
REMARK 922        TOTAL FREE ENERGY PREDICTED BY IDOCK:   -8.18 KCAL/MOL
REMARK 923 INTER-LIGAND FREE ENERGY PREDICTED BY IDOCK:   -7.39 KCAL/MOL
REMARK 924 INTRA-LIGAND FREE ENERGY PREDICTED BY IDOCK:   -0.79 KCAL/MOL
REMARK 927      BINDING AFFINITY PREDICTED BY RF-SCORE:    0.00 PKD
ROOT
HETATM    1  C   UNL     1     -13.108  15.040  73.197  1.00  0.00    -0.619 C  
HETATM    2  C   UNL     1     -12.800  14.217  71.981  1.00  0.00    -0.423 A  
HETATM    3  C   UNL     1     -13.202  12.874  71.904  1.00  0.00    -0.521 A  
HETATM    4  C   UNL     1     -12.770  12.055  70.851  1.00  0.00    -0.291 A  
HETATM    5  C   UNL     1     -12.004  12.631  69.824  1.00  0.00    -0.365 A  
HETATM    6  C   UNL     1     -11.674  13.985  69.850  1.00  0.00    -0.368 A  
HETATM    7  C   UNL     1     -12.054  14.771  70.934  1.00  0.00    -0.387 A  
ENDROOT
BRANCH   4   8
HETATM    8  C   UNL     1     -13.049  10.554  70.882  1.00  0.00    -0.306 C  
BRANCH   8   9
HETATM    9  N   UNL     1     -12.148   9.808  71.774  1.00  0.00    -0.385 NA 
HETATM   10  C   UNL     1     -12.701   8.516  72.245  1.00  0.00    -0.367 C  
HETATM   11  C   UNL     1     -12.331   7.192  71.490  1.00  0.00    -0.370 C  
HETATM   12  N   UNL     1     -11.056   7.140  70.727  1.00  0.00    -0.259 NA 
HETATM   13  C   UNL     1     -10.897   8.472  70.103  1.00  0.00    -0.233 C  
HETATM   14  C   UNL     1     -10.846   9.602  71.137  1.00  0.00    -0.334 C  
BRANCH  12  15
HETATM   15  C   UNL     1      -9.858   6.769  71.554  1.00  0.00    -0.170 C  
BRANCH  15  16
HETATM   16  C   UNL     1     -10.045   5.483  72.363  1.00  0.00    -0.218 A  
HETATM   17  C   UNL     1      -9.918   4.239  71.702  1.00  0.00    -0.250 A  
HETATM   18  C   UNL     1     -10.256   5.492  73.738  1.00  0.00    -0.246 A  
HETATM   19  C   UNL     1      -9.971   3.042  72.418  1.00  0.00    -0.235 A  
HETATM   20  C   UNL     1     -10.164   3.069  73.793  1.00  0.00    -0.201 A  
HETATM   21  C   UNL     1     -10.319   4.291  74.451  1.00  0.00    -0.296 A  
ENDBRANCH  15  16
BRANCH  15  22
HETATM   22  C   UNL     1      -8.552   6.787  70.730  1.00  0.00    -0.141 A  
HETATM   23  C   UNL     1      -6.388   7.409  69.045  1.00  0.00    -0.039 A  
HETATM   24  C   UNL     1      -7.431   7.479  71.223  1.00  0.00    -0.079 A  
HETATM   25 CL   UNL     1      -5.147   7.937  67.975  1.00  0.00    -0.030 Cl 
HETATM   26  C   UNL     1      -7.442   6.642  68.558  1.00  0.00    -0.092 A  
HETATM   27  C   UNL     1      -8.501   6.299  69.405  1.00  0.00    -0.125 A  
HETATM   28  C   UNL     1      -6.358   7.793  70.383  1.00  0.00    -0.037 A  
ENDBRANCH  15  22
ENDBRANCH  12  15
ENDBRANCH   8   9
ENDBRANCH   4   8
TORSDOF 5
ENDMDL
MODEL       41
REMARK 921   NORMALIZED FREE ENERGY PREDICTED BY IDOCK:   -5.70 KCAL/MOL
REMARK 922        TOTAL FREE ENERGY PREDICTED BY IDOCK:   -8.08 KCAL/MOL
REMARK 923 INTER-LIGAND FREE ENERGY PREDICTED BY IDOCK:   -7.95 KCAL/MOL
REMARK 924 INTRA-LIGAND FREE ENERGY PREDICTED BY IDOCK:   -0.13 KCAL/MOL
REMARK 927      BINDING AFFINITY PREDICTED BY RF-SCORE:    0.00 PKD
ROOT
HETATM    1  C   UNL     1      -9.466   2.822  70.720  1.00  0.00    -0.219 C  
HETATM    2  C   UNL     1      -9.293   3.554  69.423  1.00  0.00    -0.243 A  
HETATM    3  C   UNL     1      -8.950   4.915  69.408  1.00  0.00    -0.133 A  
HETATM    4  C   UNL     1      -8.956   5.644  68.210  1.00  0.00    -0.114 A  
HETATM    5  C   UNL     1      -9.219   4.961  67.011  1.00  0.00    -0.127 A  
HETATM    6  C   UNL     1      -9.477   3.591  67.008  1.00  0.00    -0.207 A  
HETATM    7  C   UNL     1      -9.532   2.894  68.211  1.00  0.00    -0.217 A  
ENDROOT
BRANCH   4   8
HETATM    8  C   UNL     1      -8.774   7.159  68.233  1.00  0.00    -0.128 C  
BRANCH   8   9
HETATM    9  N   UNL     1     -10.044   7.902  68.274  1.00  0.00    -0.188 NA 
HETATM   10  C   UNL     1     -10.449   8.326  69.635  1.00  0.00    -0.221 C  
HETATM   11  C   UNL     1     -10.098   9.771  70.135  1.00  0.00    -0.265 C  
HETATM   12  N   UNL     1      -9.903  10.845  69.126  1.00  0.00    -0.184 NA 
HETATM   13  C   UNL     1      -9.200  10.214  67.987  1.00  0.00    -0.138 C  
HETATM   14  C   UNL     1      -9.995   9.056  67.375  1.00  0.00    -0.209 C  
BRANCH  12  15
HETATM   15  C   UNL     1     -11.173  11.519  68.689  1.00  0.00    -0.248 C  
BRANCH  15  16
HETATM   16  C   UNL     1     -12.000  12.080  69.848  1.00  0.00    -0.391 A  
HETATM   17  C   UNL     1     -12.556  11.178  70.786  1.00  0.00    -0.445 A  
HETATM   18  C   UNL     1     -12.158  13.445  70.058  1.00  0.00    -0.404 A  
HETATM   19  C   UNL     1     -13.224  11.647  71.918  1.00  0.00    -0.475 A  
HETATM   20  C   UNL     1     -13.356  13.015  72.122  1.00  0.00    -0.622 A  
HETATM   21  C   UNL     1     -12.836  13.913  71.188  1.00  0.00    -0.423 A  
ENDBRANCH  15  16
BRANCH  15  22
HETATM   22  C   UNL     1     -10.930  12.544  67.560  1.00  0.00    -0.288 A  
HETATM   23  C   UNL     1     -10.760  14.828  65.929  1.00  0.00    -0.316 A  
HETATM   24  C   UNL     1      -9.812  13.395  67.626  1.00  0.00    -0.226 A  
HETATM   25 CL   UNL     1     -10.738  16.312  65.056  1.00  0.00    -0.390 Cl 
HETATM   26  C   UNL     1     -11.831  13.953  65.777  1.00  0.00    -0.393 A  
HETATM   27  C   UNL     1     -11.897  12.795  66.560  1.00  0.00    -0.471 A  
HETATM   28  C   UNL     1      -9.731  14.533  66.818  1.00  0.00    -0.269 A  
ENDBRANCH  15  22
ENDBRANCH  12  15
ENDBRANCH   8   9
ENDBRANCH   4   8
TORSDOF 5
ENDMDL
MODEL       42
REMARK 921   NORMALIZED FREE ENERGY PREDICTED BY IDOCK:   -5.67 KCAL/MOL
REMARK 922        TOTAL FREE ENERGY PREDICTED BY IDOCK:   -8.03 KCAL/MOL
REMARK 923 INTER-LIGAND FREE ENERGY PREDICTED BY IDOCK:   -7.27 KCAL/MOL
REMARK 924 INTRA-LIGAND FREE ENERGY PREDICTED BY IDOCK:   -0.76 KCAL/MOL
REMARK 927      BINDING AFFINITY PREDICTED BY RF-SCORE:    0.00 PKD
ROOT
HETATM    1  C   UNL     1     -13.473  14.202  72.777  1.00  0.00    -0.592 C  
HETATM    2  C   UNL     1     -13.012  13.241  71.722  1.00  0.00    -0.430 A  
HETATM    3  C   UNL     1     -13.207  11.859  71.876  1.00  0.00    -0.467 A  
HETATM    4  C   UNL     1     -12.628  10.948  70.980  1.00  0.00    -0.517 A  
HETATM    5  C   UNL     1     -11.929  11.451  69.870  1.00  0.00    -0.434 A  
HETATM    6  C   UNL     1     -11.805  12.824  69.663  1.00  0.00    -0.384 A  
HETATM    7  C   UNL     1     -12.328  13.716  70.596  1.00  0.00    -0.440 A  
ENDROOT
BRANCH   4   8
HETATM    8  C   UNL     1     -12.682   9.450  71.268  1.00  0.00    -0.314 C  
BRANCH   8   9
HETATM    9  N   UNL     1     -11.372   8.871  71.606  1.00  0.00    -0.312 NA 
HETATM   10  C   UNL     1     -11.422   7.865  72.693  1.00  0.00    -0.395 C  
HETATM   11  C   UNL     1     -11.509   6.339  72.335  1.00  0.00    -0.293 C  
HETATM   12  N   UNL     1     -10.983   5.885  71.021  1.00  0.00    -0.280 NA 
HETATM   13  C   UNL     1     -11.339   6.943  70.050  1.00  0.00    -0.294 C  
HETATM   14  C   UNL     1     -10.737   8.303  70.416  1.00  0.00    -0.232 C  
BRANCH  12  15
HETATM   15  C   UNL     1      -9.508   5.600  71.013  1.00  0.00    -0.166 C  
BRANCH  15  16
HETATM   16  C   UNL     1      -9.068   4.613  72.098  1.00  0.00    -0.151 A  
HETATM   17  C   UNL     1      -8.141   5.046  73.075  1.00  0.00    -0.105 A  
HETATM   18  C   UNL     1      -9.606   3.336  72.205  1.00  0.00    -0.208 A  
HETATM   19  C   UNL     1      -7.794   4.219  74.145  1.00  0.00    -0.091 A  
HETATM   20  C   UNL     1      -8.356   2.952  74.247  1.00  0.00    -0.069 A  
HETATM   21  C   UNL     1      -9.250   2.506  73.272  1.00  0.00    -0.098 A  
ENDBRANCH  15  16
BRANCH  15  22
HETATM   22  C   UNL     1      -8.994   5.228  69.606  1.00  0.00    -0.133 A  
HETATM   23  C   UNL     1      -8.488   5.004  66.848  1.00  0.00    -0.106 A  
HETATM   24  C   UNL     1      -8.035   6.046  68.980  1.00  0.00    -0.104 A  
HETATM   25 CL   UNL     1      -8.304   4.982  65.136  1.00  0.00    -0.131 Cl 
HETATM   26  C   UNL     1      -9.372   4.120  67.460  1.00  0.00    -0.204 A  
HETATM   27  C   UNL     1      -9.595   4.205  68.838  1.00  0.00    -0.222 A  
HETATM   28  C   UNL     1      -7.788   5.937  67.608  1.00  0.00    -0.098 A  
ENDBRANCH  15  22
ENDBRANCH  12  15
ENDBRANCH   8   9
ENDBRANCH   4   8
TORSDOF 5
ENDMDL
MODEL       43
REMARK 921   NORMALIZED FREE ENERGY PREDICTED BY IDOCK:   -5.66 KCAL/MOL
REMARK 922        TOTAL FREE ENERGY PREDICTED BY IDOCK:   -8.03 KCAL/MOL
REMARK 923 INTER-LIGAND FREE ENERGY PREDICTED BY IDOCK:   -7.79 KCAL/MOL
REMARK 924 INTRA-LIGAND FREE ENERGY PREDICTED BY IDOCK:   -0.24 KCAL/MOL
REMARK 927      BINDING AFFINITY PREDICTED BY RF-SCORE:    0.00 PKD
ROOT
HETATM    1  C   UNL     1      -6.929   6.420  73.095  1.00  0.00    -0.075 C  
HETATM    2  C   UNL     1      -7.838   5.859  72.042  1.00  0.00    -0.106 A  
HETATM    3  C   UNL     1      -7.987   6.506  70.805  1.00  0.00    -0.115 A  
HETATM    4  C   UNL     1      -8.960   6.086  69.887  1.00  0.00    -0.144 A  
HETATM    5  C   UNL     1      -9.719   4.943  70.191  1.00  0.00    -0.283 A  
HETATM    6  C   UNL     1      -9.517   4.244  71.380  1.00  0.00    -0.225 A  
HETATM    7  C   UNL     1      -8.593   4.711  72.311  1.00  0.00    -0.122 A  
ENDROOT
BRANCH   4   8
HETATM    8  C   UNL     1      -9.245   6.914  68.637  1.00  0.00    -0.130 C  
BRANCH   8   9
HETATM    9  N   UNL     1     -10.442   7.762  68.756  1.00  0.00    -0.202 NA 
HETATM   10  C   UNL     1     -10.575   8.435  70.069  1.00  0.00    -0.235 C  
HETATM   11  C   UNL     1     -10.057   9.906  70.244  1.00  0.00    -0.237 C  
HETATM   12  N   UNL     1      -9.980  10.780  69.045  1.00  0.00    -0.203 NA 
HETATM   13  C   UNL     1      -9.528   9.914  67.934  1.00  0.00    -0.133 C  
HETATM   14  C   UNL     1     -10.485   8.746  67.673  1.00  0.00    -0.244 C  
BRANCH  12  15
HETATM   15  C   UNL     1     -11.266  11.483  68.710  1.00  0.00    -0.249 C  
BRANCH  15  16
HETATM   16  C   UNL     1     -11.935  12.144  69.918  1.00  0.00    -0.380 A  
HETATM   17  C   UNL     1     -11.971  13.556  69.987  1.00  0.00    -0.410 A  
HETATM   18  C   UNL     1     -12.578  11.409  70.908  1.00  0.00    -0.453 A  
HETATM   19  C   UNL     1     -12.664  14.204  71.011  1.00  0.00    -0.433 A  
HETATM   20  C   UNL     1     -13.317  13.454  71.982  1.00  0.00    -0.569 A  
HETATM   21  C   UNL     1     -13.264  12.060  71.938  1.00  0.00    -0.469 A  
ENDBRANCH  15  16
BRANCH  15  22
HETATM   22  C   UNL     1     -11.115  12.431  67.501  1.00  0.00    -0.313 A  
HETATM   23  C   UNL     1     -11.089  14.600  65.712  1.00  0.00    -0.331 A  
HETATM   24  C   UNL     1     -10.008  13.296  67.434  1.00  0.00    -0.233 A  
HETATM   25 CL   UNL     1     -11.148  16.022  64.741  1.00  0.00    -0.450 Cl 
HETATM   26  C   UNL     1     -12.154  13.705  65.693  1.00  0.00    -0.457 A  
HETATM   27  C   UNL     1     -12.150  12.603  66.555  1.00  0.00    -0.296 A  
HETATM   28  C   UNL     1      -9.998  14.378  66.548  1.00  0.00    -0.291 A  
ENDBRANCH  15  22
ENDBRANCH  12  15
ENDBRANCH   8   9
ENDBRANCH   4   8
TORSDOF 5
ENDMDL
MODEL       44
REMARK 921   NORMALIZED FREE ENERGY PREDICTED BY IDOCK:   -5.65 KCAL/MOL
REMARK 922        TOTAL FREE ENERGY PREDICTED BY IDOCK:   -8.01 KCAL/MOL
REMARK 923 INTER-LIGAND FREE ENERGY PREDICTED BY IDOCK:   -7.53 KCAL/MOL
REMARK 924 INTRA-LIGAND FREE ENERGY PREDICTED BY IDOCK:   -0.48 KCAL/MOL
REMARK 927      BINDING AFFINITY PREDICTED BY RF-SCORE:    0.00 PKD
ROOT
HETATM    1  C   UNL     1     -14.348   6.620  71.740  1.00  0.00    -0.192 C  
HETATM    2  C   UNL     1     -13.074   7.411  71.778  1.00  0.00    -0.363 A  
HETATM    3  C   UNL     1     -13.087   8.801  71.588  1.00  0.00    -0.394 A  
HETATM    4  C   UNL     1     -11.890   9.519  71.451  1.00  0.00    -0.464 A  
HETATM    5  C   UNL     1     -10.675   8.830  71.605  1.00  0.00    -0.397 A  
HETATM    6  C   UNL     1     -10.655   7.464  71.880  1.00  0.00    -0.233 A  
HETATM    7  C   UNL     1     -11.850   6.753  71.948  1.00  0.00    -0.366 A  
ENDROOT
BRANCH   4   8
HETATM    8  C   UNL     1     -11.919  10.991  71.050  1.00  0.00    -0.229 C  
BRANCH   8   9
HETATM    9  N   UNL     1     -12.235  11.205  69.629  1.00  0.00    -0.314 NA 
HETATM   10  C   UNL     1     -12.030  12.600  69.171  1.00  0.00    -0.243 C  
HETATM   11  C   UNL     1     -10.681  12.997  68.474  1.00  0.00    -0.255 C  
HETATM   12  N   UNL     1      -9.898  11.940  67.784  1.00  0.00    -0.180 NA 
HETATM   13  C   UNL     1     -10.024  10.725  68.618  1.00  0.00    -0.182 C  
HETATM   14  C   UNL     1     -11.479  10.277  68.787  1.00  0.00    -0.113 C  
BRANCH  12  15
HETATM   15  C   UNL     1     -10.325  11.684  66.366  1.00  0.00    -0.230 C  
BRANCH  15  16
HETATM   16  C   UNL     1     -10.904  12.917  65.667  1.00  0.00    -0.296 A  
HETATM   17  C   UNL     1     -12.286  12.943  65.368  1.00  0.00    -0.528 A  
HETATM   18  C   UNL     1     -10.137  14.043  65.389  1.00  0.00    -0.343 A  
HETATM   19  C   UNL     1     -12.879  14.088  64.832  1.00  0.00    -0.210 A  
HETATM   20  C   UNL     1     -12.102  15.211  64.578  1.00  0.00    -0.310 A  
HETATM   21  C   UNL     1     -10.731  15.185  64.844  1.00  0.00    -0.421 A  
ENDBRANCH  15  16
BRANCH  15  22
HETATM   22  C   UNL     1      -9.225  10.977  65.544  1.00  0.00    -0.235 A  
HETATM   23  C   UNL     1      -7.467   9.152  64.326  1.00  0.00    -0.106 A  
HETATM   24  C   UNL     1      -9.560  10.357  64.327  1.00  0.00    -0.377 A  
HETATM   25 CL   UNL     1      -6.468   7.910  63.673  1.00  0.00    -0.062 Cl 
HETATM   26  C   UNL     1      -7.072   9.822  65.479  1.00  0.00    -0.108 A  
HETATM   27  C   UNL     1      -7.929  10.760  66.065  1.00  0.00    -0.154 A  
HETATM   28  C   UNL     1      -8.688   9.445  63.725  1.00  0.00    -0.223 A  
ENDBRANCH  15  22
ENDBRANCH  12  15
ENDBRANCH   8   9
ENDBRANCH   4   8
TORSDOF 5
ENDMDL
MODEL       45
REMARK 921   NORMALIZED FREE ENERGY PREDICTED BY IDOCK:   -5.57 KCAL/MOL
REMARK 922        TOTAL FREE ENERGY PREDICTED BY IDOCK:   -7.91 KCAL/MOL
REMARK 923 INTER-LIGAND FREE ENERGY PREDICTED BY IDOCK:   -6.96 KCAL/MOL
REMARK 924 INTRA-LIGAND FREE ENERGY PREDICTED BY IDOCK:   -0.94 KCAL/MOL
REMARK 927      BINDING AFFINITY PREDICTED BY RF-SCORE:    0.00 PKD
ROOT
HETATM    1  C   UNL     1     -10.612  18.455  67.483  1.00  0.00    -0.447 C  
HETATM    2  C   UNL     1      -9.743  17.260  67.227  1.00  0.00    -0.262 A  
HETATM    3  C   UNL     1     -10.311  16.006  66.954  1.00  0.00    -0.289 A  
HETATM    4  C   UNL     1      -9.512  14.855  66.885  1.00  0.00    -0.251 A  
HETATM    5  C   UNL     1      -8.118  14.998  67.000  1.00  0.00    -0.225 A  
HETATM    6  C   UNL     1      -7.540  16.253  67.185  1.00  0.00    -0.230 A  
HETATM    7  C   UNL     1      -8.351  17.377  67.317  1.00  0.00    -0.221 A  
ENDROOT
BRANCH   4   8
HETATM    8  C   UNL     1     -10.159  13.476  66.784  1.00  0.00    -0.268 C  
BRANCH   8   9
HETATM    9  N   UNL     1      -9.625  12.506  67.754  1.00  0.00    -0.197 NA 
HETATM   10  C   UNL     1     -10.578  12.144  68.830  1.00  0.00    -0.201 C  
HETATM   11  C   UNL     1     -11.456  10.851  68.687  1.00  0.00    -0.311 C  
HETATM   12  N   UNL     1     -10.958   9.744  67.828  1.00  0.00    -0.246 NA 
HETATM   13  C   UNL     1     -10.310  10.388  66.664  1.00  0.00    -0.231 C  
HETATM   14  C   UNL     1      -9.150  11.302  67.070  1.00  0.00    -0.163 C  
BRANCH  12  15
HETATM   15  C   UNL     1     -10.025   8.795  68.526  1.00  0.00    -0.182 C  
BRANCH  15  16
HETATM   16  C   UNL     1     -10.427   8.494  69.973  1.00  0.00    -0.226 A  
HETATM   17  C   UNL     1     -11.509   7.615  70.209  1.00  0.00    -0.144 A  
HETATM   18  C   UNL     1      -9.716   8.989  71.061  1.00  0.00    -0.348 A  
HETATM   19  C   UNL     1     -11.842   7.224  71.507  1.00  0.00    -0.335 A  
HETATM   20  C   UNL     1     -11.110   7.713  72.582  1.00  0.00    -0.412 A  
HETATM   21  C   UNL     1     -10.057   8.604  72.361  1.00  0.00    -0.321 A  
ENDBRANCH  15  16
BRANCH  15  22
HETATM   22  C   UNL     1      -9.754   7.525  67.691  1.00  0.00    -0.182 A  
HETATM   23  C   UNL     1      -9.493   4.907  66.699  1.00  0.00    -0.150 A  
HETATM   24  C   UNL     1     -10.817   6.903  67.012  1.00  0.00    -0.436 A  
HETATM   25 CL   UNL     1      -9.389   3.249  66.246  1.00  0.00    -0.161 Cl 
HETATM   26  C   UNL     1      -8.397   5.534  67.283  1.00  0.00    -0.104 A  
HETATM   27  C   UNL     1      -8.513   6.850  67.742  1.00  0.00    -0.123 A  
HETATM   28  C   UNL     1     -10.688   5.599  66.524  1.00  0.00    -0.296 A  
ENDBRANCH  15  22
ENDBRANCH  12  15
ENDBRANCH   8   9
ENDBRANCH   4   8
TORSDOF 5
ENDMDL
MODEL       46
REMARK 921   NORMALIZED FREE ENERGY PREDICTED BY IDOCK:   -5.55 KCAL/MOL
REMARK 922        TOTAL FREE ENERGY PREDICTED BY IDOCK:   -7.88 KCAL/MOL
REMARK 923 INTER-LIGAND FREE ENERGY PREDICTED BY IDOCK:   -6.99 KCAL/MOL
REMARK 924 INTRA-LIGAND FREE ENERGY PREDICTED BY IDOCK:   -0.89 KCAL/MOL
REMARK 927      BINDING AFFINITY PREDICTED BY RF-SCORE:    0.00 PKD
ROOT
HETATM    1  C   UNL     1     -11.017  15.880  64.948  1.00  0.00    -0.427 C  
HETATM    2  C   UNL     1     -11.209  14.406  64.752  1.00  0.00    -0.391 A  
HETATM    3  C   UNL     1     -10.498  13.481  65.533  1.00  0.00    -0.304 A  
HETATM    4  C   UNL     1     -10.543  12.110  65.240  1.00  0.00    -0.319 A  
HETATM    5  C   UNL     1     -11.390  11.672  64.208  1.00  0.00    -0.361 A  
HETATM    6  C   UNL     1     -12.166  12.576  63.485  1.00  0.00    -0.652 A  
HETATM    7  C   UNL     1     -12.061  13.940  63.743  1.00  0.00    -0.330 A  
ENDROOT
BRANCH   4   8
HETATM    8  C   UNL     1      -9.616  11.139  65.967  1.00  0.00    -0.217 C  
BRANCH   8   9
HETATM    9  N   UNL     1     -10.151   9.771  66.054  1.00  0.00    -0.273 NA 
HETATM   10  C   UNL     1      -9.203   8.725  65.603  1.00  0.00    -0.180 C  
HETATM   11  C   UNL     1      -8.319   7.972  66.658  1.00  0.00    -0.120 C  
HETATM   12  N   UNL     1      -8.805   7.881  68.060  1.00  0.00    -0.125 NA 
HETATM   13  C   UNL     1      -9.448   9.179  68.356  1.00  0.00    -0.142 C  
HETATM   14  C   UNL     1     -10.616   9.485  67.413  1.00  0.00    -0.271 C  
BRANCH  12  15
HETATM   15  C   UNL     1      -9.738   6.730  68.314  1.00  0.00    -0.126 C  
BRANCH  15  16
HETATM   16  C   UNL     1      -9.468   5.514  67.425  1.00  0.00    -0.121 A  
HETATM   17  C   UNL     1     -10.362   5.235  66.365  1.00  0.00    -0.315 A  
HETATM   18  C   UNL     1      -8.335   4.721  67.572  1.00  0.00    -0.104 A  
HETATM   19  C   UNL     1     -10.098   4.203  65.462  1.00  0.00    -0.198 A  
HETATM   20  C   UNL     1      -8.952   3.433  65.612  1.00  0.00    -0.142 A  
HETATM   21  C   UNL     1      -8.078   3.682  66.672  1.00  0.00    -0.096 A  
ENDBRANCH  15  16
BRANCH  15  22
HETATM   22  C   UNL     1      -9.835   6.380  69.815  1.00  0.00    -0.189 A  
HETATM   23  C   UNL     1     -10.106   6.385  72.614  1.00  0.00    -0.178 A  
HETATM   24  C   UNL     1     -11.100   6.256  70.417  1.00  0.00    -0.416 A  
HETATM   25 CL   UNL     1     -10.285   6.561  74.318  1.00  0.00    -0.379 Cl 
HETATM   26  C   UNL     1      -8.836   6.414  72.045  1.00  0.00    -0.134 A  
HETATM   27  C   UNL     1      -8.698   6.372  70.654  1.00  0.00    -0.144 A  
HETATM   28  C   UNL     1     -11.234   6.264  71.808  1.00  0.00    -0.334 A  
ENDBRANCH  15  22
ENDBRANCH  12  15
ENDBRANCH   8   9
ENDBRANCH   4   8
TORSDOF 5
ENDMDL
MODEL       47
REMARK 921   NORMALIZED FREE ENERGY PREDICTED BY IDOCK:   -5.52 KCAL/MOL
REMARK 922        TOTAL FREE ENERGY PREDICTED BY IDOCK:   -7.84 KCAL/MOL
REMARK 923 INTER-LIGAND FREE ENERGY PREDICTED BY IDOCK:   -7.29 KCAL/MOL
REMARK 924 INTRA-LIGAND FREE ENERGY PREDICTED BY IDOCK:   -0.55 KCAL/MOL
REMARK 927      BINDING AFFINITY PREDICTED BY RF-SCORE:    0.00 PKD
ROOT
HETATM    1  C   UNL     1      -6.603   7.841  62.549  1.00  0.00    -0.080 C  
HETATM    2  C   UNL     1      -7.350   7.540  63.814  1.00  0.00    -0.093 A  
HETATM    3  C   UNL     1      -7.428   8.491  64.843  1.00  0.00    -0.094 A  
HETATM    4  C   UNL     1      -7.975   8.156  66.091  1.00  0.00    -0.102 A  
HETATM    5  C   UNL     1      -8.529   6.876  66.258  1.00  0.00    -0.131 A  
HETATM    6  C   UNL     1      -8.533   5.954  65.212  1.00  0.00    -0.144 A  
HETATM    7  C   UNL     1      -7.929   6.279  64.001  1.00  0.00    -0.099 A  
ENDROOT
BRANCH   4   8
HETATM    8  C   UNL     1      -7.876   9.133  67.260  1.00  0.00    -0.099 C  
BRANCH   8   9
HETATM    9  N   UNL     1      -8.339  10.490  66.930  1.00  0.00    -0.124 NA 
HETATM   10  C   UNL     1      -9.694  10.534  66.330  1.00  0.00    -0.198 C  
HETATM   11  C   UNL     1     -10.939  10.809  67.245  1.00  0.00    -0.297 C  
HETATM   12  N   UNL     1     -10.739  11.559  68.513  1.00  0.00    -0.199 NA 
HETATM   13  C   UNL     1      -9.446  11.097  69.063  1.00  0.00    -0.058 C  
HETATM   14  C   UNL     1      -8.276  11.357  68.109  1.00  0.00    -0.143 C  
BRANCH  12  15
HETATM   15  C   UNL     1     -10.773  13.053  68.357  1.00  0.00    -0.256 C  
BRANCH  15  16
HETATM   16  C   UNL     1     -11.089  13.514  66.932  1.00  0.00    -0.309 A  
HETATM   17  C   UNL     1     -12.431  13.470  66.486  1.00  0.00    -0.309 A  
HETATM   18  C   UNL     1     -10.121  14.047  66.090  1.00  0.00    -0.319 A  
HETATM   19  C   UNL     1     -12.784  13.981  65.235  1.00  0.00    -0.468 A  
HETATM   20  C   UNL     1     -11.807  14.528  64.414  1.00  0.00    -0.419 A  
HETATM   21  C   UNL     1     -10.475  14.550  64.834  1.00  0.00    -0.435 A  
ENDBRANCH  15  16
BRANCH  15  22
HETATM   22  C   UNL     1     -11.655  13.731  69.428  1.00  0.00    -0.365 A  
HETATM   23  C   UNL     1     -12.693  15.031  71.695  1.00  0.00    -0.340 A  
HETATM   24  C   UNL     1     -11.711  15.135  69.491  1.00  0.00    -0.351 A  
HETATM   25 CL   UNL     1     -13.169  15.822  73.149  1.00  0.00    -0.645 Cl 
HETATM   26  C   UNL     1     -12.735  13.642  71.618  1.00  0.00    -0.396 A  
HETATM   27  C   UNL     1     -12.255  12.995  70.474  1.00  0.00    -0.392 A  
HETATM   28  C   UNL     1     -12.223  15.780  70.621  1.00  0.00    -0.422 A  
ENDBRANCH  15  22
ENDBRANCH  12  15
ENDBRANCH   8   9
ENDBRANCH   4   8
TORSDOF 5
ENDMDL
MODEL       48
REMARK 921   NORMALIZED FREE ENERGY PREDICTED BY IDOCK:   -5.47 KCAL/MOL
REMARK 922        TOTAL FREE ENERGY PREDICTED BY IDOCK:   -7.78 KCAL/MOL
REMARK 923 INTER-LIGAND FREE ENERGY PREDICTED BY IDOCK:   -7.24 KCAL/MOL
REMARK 924 INTRA-LIGAND FREE ENERGY PREDICTED BY IDOCK:   -0.54 KCAL/MOL
REMARK 927      BINDING AFFINITY PREDICTED BY RF-SCORE:    0.00 PKD
ROOT
HETATM    1  C   UNL     1     -12.598  11.962  63.542  1.00  0.00    -0.579 C  
HETATM    2  C   UNL     1     -11.910  12.587  64.720  1.00  0.00    -0.440 A  
HETATM    3  C   UNL     1     -10.856  11.925  65.368  1.00  0.00    -0.343 A  
HETATM    4  C   UNL     1     -10.326  12.422  66.567  1.00  0.00    -0.248 A  
HETATM    5  C   UNL     1     -10.808  13.648  67.057  1.00  0.00    -0.291 A  
HETATM    6  C   UNL     1     -11.796  14.354  66.372  1.00  0.00    -0.402 A  
HETATM    7  C   UNL     1     -12.358  13.816  65.218  1.00  0.00    -0.491 A  
ENDROOT
BRANCH   4   8
HETATM    8  C   UNL     1      -9.319  11.594  67.362  1.00  0.00    -0.168 C  
BRANCH   8   9
HETATM    9  N   UNL     1      -9.827  11.151  68.670  1.00  0.00    -0.198 NA 
HETATM   10  C   UNL     1     -11.125  10.439  68.601  1.00  0.00    -0.262 C  
HETATM   11  C   UNL     1     -11.148   8.870  68.556  1.00  0.00     0.251 C  
HETATM   12  N   UNL     1     -10.002   8.124  69.136  1.00  0.00    -0.187 NA 
HETATM   13  C   UNL     1      -8.791   8.903  68.795  1.00  0.00    -0.137 C  
HETATM   14  C   UNL     1      -8.831  10.327  69.358  1.00  0.00    -0.163 C  
BRANCH  12  15
HETATM   15  C   UNL     1     -10.107   7.886  70.616  1.00  0.00    -0.194 C  
BRANCH  15  16
HETATM   16  C   UNL     1     -11.524   8.068  71.167  1.00  0.00    -0.302 A  
HETATM   17  C   UNL     1     -11.871   9.306  71.755  1.00  0.00    -0.454 A  
HETATM   18  C   UNL     1     -12.504   7.090  71.038  1.00  0.00    -0.373 A  
HETATM   19  C   UNL     1     -13.180   9.557  72.172  1.00  0.00    -0.539 A  
HETATM   20  C   UNL     1     -14.151   8.576  72.019  1.00  0.00    -0.516 A  
HETATM   21  C   UNL     1     -13.812   7.340  71.465  1.00  0.00    -0.463 A  
ENDBRANCH  15  16
BRANCH  15  22
HETATM   22  C   UNL     1      -9.455   6.552  71.040  1.00  0.00    -0.171 A  
HETATM   23  C   UNL     1      -7.752   4.504  71.943  1.00  0.00    -0.092 A  
HETATM   24  C   UNL     1      -9.398   6.211  72.404  1.00  0.00    -0.146 A  
HETATM   25 CL   UNL     1      -6.587   3.372  72.513  1.00  0.00    -0.017 Cl 
HETATM   26  C   UNL     1      -7.860   4.758  70.579  1.00  0.00    -0.062 A  
HETATM   27  C   UNL     1      -8.736   5.750  70.125  1.00  0.00    -0.140 A  
HETATM   28  C   UNL     1      -8.547   5.196  72.852  1.00  0.00    -0.115 A  
ENDBRANCH  15  22
ENDBRANCH  12  15
ENDBRANCH   8   9
ENDBRANCH   4   8
TORSDOF 5
ENDMDL
MODEL       49
REMARK 921   NORMALIZED FREE ENERGY PREDICTED BY IDOCK:   -5.44 KCAL/MOL
REMARK 922        TOTAL FREE ENERGY PREDICTED BY IDOCK:   -7.74 KCAL/MOL
REMARK 923 INTER-LIGAND FREE ENERGY PREDICTED BY IDOCK:   -7.80 KCAL/MOL
REMARK 924 INTRA-LIGAND FREE ENERGY PREDICTED BY IDOCK:    0.06 KCAL/MOL
REMARK 927      BINDING AFFINITY PREDICTED BY RF-SCORE:    0.00 PKD
ROOT
HETATM    1  C   UNL     1      -6.635  18.209  66.077  1.00  0.00    -0.298 C  
HETATM    2  C   UNL     1      -7.954  17.760  66.632  1.00  0.00    -0.283 A  
HETATM    3  C   UNL     1      -8.712  16.780  65.972  1.00  0.00    -0.218 A  
HETATM    4  C   UNL     1     -10.017  16.481  66.390  1.00  0.00    -0.318 A  
HETATM    5  C   UNL     1     -10.515  17.114  67.541  1.00  0.00    -0.348 A  
HETATM    6  C   UNL     1      -9.734  18.025  68.252  1.00  0.00    -0.332 A  
HETATM    7  C   UNL     1      -8.465  18.360  67.788  1.00  0.00    -0.270 A  
ENDROOT
BRANCH   4   8
HETATM    8  C   UNL     1     -10.900  15.561  65.550  1.00  0.00    -0.361 C  
BRANCH   8   9
HETATM    9  N   UNL     1     -10.588  14.133  65.721  1.00  0.00    -0.290 NA 
HETATM   10  C   UNL     1      -9.366  13.875  66.518  1.00  0.00    -0.247 C  
HETATM   11  C   UNL     1      -9.490  13.578  68.054  1.00  0.00    -0.220 C  
HETATM   12  N   UNL     1     -10.763  13.008  68.569  1.00  0.00    -0.250 NA 
HETATM   13  C   UNL     1     -11.845  13.666  67.805  1.00  0.00    -0.368 C  
HETATM   14  C   UNL     1     -11.731  13.422  66.297  1.00  0.00    -0.366 C  
BRANCH  12  15
HETATM   15  C   UNL     1     -10.849  11.510  68.474  1.00  0.00    -0.215 C  
BRANCH  15  16
HETATM   16  C   UNL     1      -9.558  10.852  67.982  1.00  0.00    -0.170 A  
HETATM   17  C   UNL     1      -8.425  10.859  68.829  1.00  0.00    -0.150 A  
HETATM   18  C   UNL     1      -9.482  10.178  66.768  1.00  0.00    -0.205 A  
HETATM   19  C   UNL     1      -7.261  10.177  68.470  1.00  0.00    -0.080 A  
HETATM   20  C   UNL     1      -7.208   9.493  67.262  1.00  0.00    -0.087 A  
HETATM   21  C   UNL     1      -8.312   9.504  66.406  1.00  0.00    -0.120 A  
ENDBRANCH  15  16
BRANCH  15  22
HETATM   22  C   UNL     1     -11.403  10.876  69.768  1.00  0.00    -0.374 A  
HETATM   23  C   UNL     1     -12.882   9.500  71.725  1.00  0.00    -0.406 A  
HETATM   24  C   UNL     1     -11.161   9.515  70.030  1.00  0.00    -0.268 A  
HETATM   25 CL   UNL     1     -13.903   8.622  72.799  1.00  0.00    -0.278 Cl 
HETATM   26  C   UNL     1     -13.076  10.867  71.550  1.00  0.00    -0.503 A  
HETATM   27  C   UNL     1     -12.314  11.561  70.604  1.00  0.00    -0.457 A  
HETATM   28  C   UNL     1     -11.900   8.831  71.000  1.00  0.00    -0.315 A  
ENDBRANCH  15  22
ENDBRANCH  12  15
ENDBRANCH   8   9
ENDBRANCH   4   8
TORSDOF 5
ENDMDL
MODEL       50
REMARK 921   NORMALIZED FREE ENERGY PREDICTED BY IDOCK:   -5.43 KCAL/MOL
REMARK 922        TOTAL FREE ENERGY PREDICTED BY IDOCK:   -7.72 KCAL/MOL
REMARK 923 INTER-LIGAND FREE ENERGY PREDICTED BY IDOCK:   -7.28 KCAL/MOL
REMARK 924 INTRA-LIGAND FREE ENERGY PREDICTED BY IDOCK:   -0.44 KCAL/MOL
REMARK 927      BINDING AFFINITY PREDICTED BY RF-SCORE:    0.00 PKD
ROOT
HETATM    1  C   UNL     1     -11.870  14.370  67.252  1.00  0.00    -0.434 C  
HETATM    2  C   UNL     1     -11.752  13.341  66.168  1.00  0.00    -0.416 A  
HETATM    3  C   UNL     1     -10.788  12.323  66.248  1.00  0.00    -0.313 A  
HETATM    4  C   UNL     1     -10.558  11.465  65.163  1.00  0.00    -0.352 A  
HETATM    5  C   UNL     1     -11.379  11.584  64.029  1.00  0.00    -0.380 A  
HETATM    6  C   UNL     1     -12.396  12.536  63.976  1.00  0.00    -0.557 A  
HETATM    7  C   UNL     1     -12.569  13.423  65.035  1.00  0.00    -0.459 A  
ENDROOT
BRANCH   4   8
HETATM    8  C   UNL     1      -9.379  10.496  65.187  1.00  0.00    -0.216 C  
BRANCH   8   9
HETATM    9  N   UNL     1      -9.742   9.143  65.640  1.00  0.00    -0.243 NA 
HETATM   10  C   UNL     1      -8.587   8.223  65.770  1.00  0.00    -0.161 C  
HETATM   11  C   UNL     1      -7.903   8.029  67.169  1.00  0.00    -0.105 C  
HETATM   12  N   UNL     1      -8.705   8.280  68.395  1.00  0.00    -0.133 NA 
HETATM   13  C   UNL     1      -9.561   9.448  68.093  1.00  0.00    -0.142 C  
HETATM   14  C   UNL     1     -10.488   9.204  66.899  1.00  0.00    -0.217 C  
BRANCH  12  15
HETATM   15  C   UNL     1      -9.519   7.101  68.851  1.00  0.00    -0.142 C  
BRANCH  15  16
HETATM   16  C   UNL     1      -8.694   5.827  69.049  1.00  0.00    -0.112 A  
HETATM   17  C   UNL     1      -7.683   5.818  70.038  1.00  0.00    -0.087 A  
HETATM   18  C   UNL     1      -8.955   4.655  68.348  1.00  0.00    -0.140 A  
HETATM   19  C   UNL     1      -6.980   4.647  70.329  1.00  0.00    -0.045 A  
HETATM   20  C   UNL     1      -7.267   3.480  69.633  1.00  0.00    -0.042 A  
HETATM   21  C   UNL     1      -8.244   3.486  68.635  1.00  0.00    -0.081 A  
ENDBRANCH  15  16
BRANCH  15  22
HETATM   22  C   UNL     1     -10.413   7.444  70.062  1.00  0.00    -0.233 A  
HETATM   23  C   UNL     1     -12.389   8.394  71.822  1.00  0.00    -0.331 A  
HETATM   24  C   UNL     1     -11.597   6.715  70.277  1.00  0.00    -0.454 A  
HETATM   25 CL   UNL     1     -13.667   9.061  72.765  1.00  0.00    -0.412 Cl 
HETATM   26  C   UNL     1     -11.188   9.085  71.699  1.00  0.00    -0.431 A  
HETATM   27  C   UNL     1     -10.188   8.593  70.854  1.00  0.00    -0.261 A  
HETATM   28  C   UNL     1     -12.581   7.191  71.149  1.00  0.00    -0.384 A  
ENDBRANCH  15  22
ENDBRANCH  12  15
ENDBRANCH   8   9
ENDBRANCH   4   8
TORSDOF 5
ENDMDL
MODEL       51
REMARK 921   NORMALIZED FREE ENERGY PREDICTED BY IDOCK:   -5.42 KCAL/MOL
REMARK 922        TOTAL FREE ENERGY PREDICTED BY IDOCK:   -7.71 KCAL/MOL
REMARK 923 INTER-LIGAND FREE ENERGY PREDICTED BY IDOCK:   -7.31 KCAL/MOL
REMARK 924 INTRA-LIGAND FREE ENERGY PREDICTED BY IDOCK:   -0.39 KCAL/MOL
REMARK 927      BINDING AFFINITY PREDICTED BY RF-SCORE:    0.00 PKD
ROOT
HETATM    1  C   UNL     1     -11.762   6.224  69.749  1.00  0.00    -0.157 C  
HETATM    2  C   UNL     1     -10.577   6.356  68.840  1.00  0.00    -0.298 A  
HETATM    3  C   UNL     1      -9.554   7.274  69.125  1.00  0.00    -0.155 A  
HETATM    4  C   UNL     1      -8.534   7.524  68.196  1.00  0.00    -0.124 A  
HETATM    5  C   UNL     1      -8.504   6.767  67.013  1.00  0.00    -0.114 A  
HETATM    6  C   UNL     1      -9.468   5.792  66.762  1.00  0.00    -0.154 A  
HETATM    7  C   UNL     1     -10.512   5.601  67.663  1.00  0.00    -0.284 A  
ENDROOT
BRANCH   4   8
HETATM    8  C   UNL     1      -7.543   8.661  68.432  1.00  0.00    -0.096 C  
BRANCH   8   9
HETATM    9  N   UNL     1      -7.825   9.861  67.629  1.00  0.00    -0.098 NA 
HETATM   10  C   UNL     1      -8.999   9.724  66.734  1.00  0.00    -0.138 C  
HETATM   11  C   UNL     1     -10.400  10.250  67.206  1.00  0.00    -0.232 C  
HETATM   12  N   UNL     1     -10.448  11.338  68.218  1.00  0.00    -0.187 NA 
HETATM   13  C   UNL     1      -9.350  11.062  69.170  1.00  0.00    -0.021 C  
HETATM   14  C   UNL     1      -7.977  11.035  68.491  1.00  0.00    -0.137 C  
BRANCH  12  15
HETATM   15  C   UNL     1     -10.344  12.722  67.640  1.00  0.00    -0.221 C  
BRANCH  15  16
HETATM   16  C   UNL     1     -10.908  12.838  66.222  1.00  0.00    -0.299 A  
HETATM   17  C   UNL     1     -10.023  12.713  65.126  1.00  0.00    -0.194 A  
HETATM   18  C   UNL     1     -12.268  12.981  65.971  1.00  0.00    -0.463 A  
HETATM   19  C   UNL     1     -10.506  12.702  63.816  1.00  0.00    -0.411 A  
HETATM   20  C   UNL     1     -11.870  12.828  63.583  1.00  0.00    -0.603 A  
HETATM   21  C   UNL     1     -12.749  12.980  64.658  1.00  0.00    -0.367 A  
ENDBRANCH  15  16
BRANCH  15  22
HETATM   22  C   UNL     1     -10.889  13.798  68.603  1.00  0.00    -0.280 A  
HETATM   23  C   UNL     1     -11.449  15.498  70.773  1.00  0.00    -0.367 A  
HETATM   24  C   UNL     1     -10.166  14.990  68.790  1.00  0.00    -0.235 A  
HETATM   25 CL   UNL     1     -11.678  16.445  72.193  1.00  0.00    -0.554 Cl 
HETATM   26  C   UNL     1     -12.241  14.373  70.557  1.00  0.00    -0.411 A  
HETATM   27  C   UNL     1     -11.989  13.548  69.456  1.00  0.00    -0.390 A  
HETATM   28  C   UNL     1     -10.442  15.832  69.872  1.00  0.00    -0.324 A  
ENDBRANCH  15  22
ENDBRANCH  12  15
ENDBRANCH   8   9
ENDBRANCH   4   8
TORSDOF 5
ENDMDL
MODEL       52
REMARK 921   NORMALIZED FREE ENERGY PREDICTED BY IDOCK:   -5.41 KCAL/MOL
REMARK 922        TOTAL FREE ENERGY PREDICTED BY IDOCK:   -7.70 KCAL/MOL
REMARK 923 INTER-LIGAND FREE ENERGY PREDICTED BY IDOCK:   -7.78 KCAL/MOL
REMARK 924 INTRA-LIGAND FREE ENERGY PREDICTED BY IDOCK:    0.08 KCAL/MOL
REMARK 927      BINDING AFFINITY PREDICTED BY RF-SCORE:    0.00 PKD
ROOT
HETATM    1  C   UNL     1      -8.889   1.562  72.138  1.00  0.00    -0.090 C  
HETATM    2  C   UNL     1      -9.649   2.853  72.203  1.00  0.00    -0.210 A  
HETATM    3  C   UNL     1      -9.485   3.832  71.210  1.00  0.00    -0.229 A  
HETATM    4  C   UNL     1     -10.058   5.104  71.354  1.00  0.00    -0.265 A  
HETATM    5  C   UNL     1     -10.880   5.347  72.468  1.00  0.00    -0.304 A  
HETATM    6  C   UNL     1     -11.117   4.351  73.415  1.00  0.00    -0.394 A  
HETATM    7  C   UNL     1     -10.489   3.115  73.292  1.00  0.00    -0.255 A  
ENDROOT
BRANCH   4   8
HETATM    8  C   UNL     1      -9.712   6.217  70.369  1.00  0.00    -0.165 C  
BRANCH   8   9
HETATM    9  N   UNL     1     -10.799   7.192  70.181  1.00  0.00    -0.250 NA 
HETATM   10  C   UNL     1     -10.883   8.213  71.252  1.00  0.00    -0.237 C  
HETATM   11  C   UNL     1     -10.193   9.608  71.051  1.00  0.00    -0.182 C  
HETATM   12  N   UNL     1      -9.977  10.102  69.666  1.00  0.00    -0.233 NA 
HETATM   13  C   UNL     1      -9.605   8.918  68.862  1.00  0.00    -0.160 C  
HETATM   14  C   UNL     1     -10.691   7.837  68.871  1.00  0.00    -0.085 C  
BRANCH  12  15
HETATM   15  C   UNL     1     -11.157  10.823  69.078  1.00  0.00    -0.253 C  
BRANCH  15  16
HETATM   16  C   UNL     1     -11.961  11.623  70.105  1.00  0.00    -0.441 A  
HETATM   17  C   UNL     1     -12.828  10.928  70.981  1.00  0.00    -0.472 A  
HETATM   18  C   UNL     1     -11.812  12.996  70.262  1.00  0.00    -0.294 A  
HETATM   19  C   UNL     1     -13.498  11.600  72.005  1.00  0.00    -0.304 A  
HETATM   20  C   UNL     1     -13.323  12.969  72.159  1.00  0.00    -0.622 A  
HETATM   21  C   UNL     1     -12.491  13.669  71.282  1.00  0.00    -0.412 A  
ENDBRANCH  15  16
BRANCH  15  22
HETATM   22  C   UNL     1     -10.774  11.645  67.828  1.00  0.00    -0.244 A  
HETATM   23  C   UNL     1     -10.227  13.651  65.935  1.00  0.00    -0.311 A  
HETATM   24  C   UNL     1      -9.499  12.236  67.752  1.00  0.00    -0.197 A  
HETATM   25 CL   UNL     1      -9.947  14.994  64.894  1.00  0.00    -0.220 Cl 
HETATM   26  C   UNL     1     -11.466  13.017  65.928  1.00  0.00    -0.374 A  
HETATM   27  C   UNL     1     -11.726  11.992  66.843  1.00  0.00    -0.342 A  
HETATM   28  C   UNL     1      -9.230  13.237  66.814  1.00  0.00    -0.237 A  
ENDBRANCH  15  22
ENDBRANCH  12  15
ENDBRANCH   8   9
ENDBRANCH   4   8
TORSDOF 5
ENDMDL
MODEL       53
REMARK 921   NORMALIZED FREE ENERGY PREDICTED BY IDOCK:   -5.39 KCAL/MOL
REMARK 922        TOTAL FREE ENERGY PREDICTED BY IDOCK:   -7.67 KCAL/MOL
REMARK 923 INTER-LIGAND FREE ENERGY PREDICTED BY IDOCK:   -7.02 KCAL/MOL
REMARK 924 INTRA-LIGAND FREE ENERGY PREDICTED BY IDOCK:   -0.64 KCAL/MOL
REMARK 927      BINDING AFFINITY PREDICTED BY RF-SCORE:    0.00 PKD
ROOT
HETATM    1  C   UNL     1      -9.996  17.484  66.218  1.00  0.00    -0.316 C  
HETATM    2  C   UNL     1     -10.480  16.073  66.057  1.00  0.00    -0.356 A  
HETATM    3  C   UNL     1     -10.269  15.124  67.069  1.00  0.00    -0.262 A  
HETATM    4  C   UNL     1     -10.564  13.770  66.855  1.00  0.00    -0.276 A  
HETATM    5  C   UNL     1     -11.165  13.398  65.640  1.00  0.00    -0.307 A  
HETATM    6  C   UNL     1     -11.456  14.349  64.664  1.00  0.00    -0.390 A  
HETATM    7  C   UNL     1     -11.098  15.679  64.864  1.00  0.00    -0.414 A  
ENDROOT
BRANCH   4   8
HETATM    8  C   UNL     1     -10.149  12.722  67.885  1.00  0.00    -0.231 C  
BRANCH   8   9
HETATM    9  N   UNL     1     -10.753  11.400  67.653  1.00  0.00    -0.204 NA 
HETATM   10  C   UNL     1      -9.967  10.530  66.746  1.00  0.00    -0.204 C  
HETATM   11  C   UNL     1      -8.971   9.479  67.350  1.00  0.00    -0.131 C  
HETATM   12  N   UNL     1      -9.221   8.968  68.724  1.00  0.00    -0.133 NA 
HETATM   13  C   UNL     1      -9.717  10.122  69.506  1.00  0.00    -0.229 C  
HETATM   14  C   UNL     1     -11.003  10.717  68.923  1.00  0.00    -0.241 C  
BRANCH  12  15
HETATM   15  C   UNL     1     -10.173   7.807  68.785  1.00  0.00    -0.201 C  
BRANCH  15  16
HETATM   16  C   UNL     1      -9.848   6.693  67.787  1.00  0.00    -0.144 A  
HETATM   17  C   UNL     1      -8.502   6.280  67.646  1.00  0.00    -0.116 A  
HETATM   18  C   UNL     1     -10.834   6.020  67.075  1.00  0.00    -0.413 A  
HETATM   19  C   UNL     1      -8.171   5.195  66.831  1.00  0.00    -0.108 A  
HETATM   20  C   UNL     1      -9.171   4.522  66.140  1.00  0.00    -0.139 A  
HETATM   21  C   UNL     1     -10.499   4.941  66.252  1.00  0.00    -0.349 A  
ENDBRANCH  15  16
BRANCH  15  22
HETATM   22  C   UNL     1     -10.375   7.295  70.228  1.00  0.00    -0.219 A  
HETATM   23  C   UNL     1     -10.793   5.780  72.560  1.00  0.00    -0.250 A  
HETATM   24  C   UNL     1      -9.292   6.714  70.914  1.00  0.00    -0.159 A  
HETATM   25 CL   UNL     1     -11.068   4.715  73.885  1.00  0.00    -0.332 Cl 
HETATM   26  C   UNL     1     -11.869   6.421  71.954  1.00  0.00    -0.380 A  
HETATM   27  C   UNL     1     -11.657   7.207  70.816  1.00  0.00    -0.358 A  
HETATM   28  C   UNL     1      -9.502   5.957  72.070  1.00  0.00    -0.164 A  
ENDBRANCH  15  22
ENDBRANCH  12  15
ENDBRANCH   8   9
ENDBRANCH   4   8
TORSDOF 5
ENDMDL
MODEL       54
REMARK 921   NORMALIZED FREE ENERGY PREDICTED BY IDOCK:   -5.38 KCAL/MOL
REMARK 922        TOTAL FREE ENERGY PREDICTED BY IDOCK:   -7.66 KCAL/MOL
REMARK 923 INTER-LIGAND FREE ENERGY PREDICTED BY IDOCK:   -7.78 KCAL/MOL
REMARK 924 INTRA-LIGAND FREE ENERGY PREDICTED BY IDOCK:    0.12 KCAL/MOL
REMARK 927      BINDING AFFINITY PREDICTED BY RF-SCORE:    0.00 PKD
ROOT
HETATM    1  C   UNL     1      -8.664   6.848  70.832  1.00  0.00    -0.141 C  
HETATM    2  C   UNL     1      -9.312   6.978  69.485  1.00  0.00    -0.148 A  
HETATM    3  C   UNL     1      -8.982   8.043  68.632  1.00  0.00    -0.134 A  
HETATM    4  C   UNL     1      -9.705   8.266  67.451  1.00  0.00    -0.225 A  
HETATM    5  C   UNL     1     -10.704   7.346  67.092  1.00  0.00    -0.400 A  
HETATM    6  C   UNL     1     -10.979   6.238  67.892  1.00  0.00    -0.421 A  
HETATM    7  C   UNL     1     -10.298   6.065  69.094  1.00  0.00    -0.289 A  
ENDROOT
BRANCH   4   8
HETATM    8  C   UNL     1      -9.468   9.534  66.635  1.00  0.00    -0.170 C  
BRANCH   8   9
HETATM    9  N   UNL     1     -10.536  10.536  66.784  1.00  0.00    -0.247 NA 
HETATM   10  C   UNL     1     -11.317  10.400  68.037  1.00  0.00    -0.204 C  
HETATM   11  C   UNL     1     -10.935  11.267  69.287  1.00  0.00    -0.243 C  
HETATM   12  N   UNL     1     -10.230  12.558  69.071  1.00  0.00     0.025 NA 
HETATM   13  C   UNL     1      -9.286  12.326  67.956  1.00  0.00    -0.195 C  
HETATM   14  C   UNL     1      -9.992  11.890  66.669  1.00  0.00    -0.199 C  
BRANCH  12  15
HETATM   15  C   UNL     1     -11.142  13.719  68.792  1.00  0.00    -0.266 C  
BRANCH  15  16
HETATM   16  C   UNL     1     -12.114  14.024  69.935  1.00  0.00    -0.406 A  
HETATM   17  C   UNL     1     -12.346  13.030  70.913  1.00  0.00    -0.376 A  
HETATM   18  C   UNL     1     -12.713  15.269  70.090  1.00  0.00    -0.278 A  
HETATM   19  C   UNL     1     -13.137  13.300  72.032  1.00  0.00    -0.475 A  
HETATM   20  C   UNL     1     -13.713  14.556  72.181  1.00  0.00    -0.547 A  
HETATM   21  C   UNL     1     -13.512  15.535  71.206  1.00  0.00    -0.560 A  
ENDBRANCH  15  16
BRANCH  15  22
HETATM   22  C   UNL     1     -10.370  14.961  68.299  1.00  0.00    -0.232 A  
HETATM   23  C   UNL     1      -9.398  17.546  67.767  1.00  0.00    -0.257 A  
HETATM   24  C   UNL     1      -9.408  15.556  69.136  1.00  0.00    -0.250 A  
HETATM   25 CL   UNL     1      -8.935  19.189  67.537  1.00  0.00    -0.321 Cl 
HETATM   26  C   UNL     1     -10.277  16.944  66.872  1.00  0.00    -0.296 A  
HETATM   27  C   UNL     1     -10.731  15.643  67.115  1.00  0.00    -0.314 A  
HETATM   28  C   UNL     1      -8.930  16.843  68.874  1.00  0.00    -0.215 A  
ENDBRANCH  15  22
ENDBRANCH  12  15
ENDBRANCH   8   9
ENDBRANCH   4   8
TORSDOF 5
ENDMDL
MODEL       55
REMARK 921   NORMALIZED FREE ENERGY PREDICTED BY IDOCK:   -5.30 KCAL/MOL
REMARK 922        TOTAL FREE ENERGY PREDICTED BY IDOCK:   -7.56 KCAL/MOL
REMARK 923 INTER-LIGAND FREE ENERGY PREDICTED BY IDOCK:   -6.68 KCAL/MOL
REMARK 924 INTRA-LIGAND FREE ENERGY PREDICTED BY IDOCK:   -0.87 KCAL/MOL
REMARK 927      BINDING AFFINITY PREDICTED BY RF-SCORE:    0.00 PKD
ROOT
HETATM    1  C   UNL     1      -9.875   3.623  71.786  1.00  0.00    -0.235 C  
HETATM    2  C   UNL     1     -10.137   4.902  72.525  1.00  0.00    -0.233 A  
HETATM    3  C   UNL     1     -10.936   5.907  71.958  1.00  0.00    -0.319 A  
HETATM    4  C   UNL     1     -11.043   7.167  72.564  1.00  0.00    -0.317 A  
HETATM    5  C   UNL     1     -10.410   7.371  73.802  1.00  0.00    -0.299 A  
HETATM    6  C   UNL     1      -9.685   6.349  74.414  1.00  0.00    -0.310 A  
HETATM    7  C   UNL     1      -9.534   5.125  73.768  1.00  0.00    -0.132 A  
ENDROOT
BRANCH   4   8
HETATM    8  C   UNL     1     -11.752   8.309  71.841  1.00  0.00    -0.322 C  
BRANCH   8   9
HETATM    9  N   UNL     1     -10.858   9.424  71.489  1.00  0.00    -0.359 NA 
HETATM   10  C   UNL     1      -9.612   9.004  70.805  1.00  0.00    -0.249 C  
HETATM   11  C   UNL     1      -9.540   9.034  69.237  1.00  0.00    -0.162 C  
HETATM   12  N   UNL     1     -10.430   9.969  68.501  1.00  0.00    -0.192 NA 
HETATM   13  C   UNL     1     -11.718   9.968  69.229  1.00  0.00     0.093 C  
HETATM   14  C   UNL     1     -11.569  10.420  70.685  1.00  0.00    -0.349 C  
BRANCH  12  15
HETATM   15  C   UNL     1      -9.877  11.359  68.355  1.00  0.00    -0.205 C  
BRANCH  15  16
HETATM   16  C   UNL     1      -8.413  11.393  67.910  1.00  0.00    -0.139 A  
HETATM   17  C   UNL     1      -7.427  11.786  68.845  1.00  0.00    -0.080 A  
HETATM   18  C   UNL     1      -8.009  10.975  66.647  1.00  0.00    -0.156 A  
HETATM   19  C   UNL     1      -6.071  11.728  68.519  1.00  0.00    -0.050 A  
HETATM   20  C   UNL     1      -5.683  11.290  67.259  1.00  0.00    -0.069 A  
HETATM   21  C   UNL     1      -6.651  10.926  66.319  1.00  0.00    -0.126 A  
ENDBRANCH  15  16
BRANCH  15  22
HETATM   22  C   UNL     1     -10.795  12.264  67.505  1.00  0.00    -0.271 A  
HETATM   23  C   UNL     1     -11.923  13.999  65.601  1.00  0.00    -0.397 A  
HETATM   24  C   UNL     1     -11.351  11.763  66.314  1.00  0.00    -0.350 A  
HETATM   25 CL   UNL     1     -12.457  15.074  64.366  1.00  0.00    -0.329 Cl 
HETATM   26  C   UNL     1     -11.465  14.510  66.812  1.00  0.00    -0.376 A  
HETATM   27  C   UNL     1     -10.939  13.644  67.776  1.00  0.00    -0.276 A  
HETATM   28  C   UNL     1     -11.908  12.628  65.366  1.00  0.00    -0.473 A  
ENDBRANCH  15  22
ENDBRANCH  12  15
ENDBRANCH   8   9
ENDBRANCH   4   8
TORSDOF 5
ENDMDL
MODEL       56
REMARK 921   NORMALIZED FREE ENERGY PREDICTED BY IDOCK:   -5.29 KCAL/MOL
REMARK 922        TOTAL FREE ENERGY PREDICTED BY IDOCK:   -7.54 KCAL/MOL
REMARK 923 INTER-LIGAND FREE ENERGY PREDICTED BY IDOCK:   -8.99 KCAL/MOL
REMARK 924 INTRA-LIGAND FREE ENERGY PREDICTED BY IDOCK:    1.45 KCAL/MOL
REMARK 927      BINDING AFFINITY PREDICTED BY RF-SCORE:    0.00 PKD
ROOT
HETATM    1  C   UNL     1     -10.889  19.571  67.442  1.00  0.00    -0.536 C  
HETATM    2  C   UNL     1     -10.094  18.379  66.997  1.00  0.00    -0.382 A  
HETATM    3  C   UNL     1     -10.673  17.395  66.182  1.00  0.00    -0.100 A  
HETATM    4  C   UNL     1      -9.993  16.200  65.906  1.00  0.00    -0.384 A  
HETATM    5  C   UNL     1      -8.680  16.050  66.384  1.00  0.00    -0.362 A  
HETATM    6  C   UNL     1      -8.066  17.061  67.122  1.00  0.00    -0.216 A  
HETATM    7  C   UNL     1      -8.777  18.213  67.443  1.00  0.00    -0.245 A  
ENDROOT
BRANCH   4   8
HETATM    8  C   UNL     1     -10.707  15.059  65.186  1.00  0.00    -0.415 C  
BRANCH   8   9
HETATM    9  N   UNL     1     -11.740  14.404  66.005  1.00  0.00    -0.372 NA 
HETATM   10  C   UNL     1     -11.638  12.926  66.032  1.00  0.00    -0.375 C  
HETATM   11  C   UNL     1     -10.883  12.222  67.214  1.00  0.00    -0.245 C  
HETATM   12  N   UNL     1     -10.787  12.927  68.519  1.00  0.00    -0.250 NA 
HETATM   13  C   UNL     1     -10.585  14.357  68.198  1.00  0.00    -0.236 C  
HETATM   14  C   UNL     1     -11.734  14.940  67.368  1.00  0.00    -0.293 C  
BRANCH  12  15
HETATM   15  C   UNL     1     -11.974  12.723  69.418  1.00  0.00    -0.263 C  
BRANCH  15  16
HETATM   16  C   UNL     1     -11.955  11.387  70.164  1.00  0.00    -0.460 A  
HETATM   17  C   UNL     1     -10.864  10.510  69.962  1.00  0.00    -0.320 A  
HETATM   18  C   UNL     1     -12.930  11.039  71.093  1.00  0.00    -0.421 A  
HETATM   19  C   UNL     1     -10.748   9.332  70.702  1.00  0.00    -0.331 A  
HETATM   20  C   UNL     1     -11.721   9.008  71.639  1.00  0.00    -0.431 A  
HETATM   21  C   UNL     1     -12.817   9.854  71.826  1.00  0.00    -0.540 A  
ENDBRANCH  15  16
BRANCH  15  22
HETATM   22  C   UNL     1     -12.219  13.935  70.342  1.00  0.00    -0.438 A  
HETATM   23  C   UNL     1     -12.672  15.687  72.495  1.00  0.00    -0.433 A  
HETATM   24  C   UNL     1     -11.143  14.487  71.062  1.00  0.00     0.256 A  
HETATM   25 CL   UNL     1     -12.956  16.620  73.914  1.00  0.00    -0.144 Cl 
HETATM   26  C   UNL     1     -13.749  15.230  71.741  1.00  0.00    -0.605 A  
HETATM   27  C   UNL     1     -13.522  14.390  70.646  1.00  0.00     0.000 A  
HETATM   28  C   UNL     1     -11.370  15.353  72.135  1.00  0.00    -0.447 A  
ENDBRANCH  15  22
ENDBRANCH  12  15
ENDBRANCH   8   9
ENDBRANCH   4   8
TORSDOF 5
ENDMDL
MODEL       57
REMARK 921   NORMALIZED FREE ENERGY PREDICTED BY IDOCK:   -5.29 KCAL/MOL
REMARK 922        TOTAL FREE ENERGY PREDICTED BY IDOCK:   -7.54 KCAL/MOL
REMARK 923 INTER-LIGAND FREE ENERGY PREDICTED BY IDOCK:   -7.89 KCAL/MOL
REMARK 924 INTRA-LIGAND FREE ENERGY PREDICTED BY IDOCK:    0.35 KCAL/MOL
REMARK 927      BINDING AFFINITY PREDICTED BY RF-SCORE:    0.00 PKD
ROOT
HETATM    1  C   UNL     1     -11.943  12.749  63.132  1.00  0.00    -0.347 C  
HETATM    2  C   UNL     1     -10.992  11.724  63.674  1.00  0.00    -0.513 A  
HETATM    3  C   UNL     1     -11.031  11.355  65.028  1.00  0.00    -0.271 A  
HETATM    4  C   UNL     1     -10.038  10.531  65.576  1.00  0.00    -0.349 A  
HETATM    5  C   UNL     1      -9.057  10.002  64.720  1.00  0.00    -0.268 A  
HETATM    6  C   UNL     1      -9.063  10.294  63.357  1.00  0.00    -0.284 A  
HETATM    7  C   UNL     1     -10.016  11.167  62.839  1.00  0.00    -0.282 A  
ENDROOT
BRANCH   4   8
HETATM    8  C   UNL     1      -9.979  10.298  67.083  1.00  0.00    -0.197 C  
BRANCH   8   9
HETATM    9  N   UNL     1      -9.370  11.413  67.825  1.00  0.00    -0.159 NA 
HETATM   10  C   UNL     1      -8.826  12.486  66.959  1.00  0.00    -0.212 C  
HETATM   11  C   UNL     1      -9.701  13.751  66.650  1.00  0.00    -0.289 C  
HETATM   12  N   UNL     1     -10.759  14.140  67.619  1.00  0.00    -0.256 NA 
HETATM   13  C   UNL     1     -11.350  12.876  68.108  1.00  0.00    -0.289 C  
HETATM   14  C   UNL     1     -10.319  11.970  68.790  1.00  0.00    -0.160 C  
BRANCH  12  15
HETATM   15  C   UNL     1     -10.271  14.999  68.752  1.00  0.00    -0.235 C  
BRANCH  15  16
HETATM   16  C   UNL     1      -9.866  16.410  68.321  1.00  0.00    -0.229 A  
HETATM   17  C   UNL     1      -8.514  16.802  68.462  1.00  0.00    -0.244 A  
HETATM   18  C   UNL     1     -10.759  17.292  67.723  1.00  0.00    -0.333 A  
HETATM   19  C   UNL     1      -8.075  18.038  67.983  1.00  0.00    -0.259 A  
HETATM   20  C   UNL     1      -8.977  18.899  67.371  1.00  0.00    -0.297 A  
HETATM   21  C   UNL     1     -10.319  18.533  67.252  1.00  0.00    -0.430 A  
ENDBRANCH  15  16
BRANCH  15  22
HETATM   22  C   UNL     1     -11.241  14.983  69.954  1.00  0.00    -0.303 A  
HETATM   23  C   UNL     1     -13.058  15.592  72.011  1.00  0.00    -0.448 A  
HETATM   24  C   UNL     1     -12.628  14.945  69.724  1.00  0.00    -0.147 A  
HETATM   25 CL   UNL     1     -14.159  16.130  73.221  1.00  0.00    -0.123 Cl 
HETATM   26  C   UNL     1     -11.695  15.544  72.288  1.00  0.00    -0.578 A  
HETATM   27  C   UNL     1     -10.793  15.203  71.276  1.00  0.00    -0.028 A  
HETATM   28  C   UNL     1     -13.531  15.253  70.747  1.00  0.00    -0.359 A  
ENDBRANCH  15  22
ENDBRANCH  12  15
ENDBRANCH   8   9
ENDBRANCH   4   8
TORSDOF 5
ENDMDL
MODEL       58
REMARK 921   NORMALIZED FREE ENERGY PREDICTED BY IDOCK:   -5.27 KCAL/MOL
REMARK 922        TOTAL FREE ENERGY PREDICTED BY IDOCK:   -7.52 KCAL/MOL
REMARK 923 INTER-LIGAND FREE ENERGY PREDICTED BY IDOCK:   -6.94 KCAL/MOL
REMARK 924 INTRA-LIGAND FREE ENERGY PREDICTED BY IDOCK:   -0.58 KCAL/MOL
REMARK 927      BINDING AFFINITY PREDICTED BY RF-SCORE:    0.00 PKD
ROOT
HETATM    1  C   UNL     1     -11.548  15.686  68.188  1.00  0.00    -0.290 C  
HETATM    2  C   UNL     1     -11.411  14.447  67.353  1.00  0.00    -0.353 A  
HETATM    3  C   UNL     1     -10.263  13.645  67.446  1.00  0.00    -0.241 A  
HETATM    4  C   UNL     1     -10.052  12.588  66.549  1.00  0.00    -0.250 A  
HETATM    5  C   UNL     1     -11.060  12.288  65.617  1.00  0.00    -0.357 A  
HETATM    6  C   UNL     1     -12.241  13.027  65.576  1.00  0.00    -0.521 A  
HETATM    7  C   UNL     1     -12.408  14.114  66.429  1.00  0.00    -0.431 A  
ENDROOT
BRANCH   4   8
HETATM    8  C   UNL     1      -8.716  11.850  66.532  1.00  0.00    -0.158 C  
BRANCH   8   9
HETATM    9  N   UNL     1      -8.557  10.900  67.645  1.00  0.00    -0.123 NA 
HETATM   10  C   UNL     1      -9.742  10.805  68.529  1.00  0.00    -0.182 C  
HETATM   11  C   UNL     1     -10.798   9.669  68.293  1.00  0.00    -0.182 C  
HETATM   12  N   UNL     1     -10.361   8.419  67.618  1.00  0.00    -0.242 NA 
HETATM   13  C   UNL     1      -9.403   8.833  66.570  1.00  0.00    -0.203 C  
HETATM   14  C   UNL     1      -8.190   9.575  67.142  1.00  0.00    -0.113 C  
BRANCH  12  15
HETATM   15  C   UNL     1      -9.762   7.397  68.543  1.00  0.00    -0.151 C  
BRANCH  15  16
HETATM   16  C   UNL     1     -10.333   7.446  69.963  1.00  0.00    -0.224 A  
HETATM   17  C   UNL     1     -11.573   6.816  70.219  1.00  0.00    -0.417 A  
HETATM   18  C   UNL     1      -9.640   8.017  71.024  1.00  0.00    -0.184 A  
HETATM   19  C   UNL     1     -12.080   6.740  71.518  1.00  0.00    -0.410 A  
HETATM   20  C   UNL     1     -11.366   7.299  72.570  1.00  0.00    -0.338 A  
HETATM   21  C   UNL     1     -10.154   7.948  72.323  1.00  0.00    -0.297 A  
ENDBRANCH  15  16
BRANCH  15  22
HETATM   22  C   UNL     1      -9.771   5.980  67.930  1.00  0.00    -0.123 A  
HETATM   23  C   UNL     1      -9.335   3.651  66.416  1.00  0.00    -0.182 A  
HETATM   24  C   UNL     1      -8.768   5.063  68.292  1.00  0.00    -0.106 A  
HETATM   25 CL   UNL     1      -8.959   2.319  65.392  1.00  0.00    -0.127 Cl 
HETATM   26  C   UNL     1     -10.394   4.495  66.092  1.00  0.00    -0.258 A  
HETATM   27  C   UNL     1     -10.637   5.633  66.868  1.00  0.00    -0.367 A  
HETATM   28  C   UNL     1      -8.549   3.908  67.535  1.00  0.00    -0.111 A  
ENDBRANCH  15  22
ENDBRANCH  12  15
ENDBRANCH   8   9
ENDBRANCH   4   8
TORSDOF 5
ENDMDL
MODEL       59
REMARK 921   NORMALIZED FREE ENERGY PREDICTED BY IDOCK:   -5.26 KCAL/MOL
REMARK 922        TOTAL FREE ENERGY PREDICTED BY IDOCK:   -7.51 KCAL/MOL
REMARK 923 INTER-LIGAND FREE ENERGY PREDICTED BY IDOCK:   -6.88 KCAL/MOL
REMARK 924 INTRA-LIGAND FREE ENERGY PREDICTED BY IDOCK:   -0.63 KCAL/MOL
REMARK 927      BINDING AFFINITY PREDICTED BY RF-SCORE:    0.00 PKD
ROOT
HETATM    1  C   UNL     1      -8.549  18.596  66.433  1.00  0.00    -0.284 C  
HETATM    2  C   UNL     1      -9.423  17.566  67.086  1.00  0.00    -0.259 A  
HETATM    3  C   UNL     1      -9.877  16.451  66.365  1.00  0.00    -0.312 A  
HETATM    4  C   UNL     1     -10.829  15.579  66.916  1.00  0.00    -0.301 A  
HETATM    5  C   UNL     1     -11.246  15.792  68.241  1.00  0.00    -0.356 A  
HETATM    6  C   UNL     1     -10.733  16.848  68.992  1.00  0.00    -0.308 A  
HETATM    7  C   UNL     1      -9.839  17.743  68.411  1.00  0.00    -0.347 A  
ENDROOT
BRANCH   4   8
HETATM    8  C   UNL     1     -11.460  14.489  66.054  1.00  0.00    -0.348 C  
BRANCH   8   9
HETATM    9  N   UNL     1     -10.687  13.236  66.036  1.00  0.00    -0.275 NA 
HETATM   10  C   UNL     1      -9.407  13.308  66.779  1.00  0.00    -0.252 C  
HETATM   11  C   UNL     1      -9.343  12.808  68.265  1.00  0.00    -0.194 C  
HETATM   12  N   UNL     1     -10.327  11.790  68.717  1.00  0.00    -0.205 NA 
HETATM   13  C   UNL     1     -11.606  12.135  68.057  1.00  0.00    -0.348 C  
HETATM   14  C   UNL     1     -11.500  12.122  66.529  1.00  0.00    -0.369 C  
BRANCH  12  15
HETATM   15  C   UNL     1      -9.922  10.371  68.431  1.00  0.00    -0.162 C  
BRANCH  15  16
HETATM   16  C   UNL     1      -8.411  10.185  68.274  1.00  0.00    -0.115 A  
HETATM   17  C   UNL     1      -7.597  10.228  69.430  1.00  0.00    -0.137 A  
HETATM   18  C   UNL     1      -7.819   9.898  67.049  1.00  0.00    -0.102 A  
HETATM   19  C   UNL     1      -6.230   9.955  69.351  1.00  0.00    -0.044 A  
HETATM   20  C   UNL     1      -5.658   9.651  68.122  1.00  0.00    -0.040 A  
HETATM   21  C   UNL     1      -6.448   9.635  66.970  1.00  0.00    -0.066 A  
ENDBRANCH  15  16
BRANCH  15  22
HETATM   22  C   UNL     1     -10.560   9.372  69.419  1.00  0.00    -0.235 A  
HETATM   23  C   UNL     1     -11.113   7.508  71.452  1.00  0.00    -0.238 A  
HETATM   24  C   UNL     1     -10.893   9.799  70.718  1.00  0.00    -0.403 A  
HETATM   25 CL   UNL     1     -11.281   6.368  72.731  1.00  0.00    -0.278 Cl 
HETATM   26  C   UNL     1     -10.878   7.063  70.155  1.00  0.00    -0.285 A  
HETATM   27  C   UNL     1     -10.642   7.990  69.134  1.00  0.00    -0.181 A  
HETATM   28  C   UNL     1     -11.163   8.872  71.729  1.00  0.00    -0.432 A  
ENDBRANCH  15  22
ENDBRANCH  12  15
ENDBRANCH   8   9
ENDBRANCH   4   8
TORSDOF 5
ENDMDL
MODEL       60
REMARK 921   NORMALIZED FREE ENERGY PREDICTED BY IDOCK:   -5.24 KCAL/MOL
REMARK 922        TOTAL FREE ENERGY PREDICTED BY IDOCK:   -7.48 KCAL/MOL
REMARK 923 INTER-LIGAND FREE ENERGY PREDICTED BY IDOCK:   -6.62 KCAL/MOL
REMARK 924 INTRA-LIGAND FREE ENERGY PREDICTED BY IDOCK:   -0.86 KCAL/MOL
REMARK 927      BINDING AFFINITY PREDICTED BY RF-SCORE:    0.00 PKD
ROOT
HETATM    1  C   UNL     1     -14.056   6.654  72.077  1.00  0.00    -0.057 C  
HETATM    2  C   UNL     1     -12.861   7.560  72.106  1.00  0.00    -0.132 A  
HETATM    3  C   UNL     1     -12.920   8.842  71.537  1.00  0.00    -0.359 A  
HETATM    4  C   UNL     1     -11.762   9.624  71.408  1.00  0.00    -0.478 A  
HETATM    5  C   UNL     1     -10.560   9.136  71.948  1.00  0.00    -0.303 A  
HETATM    6  C   UNL     1     -10.512   7.901  72.591  1.00  0.00    -0.384 A  
HETATM    7  C   UNL     1     -11.655   7.107  72.653  1.00  0.00    -0.228 A  
ENDROOT
BRANCH   4   8
HETATM    8  C   UNL     1     -11.801  10.927  70.614  1.00  0.00    -0.352 C  
BRANCH   8   9
HETATM    9  N   UNL     1     -10.726  11.037  69.616  1.00  0.00    -0.191 NA 
HETATM   10  C   UNL     1     -10.988  10.287  68.364  1.00  0.00    -0.260 C  
HETATM   11  C   UNL     1     -11.609  11.031  67.130  1.00  0.00     0.143 C  
HETATM   12  N   UNL     1     -11.404  12.497  67.004  1.00  0.00    -0.308 NA 
HETATM   13  C   UNL     1     -11.494  13.042  68.377  1.00  0.00    -0.310 C  
HETATM   14  C   UNL     1     -10.443  12.442  69.316  1.00  0.00     0.219 C  
BRANCH  12  15
HETATM   15  C   UNL     1     -10.114  12.885  66.338  1.00  0.00    -0.269 C  
BRANCH  15  16
HETATM   16  C   UNL     1      -9.771  12.024  65.120  1.00  0.00    -0.163 A  
HETATM   17  C   UNL     1     -10.459  12.259  63.906  1.00  0.00    -0.458 A  
HETATM   18  C   UNL     1      -8.754  11.076  65.140  1.00  0.00    -0.068 A  
HETATM   19  C   UNL     1     -10.104  11.575  62.741  1.00  0.00    -0.056 A  
HETATM   20  C   UNL     1      -9.073  10.645  62.775  1.00  0.00    -0.309 A  
HETATM   21  C   UNL     1      -8.407  10.386  63.975  1.00  0.00    -0.139 A  
ENDBRANCH  15  16
BRANCH  15  22
HETATM   22  C   UNL     1     -10.036  14.401  66.056  1.00  0.00    -0.337 A  
HETATM   23  C   UNL     1     -10.200  17.207  66.118  1.00  0.00    -0.334 A  
HETATM   24  C   UNL     1      -9.029  15.168  66.669  1.00  0.00    -0.319 A  
HETATM   25 CL   UNL     1     -10.389  18.909  66.304  1.00  0.00    -0.480 Cl 
HETATM   26  C   UNL     1     -11.160  16.477  65.424  1.00  0.00    -0.021 A  
HETATM   27  C   UNL     1     -11.059  15.083  65.359  1.00  0.00    -0.377 A  
HETATM   28  C   UNL     1      -9.114  16.563  66.703  1.00  0.00    -0.283 A  
ENDBRANCH  15  22
ENDBRANCH  12  15
ENDBRANCH   8   9
ENDBRANCH   4   8
TORSDOF 5
ENDMDL
MODEL       61
REMARK 921   NORMALIZED FREE ENERGY PREDICTED BY IDOCK:   -5.21 KCAL/MOL
REMARK 922        TOTAL FREE ENERGY PREDICTED BY IDOCK:   -7.44 KCAL/MOL
REMARK 923 INTER-LIGAND FREE ENERGY PREDICTED BY IDOCK:   -6.73 KCAL/MOL
REMARK 924 INTRA-LIGAND FREE ENERGY PREDICTED BY IDOCK:   -0.71 KCAL/MOL
REMARK 927      BINDING AFFINITY PREDICTED BY RF-SCORE:    0.00 PKD
ROOT
HETATM    1  C   UNL     1      -9.218   3.374  68.524  1.00  0.00    -0.229 C  
HETATM    2  C   UNL     1      -9.723   4.230  69.647  1.00  0.00    -0.284 A  
HETATM    3  C   UNL     1     -10.109   5.560  69.417  1.00  0.00    -0.306 A  
HETATM    4  C   UNL     1     -10.417   6.413  70.486  1.00  0.00    -0.270 A  
HETATM    5  C   UNL     1     -10.424   5.882  71.788  1.00  0.00    -0.276 A  
HETATM    6  C   UNL     1     -10.125   4.540  72.015  1.00  0.00    -0.264 A  
HETATM    7  C   UNL     1      -9.757   3.721  70.951  1.00  0.00    -0.248 A  
ENDROOT
BRANCH   4   8
HETATM    8  C   UNL     1     -10.643   7.902  70.239  1.00  0.00    -0.231 C  
BRANCH   8   9
HETATM    9  N   UNL     1      -9.789   8.456  69.177  1.00  0.00    -0.178 NA 
HETATM   10  C   UNL     1     -10.393   8.391  67.825  1.00  0.00    -0.235 C  
HETATM   11  C   UNL     1     -11.155   9.639  67.254  1.00  0.00     0.120 C  
HETATM   12  N   UNL     1     -10.797  10.988  67.767  1.00  0.00    -0.229 NA 
HETATM   13  C   UNL     1     -10.536  10.820  69.213  1.00  0.00    -0.217 C  
HETATM   14  C   UNL     1      -9.399   9.831  69.494  1.00  0.00    -0.213 C  
BRANCH  12  15
HETATM   15  C   UNL     1      -9.632  11.625  67.064  1.00  0.00    -0.184 C  
BRANCH  15  16
HETATM   16  C   UNL     1      -9.466  11.167  65.613  1.00  0.00    -0.252 A  
HETATM   17  C   UNL     1     -10.339  11.692  64.631  1.00  0.00    -0.341 A  
HETATM   18  C   UNL     1      -8.441  10.318  65.212  1.00  0.00    -0.168 A  
HETATM   19  C   UNL     1     -10.158  11.389  63.280  1.00  0.00    -0.424 A  
HETATM   20  C   UNL     1      -9.117  10.554  62.895  1.00  0.00    -0.290 A  
HETATM   21  C   UNL     1      -8.267  10.009  63.860  1.00  0.00    -0.159 A  
ENDBRANCH  15  16
BRANCH  15  22
HETATM   22  C   UNL     1      -9.624  13.161  67.224  1.00  0.00    -0.233 A  
HETATM   23  C   UNL     1      -9.688  15.950  66.867  1.00  0.00    -0.230 A  
HETATM   24  C   UNL     1     -10.844  13.862  67.242  1.00  0.00    -0.292 A  
HETATM   25 CL   UNL     1      -9.739  17.626  66.479  1.00  0.00    -0.294 Cl 
HETATM   26  C   UNL     1      -8.464  15.293  66.940  1.00  0.00    -0.286 A  
HETATM   27  C   UNL     1      -8.429  13.911  67.157  1.00  0.00    -0.196 A  
HETATM   28  C   UNL     1     -10.875  15.248  67.059  1.00  0.00    -0.321 A  
ENDBRANCH  15  22
ENDBRANCH  12  15
ENDBRANCH   8   9
ENDBRANCH   4   8
TORSDOF 5
ENDMDL
MODEL       62
REMARK 921   NORMALIZED FREE ENERGY PREDICTED BY IDOCK:   -5.19 KCAL/MOL
REMARK 922        TOTAL FREE ENERGY PREDICTED BY IDOCK:   -7.41 KCAL/MOL
REMARK 923 INTER-LIGAND FREE ENERGY PREDICTED BY IDOCK:   -7.00 KCAL/MOL
REMARK 924 INTRA-LIGAND FREE ENERGY PREDICTED BY IDOCK:   -0.41 KCAL/MOL
REMARK 927      BINDING AFFINITY PREDICTED BY RF-SCORE:    0.00 PKD
ROOT
HETATM    1  C   UNL     1      -9.465   2.493  68.673  1.00  0.00    -0.196 C  
HETATM    2  C   UNL     1      -9.299   3.663  67.748  1.00  0.00    -0.242 A  
HETATM    3  C   UNL     1      -8.933   4.923  68.245  1.00  0.00    -0.126 A  
HETATM    4  C   UNL     1      -8.944   6.053  67.415  1.00  0.00    -0.108 A  
HETATM    5  C   UNL     1      -9.236   5.881  66.051  1.00  0.00    -0.143 A  
HETATM    6  C   UNL     1      -9.515   4.617  65.532  1.00  0.00    -0.178 A  
HETATM    7  C   UNL     1      -9.565   3.515  66.381  1.00  0.00    -0.114 A  
ENDROOT
BRANCH   4   8
HETATM    8  C   UNL     1      -8.738   7.444  68.009  1.00  0.00    -0.124 C  
BRANCH   8   9
HETATM    9  N   UNL     1      -9.994   8.120  68.371  1.00  0.00    -0.184 NA 
HETATM   10  C   UNL     1      -9.962   8.779  69.698  1.00  0.00    -0.191 C  
HETATM   11  C   UNL     1      -9.627  10.308  69.797  1.00  0.00    -0.108 C  
HETATM   12  N   UNL     1      -9.902  11.176  68.622  1.00  0.00    -0.198 NA 
HETATM   13  C   UNL     1      -9.559  10.371  67.429  1.00  0.00    -0.154 C  
HETATM   14  C   UNL     1     -10.379   9.080  67.335  1.00  0.00    -0.268 C  
BRANCH  12  15
HETATM   15  C   UNL     1     -11.312  11.691  68.554  1.00  0.00    -0.274 C  
BRANCH  15  16
HETATM   16  C   UNL     1     -12.003  11.768  69.918  1.00  0.00    -0.405 A  
HETATM   17  C   UNL     1     -12.109  13.026  70.556  1.00  0.00    -0.373 A  
HETATM   18  C   UNL     1     -12.599  10.663  70.514  1.00  0.00    -0.433 A  
HETATM   19  C   UNL     1     -12.826  13.164  71.747  1.00  0.00    -0.358 A  
HETATM   20  C   UNL     1     -13.431  12.053  72.319  1.00  0.00    -0.239 A  
HETATM   21  C   UNL     1     -13.308  10.801  71.711  1.00  0.00    -0.429 A  
ENDBRANCH  15  16
BRANCH  15  22
HETATM   22  C   UNL     1     -11.415  13.001  67.743  1.00  0.00    -0.359 A  
HETATM   23  C   UNL     1     -11.236  15.059  65.835  1.00  0.00    -0.313 A  
HETATM   24  C   UNL     1     -12.349  13.095  66.695  1.00  0.00    -0.207 A  
HETATM   25 CL   UNL     1     -11.023  16.215  64.576  1.00  0.00    -0.313 Cl 
HETATM   26  C   UNL     1     -10.358  15.043  66.915  1.00  0.00    -0.266 A  
HETATM   27  C   UNL     1     -10.471  14.043  67.886  1.00  0.00    -0.241 A  
HETATM   28  C   UNL     1     -12.255  14.116  65.744  1.00  0.00    -0.458 A  
ENDBRANCH  15  22
ENDBRANCH  12  15
ENDBRANCH   8   9
ENDBRANCH   4   8
TORSDOF 5
ENDMDL
MODEL       63
REMARK 921   NORMALIZED FREE ENERGY PREDICTED BY IDOCK:   -5.18 KCAL/MOL
REMARK 922        TOTAL FREE ENERGY PREDICTED BY IDOCK:   -7.41 KCAL/MOL
REMARK 923 INTER-LIGAND FREE ENERGY PREDICTED BY IDOCK:   -6.65 KCAL/MOL
REMARK 924 INTRA-LIGAND FREE ENERGY PREDICTED BY IDOCK:   -0.76 KCAL/MOL
REMARK 927      BINDING AFFINITY PREDICTED BY RF-SCORE:    0.00 PKD
ROOT
HETATM    1  C   UNL     1      -9.026   2.849  70.430  1.00  0.00    -0.167 C  
HETATM    2  C   UNL     1      -9.746   3.928  71.184  1.00  0.00    -0.248 A  
HETATM    3  C   UNL     1     -10.313   5.018  70.506  1.00  0.00    -0.285 A  
HETATM    4  C   UNL     1     -10.834   6.111  71.214  1.00  0.00    -0.322 A  
HETATM    5  C   UNL     1     -10.863   6.048  72.618  1.00  0.00    -0.280 A  
HETATM    6  C   UNL     1     -10.379   4.930  73.295  1.00  0.00    -0.233 A  
HETATM    7  C   UNL     1      -9.805   3.882  72.582  1.00  0.00    -0.208 A  
ENDROOT
BRANCH   4   8
HETATM    8  C   UNL     1     -11.267   7.371  70.471  1.00  0.00    -0.274 C  
BRANCH   8   9
HETATM    9  N   UNL     1     -10.174   8.020  69.730  1.00  0.00    -0.201 NA 
HETATM   10  C   UNL     1     -10.058   7.579  68.319  1.00  0.00    -0.183 C  
HETATM   11  C   UNL     1     -10.736   8.423  67.184  1.00  0.00    -0.152 C  
HETATM   12  N   UNL     1     -10.972   9.872  67.418  1.00  0.00    -0.226 NA 
HETATM   13  C   UNL     1     -11.372   9.997  68.837  1.00  0.00    -0.068 C  
HETATM   14  C   UNL     1     -10.298   9.477  69.798  1.00  0.00    -0.230 C  
BRANCH  12  15
HETATM   15  C   UNL     1      -9.795  10.749  67.095  1.00  0.00    -0.185 C  
BRANCH  15  16
HETATM   16  C   UNL     1      -9.149  10.434  65.744  1.00  0.00    -0.197 A  
HETATM   17  C   UNL     1      -9.939  10.531  64.574  1.00  0.00    -0.413 A  
HETATM   18  C   UNL     1      -7.797  10.135  65.616  1.00  0.00    -0.145 A  
HETATM   19  C   UNL     1      -9.367  10.361  63.311  1.00  0.00    -0.335 A  
HETATM   20  C   UNL     1      -8.011  10.081  63.201  1.00  0.00    -0.148 A  
HETATM   21  C   UNL     1      -7.229   9.956  64.351  1.00  0.00    -0.134 A  
ENDBRANCH  15  16
BRANCH  15  22
HETATM   22  C   UNL     1     -10.116  12.247  67.285  1.00  0.00    -0.212 A  
HETATM   23  C   UNL     1     -10.923  14.777  68.211  1.00  0.00    -0.258 A  
HETATM   24  C   UNL     1      -9.241  13.053  68.036  1.00  0.00    -0.212 A  
HETATM   25 CL   UNL     1     -11.478  16.245  68.918  1.00  0.00    -0.322 Cl 
HETATM   26  C   UNL     1     -11.773  14.040  67.390  1.00  0.00    -0.421 A  
HETATM   27  C   UNL     1     -11.357  12.799  66.897  1.00  0.00    -0.371 A  
HETATM   28  C   UNL     1      -9.645  14.308  68.501  1.00  0.00    -0.220 A  
ENDBRANCH  15  22
ENDBRANCH  12  15
ENDBRANCH   8   9
ENDBRANCH   4   8
TORSDOF 5
ENDMDL
MODEL       64
REMARK 921   NORMALIZED FREE ENERGY PREDICTED BY IDOCK:   -5.18 KCAL/MOL
REMARK 922        TOTAL FREE ENERGY PREDICTED BY IDOCK:   -7.40 KCAL/MOL
REMARK 923 INTER-LIGAND FREE ENERGY PREDICTED BY IDOCK:   -6.98 KCAL/MOL
REMARK 924 INTRA-LIGAND FREE ENERGY PREDICTED BY IDOCK:   -0.42 KCAL/MOL
REMARK 927      BINDING AFFINITY PREDICTED BY RF-SCORE:    0.00 PKD
ROOT
HETATM    1  C   UNL     1     -10.365   4.885  70.491  1.00  0.00    -0.242 C  
HETATM    2  C   UNL     1     -10.073   6.104  71.315  1.00  0.00    -0.227 A  
HETATM    3  C   UNL     1     -10.910   7.228  71.253  1.00  0.00    -0.255 A  
HETATM    4  C   UNL     1     -10.550   8.427  71.885  1.00  0.00    -0.370 A  
HETATM    5  C   UNL     1      -9.379   8.451  72.661  1.00  0.00    -0.334 A  
HETATM    6  C   UNL     1      -8.586   7.312  72.797  1.00  0.00    -0.141 A  
HETATM    7  C   UNL     1      -8.922   6.148  72.111  1.00  0.00    -0.142 A  
ENDROOT
BRANCH   4   8
HETATM    8  C   UNL     1     -11.367   9.695  71.649  1.00  0.00    -0.265 C  
BRANCH   8   9
HETATM    9  N   UNL     1     -11.812   9.854  70.255  1.00  0.00    -0.223 NA 
HETATM   10  C   UNL     1     -12.302  11.216  69.932  1.00  0.00    -0.261 C  
HETATM   11  C   UNL     1     -11.327  12.255  69.275  1.00  0.00    -0.256 C  
HETATM   12  N   UNL     1     -10.174  11.750  68.484  1.00  0.00    -0.209 NA 
HETATM   13  C   UNL     1      -9.681  10.552  69.200  1.00  0.00    -0.211 C  
HETATM   14  C   UNL     1     -10.750   9.462  69.327  1.00  0.00    -0.211 C  
BRANCH  12  15
HETATM   15  C   UNL     1     -10.498  11.443  67.049  1.00  0.00    -0.236 C  
BRANCH  15  16
HETATM   16  C   UNL     1     -10.990  12.658  66.259  1.00  0.00    -0.314 A  
HETATM   17  C   UNL     1     -10.206  13.835  66.263  1.00  0.00    -0.298 A  
HETATM   18  C   UNL     1     -12.138  12.621  65.475  1.00  0.00    -0.515 A  
HETATM   19  C   UNL     1     -10.557  14.929  65.470  1.00  0.00    -0.373 A  
HETATM   20  C   UNL     1     -11.696  14.869  64.678  1.00  0.00    -0.406 A  
HETATM   21  C   UNL     1     -12.493  13.721  64.689  1.00  0.00    -0.356 A  
ENDBRANCH  15  16
BRANCH  15  22
HETATM   22  C   UNL     1      -9.356  10.679  66.345  1.00  0.00    -0.195 A  
HETATM   23  C   UNL     1      -7.275   8.935  65.613  1.00  0.00    -0.085 A  
HETATM   24  C   UNL     1      -9.632   9.454  65.709  1.00  0.00    -0.340 A  
HETATM   25 CL   UNL     1      -6.014   7.798  65.323  1.00  0.00    -0.038 Cl 
HETATM   26  C   UNL     1      -6.971  10.180  66.155  1.00  0.00    -0.113 A  
HETATM   27  C   UNL     1      -8.004  11.065  66.483  1.00  0.00    -0.158 A  
HETATM   28  C   UNL     1      -8.596   8.586  65.351  1.00  0.00    -0.202 A  
ENDBRANCH  15  22
ENDBRANCH  12  15
ENDBRANCH   8   9
ENDBRANCH   4   8
TORSDOF 5
ENDMDL
MODEL       65
REMARK 921   NORMALIZED FREE ENERGY PREDICTED BY IDOCK:   -5.18 KCAL/MOL
REMARK 922        TOTAL FREE ENERGY PREDICTED BY IDOCK:   -7.40 KCAL/MOL
REMARK 923 INTER-LIGAND FREE ENERGY PREDICTED BY IDOCK:   -6.50 KCAL/MOL
REMARK 924 INTRA-LIGAND FREE ENERGY PREDICTED BY IDOCK:   -0.89 KCAL/MOL
REMARK 927      BINDING AFFINITY PREDICTED BY RF-SCORE:    0.00 PKD
ROOT
HETATM    1  C   UNL     1     -12.083  15.782  70.858  1.00  0.00    -0.459 C  
HETATM    2  C   UNL     1     -11.868  14.970  69.616  1.00  0.00    -0.358 A  
HETATM    3  C   UNL     1     -12.105  13.586  69.615  1.00  0.00    -0.365 A  
HETATM    4  C   UNL     1     -11.743  12.797  68.513  1.00  0.00    -0.371 A  
HETATM    5  C   UNL     1     -11.226  13.434  67.373  1.00  0.00    -0.311 A  
HETATM    6  C   UNL     1     -11.068  14.818  67.335  1.00  0.00    -0.327 A  
HETATM    7  C   UNL     1     -11.370  15.581  68.459  1.00  0.00    -0.356 A  
ENDROOT
BRANCH   4   8
HETATM    8  C   UNL     1     -11.825  11.275  68.600  1.00  0.00    -0.300 C  
BRANCH   8   9
HETATM    9  N   UNL     1     -10.908  10.695  69.595  1.00  0.00    -0.261 NA 
HETATM   10  C   UNL     1     -11.594  10.059  70.745  1.00  0.00    -0.360 C  
HETATM   11  C   UNL     1     -11.855   8.512  70.735  1.00  0.00    -0.163 C  
HETATM   12  N   UNL     1     -10.964   7.645  69.919  1.00  0.00    -0.234 NA 
HETATM   13  C   UNL     1     -10.677   8.403  68.681  1.00  0.00    -0.034 C  
HETATM   14  C   UNL     1      -9.993   9.745  68.960  1.00  0.00    -0.184 C  
BRANCH  12  15
HETATM   15  C   UNL     1      -9.702   7.227  70.619  1.00  0.00    -0.175 C  
BRANCH  15  16
HETATM   16  C   UNL     1      -9.944   6.564  71.977  1.00  0.00    -0.183 A  
HETATM   17  C   UNL     1      -9.437   7.190  73.139  1.00  0.00    -0.204 A  
HETATM   18  C   UNL     1     -10.710   5.412  72.116  1.00  0.00    -0.286 A  
HETATM   19  C   UNL     1      -9.726   6.682  74.407  1.00  0.00    -0.329 A  
HETATM   20  C   UNL     1     -10.509   5.541  74.530  1.00  0.00    -0.185 A  
HETATM   21  C   UNL     1     -10.990   4.899  73.387  1.00  0.00    -0.394 A  
ENDBRANCH  15  16
BRANCH  15  22
HETATM   22  C   UNL     1      -8.768   6.411  69.698  1.00  0.00    -0.138 A  
HETATM   23  C   UNL     1      -7.242   5.371  67.577  1.00  0.00    -0.075 A  
HETATM   24  C   UNL     1      -7.458   6.865  69.463  1.00  0.00    -0.096 A  
HETATM   25 CL   UNL     1      -6.378   4.858  66.179  1.00  0.00    -0.035 Cl 
HETATM   26  C   UNL     1      -8.500   4.839  67.846  1.00  0.00    -0.103 A  
HETATM   27  C   UNL     1      -9.244   5.328  68.925  1.00  0.00    -0.150 A  
HETATM   28  C   UNL     1      -6.702   6.351  68.405  1.00  0.00    -0.068 A  
ENDBRANCH  15  22
ENDBRANCH  12  15
ENDBRANCH   8   9
ENDBRANCH   4   8
TORSDOF 5
ENDMDL
MODEL       66
REMARK 921   NORMALIZED FREE ENERGY PREDICTED BY IDOCK:   -5.18 KCAL/MOL
REMARK 922        TOTAL FREE ENERGY PREDICTED BY IDOCK:   -7.40 KCAL/MOL
REMARK 923 INTER-LIGAND FREE ENERGY PREDICTED BY IDOCK:   -6.72 KCAL/MOL
REMARK 924 INTRA-LIGAND FREE ENERGY PREDICTED BY IDOCK:   -0.67 KCAL/MOL
REMARK 927      BINDING AFFINITY PREDICTED BY RF-SCORE:    0.00 PKD
ROOT
HETATM    1  C   UNL     1      -5.816   2.040  65.737  1.00  0.00    -0.018 C  
HETATM    2  C   UNL     1      -6.946   2.976  65.425  1.00  0.00    -0.053 A  
HETATM    3  C   UNL     1      -7.064   4.204  66.092  1.00  0.00    -0.067 A  
HETATM    4  C   UNL     1      -8.206   5.002  65.931  1.00  0.00    -0.114 A  
HETATM    5  C   UNL     1      -9.187   4.591  65.013  1.00  0.00    -0.157 A  
HETATM    6  C   UNL     1      -9.036   3.414  64.282  1.00  0.00    -0.125 A  
HETATM    7  C   UNL     1      -7.928   2.600  64.501  1.00  0.00    -0.078 A  
ENDROOT
BRANCH   4   8
HETATM    8  C   UNL     1      -8.412   6.234  66.808  1.00  0.00    -0.111 C  
BRANCH   8   9
HETATM    9  N   UNL     1      -9.334   6.007  67.932  1.00  0.00    -0.111 NA 
HETATM   10  C   UNL     1      -8.688   6.074  69.264  1.00  0.00    -0.117 C  
HETATM   11  C   UNL     1      -8.727   7.414  70.080  1.00  0.00    -0.140 C  
HETATM   12  N   UNL     1      -9.831   8.374  69.819  1.00  0.00    -0.184 NA 
HETATM   13  C   UNL     1     -10.073   8.334  68.360  1.00  0.00    -0.201 C  
HETATM   14  C   UNL     1     -10.464   6.937  67.868  1.00  0.00    -0.212 C  
BRANCH  12  15
HETATM   15  C   UNL     1     -11.086   8.095  70.596  1.00  0.00    -0.254 C  
BRANCH  15  16
HETATM   16  C   UNL     1     -10.842   7.340  71.906  1.00  0.00    -0.255 A  
HETATM   17  C   UNL     1     -11.333   6.020  72.030  1.00  0.00    -0.345 A  
HETATM   18  C   UNL     1     -10.087   7.875  72.944  1.00  0.00    -0.376 A  
HETATM   19  C   UNL     1     -11.041   5.253  73.161  1.00  0.00    -0.384 A  
HETATM   20  C   UNL     1     -10.270   5.796  74.181  1.00  0.00    -0.286 A  
HETATM   21  C   UNL     1      -9.804   7.109  74.079  1.00  0.00    -0.314 A  
ENDBRANCH  15  16
BRANCH  15  22
HETATM   22  C   UNL     1     -11.954   9.360  70.774  1.00  0.00    -0.298 A  
HETATM   23  C   UNL     1     -13.123  11.784  71.590  1.00  0.00    -0.338 A  
HETATM   24  C   UNL     1     -11.505  10.587  70.254  1.00  0.00    -0.416 A  
HETATM   25 CL   UNL     1     -13.722  13.271  72.218  1.00  0.00    -0.676 Cl 
HETATM   26  C   UNL     1     -13.647  10.579  72.047  1.00  0.00    -0.216 A  
HETATM   27  C   UNL     1     -13.093   9.371  71.612  1.00  0.00    -0.471 A  
HETATM   28  C   UNL     1     -12.083  11.792  70.665  1.00  0.00    -0.407 A  
ENDBRANCH  15  22
ENDBRANCH  12  15
ENDBRANCH   8   9
ENDBRANCH   4   8
TORSDOF 5
ENDMDL
MODEL       67
REMARK 921   NORMALIZED FREE ENERGY PREDICTED BY IDOCK:   -5.13 KCAL/MOL
REMARK 922        TOTAL FREE ENERGY PREDICTED BY IDOCK:   -7.34 KCAL/MOL
REMARK 923 INTER-LIGAND FREE ENERGY PREDICTED BY IDOCK:   -6.68 KCAL/MOL
REMARK 924 INTRA-LIGAND FREE ENERGY PREDICTED BY IDOCK:   -0.66 KCAL/MOL
REMARK 927      BINDING AFFINITY PREDICTED BY RF-SCORE:    0.00 PKD
ROOT
HETATM    1  C   UNL     1     -12.860  13.995  65.298  1.00  0.00    -0.418 C  
HETATM    2  C   UNL     1     -11.846  13.638  66.344  1.00  0.00    -0.433 A  
HETATM    3  C   UNL     1     -10.897  12.631  66.107  1.00  0.00    -0.301 A  
HETATM    4  C   UNL     1     -10.062  12.175  67.138  1.00  0.00    -0.220 A  
HETATM    5  C   UNL     1     -10.127  12.816  68.387  1.00  0.00    -0.226 A  
HETATM    6  C   UNL     1     -11.007  13.875  68.603  1.00  0.00    -0.281 A  
HETATM    7  C   UNL     1     -11.876  14.272  67.591  1.00  0.00    -0.420 A  
ENDROOT
BRANCH   4   8
HETATM    8  C   UNL     1      -9.176  10.951  66.923  1.00  0.00    -0.161 C  
BRANCH   8   9
HETATM    9  N   UNL     1      -9.934   9.719  66.655  1.00  0.00    -0.215 NA 
HETATM   10  C   UNL     1      -9.207   8.735  65.818  1.00  0.00    -0.206 C  
HETATM   11  C   UNL     1      -8.411   7.570  66.505  1.00  0.00    -0.126 C  
HETATM   12  N   UNL     1      -8.830   7.122  67.859  1.00  0.00    -0.125 NA 
HETATM   13  C   UNL     1      -9.223   8.346  68.592  1.00  0.00    -0.143 C  
HETATM   14  C   UNL     1     -10.369   9.098  67.908  1.00  0.00    -0.232 C  
BRANCH  12  15
HETATM   15  C   UNL     1      -9.933   6.101  67.856  1.00  0.00    -0.134 C  
BRANCH  15  16
HETATM   16  C   UNL     1      -9.682   4.930  66.902  1.00  0.00    -0.193 A  
HETATM   17  C   UNL     1     -10.577   4.726  65.826  1.00  0.00    -0.262 A  
HETATM   18  C   UNL     1      -8.564   4.111  67.008  1.00  0.00    -0.105 A  
HETATM   19  C   UNL     1     -10.329   3.740  64.869  1.00  0.00    -0.089 A  
HETATM   20  C   UNL     1      -9.197   2.942  64.979  1.00  0.00    -0.148 A  
HETATM   21  C   UNL     1      -8.322   3.118  66.054  1.00  0.00    -0.101 A  
ENDBRANCH  15  16
BRANCH  15  22
HETATM   22  C   UNL     1     -10.318   5.654  69.283  1.00  0.00    -0.340 A  
HETATM   23  C   UNL     1     -10.681   5.373  72.057  1.00  0.00    -0.220 A  
HETATM   24  C   UNL     1     -11.400   6.273  69.934  1.00  0.00    -0.504 A  
HETATM   25 CL   UNL     1     -10.803   5.340  73.774  1.00  0.00    -0.336 Cl 
HETATM   26  C   UNL     1      -9.658   4.675  71.423  1.00  0.00    -0.230 A  
HETATM   27  C   UNL     1      -9.500   4.783  70.037  1.00  0.00    -0.240 A  
HETATM   28  C   UNL     1     -11.577   6.137  71.314  1.00  0.00    -0.271 A  
ENDBRANCH  15  22
ENDBRANCH  12  15
ENDBRANCH   8   9
ENDBRANCH   4   8
TORSDOF 5
ENDMDL
MODEL       68
REMARK 921   NORMALIZED FREE ENERGY PREDICTED BY IDOCK:   -5.08 KCAL/MOL
REMARK 922        TOTAL FREE ENERGY PREDICTED BY IDOCK:   -7.27 KCAL/MOL
REMARK 923 INTER-LIGAND FREE ENERGY PREDICTED BY IDOCK:   -6.32 KCAL/MOL
REMARK 924 INTRA-LIGAND FREE ENERGY PREDICTED BY IDOCK:   -0.96 KCAL/MOL
REMARK 927      BINDING AFFINITY PREDICTED BY RF-SCORE:    0.00 PKD
ROOT
HETATM    1  C   UNL     1     -10.388   4.792  66.595  1.00  0.00    -0.258 C  
HETATM    2  C   UNL     1     -10.554   5.958  67.523  1.00  0.00    -0.347 A  
HETATM    3  C   UNL     1     -10.801   7.245  67.021  1.00  0.00    -0.350 A  
HETATM    4  C   UNL     1     -10.786   8.362  67.868  1.00  0.00    -0.141 A  
HETATM    5  C   UNL     1     -10.613   8.155  69.247  1.00  0.00    -0.191 A  
HETATM    6  C   UNL     1     -10.453   6.871  69.765  1.00  0.00    -0.240 A  
HETATM    7  C   UNL     1     -10.405   5.778  68.904  1.00  0.00    -0.295 A  
ENDROOT
BRANCH   4   8
HETATM    8  C   UNL     1     -10.860   9.770  67.284  1.00  0.00    -0.177 C  
BRANCH   8   9
HETATM    9  N   UNL     1     -10.127  10.772  68.074  1.00  0.00    -0.171 NA 
HETATM   10  C   UNL     1      -8.830  11.175  67.481  1.00  0.00    -0.139 C  
HETATM   11  C   UNL     1      -8.750  12.465  66.591  1.00  0.00    -0.119 C  
HETATM   12  N   UNL     1      -9.756  13.539  66.803  1.00  0.00    -0.263 NA 
HETATM   13  C   UNL     1     -11.036  12.853  67.080  1.00  0.00    -0.275 C  
HETATM   14  C   UNL     1     -10.963  11.950  68.316  1.00  0.00    -0.230 C  
BRANCH  12  15
HETATM   15  C   UNL     1      -9.400  14.510  67.894  1.00  0.00    -0.201 C  
BRANCH  15  16
HETATM   16  C   UNL     1      -7.913  14.505  68.259  1.00  0.00    -0.137 A  
HETATM   17  C   UNL     1      -6.996  15.123  67.378  1.00  0.00    -0.195 A  
HETATM   18  C   UNL     1      -7.443  13.985  69.460  1.00  0.00     0.226 A  
HETATM   19  C   UNL     1      -5.647  15.240  67.720  1.00  0.00    -0.114 A  
HETATM   20  C   UNL     1      -5.197  14.732  68.932  1.00  0.00    -0.088 A  
HETATM   21  C   UNL     1      -6.090  14.095  69.795  1.00  0.00    -0.132 A  
ENDBRANCH  15  16
BRANCH  15  22
HETATM   22  C   UNL     1      -9.957  15.924  67.621  1.00  0.00    -0.237 A  
HETATM   23  C   UNL     1     -10.344  18.637  66.992  1.00  0.00    -0.404 A  
HETATM   24  C   UNL     1     -10.196  16.329  66.295  1.00  0.00    -0.339 A  
HETATM   25 CL   UNL     1     -10.410  20.310  66.588  1.00  0.00    -0.497 Cl 
HETATM   26  C   UNL     1     -10.203  18.252  68.321  1.00  0.00    -0.405 A  
HETATM   27  C   UNL     1     -10.049  16.899  68.639  1.00  0.00    -0.291 A  
HETATM   28  C   UNL     1     -10.384  17.679  65.983  1.00  0.00    -0.305 A  
ENDBRANCH  15  22
ENDBRANCH  12  15
ENDBRANCH   8   9
ENDBRANCH   4   8
TORSDOF 5
ENDMDL
MODEL       69
REMARK 921   NORMALIZED FREE ENERGY PREDICTED BY IDOCK:   -5.06 KCAL/MOL
REMARK 922        TOTAL FREE ENERGY PREDICTED BY IDOCK:   -7.25 KCAL/MOL
REMARK 923 INTER-LIGAND FREE ENERGY PREDICTED BY IDOCK:   -6.36 KCAL/MOL
REMARK 924 INTRA-LIGAND FREE ENERGY PREDICTED BY IDOCK:   -0.88 KCAL/MOL
REMARK 927      BINDING AFFINITY PREDICTED BY RF-SCORE:    0.00 PKD
ROOT
HETATM    1  C   UNL     1      -6.507   4.627  72.547  1.00  0.00    -0.041 C  
HETATM    2  C   UNL     1      -7.789   4.763  71.781  1.00  0.00    -0.099 A  
HETATM    3  C   UNL     1      -8.278   6.028  71.421  1.00  0.00    -0.123 A  
HETATM    4  C   UNL     1      -9.555   6.171  70.859  1.00  0.00    -0.193 A  
HETATM    5  C   UNL     1     -10.296   5.011  70.574  1.00  0.00    -0.285 A  
HETATM    6  C   UNL     1      -9.780   3.746  70.850  1.00  0.00    -0.248 A  
HETATM    7  C   UNL     1      -8.539   3.623  71.468  1.00  0.00    -0.113 A  
ENDROOT
BRANCH   4   8
HETATM    8  C   UNL     1     -10.152   7.561  70.655  1.00  0.00    -0.187 C  
BRANCH   8   9
HETATM    9  N   UNL     1      -9.482   8.338  69.601  1.00  0.00    -0.162 NA 
HETATM   10  C   UNL     1     -10.078   8.165  68.255  1.00  0.00    -0.197 C  
HETATM   11  C   UNL     1     -11.134   9.203  67.734  1.00  0.00     0.202 C  
HETATM   12  N   UNL     1     -11.109  10.582  68.287  1.00  0.00    -0.269 NA 
HETATM   13  C   UNL     1     -10.786  10.443  69.724  1.00  0.00    -0.292 C  
HETATM   14  C   UNL     1      -9.436   9.757  69.958  1.00  0.00    -0.238 C  
BRANCH  12  15
HETATM   15  C   UNL     1     -10.151  11.507  67.591  1.00  0.00    -0.184 C  
BRANCH  15  16
HETATM   16  C   UNL     1     -10.300  11.513  66.068  1.00  0.00    -0.290 A  
HETATM   17  C   UNL     1     -11.417  12.167  65.497  1.00  0.00    -0.394 A  
HETATM   18  C   UNL     1      -9.339  10.969  65.223  1.00  0.00    -0.245 A  
HETATM   19  C   UNL     1     -11.539  12.293  64.112  1.00  0.00    -0.463 A  
HETATM   20  C   UNL     1     -10.561  11.760  63.282  1.00  0.00    -0.427 A  
HETATM   21  C   UNL     1      -9.469  11.088  63.836  1.00  0.00    -0.280 A  
ENDBRANCH  15  16
BRANCH  15  22
HETATM   22  C   UNL     1     -10.153  12.922  68.210  1.00  0.00    -0.242 A  
HETATM   23  C   UNL     1     -10.288  15.684  68.723  1.00  0.00    -0.218 A  
HETATM   24  C   UNL     1     -11.378  13.537  68.527  1.00  0.00    -0.327 A  
HETATM   25 CL   UNL     1     -10.394  17.396  68.867  1.00  0.00    -0.348 Cl 
HETATM   26  C   UNL     1      -9.052  15.084  68.505  1.00  0.00    -0.188 A  
HETATM   27  C   UNL     1      -8.978  13.704  68.288  1.00  0.00    -0.187 A  
HETATM   28  C   UNL     1     -11.445  14.911  68.777  1.00  0.00    -0.328 A  
ENDBRANCH  15  22
ENDBRANCH  12  15
ENDBRANCH   8   9
ENDBRANCH   4   8
TORSDOF 5
ENDMDL
MODEL       70
REMARK 921   NORMALIZED FREE ENERGY PREDICTED BY IDOCK:   -5.04 KCAL/MOL
REMARK 922        TOTAL FREE ENERGY PREDICTED BY IDOCK:   -7.22 KCAL/MOL
REMARK 923 INTER-LIGAND FREE ENERGY PREDICTED BY IDOCK:   -6.27 KCAL/MOL
REMARK 924 INTRA-LIGAND FREE ENERGY PREDICTED BY IDOCK:   -0.95 KCAL/MOL
REMARK 927      BINDING AFFINITY PREDICTED BY RF-SCORE:    0.00 PKD
ROOT
HETATM    1  C   UNL     1      -6.701   5.531  72.997  1.00  0.00    -0.073 C  
HETATM    2  C   UNL     1      -8.038   5.526  72.317  1.00  0.00    -0.108 A  
HETATM    3  C   UNL     1      -8.512   6.673  71.661  1.00  0.00    -0.119 A  
HETATM    4  C   UNL     1      -9.827   6.730  71.175  1.00  0.00    -0.188 A  
HETATM    5  C   UNL     1     -10.628   5.580  71.273  1.00  0.00    -0.304 A  
HETATM    6  C   UNL     1     -10.135   4.409  71.846  1.00  0.00    -0.245 A  
HETATM    7  C   UNL     1      -8.851   4.388  72.383  1.00  0.00    -0.124 A  
ENDROOT
BRANCH   4   8
HETATM    8  C   UNL     1     -10.391   8.044  70.642  1.00  0.00    -0.202 C  
BRANCH   8   9
HETATM    9  N   UNL     1      -9.501   8.720  69.685  1.00  0.00    -0.167 NA 
HETATM   10  C   UNL     1      -9.473   8.090  68.343  1.00  0.00    -0.145 C  
HETATM   11  C   UNL     1     -10.396   8.650  67.204  1.00  0.00    -0.299 C  
HETATM   12  N   UNL     1     -10.830  10.070  67.272  1.00  0.00    -0.253 NA 
HETATM   13  C   UNL     1     -11.086  10.352  68.701  1.00  0.00    -0.262 C  
HETATM   14  C   UNL     1      -9.845  10.138  69.574  1.00  0.00    -0.232 C  
BRANCH  12  15
HETATM   15  C   UNL     1      -9.848  11.044  66.683  1.00  0.00    -0.200 C  
BRANCH  15  16
HETATM   16  C   UNL     1      -9.007  10.455  65.548  1.00  0.00    -0.199 A  
HETATM   17  C   UNL     1      -7.639  10.185  65.784  1.00  0.00    -0.134 A  
HETATM   18  C   UNL     1      -9.556  10.102  64.320  1.00  0.00    -0.354 A  
HETATM   19  C   UNL     1      -6.859   9.549  64.817  1.00  0.00    -0.103 A  
HETATM   20  C   UNL     1      -7.428   9.186  63.603  1.00  0.00    -0.106 A  
HETATM   21  C   UNL     1      -8.771   9.473  63.349  1.00  0.00    -0.235 A  
ENDBRANCH  15  16
BRANCH  15  22
HETATM   22  C   UNL     1     -10.510  12.390  66.318  1.00  0.00    -0.271 A  
HETATM   23  C   UNL     1     -11.581  14.655  65.041  1.00  0.00    -0.385 A  
HETATM   24  C   UNL     1     -11.850  12.409  65.890  1.00  0.00    -0.467 A  
HETATM   25 CL   UNL     1     -12.182  15.973  64.110  1.00  0.00     0.094 Cl 
HETATM   26  C   UNL     1     -10.282  14.695  65.539  1.00  0.00    -0.395 A  
HETATM   27  C   UNL     1      -9.761  13.583  66.209  1.00  0.00    -0.287 A  
HETATM   28  C   UNL     1     -12.380  13.534  65.251  1.00  0.00    -0.506 A  
ENDBRANCH  15  22
ENDBRANCH  12  15
ENDBRANCH   8   9
ENDBRANCH   4   8
TORSDOF 5
ENDMDL
MODEL       71
REMARK 921   NORMALIZED FREE ENERGY PREDICTED BY IDOCK:   -5.04 KCAL/MOL
REMARK 922        TOTAL FREE ENERGY PREDICTED BY IDOCK:   -7.22 KCAL/MOL
REMARK 923 INTER-LIGAND FREE ENERGY PREDICTED BY IDOCK:   -6.65 KCAL/MOL
REMARK 924 INTRA-LIGAND FREE ENERGY PREDICTED BY IDOCK:   -0.56 KCAL/MOL
REMARK 927      BINDING AFFINITY PREDICTED BY RF-SCORE:    0.00 PKD
ROOT
HETATM    1  C   UNL     1      -6.187   7.227  72.085  1.00  0.00    -0.040 C  
HETATM    2  C   UNL     1      -6.943   7.357  70.796  1.00  0.00    -0.055 A  
HETATM    3  C   UNL     1      -7.868   8.396  70.609  1.00  0.00    -0.092 A  
HETATM    4  C   UNL     1      -8.699   8.423  69.480  1.00  0.00    -0.137 A  
HETATM    5  C   UNL     1      -8.520   7.440  68.492  1.00  0.00    -0.125 A  
HETATM    6  C   UNL     1      -7.544   6.454  68.630  1.00  0.00    -0.093 A  
HETATM    7  C   UNL     1      -6.771   6.402  69.787  1.00  0.00    -0.053 A  
ENDROOT
BRANCH   4   8
HETATM    8  C   UNL     1      -9.831   9.443  69.384  1.00  0.00    -0.178 C  
BRANCH   8   9
HETATM    9  N   UNL     1      -9.881  10.142  68.090  1.00  0.00    -0.143 NA 
HETATM   10  C   UNL     1     -11.235  10.616  67.715  1.00  0.00    -0.313 C  
HETATM   11  C   UNL     1     -11.654  12.095  68.031  1.00  0.00    -0.348 C  
HETATM   12  N   UNL     1     -10.591  13.126  68.155  1.00  0.00    -0.238 NA 
HETATM   13  C   UNL     1      -9.459  12.466  68.841  1.00  0.00     0.239 C  
HETATM   14  C   UNL     1      -8.929  11.254  68.068  1.00  0.00    -0.156 C  
BRANCH  12  15
HETATM   15  C   UNL     1     -10.167  13.734  66.847  1.00  0.00    -0.261 C  
BRANCH  15  16
HETATM   16  C   UNL     1     -10.983  13.242  65.649  1.00  0.00    -0.292 A  
HETATM   17  C   UNL     1     -10.339  12.457  64.664  1.00  0.00    -0.332 A  
HETATM   18  C   UNL     1     -12.350  13.470  65.535  1.00  0.00    -0.524 A  
HETATM   19  C   UNL     1     -11.065  11.895  63.613  1.00  0.00    -0.517 A  
HETATM   20  C   UNL     1     -12.433  12.117  63.523  1.00  0.00    -0.666 A  
HETATM   21  C   UNL     1     -13.073  12.914  64.475  1.00  0.00    -0.005 A  
ENDBRANCH  15  16
BRANCH  15  22
HETATM   22  C   UNL     1     -10.067  15.273  66.926  1.00  0.00    -0.257 A  
HETATM   23  C   UNL     1     -10.533  18.045  67.006  1.00  0.00    -0.351 A  
HETATM   24  C   UNL     1     -10.337  15.923  68.144  1.00  0.00    -0.256 A  
HETATM   25 CL   UNL     1     -10.985  19.706  67.028  1.00  0.00    -0.514 Cl 
HETATM   26  C   UNL     1     -10.175  17.441  65.804  1.00  0.00    -0.204 A  
HETATM   27  C   UNL     1      -9.904  16.070  65.770  1.00  0.00    -0.357 A  
HETATM   28  C   UNL     1     -10.574  17.301  68.182  1.00  0.00    -0.386 A  
ENDBRANCH  15  22
ENDBRANCH  12  15
ENDBRANCH   8   9
ENDBRANCH   4   8
TORSDOF 5
ENDMDL
MODEL       72
REMARK 921   NORMALIZED FREE ENERGY PREDICTED BY IDOCK:   -5.04 KCAL/MOL
REMARK 922        TOTAL FREE ENERGY PREDICTED BY IDOCK:   -7.22 KCAL/MOL
REMARK 923 INTER-LIGAND FREE ENERGY PREDICTED BY IDOCK:   -6.65 KCAL/MOL
REMARK 924 INTRA-LIGAND FREE ENERGY PREDICTED BY IDOCK:   -0.57 KCAL/MOL
REMARK 927      BINDING AFFINITY PREDICTED BY RF-SCORE:    0.00 PKD
ROOT
HETATM    1  C   UNL     1      -7.688  19.600  68.828  1.00  0.00    -0.337 C  
HETATM    2  C   UNL     1      -8.800  19.228  67.893  1.00  0.00    -0.355 A  
HETATM    3  C   UNL     1      -9.338  17.932  67.900  1.00  0.00    -0.271 A  
HETATM    4  C   UNL     1     -10.254  17.529  66.916  1.00  0.00    -0.329 A  
HETATM    5  C   UNL     1     -10.694  18.481  65.981  1.00  0.00    -0.252 A  
HETATM    6  C   UNL     1     -10.229  19.794  66.021  1.00  0.00    -0.600 A  
HETATM    7  C   UNL     1      -9.271  20.161  66.962  1.00  0.00    -0.503 A  
ENDROOT
BRANCH   4   8
HETATM    8  C   UNL     1     -10.680  16.067  66.817  1.00  0.00    -0.259 C  
BRANCH   8   9
HETATM    9  N   UNL     1      -9.549  15.125  66.822  1.00  0.00    -0.234 NA 
HETATM   10  C   UNL     1      -9.351  14.430  68.117  1.00  0.00    -0.203 C  
HETATM   11  C   UNL     1      -9.968  13.003  68.333  1.00  0.00    -0.216 C  
HETATM   12  N   UNL     1     -10.224  12.150  67.144  1.00  0.00    -0.209 NA 
HETATM   13  C   UNL     1     -10.704  13.061  66.082  1.00  0.00    -0.273 C  
HETATM   14  C   UNL     1      -9.684  14.151  65.737  1.00  0.00    -0.217 C  
BRANCH  12  15
HETATM   15  C   UNL     1      -9.034  11.351  66.691  1.00  0.00    -0.181 C  
BRANCH  15  16
HETATM   16  C   UNL     1      -7.799  11.534  67.577  1.00  0.00    -0.133 A  
HETATM   17  C   UNL     1      -6.733  12.332  67.100  1.00  0.00    -0.105 A  
HETATM   18  C   UNL     1      -7.721  11.011  68.863  1.00  0.00    -0.140 A  
HETATM   19  C   UNL     1      -5.636  12.618  67.915  1.00  0.00    -0.104 A  
HETATM   20  C   UNL     1      -5.582  12.103  69.204  1.00  0.00    -0.066 A  
HETATM   21  C   UNL     1      -6.617  11.291  69.674  1.00  0.00    -0.136 A  
ENDBRANCH  15  16
BRANCH  15  22
HETATM   22  C   UNL     1      -9.390   9.870  66.438  1.00  0.00    -0.213 A  
HETATM   23  C   UNL     1      -9.695   7.075  66.527  1.00  0.00    -0.125 A  
HETATM   24  C   UNL     1     -10.457   9.283  67.143  1.00  0.00    -0.319 A  
HETATM   25 CL   UNL     1      -9.780   5.366  66.721  1.00  0.00    -0.152 Cl 
HETATM   26  C   UNL     1      -8.687   7.633  65.746  1.00  0.00    -0.151 A  
HETATM   27  C   UNL     1      -8.558   9.024  65.670  1.00  0.00    -0.187 A  
HETATM   28  C   UNL     1     -10.604   7.894  67.191  1.00  0.00    -0.383 A  
ENDBRANCH  15  22
ENDBRANCH  12  15
ENDBRANCH   8   9
ENDBRANCH   4   8
TORSDOF 5
ENDMDL
MODEL       73
REMARK 921   NORMALIZED FREE ENERGY PREDICTED BY IDOCK:   -4.99 KCAL/MOL
REMARK 922        TOTAL FREE ENERGY PREDICTED BY IDOCK:   -7.16 KCAL/MOL
REMARK 923 INTER-LIGAND FREE ENERGY PREDICTED BY IDOCK:   -6.25 KCAL/MOL
REMARK 924 INTRA-LIGAND FREE ENERGY PREDICTED BY IDOCK:   -0.92 KCAL/MOL
REMARK 927      BINDING AFFINITY PREDICTED BY RF-SCORE:    0.00 PKD
ROOT
HETATM    1  C   UNL     1     -11.748  13.339  64.435  1.00  0.00    -0.433 C  
HETATM    2  C   UNL     1     -11.232  13.215  65.838  1.00  0.00    -0.311 A  
HETATM    3  C   UNL     1     -11.664  12.171  66.670  1.00  0.00    -0.385 A  
HETATM    4  C   UNL     1     -11.320  12.148  68.030  1.00  0.00    -0.353 A  
HETATM    5  C   UNL     1     -10.455  13.141  68.520  1.00  0.00    -0.262 A  
HETATM    6  C   UNL     1      -9.952  14.132  67.678  1.00  0.00    -0.233 A  
HETATM    7  C   UNL     1     -10.354  14.180  66.346  1.00  0.00    -0.287 A  
ENDROOT
BRANCH   4   8
HETATM    8  C   UNL     1     -11.954  11.121  68.964  1.00  0.00    -0.320 C  
BRANCH   8   9
HETATM    9  N   UNL     1     -10.984  10.453  69.847  1.00  0.00    -0.286 NA 
HETATM   10  C   UNL     1     -11.605   9.696  70.959  1.00  0.00    -0.359 C  
HETATM   11  C   UNL     1     -11.856   8.155  70.803  1.00  0.00    -0.159 C  
HETATM   12  N   UNL     1     -11.004   7.386  69.859  1.00  0.00    -0.245 NA 
HETATM   13  C   UNL     1     -10.785   8.269  68.692  1.00  0.00    -0.027 C  
HETATM   14  C   UNL     1     -10.097   9.584  69.072  1.00  0.00    -0.193 C  
BRANCH  12  15
HETATM   15  C   UNL     1      -9.704   6.914  70.447  1.00  0.00    -0.172 C  
BRANCH  15  16
HETATM   16  C   UNL     1      -9.818   6.468  71.907  1.00  0.00    -0.168 A  
HETATM   17  C   UNL     1     -10.277   5.159  72.184  1.00  0.00    -0.258 A  
HETATM   18  C   UNL     1      -9.411   7.273  72.965  1.00  0.00    -0.212 A  
HETATM   19  C   UNL     1     -10.293   4.671  73.492  1.00  0.00    -0.242 A  
HETATM   20  C   UNL     1      -9.866   5.482  74.536  1.00  0.00    -0.238 A  
HETATM   21  C   UNL     1      -9.437   6.785  74.275  1.00  0.00    -0.282 A  
ENDBRANCH  15  16
BRANCH  15  22
HETATM   22  C   UNL     1      -8.999   5.877  69.546  1.00  0.00    -0.131 A  
HETATM   23  C   UNL     1      -7.726   3.624  68.446  1.00  0.00    -0.060 A  
HETATM   24  C   UNL     1      -9.749   4.834  68.973  1.00  0.00    -0.248 A  
HETATM   25 CL   UNL     1      -6.954   2.173  67.931  1.00  0.00    -0.042 Cl 
HETATM   26  C   UNL     1      -6.960   4.684  68.921  1.00  0.00    -0.052 A  
HETATM   27  C   UNL     1      -7.591   5.822  69.432  1.00  0.00    -0.088 A  
HETATM   28  C   UNL     1      -9.115   3.711  68.431  1.00  0.00    -0.200 A  
ENDBRANCH  15  22
ENDBRANCH  12  15
ENDBRANCH   8   9
ENDBRANCH   4   8
TORSDOF 5
ENDMDL
MODEL       74
REMARK 921   NORMALIZED FREE ENERGY PREDICTED BY IDOCK:   -4.99 KCAL/MOL
REMARK 922        TOTAL FREE ENERGY PREDICTED BY IDOCK:   -7.16 KCAL/MOL
REMARK 923 INTER-LIGAND FREE ENERGY PREDICTED BY IDOCK:   -7.23 KCAL/MOL
REMARK 924 INTRA-LIGAND FREE ENERGY PREDICTED BY IDOCK:    0.07 KCAL/MOL
REMARK 927      BINDING AFFINITY PREDICTED BY RF-SCORE:    0.00 PKD
ROOT
HETATM    1  C   UNL     1     -11.920  12.193  63.253  1.00  0.00    -0.489 C  
HETATM    2  C   UNL     1     -10.710  11.397  63.643  1.00  0.00    -0.470 A  
HETATM    3  C   UNL     1     -10.539  10.954  64.964  1.00  0.00    -0.287 A  
HETATM    4  C   UNL     1      -9.335  10.362  65.372  1.00  0.00    -0.252 A  
HETATM    5  C   UNL     1      -8.339  10.133  64.407  1.00  0.00    -0.171 A  
HETATM    6  C   UNL     1      -8.537  10.492  63.074  1.00  0.00    -0.191 A  
HETATM    7  C   UNL     1      -9.711  11.138  62.697  1.00  0.00    -0.226 A  
ENDROOT
BRANCH   4   8
HETATM    8  C   UNL     1      -9.087  10.066  66.848  1.00  0.00    -0.139 C  
BRANCH   8   9
HETATM    9  N   UNL     1      -8.570  11.221  67.599  1.00  0.00    -0.122 NA 
HETATM   10  C   UNL     1      -8.340  12.426  66.767  1.00  0.00    -0.059 C  
HETATM   11  C   UNL     1      -9.447  13.535  66.685  1.00  0.00    -0.265 C  
HETATM   12  N   UNL     1     -10.406  13.669  67.812  1.00  0.00    -0.238 NA 
HETATM   13  C   UNL     1     -10.705  12.292  68.263  1.00  0.00    -0.221 C  
HETATM   14  C   UNL     1      -9.452  11.540  68.724  1.00  0.00    -0.089 C  
BRANCH  12  15
HETATM   15  C   UNL     1      -9.911  14.526  68.943  1.00  0.00    -0.206 C  
BRANCH  15  16
HETATM   16  C   UNL     1      -8.932  15.617  68.502  1.00  0.00    -0.192 A  
HETATM   17  C   UNL     1      -9.393  16.634  67.634  1.00  0.00    -0.224 A  
HETATM   18  C   UNL     1      -7.631  15.690  68.986  1.00  0.00    -0.187 A  
HETATM   19  C   UNL     1      -8.570  17.709  67.293  1.00  0.00    -0.238 A  
HETATM   20  C   UNL     1      -7.279  17.776  67.800  1.00  0.00    -0.207 A  
HETATM   21  C   UNL     1      -6.805  16.762  68.635  1.00  0.00    -0.175 A  
ENDBRANCH  15  16
BRANCH  15  22
HETATM   22  C   UNL     1     -11.065  15.060  69.819  1.00  0.00    -0.297 A  
HETATM   23  C   UNL     1     -12.920  15.621  71.858  1.00  0.00    -0.463 A  
HETATM   24  C   UNL     1     -10.805  16.058  70.775  1.00  0.00    -0.105 A  
HETATM   25 CL   UNL     1     -13.975  15.842  73.200  1.00  0.00    -0.451 Cl 
HETATM   26  C   UNL     1     -13.241  14.695  70.870  1.00  0.00    -0.392 A  
HETATM   27  C   UNL     1     -12.337  14.443  69.833  1.00  0.00    -0.365 A  
HETATM   28  C   UNL     1     -11.725  16.333  71.791  1.00  0.00    -0.504 A  
ENDBRANCH  15  22
ENDBRANCH  12  15
ENDBRANCH   8   9
ENDBRANCH   4   8
TORSDOF 5
ENDMDL
MODEL       75
REMARK 921   NORMALIZED FREE ENERGY PREDICTED BY IDOCK:   -4.98 KCAL/MOL
REMARK 922        TOTAL FREE ENERGY PREDICTED BY IDOCK:   -7.15 KCAL/MOL
REMARK 923 INTER-LIGAND FREE ENERGY PREDICTED BY IDOCK:   -6.92 KCAL/MOL
REMARK 924 INTRA-LIGAND FREE ENERGY PREDICTED BY IDOCK:   -0.23 KCAL/MOL
REMARK 927      BINDING AFFINITY PREDICTED BY RF-SCORE:    0.00 PKD
ROOT
HETATM    1  C   UNL     1     -11.444  16.026  70.611  1.00  0.00    -0.427 C  
HETATM    2  C   UNL     1     -11.149  16.190  69.149  1.00  0.00    -0.329 A  
HETATM    3  C   UNL     1     -11.661  15.282  68.209  1.00  0.00    -0.357 A  
HETATM    4  C   UNL     1     -11.250  15.328  66.869  1.00  0.00    -0.256 A  
HETATM    5  C   UNL     1     -10.389  16.363  66.467  1.00  0.00    -0.306 A  
HETATM    6  C   UNL     1      -9.945  17.320  67.378  1.00  0.00    -0.278 A  
HETATM    7  C   UNL     1     -10.308  17.223  68.718  1.00  0.00    -0.358 A  
ENDROOT
BRANCH   4   8
HETATM    8  C   UNL     1     -11.659  14.220  65.902  1.00  0.00    -0.358 C  
BRANCH   8   9
HETATM    9  N   UNL     1     -10.722  13.085  65.882  1.00  0.00    -0.273 NA 
HETATM   10  C   UNL     1      -9.461  13.332  66.619  1.00  0.00    -0.260 C  
HETATM   11  C   UNL     1      -9.323  12.848  68.106  1.00  0.00    -0.214 C  
HETATM   12  N   UNL     1     -10.157  11.705  68.562  1.00  0.00    -0.205 NA 
HETATM   13  C   UNL     1     -11.473  11.871  67.908  1.00  0.00    -0.316 C  
HETATM   14  C   UNL     1     -11.373  11.871  66.379  1.00  0.00    -0.339 C  
BRANCH  12  15
HETATM   15  C   UNL     1      -9.562  10.355  68.276  1.00  0.00    -0.144 C  
BRANCH  15  16
HETATM   16  C   UNL     1      -8.058  10.396  67.991  1.00  0.00    -0.110 A  
HETATM   17  C   UNL     1      -7.611  10.195  66.664  1.00  0.00    -0.107 A  
HETATM   18  C   UNL     1      -7.123  10.701  68.974  1.00  0.00    -0.086 A  
HETATM   19  C   UNL     1      -6.261  10.332  66.338  1.00  0.00    -0.076 A  
HETATM   20  C   UNL     1      -5.342  10.656  67.328  1.00  0.00    -0.041 A  
HETATM   21  C   UNL     1      -5.770  10.828  68.646  1.00  0.00    -0.040 A  
ENDBRANCH  15  16
BRANCH  15  22
HETATM   22  C   UNL     1      -9.954   9.308  69.340  1.00  0.00    -0.184 A  
HETATM   23  C   UNL     1     -11.259   7.456  71.006  1.00  0.00    -0.264 A  
HETATM   24  C   UNL     1     -10.049   7.953  68.975  1.00  0.00    -0.204 A  
HETATM   25 CL   UNL     1     -12.204   6.364  71.944  1.00  0.00    -0.386 Cl 
HETATM   26  C   UNL     1     -11.096   8.771  71.433  1.00  0.00    -0.361 A  
HETATM   27  C   UNL     1     -10.412   9.684  70.623  1.00  0.00    -0.379 A  
HETATM   28  C   UNL     1     -10.703   7.034  69.802  1.00  0.00    -0.265 A  
ENDBRANCH  15  22
ENDBRANCH  12  15
ENDBRANCH   8   9
ENDBRANCH   4   8
TORSDOF 5
ENDMDL
MODEL       76
REMARK 921   NORMALIZED FREE ENERGY PREDICTED BY IDOCK:   -4.97 KCAL/MOL
REMARK 922        TOTAL FREE ENERGY PREDICTED BY IDOCK:   -7.13 KCAL/MOL
REMARK 923 INTER-LIGAND FREE ENERGY PREDICTED BY IDOCK:   -6.54 KCAL/MOL
REMARK 924 INTRA-LIGAND FREE ENERGY PREDICTED BY IDOCK:   -0.60 KCAL/MOL
REMARK 927      BINDING AFFINITY PREDICTED BY RF-SCORE:    0.00 PKD
ROOT
HETATM    1  C   UNL     1      -8.656   3.671  66.154  1.00  0.00    -0.115 C  
HETATM    2  C   UNL     1      -7.702   4.798  65.889  1.00  0.00    -0.091 A  
HETATM    3  C   UNL     1      -7.782   5.992  66.623  1.00  0.00    -0.103 A  
HETATM    4  C   UNL     1      -7.010   7.107  66.266  1.00  0.00    -0.065 A  
HETATM    5  C   UNL     1      -6.084   6.974  65.216  1.00  0.00    -0.037 A  
HETATM    6  C   UNL     1      -5.938   5.764  64.539  1.00  0.00    -0.025 A  
HETATM    7  C   UNL     1      -6.758   4.686  64.861  1.00  0.00    -0.045 A  
ENDROOT
BRANCH   4   8
HETATM    8  C   UNL     1      -7.247   8.454  66.944  1.00  0.00    -0.079 C  
BRANCH   8   9
HETATM    9  N   UNL     1      -8.655   8.691  67.299  1.00  0.00    -0.125 NA 
HETATM   10  C   UNL     1      -8.879   8.927  68.745  1.00  0.00    -0.137 C  
HETATM   11  C   UNL     1      -8.954  10.397  69.289  1.00  0.00    -0.163 C  
HETATM   12  N   UNL     1      -9.367  11.480  68.359  1.00  0.00    -0.192 NA 
HETATM   13  C   UNL     1      -8.752  11.155  67.053  1.00  0.00    -0.148 C  
HETATM   14  C   UNL     1      -9.207   9.795  66.512  1.00  0.00    -0.156 C  
BRANCH  12  15
HETATM   15  C   UNL     1     -10.855  11.658  68.241  1.00  0.00    -0.219 C  
BRANCH  15  16
HETATM   16  C   UNL     1     -11.586  11.609  69.585  1.00  0.00    -0.401 A  
HETATM   17  C   UNL     1     -11.949  12.827  70.206  1.00  0.00    -0.358 A  
HETATM   18  C   UNL     1     -11.976  10.413  70.177  1.00  0.00    -0.357 A  
HETATM   19  C   UNL     1     -12.711  12.832  71.376  1.00  0.00    -0.353 A  
HETATM   20  C   UNL     1     -13.110  11.629  71.944  1.00  0.00    -0.490 A  
HETATM   21  C   UNL     1     -12.732  10.421  71.353  1.00  0.00    -0.551 A  
ENDBRANCH  15  16
BRANCH  15  22
HETATM   22  C   UNL     1     -11.229  12.889  67.387  1.00  0.00    -0.331 A  
HETATM   23  C   UNL     1     -11.447  14.899  65.433  1.00  0.00    -0.320 A  
HETATM   24  C   UNL     1     -12.087  12.731  66.284  1.00  0.00    -0.400 A  
HETATM   25 CL   UNL     1     -11.448  16.053  64.155  1.00  0.00    -0.247 Cl 
HETATM   26  C   UNL     1     -10.664  15.119  66.562  1.00  0.00    -0.310 A  
HETATM   27  C   UNL     1     -10.585  14.136  67.554  1.00  0.00    -0.257 A  
HETATM   28  C   UNL     1     -12.191  13.729  65.310  1.00  0.00    -0.461 A  
ENDBRANCH  15  22
ENDBRANCH  12  15
ENDBRANCH   8   9
ENDBRANCH   4   8
TORSDOF 5
ENDMDL
MODEL       77
REMARK 921   NORMALIZED FREE ENERGY PREDICTED BY IDOCK:   -4.97 KCAL/MOL
REMARK 922        TOTAL FREE ENERGY PREDICTED BY IDOCK:   -7.13 KCAL/MOL
REMARK 923 INTER-LIGAND FREE ENERGY PREDICTED BY IDOCK:   -6.91 KCAL/MOL
REMARK 924 INTRA-LIGAND FREE ENERGY PREDICTED BY IDOCK:   -0.22 KCAL/MOL
REMARK 927      BINDING AFFINITY PREDICTED BY RF-SCORE:    0.00 PKD
ROOT
HETATM    1  C   UNL     1      -5.342   9.457  62.422  1.00  0.00    -0.084 C  
HETATM    2  C   UNL     1      -6.192   8.682  63.385  1.00  0.00    -0.085 A  
HETATM    3  C   UNL     1      -6.371   9.131  64.703  1.00  0.00    -0.071 A  
HETATM    4  C   UNL     1      -7.019   8.328  65.653  1.00  0.00    -0.067 A  
HETATM    5  C   UNL     1      -7.570   7.105  65.233  1.00  0.00    -0.103 A  
HETATM    6  C   UNL     1      -7.471   6.692  63.905  1.00  0.00    -0.094 A  
HETATM    7  C   UNL     1      -6.768   7.470  62.989  1.00  0.00    -0.062 A  
ENDROOT
BRANCH   4   8
HETATM    8  C   UNL     1      -7.035   8.738  67.123  1.00  0.00    -0.071 C  
BRANCH   8   9
HETATM    9  N   UNL     1      -8.250   8.316  67.837  1.00  0.00    -0.127 NA 
HETATM   10  C   UNL     1      -8.089   8.246  69.309  1.00  0.00    -0.116 C  
HETATM   11  C   UNL     1      -8.525   9.465  70.195  1.00  0.00    -0.205 C  
HETATM   12  N   UNL     1      -9.569  10.387  69.676  1.00  0.00    -0.165 NA 
HETATM   13  C   UNL     1      -9.310  10.522  68.225  1.00  0.00    -0.156 C  
HETATM   14  C   UNL     1      -9.379   9.180  67.489  1.00  0.00    -0.135 C  
BRANCH  12  15
HETATM   15  C   UNL     1     -10.977   9.939  69.947  1.00  0.00    -0.281 C  
BRANCH  15  16
HETATM   16  C   UNL     1     -11.066   8.723  70.873  1.00  0.00    -0.320 A  
HETATM   17  C   UNL     1     -11.490   7.487  70.331  1.00  0.00    -0.219 A  
HETATM   18  C   UNL     1     -10.670   8.770  72.204  1.00  0.00    -0.383 A  
HETATM   19  C   UNL     1     -11.482   6.327  71.109  1.00  0.00    -0.362 A  
HETATM   20  C   UNL     1     -11.066   6.388  72.433  1.00  0.00    -0.303 A  
HETATM   21  C   UNL     1     -10.673   7.610  72.984  1.00  0.00    -0.449 A  
ENDBRANCH  15  16
BRANCH  15  22
HETATM   22  C   UNL     1     -11.885  11.108  70.387  1.00  0.00    -0.462 A  
HETATM   23  C   UNL     1     -13.055  13.354  71.609  1.00  0.00    -0.375 A  
HETATM   24  C   UNL     1     -11.623  12.406  69.911  1.00  0.00    -0.260 A  
HETATM   25 CL   UNL     1     -13.634  14.732  72.465  1.00  0.00    -0.528 Cl 
HETATM   26  C   UNL     1     -13.404  12.077  72.038  1.00  0.00    -0.447 A  
HETATM   27  C   UNL     1     -12.854  10.958  71.405  1.00  0.00    -0.554 A  
HETATM   28  C   UNL     1     -12.201  13.522  70.523  1.00  0.00    -0.433 A  
ENDBRANCH  15  22
ENDBRANCH  12  15
ENDBRANCH   8   9
ENDBRANCH   4   8
TORSDOF 5
ENDMDL
MODEL       78
REMARK 921   NORMALIZED FREE ENERGY PREDICTED BY IDOCK:   -4.96 KCAL/MOL
REMARK 922        TOTAL FREE ENERGY PREDICTED BY IDOCK:   -7.11 KCAL/MOL
REMARK 923 INTER-LIGAND FREE ENERGY PREDICTED BY IDOCK:   -6.90 KCAL/MOL
REMARK 924 INTRA-LIGAND FREE ENERGY PREDICTED BY IDOCK:   -0.21 KCAL/MOL
REMARK 927      BINDING AFFINITY PREDICTED BY RF-SCORE:    0.00 PKD
ROOT
HETATM    1  C   UNL     1      -5.243   6.785  72.044  1.00  0.00    -0.032 C  
HETATM    2  C   UNL     1      -6.738   6.852  71.952  1.00  0.00    -0.057 A  
HETATM    3  C   UNL     1      -7.375   6.971  70.707  1.00  0.00    -0.073 A  
HETATM    4  C   UNL     1      -8.756   7.207  70.627  1.00  0.00    -0.148 A  
HETATM    5  C   UNL     1      -9.503   7.226  71.816  1.00  0.00    -0.162 A  
HETATM    6  C   UNL     1      -8.890   7.022  73.052  1.00  0.00    -0.148 A  
HETATM    7  C   UNL     1      -7.510   6.855  73.121  1.00  0.00    -0.077 A  
ENDROOT
BRANCH   4   8
HETATM    8  C   UNL     1      -9.402   7.529  69.282  1.00  0.00    -0.151 C  
BRANCH   8   9
HETATM    9  N   UNL     1      -9.125   8.895  68.811  1.00  0.00    -0.134 NA 
HETATM   10  C   UNL     1      -9.676   9.192  67.467  1.00  0.00    -0.160 C  
HETATM   11  C   UNL     1     -11.068   9.904  67.339  1.00  0.00    -0.030 C  
HETATM   12  N   UNL     1     -11.538  10.757  68.462  1.00  0.00    -0.375 NA 
HETATM   13  C   UNL     1     -11.117  10.070  69.702  1.00  0.00    -0.259 C  
HETATM   14  C   UNL     1      -9.599   9.882  69.784  1.00  0.00    -0.231 C  
BRANCH  12  15
HETATM   15  C   UNL     1     -11.032  12.171  68.414  1.00  0.00    -0.235 C  
BRANCH  15  16
HETATM   16  C   UNL     1     -11.168  12.825  67.036  1.00  0.00    -0.336 A  
HETATM   17  C   UNL     1      -9.999  13.280  66.381  1.00  0.00    -0.288 A  
HETATM   18  C   UNL     1     -12.386  12.915  66.372  1.00  0.00    -0.145 A  
HETATM   19  C   UNL     1     -10.060  13.781  65.080  1.00  0.00    -0.310 A  
HETATM   20  C   UNL     1     -11.282  13.847  64.423  1.00  0.00    -0.341 A  
HETATM   21  C   UNL     1     -12.446  13.427  65.072  1.00  0.00    -0.479 A  
ENDBRANCH  15  16
BRANCH  15  22
HETATM   22  C   UNL     1     -11.607  13.035  69.558  1.00  0.00    -0.342 A  
HETATM   23  C   UNL     1     -13.202  14.576  71.286  1.00  0.00    -0.357 A  
HETATM   24  C   UNL     1     -12.371  12.425  70.569  1.00  0.00    -0.346 A  
HETATM   25 CL   UNL     1     -14.305  15.504  72.228  1.00  0.00    -0.635 Cl 
HETATM   26  C   UNL     1     -12.384  15.210  70.356  1.00  0.00    -0.411 A  
HETATM   27  C   UNL     1     -11.560  14.447  69.522  1.00  0.00    -0.352 A  
HETATM   28  C   UNL     1     -13.167  13.192  71.425  1.00  0.00    -0.290 A  
ENDBRANCH  15  22
ENDBRANCH  12  15
ENDBRANCH   8   9
ENDBRANCH   4   8
TORSDOF 5
ENDMDL
MODEL       79
REMARK 921   NORMALIZED FREE ENERGY PREDICTED BY IDOCK:   -4.94 KCAL/MOL
REMARK 922        TOTAL FREE ENERGY PREDICTED BY IDOCK:   -7.09 KCAL/MOL
REMARK 923 INTER-LIGAND FREE ENERGY PREDICTED BY IDOCK:   -7.11 KCAL/MOL
REMARK 924 INTRA-LIGAND FREE ENERGY PREDICTED BY IDOCK:    0.01 KCAL/MOL
REMARK 927      BINDING AFFINITY PREDICTED BY RF-SCORE:    0.00 PKD
ROOT
HETATM    1  C   UNL     1      -9.252  17.295  66.314  1.00  0.00    -0.243 C  
HETATM    2  C   UNL     1      -9.987  16.094  65.798  1.00  0.00    -0.370 A  
HETATM    3  C   UNL     1      -9.522  14.798  66.072  1.00  0.00    -0.299 A  
HETATM    4  C   UNL     1     -10.103  13.681  65.452  1.00  0.00    -0.291 A  
HETATM    5  C   UNL     1     -11.223  13.879  64.627  1.00  0.00    -0.380 A  
HETATM    6  C   UNL     1     -11.744  15.156  64.419  1.00  0.00    -0.301 A  
HETATM    7  C   UNL     1     -11.116  16.261  64.988  1.00  0.00    -0.262 A  
ENDROOT
BRANCH   4   8
HETATM    8  C   UNL     1      -9.467  12.302  65.603  1.00  0.00    -0.068 C  
BRANCH   8   9
HETATM    9  N   UNL     1      -9.314  11.877  67.004  1.00  0.00    -0.183 NA 
HETATM   10  C   UNL     1     -10.527  12.081  67.830  1.00  0.00    -0.202 C  
HETATM   11  C   UNL     1     -11.530  10.893  68.042  1.00  0.00    -0.281 C  
HETATM   12  N   UNL     1     -11.021   9.501  67.926  1.00  0.00    -0.186 NA 
HETATM   13  C   UNL     1     -10.041   9.515  66.818  1.00  0.00    -0.245 C  
HETATM   14  C   UNL     1      -8.879  10.481  67.074  1.00  0.00    -0.136 C  
BRANCH  12  15
HETATM   15  C   UNL     1     -10.419   8.958  69.191  1.00  0.00    -0.223 C  
BRANCH  15  16
HETATM   16  C   UNL     1     -11.374   8.990  70.387  1.00  0.00    -0.242 A  
HETATM   17  C   UNL     1     -11.896  10.236  70.807  1.00  0.00    -0.459 A  
HETATM   18  C   UNL     1     -11.807   7.833  71.025  1.00  0.00    -0.290 A  
HETATM   19  C   UNL     1     -12.853  10.303  71.821  1.00  0.00    -0.565 A  
HETATM   20  C   UNL     1     -13.290   9.136  72.435  1.00  0.00    -0.527 A  
HETATM   21  C   UNL     1     -12.759   7.904  72.047  1.00  0.00    -0.307 A  
ENDBRANCH  15  16
BRANCH  15  22
HETATM   22  C   UNL     1      -9.756   7.580  68.976  1.00  0.00    -0.162 A  
HETATM   23  C   UNL     1      -8.848   4.924  69.148  1.00  0.00    -0.092 A  
HETATM   24  C   UNL     1     -10.514   6.523  68.439  1.00  0.00    -0.258 A  
HETATM   25 CL   UNL     1      -8.373   3.289  69.405  1.00  0.00    -0.079 Cl 
HETATM   26  C   UNL     1      -8.037   5.960  69.602  1.00  0.00    -0.106 A  
HETATM   27  C   UNL     1      -8.470   7.284  69.482  1.00  0.00    -0.133 A  
HETATM   28  C   UNL     1     -10.064   5.203  68.530  1.00  0.00    -0.214 A  
ENDBRANCH  15  22
ENDBRANCH  12  15
ENDBRANCH   8   9
ENDBRANCH   4   8
TORSDOF 5
ENDMDL
MODEL       80
REMARK 921   NORMALIZED FREE ENERGY PREDICTED BY IDOCK:   -4.91 KCAL/MOL
REMARK 922        TOTAL FREE ENERGY PREDICTED BY IDOCK:   -7.05 KCAL/MOL
REMARK 923 INTER-LIGAND FREE ENERGY PREDICTED BY IDOCK:   -6.14 KCAL/MOL
REMARK 924 INTRA-LIGAND FREE ENERGY PREDICTED BY IDOCK:   -0.91 KCAL/MOL
REMARK 927      BINDING AFFINITY PREDICTED BY RF-SCORE:    0.00 PKD
ROOT
HETATM    1  C   UNL     1      -7.882  15.764  68.499  1.00  0.00    -0.139 C  
HETATM    2  C   UNL     1      -7.311  14.433  68.108  1.00  0.00    -0.130 A  
HETATM    3  C   UNL     1      -8.153  13.338  67.858  1.00  0.00    -0.159 A  
HETATM    4  C   UNL     1      -7.621  12.055  67.662  1.00  0.00    -0.136 A  
HETATM    5  C   UNL     1      -6.225  11.906  67.625  1.00  0.00    -0.083 A  
HETATM    6  C   UNL     1      -5.382  13.004  67.787  1.00  0.00    -0.111 A  
HETATM    7  C   UNL     1      -5.923  14.260  68.046  1.00  0.00    -0.150 A  
ENDROOT
BRANCH   4   8
HETATM    8  C   UNL     1      -8.548  10.844  67.587  1.00  0.00    -0.124 C  
BRANCH   8   9
HETATM    9  N   UNL     1      -9.307  10.610  68.826  1.00  0.00    -0.173 NA 
HETATM   10  C   UNL     1     -10.658  10.041  68.605  1.00  0.00    -0.212 C  
HETATM   11  C   UNL     1     -10.872   8.489  68.704  1.00  0.00     0.060 C  
HETATM   12  N   UNL     1      -9.934   7.693  69.537  1.00  0.00    -0.179 NA 
HETATM   13  C   UNL     1      -8.596   8.291  69.335  1.00  0.00    -0.134 C  
HETATM   14  C   UNL     1      -8.544   9.765  69.747  1.00  0.00    -0.201 C  
BRANCH  12  15
HETATM   15  C   UNL     1     -10.301   7.636  70.994  1.00  0.00    -0.202 C  
BRANCH  15  16
HETATM   16  C   UNL     1     -11.749   8.044  71.278  1.00  0.00    -0.311 A  
HETATM   17  C   UNL     1     -12.771   7.081  71.111  1.00  0.00    -0.361 A  
HETATM   18  C   UNL     1     -12.086   9.300  71.770  1.00  0.00    -0.457 A  
HETATM   19  C   UNL     1     -14.090   7.373  71.462  1.00  0.00    -0.541 A  
HETATM   20  C   UNL     1     -14.407   8.626  71.970  1.00  0.00    -0.512 A  
HETATM   21  C   UNL     1     -13.409   9.593  72.112  1.00  0.00    -0.545 A  
ENDBRANCH  15  16
BRANCH  15  22
HETATM   22  C   UNL     1      -9.907   6.292  71.642  1.00  0.00    -0.184 A  
HETATM   23  C   UNL     1      -9.823   3.704  72.740  1.00  0.00    -0.147 A  
HETATM   24  C   UNL     1      -9.678   5.169  70.825  1.00  0.00    -0.255 A  
HETATM   25 CL   UNL     1      -9.942   2.113  73.387  1.00  0.00    -0.146 Cl 
HETATM   26  C   UNL     1      -9.956   4.804  73.581  1.00  0.00    -0.187 A  
HETATM   27  C   UNL     1      -9.958   6.095  73.041  1.00  0.00    -0.185 A  
HETATM   28  C   UNL     1      -9.642   3.883  71.371  1.00  0.00    -0.237 A  
ENDBRANCH  15  22
ENDBRANCH  12  15
ENDBRANCH   8   9
ENDBRANCH   4   8
TORSDOF 5
ENDMDL
MODEL       81
REMARK 921   NORMALIZED FREE ENERGY PREDICTED BY IDOCK:   -4.90 KCAL/MOL
REMARK 922        TOTAL FREE ENERGY PREDICTED BY IDOCK:   -7.04 KCAL/MOL
REMARK 923 INTER-LIGAND FREE ENERGY PREDICTED BY IDOCK:   -6.28 KCAL/MOL
REMARK 924 INTRA-LIGAND FREE ENERGY PREDICTED BY IDOCK:   -0.76 KCAL/MOL
REMARK 927      BINDING AFFINITY PREDICTED BY RF-SCORE:    0.00 PKD
ROOT
HETATM    1  C   UNL     1     -12.029  14.435  64.404  1.00  0.00    -0.471 C  
HETATM    2  C   UNL     1     -11.440  13.077  64.647  1.00  0.00    -0.374 A  
HETATM    3  C   UNL     1     -11.714  12.379  65.833  1.00  0.00    -0.476 A  
HETATM    4  C   UNL     1     -11.034  11.191  66.140  1.00  0.00    -0.203 A  
HETATM    5  C   UNL     1     -10.142  10.664  65.191  1.00  0.00    -0.374 A  
HETATM    6  C   UNL     1      -9.929  11.308  63.973  1.00  0.00    -0.362 A  
HETATM    7  C   UNL     1     -10.562  12.520  63.709  1.00  0.00    -0.471 A  
ENDROOT
BRANCH   4   8
HETATM    8  C   UNL     1     -11.195  10.548  67.515  1.00  0.00    -0.224 C  
BRANCH   8   9
HETATM    9  N   UNL     1      -9.921  10.127  68.119  1.00  0.00    -0.144 NA 
HETATM   10  C   UNL     1      -9.768  10.523  69.539  1.00  0.00    -0.119 C  
HETATM   11  C   UNL     1     -10.134   9.501  70.673  1.00  0.00    -0.286 C  
HETATM   12  N   UNL     1     -10.072   8.048  70.369  1.00  0.00    -0.193 NA 
HETATM   13  C   UNL     1     -10.570   7.897  68.984  1.00  0.00    -0.162 C  
HETATM   14  C   UNL     1      -9.733   8.683  67.970  1.00  0.00    -0.158 C  
BRANCH  12  15
HETATM   15  C   UNL     1      -8.708   7.441  70.535  1.00  0.00    -0.147 C  
BRANCH  15  16
HETATM   16  C   UNL     1      -8.102   7.665  71.923  1.00  0.00    -0.112 A  
HETATM   17  C   UNL     1      -6.810   8.234  72.017  1.00  0.00    -0.089 A  
HETATM   18  C   UNL     1      -8.806   7.405  73.093  1.00  0.00    -0.192 A  
HETATM   19  C   UNL     1      -6.262   8.558  73.260  1.00  0.00    -0.115 A  
HETATM   20  C   UNL     1      -6.987   8.309  74.419  1.00  0.00    -0.203 A  
HETATM   21  C   UNL     1      -8.251   7.721  74.337  1.00  0.00    -0.279 A  
ENDBRANCH  15  16
BRANCH  15  22
HETATM   22  C   UNL     1      -8.667   5.965  70.083  1.00  0.00    -0.141 A  
HETATM   23  C   UNL     1      -9.007   3.487  68.798  1.00  0.00    -0.130 A  
HETATM   24  C   UNL     1      -7.844   5.594  69.005  1.00  0.00    -0.096 A  
HETATM   25 CL   UNL     1      -9.329   2.048  67.908  1.00  0.00    -0.228 Cl 
HETATM   26  C   UNL     1      -9.771   3.791  69.921  1.00  0.00    -0.200 A  
HETATM   27  C   UNL     1      -9.576   5.006  70.585  1.00  0.00    -0.250 A  
HETATM   28  C   UNL     1      -8.017   4.363  68.363  1.00  0.00    -0.078 A  
ENDBRANCH  15  22
ENDBRANCH  12  15
ENDBRANCH   8   9
ENDBRANCH   4   8
TORSDOF 5
ENDMDL
MODEL       82
REMARK 921   NORMALIZED FREE ENERGY PREDICTED BY IDOCK:   -4.89 KCAL/MOL
REMARK 922        TOTAL FREE ENERGY PREDICTED BY IDOCK:   -7.02 KCAL/MOL
REMARK 923 INTER-LIGAND FREE ENERGY PREDICTED BY IDOCK:   -6.98 KCAL/MOL
REMARK 924 INTRA-LIGAND FREE ENERGY PREDICTED BY IDOCK:   -0.04 KCAL/MOL
REMARK 927      BINDING AFFINITY PREDICTED BY RF-SCORE:    0.00 PKD
ROOT
HETATM    1  C   UNL     1     -11.087   2.537  72.837  1.00  0.00    -0.033 C  
HETATM    2  C   UNL     1     -10.408   3.862  73.021  1.00  0.00    -0.239 A  
HETATM    3  C   UNL     1     -11.159   5.034  73.195  1.00  0.00    -0.395 A  
HETATM    4  C   UNL     1     -10.538   6.292  73.194  1.00  0.00    -0.273 A  
HETATM    5  C   UNL     1      -9.136   6.347  73.113  1.00  0.00    -0.134 A  
HETATM    6  C   UNL     1      -8.377   5.181  73.027  1.00  0.00    -0.112 A  
HETATM    7  C   UNL     1      -9.011   3.944  72.963  1.00  0.00    -0.110 A  
ENDROOT
BRANCH   4   8
HETATM    8  C   UNL     1     -11.381   7.564  73.186  1.00  0.00    -0.182 C  
BRANCH   8   9
HETATM    9  N   UNL     1     -11.951   7.881  71.866  1.00  0.00    -0.291 NA 
HETATM   10  C   UNL     1     -12.690   9.165  71.823  1.00  0.00    -0.373 C  
HETATM   11  C   UNL     1     -11.960  10.464  71.330  1.00  0.00    -0.330 C  
HETATM   12  N   UNL     1     -10.800  10.324  70.411  1.00  0.00    -0.291 NA 
HETATM   13  C   UNL     1     -10.056   9.131  70.870  1.00  0.00    -0.287 C  
HETATM   14  C   UNL     1     -10.910   7.859  70.837  1.00  0.00    -0.234 C  
BRANCH  12  15
HETATM   15  C   UNL     1     -11.173  10.220  68.959  1.00  0.00    -0.208 C  
BRANCH  15  16
HETATM   16  C   UNL     1     -11.581  11.557  68.334  1.00  0.00    -0.375 A  
HETATM   17  C   UNL     1     -11.763  12.676  69.180  1.00  0.00    -0.375 A  
HETATM   18  C   UNL     1     -11.700  11.730  66.959  1.00  0.00    -0.247 A  
HETATM   19  C   UNL     1     -12.026  13.939  68.645  1.00  0.00    -0.401 A  
HETATM   20  C   UNL     1     -12.124  14.098  67.269  1.00  0.00    -0.407 A  
HETATM   21  C   UNL     1     -11.974  12.994  66.427  1.00  0.00    -0.466 A  
ENDBRANCH  15  16
BRANCH  15  22
HETATM   22  C   UNL     1     -10.109   9.461  68.137  1.00  0.00    -0.215 A  
HETATM   23  C   UNL     1      -8.319   8.521  66.183  1.00  0.00    -0.119 A  
HETATM   24  C   UNL     1      -8.804   9.979  68.046  1.00  0.00    -0.125 A  
HETATM   25 CL   UNL     1      -7.287   8.068  64.881  1.00  0.00    -0.080 Cl 
HETATM   26  C   UNL     1      -9.570   7.927  66.313  1.00  0.00    -0.200 A  
HETATM   27  C   UNL     1     -10.447   8.367  67.310  1.00  0.00    -0.373 A  
HETATM   28  C   UNL     1      -7.917   9.515  67.071  1.00  0.00    -0.109 A  
ENDBRANCH  15  22
ENDBRANCH  12  15
ENDBRANCH   8   9
ENDBRANCH   4   8
TORSDOF 5
ENDMDL
MODEL       83
REMARK 921   NORMALIZED FREE ENERGY PREDICTED BY IDOCK:   -4.88 KCAL/MOL
REMARK 922        TOTAL FREE ENERGY PREDICTED BY IDOCK:   -7.01 KCAL/MOL
REMARK 923 INTER-LIGAND FREE ENERGY PREDICTED BY IDOCK:   -6.11 KCAL/MOL
REMARK 924 INTRA-LIGAND FREE ENERGY PREDICTED BY IDOCK:   -0.90 KCAL/MOL
REMARK 927      BINDING AFFINITY PREDICTED BY RF-SCORE:    0.00 PKD
ROOT
HETATM    1  C   UNL     1      -6.415   4.974  71.541  1.00  0.00    -0.031 C  
HETATM    2  C   UNL     1      -7.729   5.214  70.858  1.00  0.00    -0.088 A  
HETATM    3  C   UNL     1      -8.157   6.518  70.567  1.00  0.00    -0.117 A  
HETATM    4  C   UNL     1      -9.453   6.758  70.087  1.00  0.00    -0.159 A  
HETATM    5  C   UNL     1     -10.281   5.656  69.813  1.00  0.00    -0.321 A  
HETATM    6  C   UNL     1      -9.831   4.353  70.018  1.00  0.00    -0.294 A  
HETATM    7  C   UNL     1      -8.566   4.133  70.556  1.00  0.00    -0.111 A  
ENDROOT
BRANCH   4   8
HETATM    8  C   UNL     1      -9.973   8.188  69.962  1.00  0.00    -0.192 C  
BRANCH   8   9
HETATM    9  N   UNL     1      -9.691   8.802  68.655  1.00  0.00    -0.159 NA 
HETATM   10  C   UNL     1     -10.905   9.171  67.889  1.00  0.00    -0.083 C  
HETATM   11  C   UNL     1     -11.454  10.639  67.965  1.00  0.00    -0.212 C  
HETATM   12  N   UNL     1     -10.508  11.737  68.296  1.00  0.00    -0.199 NA 
HETATM   13  C   UNL     1      -9.585  11.189  69.314  1.00  0.00     0.091 C  
HETATM   14  C   UNL     1      -8.814   9.964  68.809  1.00  0.00    -0.136 C  
BRANCH  12  15
HETATM   15  C   UNL     1      -9.763  12.287  67.112  1.00  0.00    -0.201 C  
BRANCH  15  16
HETATM   16  C   UNL     1     -10.599  12.335  65.831  1.00  0.00    -0.290 A  
HETATM   17  C   UNL     1     -10.196  11.549  64.726  1.00  0.00    -0.331 A  
HETATM   18  C   UNL     1     -11.781  13.061  65.740  1.00  0.00    -0.427 A  
HETATM   19  C   UNL     1     -10.986  11.476  63.577  1.00  0.00    -0.453 A  
HETATM   20  C   UNL     1     -12.174  12.192  63.510  1.00  0.00    -0.670 A  
HETATM   21  C   UNL     1     -12.565  12.994  64.584  1.00  0.00    -0.425 A  
ENDBRANCH  15  16
BRANCH  15  22
HETATM   22  C   UNL     1      -9.062  13.624  67.435  1.00  0.00    -0.222 A  
HETATM   23  C   UNL     1      -7.629  15.756  68.580  1.00  0.00    -0.138 A  
HETATM   24  C   UNL     1      -7.672  13.739  67.251  1.00  0.00    -0.095 A  
HETATM   25 CL   UNL     1      -6.734  16.962  69.421  1.00  0.00    -0.238 Cl 
HETATM   26  C   UNL     1      -9.015  15.716  68.697  1.00  0.00    -0.202 A  
HETATM   27  C   UNL     1      -9.734  14.678  68.095  1.00  0.00    -0.220 A  
HETATM   28  C   UNL     1      -6.960  14.797  67.825  1.00  0.00    -0.192 A  
ENDBRANCH  15  22
ENDBRANCH  12  15
ENDBRANCH   8   9
ENDBRANCH   4   8
TORSDOF 5
ENDMDL
MODEL       84
REMARK 921   NORMALIZED FREE ENERGY PREDICTED BY IDOCK:   -4.86 KCAL/MOL
REMARK 922        TOTAL FREE ENERGY PREDICTED BY IDOCK:   -6.99 KCAL/MOL
REMARK 923 INTER-LIGAND FREE ENERGY PREDICTED BY IDOCK:   -6.73 KCAL/MOL
REMARK 924 INTRA-LIGAND FREE ENERGY PREDICTED BY IDOCK:   -0.26 KCAL/MOL
REMARK 927      BINDING AFFINITY PREDICTED BY RF-SCORE:    0.00 PKD
ROOT
HETATM    1  C   UNL     1      -6.528   7.912  62.377  1.00  0.00    -0.085 C  
HETATM    2  C   UNL     1      -7.104   7.497  63.699  1.00  0.00    -0.070 A  
HETATM    3  C   UNL     1      -8.205   8.175  64.245  1.00  0.00    -0.095 A  
HETATM    4  C   UNL     1      -8.638   7.905  65.551  1.00  0.00    -0.139 A  
HETATM    5  C   UNL     1      -8.007   6.874  66.268  1.00  0.00    -0.108 A  
HETATM    6  C   UNL     1      -6.969   6.138  65.699  1.00  0.00    -0.057 A  
HETATM    7  C   UNL     1      -6.506   6.460  64.426  1.00  0.00    -0.034 A  
ENDROOT
BRANCH   4   8
HETATM    8  C   UNL     1      -9.704   8.782  66.202  1.00  0.00    -0.250 C  
BRANCH   8   9
HETATM    9  N   UNL     1      -9.157   9.974  66.869  1.00  0.00    -0.138 NA 
HETATM   10  C   UNL     1      -9.007  11.147  65.975  1.00  0.00    -0.200 C  
HETATM   11  C   UNL     1     -10.136  12.236  65.928  1.00  0.00    -0.251 C  
HETATM   12  N   UNL     1     -11.016  12.402  67.114  1.00  0.00    -0.252 NA 
HETATM   13  C   UNL     1     -11.258  11.040  67.638  1.00  0.00    -0.305 C  
HETATM   14  C   UNL     1      -9.963  10.326  68.039  1.00  0.00    -0.153 C  
BRANCH  12  15
HETATM   15  C   UNL     1     -10.458  13.311  68.172  1.00  0.00    -0.245 C  
BRANCH  15  16
HETATM   16  C   UNL     1      -9.592  14.443  67.614  1.00  0.00    -0.214 A  
HETATM   17  C   UNL     1      -8.262  14.573  68.077  1.00  0.00    -0.145 A  
HETATM   18  C   UNL     1     -10.039  15.297  66.611  1.00  0.00    -0.268 A  
HETATM   19  C   UNL     1      -7.401  15.520  67.517  1.00  0.00    -0.216 A  
HETATM   20  C   UNL     1      -7.857  16.353  66.504  1.00  0.00    -0.323 A  
HETATM   21  C   UNL     1      -9.178  16.251  66.060  1.00  0.00    -0.351 A  
ENDBRANCH  15  16
BRANCH  15  22
HETATM   22  C   UNL     1     -11.546  13.802  69.152  1.00  0.00    -0.363 A  
HETATM   23  C   UNL     1     -13.013  14.889  71.291  1.00  0.00    -0.363 A  
HETATM   24  C   UNL     1     -11.908  15.161  69.160  1.00  0.00    -0.340 A  
HETATM   25 CL   UNL     1     -13.760  15.586  72.677  1.00  0.00    -0.636 Cl 
HETATM   26  C   UNL     1     -12.748  13.523  71.261  1.00  0.00    -0.432 A  
HETATM   27  C   UNL     1     -12.053  12.974  70.179  1.00  0.00    -0.377 A  
HETATM   28  C   UNL     1     -12.634  15.701  70.226  1.00  0.00    -0.319 A  
ENDBRANCH  15  22
ENDBRANCH  12  15
ENDBRANCH   8   9
ENDBRANCH   4   8
TORSDOF 5
ENDMDL
MODEL       85
REMARK 921   NORMALIZED FREE ENERGY PREDICTED BY IDOCK:   -4.85 KCAL/MOL
REMARK 922        TOTAL FREE ENERGY PREDICTED BY IDOCK:   -6.97 KCAL/MOL
REMARK 923 INTER-LIGAND FREE ENERGY PREDICTED BY IDOCK:   -6.30 KCAL/MOL
REMARK 924 INTRA-LIGAND FREE ENERGY PREDICTED BY IDOCK:   -0.67 KCAL/MOL
REMARK 927      BINDING AFFINITY PREDICTED BY RF-SCORE:    0.00 PKD
ROOT
HETATM    1  C   UNL     1      -9.099   2.441  67.443  1.00  0.00    -0.195 C  
HETATM    2  C   UNL     1      -8.178   3.587  67.146  1.00  0.00    -0.091 A  
HETATM    3  C   UNL     1      -8.668   4.772  66.576  1.00  0.00    -0.111 A  
HETATM    4  C   UNL     1      -7.791   5.775  66.140  1.00  0.00    -0.101 A  
HETATM    5  C   UNL     1      -6.415   5.611  66.372  1.00  0.00    -0.044 A  
HETATM    6  C   UNL     1      -5.928   4.475  67.016  1.00  0.00    -0.023 A  
HETATM    7  C   UNL     1      -6.804   3.458  67.385  1.00  0.00    -0.046 A  
ENDROOT
BRANCH   4   8
HETATM    8  C   UNL     1      -8.322   6.966  65.346  1.00  0.00    -0.119 C  
BRANCH   8   9
HETATM    9  N   UNL     1      -8.052   8.264  65.986  1.00  0.00    -0.104 NA 
HETATM   10  C   UNL     1      -8.429   9.433  65.157  1.00  0.00    -0.154 C  
HETATM   11  C   UNL     1      -9.824  10.118  65.370  1.00  0.00    -0.307 C  
HETATM   12  N   UNL     1     -10.484   9.993  66.696  1.00  0.00    -0.204 NA 
HETATM   13  C   UNL     1     -10.202   8.619  67.166  1.00  0.00    -0.283 C  
HETATM   14  C   UNL     1      -8.701   8.338  67.295  1.00  0.00    -0.123 C  
BRANCH  12  15
HETATM   15  C   UNL     1     -10.047  11.022  67.701  1.00  0.00    -0.182 C  
BRANCH  15  16
HETATM   16  C   UNL     1     -10.162  12.461  67.194  1.00  0.00    -0.226 A  
HETATM   17  C   UNL     1      -9.019  13.294  67.245  1.00  0.00    -0.217 A  
HETATM   18  C   UNL     1     -11.325  12.955  66.614  1.00  0.00    -0.361 A  
HETATM   19  C   UNL     1      -9.046  14.577  66.695  1.00  0.00    -0.277 A  
HETATM   20  C   UNL     1     -10.210  15.048  66.102  1.00  0.00    -0.311 A  
HETATM   21  C   UNL     1     -11.352  14.244  66.072  1.00  0.00    -0.335 A  
ENDBRANCH  15  16
BRANCH  15  22
HETATM   22  C   UNL     1     -10.706  10.805  69.080  1.00  0.00    -0.265 A  
HETATM   23  C   UNL     1     -12.055   9.825  71.345  1.00  0.00    -0.400 A  
HETATM   24  C   UNL     1     -10.019  10.080  70.070  1.00  0.00    -0.273 A  
HETATM   25 CL   UNL     1     -12.914   9.082  72.639  1.00  0.00    -0.425 Cl 
HETATM   26  C   UNL     1     -12.737  10.619  70.428  1.00  0.00    -0.340 A  
HETATM   27  C   UNL     1     -12.058  11.140  69.321  1.00  0.00    -0.377 A  
HETATM   28  C   UNL     1     -10.692   9.589  71.193  1.00  0.00    -0.408 A  
ENDBRANCH  15  22
ENDBRANCH  12  15
ENDBRANCH   8   9
ENDBRANCH   4   8
TORSDOF 5
ENDMDL
MODEL       86
REMARK 921   NORMALIZED FREE ENERGY PREDICTED BY IDOCK:   -4.83 KCAL/MOL
REMARK 922        TOTAL FREE ENERGY PREDICTED BY IDOCK:   -6.94 KCAL/MOL
REMARK 923 INTER-LIGAND FREE ENERGY PREDICTED BY IDOCK:   -6.60 KCAL/MOL
REMARK 924 INTRA-LIGAND FREE ENERGY PREDICTED BY IDOCK:   -0.34 KCAL/MOL
REMARK 927      BINDING AFFINITY PREDICTED BY RF-SCORE:    0.00 PKD
ROOT
HETATM    1  C   UNL     1      -8.151   3.799  66.402  1.00  0.00    -0.097 C  
HETATM    2  C   UNL     1      -8.947   5.062  66.544  1.00  0.00    -0.116 A  
HETATM    3  C   UNL     1      -8.305   6.307  66.639  1.00  0.00    -0.112 A  
HETATM    4  C   UNL     1      -9.030   7.468  66.944  1.00  0.00    -0.152 A  
HETATM    5  C   UNL     1     -10.428   7.374  67.056  1.00  0.00    -0.404 A  
HETATM    6  C   UNL     1     -11.082   6.156  66.877  1.00  0.00    -0.301 A  
HETATM    7  C   UNL     1     -10.342   5.001  66.641  1.00  0.00    -0.312 A  
ENDROOT
BRANCH   4   8
HETATM    8  C   UNL     1      -8.299   8.775  67.238  1.00  0.00    -0.104 C  
BRANCH   8   9
HETATM    9  N   UNL     1      -8.894   9.943  66.569  1.00  0.00    -0.138 NA 
HETATM   10  C   UNL     1      -9.880  10.675  67.400  1.00  0.00    -0.170 C  
HETATM   11  C   UNL     1      -9.422  11.932  68.220  1.00  0.00    -0.197 C  
HETATM   12  N   UNL     1      -8.239  12.698  67.748  1.00  0.00    -0.157 NA 
HETATM   13  C   UNL     1      -7.276  11.695  67.243  1.00  0.00    -0.137 C  
HETATM   14  C   UNL     1      -7.849  10.854  66.098  1.00  0.00    -0.144 C  
BRANCH  12  15
HETATM   15  C   UNL     1      -8.553  13.736  66.708  1.00  0.00    -0.035 C  
BRANCH  15  16
HETATM   16  C   UNL     1     -10.014  13.725  66.251  1.00  0.00    -0.312 A  
HETATM   17  C   UNL     1     -11.010  14.178  67.147  1.00  0.00    -0.304 A  
HETATM   18  C   UNL     1     -10.388  13.362  64.962  1.00  0.00    -0.361 A  
HETATM   19  C   UNL     1     -12.340  14.289  66.739  1.00  0.00    -0.280 A  
HETATM   20  C   UNL     1     -12.694  13.940  65.442  1.00  0.00    -0.525 A  
HETATM   21  C   UNL     1     -11.722  13.465  64.558  1.00  0.00    -0.422 A  
ENDBRANCH  15  16
BRANCH  15  22
HETATM   22  C   UNL     1      -8.052  15.139  67.115  1.00  0.00    -0.245 A  
HETATM   23  C   UNL     1      -7.735  17.746  68.120  1.00  0.00    -0.254 A  
HETATM   24  C   UNL     1      -7.586  15.355  68.425  1.00  0.00    -0.116 A  
HETATM   25 CL   UNL     1      -7.707  19.334  68.787  1.00  0.00    -0.391 Cl 
HETATM   26  C   UNL     1      -8.106  17.561  66.792  1.00  0.00    -0.275 A  
HETATM   27  C   UNL     1      -8.226  16.265  66.279  1.00  0.00    -0.312 A  
HETATM   28  C   UNL     1      -7.434  16.651  68.925  1.00  0.00    -0.232 A  
ENDBRANCH  15  22
ENDBRANCH  12  15
ENDBRANCH   8   9
ENDBRANCH   4   8
TORSDOF 5
ENDMDL
MODEL       87
REMARK 921   NORMALIZED FREE ENERGY PREDICTED BY IDOCK:   -4.82 KCAL/MOL
REMARK 922        TOTAL FREE ENERGY PREDICTED BY IDOCK:   -6.94 KCAL/MOL
REMARK 923 INTER-LIGAND FREE ENERGY PREDICTED BY IDOCK:   -7.27 KCAL/MOL
REMARK 924 INTRA-LIGAND FREE ENERGY PREDICTED BY IDOCK:    0.33 KCAL/MOL
REMARK 927      BINDING AFFINITY PREDICTED BY RF-SCORE:    0.00 PKD
ROOT
HETATM    1  C   UNL     1     -13.234   7.390  71.289  1.00  0.00    -0.342 C  
HETATM    2  C   UNL     1     -11.869   7.970  71.066  1.00  0.00    -0.280 A  
HETATM    3  C   UNL     1     -11.273   7.933  69.796  1.00  0.00     0.003 A  
HETATM    4  C   UNL     1      -9.936   8.316  69.618  1.00  0.00    -0.193 A  
HETATM    5  C   UNL     1      -9.233   8.828  70.722  1.00  0.00    -0.242 A  
HETATM    6  C   UNL     1      -9.845   8.948  71.969  1.00  0.00    -0.325 A  
HETATM    7  C   UNL     1     -11.152   8.503  72.145  1.00  0.00    -0.436 A  
ENDROOT
BRANCH   4   8
HETATM    8  C   UNL     1      -9.243   8.087  68.278  1.00  0.00    -0.134 C  
BRANCH   8   9
HETATM    9  N   UNL     1      -9.499   9.153  67.296  1.00  0.00    -0.144 NA 
HETATM   10  C   UNL     1     -10.714   9.953  67.579  1.00  0.00    -0.272 C  
HETATM   11  C   UNL     1     -10.585  11.309  68.358  1.00  0.00    -0.197 C  
HETATM   12  N   UNL     1      -9.294  12.043  68.303  1.00  0.00    -0.198 NA 
HETATM   13  C   UNL     1      -8.235  11.011  68.340  1.00  0.00    -0.137 C  
HETATM   14  C   UNL     1      -8.331  10.028  67.170  1.00  0.00    -0.121 C  
BRANCH  12  15
HETATM   15  C   UNL     1      -9.148  12.944  67.109  1.00  0.00    -0.220 C  
BRANCH  15  16
HETATM   16  C   UNL     1     -10.331  12.873  66.139  1.00  0.00    -0.286 A  
HETATM   17  C   UNL     1     -10.170  12.175  64.920  1.00  0.00    -0.309 A  
HETATM   18  C   UNL     1     -11.580  13.401  66.449  1.00  0.00    -0.381 A  
HETATM   19  C   UNL     1     -11.250  11.990  64.055  1.00  0.00    -0.468 A  
HETATM   20  C   UNL     1     -12.496  12.508  64.388  1.00  0.00    -0.530 A  
HETATM   21  C   UNL     1     -12.658  13.223  65.577  1.00  0.00    -0.505 A  
ENDBRANCH  15  16
BRANCH  15  22
HETATM   22  C   UNL     1      -8.773  14.387  67.509  1.00  0.00    -0.203 A  
HETATM   23  C   UNL     1      -7.517  16.861  67.964  1.00  0.00    -0.173 A  
HETATM   24  C   UNL     1      -8.824  15.409  66.544  1.00  0.00    -0.347 A  
HETATM   25 CL   UNL     1      -6.605  18.307  68.173  1.00  0.00    -0.201 Cl 
HETATM   26  C   UNL     1      -7.532  15.901  68.972  1.00  0.00    -0.194 A  
HETATM   27  C   UNL     1      -8.190  14.685  68.762  1.00  0.00    -0.156 A  
HETATM   28  C   UNL     1      -8.194  16.637  66.769  1.00  0.00    -0.274 A  
ENDBRANCH  15  22
ENDBRANCH  12  15
ENDBRANCH   8   9
ENDBRANCH   4   8
TORSDOF 5
ENDMDL
MODEL       88
REMARK 921   NORMALIZED FREE ENERGY PREDICTED BY IDOCK:   -4.77 KCAL/MOL
REMARK 922        TOTAL FREE ENERGY PREDICTED BY IDOCK:   -6.87 KCAL/MOL
REMARK 923 INTER-LIGAND FREE ENERGY PREDICTED BY IDOCK:   -6.06 KCAL/MOL
REMARK 924 INTRA-LIGAND FREE ENERGY PREDICTED BY IDOCK:   -0.81 KCAL/MOL
REMARK 927      BINDING AFFINITY PREDICTED BY RF-SCORE:    0.00 PKD
ROOT
HETATM    1  C   UNL     1     -11.835  13.584  64.338  1.00  0.00    -0.455 C  
HETATM    2  C   UNL     1     -11.178  12.293  64.725  1.00  0.00    -0.364 A  
HETATM    3  C   UNL     1     -11.503  11.658  65.934  1.00  0.00    -0.189 A  
HETATM    4  C   UNL     1     -10.771  10.548  66.382  1.00  0.00    -0.166 A  
HETATM    5  C   UNL     1      -9.768  10.025  65.548  1.00  0.00    -0.355 A  
HETATM    6  C   UNL     1      -9.498  10.599  64.306  1.00  0.00    -0.321 A  
HETATM    7  C   UNL     1     -10.187  11.740  63.905  1.00  0.00    -0.411 A  
ENDROOT
BRANCH   4   8
HETATM    8  C   UNL     1     -11.004   9.990  67.783  1.00  0.00    -0.249 C  
BRANCH   8   9
HETATM    9  N   UNL     1      -9.828   9.306  68.345  1.00  0.00    -0.151 NA 
HETATM   10  C   UNL     1      -9.324   9.910  69.601  1.00  0.00    -0.228 C  
HETATM   11  C   UNL     1      -9.777   9.319  70.982  1.00  0.00    -0.271 C  
HETATM   12  N   UNL     1     -10.201   7.896  71.043  1.00  0.00    -0.196 NA 
HETATM   13  C   UNL     1     -10.951   7.638  69.794  1.00  0.00    -0.170 C  
HETATM   14  C   UNL     1     -10.104   7.882  68.540  1.00  0.00    -0.197 C  
BRANCH  12  15
HETATM   15  C   UNL     1      -9.070   6.922  71.221  1.00  0.00    -0.149 C  
BRANCH  15  16
HETATM   16  C   UNL     1      -7.785   7.565  71.748  1.00  0.00    -0.085 A  
HETATM   17  C   UNL     1      -7.709   7.907  73.118  1.00  0.00    -0.174 A  
HETATM   18  C   UNL     1      -6.664   7.752  70.948  1.00  0.00    -0.038 A  
HETATM   19  C   UNL     1      -6.521   8.394  73.667  1.00  0.00    -0.133 A  
HETATM   20  C   UNL     1      -5.404   8.556  72.858  1.00  0.00    -0.053 A  
HETATM   21  C   UNL     1      -5.478   8.248  71.498  1.00  0.00    -0.034 A  
ENDBRANCH  15  16
BRANCH  15  22
HETATM   22  C   UNL     1      -9.498   5.671  72.018  1.00  0.00    -0.169 A  
HETATM   23  C   UNL     1     -10.736   3.347  73.005  1.00  0.00    -0.134 A  
HETATM   24  C   UNL     1      -9.097   4.397  71.575  1.00  0.00    -0.177 A  
HETATM   25 CL   UNL     1     -11.608   1.941  73.482  1.00  0.00    -0.314 Cl 
HETATM   26  C   UNL     1     -11.086   4.588  73.528  1.00  0.00    -0.398 A  
HETATM   27  C   UNL     1     -10.444   5.742  73.066  1.00  0.00    -0.248 A  
HETATM   28  C   UNL     1      -9.716   3.243  72.063  1.00  0.00    -0.235 A  
ENDBRANCH  15  22
ENDBRANCH  12  15
ENDBRANCH   8   9
ENDBRANCH   4   8
TORSDOF 5
ENDMDL
MODEL       89
REMARK 921   NORMALIZED FREE ENERGY PREDICTED BY IDOCK:   -4.64 KCAL/MOL
REMARK 922        TOTAL FREE ENERGY PREDICTED BY IDOCK:   -6.70 KCAL/MOL
REMARK 923 INTER-LIGAND FREE ENERGY PREDICTED BY IDOCK:   -6.66 KCAL/MOL
REMARK 924 INTRA-LIGAND FREE ENERGY PREDICTED BY IDOCK:   -0.04 KCAL/MOL
REMARK 927      BINDING AFFINITY PREDICTED BY RF-SCORE:    0.00 PKD
ROOT
HETATM    1  C   UNL     1     -10.608   5.463  68.098  1.00  0.00    -0.146 C  
HETATM    2  C   UNL     1     -10.603   6.659  69.003  1.00  0.00    -0.273 A  
HETATM    3  C   UNL     1      -9.837   7.792  68.688  1.00  0.00    -0.174 A  
HETATM    4  C   UNL     1      -9.693   8.840  69.609  1.00  0.00    -0.173 A  
HETATM    5  C   UNL     1     -10.409   8.775  70.816  1.00  0.00    -0.264 A  
HETATM    6  C   UNL     1     -11.241   7.692  71.099  1.00  0.00    -0.280 A  
HETATM    7  C   UNL     1     -11.323   6.629  70.203  1.00  0.00    -0.440 A  
ENDROOT
BRANCH   4   8
HETATM    8  C   UNL     1      -8.704   9.970  69.338  1.00  0.00    -0.186 C  
BRANCH   8   9
HETATM    9  N   UNL     1      -8.990  10.715  68.101  1.00  0.00    -0.136 NA 
HETATM   10  C   UNL     1     -10.206  11.559  68.175  1.00  0.00    -0.194 C  
HETATM   11  C   UNL     1     -10.074  13.080  68.537  1.00  0.00    -0.192 C  
HETATM   12  N   UNL     1      -8.791  13.773  68.247  1.00  0.00    -0.183 NA 
HETATM   13  C   UNL     1      -7.721  12.796  68.549  1.00  0.00    -0.113 C  
HETATM   14  C   UNL     1      -7.834  11.522  67.706  1.00  0.00    -0.126 C  
BRANCH  12  15
HETATM   15  C   UNL     1      -8.679  14.300  66.844  1.00  0.00    -0.179 C  
BRANCH  15  16
HETATM   16  C   UNL     1      -9.965  14.148  66.028  1.00  0.00    -0.340 A  
HETATM   17  C   UNL     1      -9.921  13.410  64.822  1.00  0.00    -0.158 A  
HETATM   18  C   UNL     1     -11.189  14.640  66.468  1.00  0.00    -0.346 A  
HETATM   19  C   UNL     1     -11.089  13.152  64.101  1.00  0.00    -0.426 A  
HETATM   20  C   UNL     1     -12.306  13.635  64.564  1.00  0.00    -0.402 A  
HETATM   21  C   UNL     1     -12.355  14.389  65.739  1.00  0.00    -0.345 A  
ENDBRANCH  15  16
BRANCH  15  22
HETATM   22  C   UNL     1      -8.096  15.729  66.804  1.00  0.00    -0.297 A  
HETATM   23  C   UNL     1      -6.981  18.210  66.089  1.00  0.00    -0.279 A  
HETATM   24  C   UNL     1      -8.917  16.801  66.410  1.00  0.00    -0.325 A  
HETATM   25 CL   UNL     1      -6.287  19.668  65.490  1.00  0.00    -0.240 Cl 
HETATM   26  C   UNL     1      -6.155  17.196  66.565  1.00  0.00    -0.237 A  
HETATM   27  C   UNL     1      -6.712  15.974  66.957  1.00  0.00    -0.138 A  
HETATM   28  C   UNL     1      -8.361  18.033  66.050  1.00  0.00    -0.068 A  
ENDBRANCH  15  22
ENDBRANCH  12  15
ENDBRANCH   8   9
ENDBRANCH   4   8
TORSDOF 5
ENDMDL
MODEL       90
REMARK 921   NORMALIZED FREE ENERGY PREDICTED BY IDOCK:   -4.60 KCAL/MOL
REMARK 922        TOTAL FREE ENERGY PREDICTED BY IDOCK:   -6.65 KCAL/MOL
REMARK 923 INTER-LIGAND FREE ENERGY PREDICTED BY IDOCK:   -5.75 KCAL/MOL
REMARK 924 INTRA-LIGAND FREE ENERGY PREDICTED BY IDOCK:   -0.90 KCAL/MOL
REMARK 927      BINDING AFFINITY PREDICTED BY RF-SCORE:    0.00 PKD
ROOT
HETATM    1  C   UNL     1     -13.034  14.747  71.389  1.00  0.00    -0.413 C  
HETATM    2  C   UNL     1     -12.173  14.920  70.173  1.00  0.00    -0.387 A  
HETATM    3  C   UNL     1     -12.178  13.958  69.150  1.00  0.00    -0.305 A  
HETATM    4  C   UNL     1     -11.253  14.026  68.097  1.00  0.00    -0.299 A  
HETATM    5  C   UNL     1     -10.386  15.129  68.036  1.00  0.00    -0.240 A  
HETATM    6  C   UNL     1     -10.434  16.133  69.002  1.00  0.00    -0.261 A  
HETATM    7  C   UNL     1     -11.312  16.019  70.077  1.00  0.00    -0.353 A  
ENDROOT
BRANCH   4   8
HETATM    8  C   UNL     1     -11.138  12.874  67.102  1.00  0.00    -0.275 C  
BRANCH   8   9
HETATM    9  N   UNL     1      -9.952  12.030  67.318  1.00  0.00    -0.194 NA 
HETATM   10  C   UNL     1      -9.835  11.496  68.696  1.00  0.00    -0.177 C  
HETATM   11  C   UNL     1     -10.372  10.057  69.018  1.00  0.00    -0.206 C  
HETATM   12  N   UNL     1     -10.451   9.063  67.916  1.00  0.00    -0.240 NA 
HETATM   13  C   UNL     1     -10.886   9.814  66.718  1.00  0.00    -0.000 C  
HETATM   14  C   UNL     1      -9.913  10.937  66.344  1.00  0.00    -0.221 C  
BRANCH  12  15
HETATM   15  C   UNL     1      -9.172   8.315  67.667  1.00  0.00    -0.137 C  
BRANCH  15  16
HETATM   16  C   UNL     1      -8.421   7.941  68.948  1.00  0.00    -0.128 A  
HETATM   17  C   UNL     1      -9.018   7.021  69.841  1.00  0.00    -0.142 A  
HETATM   18  C   UNL     1      -7.142   8.410  69.226  1.00  0.00    -0.062 A  
HETATM   19  C   UNL     1      -8.326   6.566  70.965  1.00  0.00    -0.126 A  
HETATM   20  C   UNL     1      -7.041   7.030  71.218  1.00  0.00    -0.073 A  
HETATM   21  C   UNL     1      -6.455   7.960  70.357  1.00  0.00    -0.037 A  
ENDBRANCH  15  16
BRANCH  15  22
HETATM   22  C   UNL     1      -9.371   7.123  66.706  1.00  0.00    -0.199 A  
HETATM   23  C   UNL     1      -9.478   4.610  65.450  1.00  0.00    -0.171 A  
HETATM   24  C   UNL     1     -10.490   6.287  66.863  1.00  0.00    -0.337 A  
HETATM   25 CL   UNL     1      -9.466   3.006  64.822  1.00  0.00    -0.151 Cl 
HETATM   26  C   UNL     1      -8.402   5.457  65.203  1.00  0.00    -0.144 A  
HETATM   27  C   UNL     1      -8.366   6.724  65.796  1.00  0.00    -0.143 A  
HETATM   28  C   UNL     1     -10.540   5.035  66.242  1.00  0.00    -0.332 A  
ENDBRANCH  15  22
ENDBRANCH  12  15
ENDBRANCH   8   9
ENDBRANCH   4   8
TORSDOF 5
ENDMDL
MODEL       91
REMARK 921   NORMALIZED FREE ENERGY PREDICTED BY IDOCK:   -4.60 KCAL/MOL
REMARK 922        TOTAL FREE ENERGY PREDICTED BY IDOCK:   -6.65 KCAL/MOL
REMARK 923 INTER-LIGAND FREE ENERGY PREDICTED BY IDOCK:   -6.11 KCAL/MOL
REMARK 924 INTRA-LIGAND FREE ENERGY PREDICTED BY IDOCK:   -0.54 KCAL/MOL
REMARK 927      BINDING AFFINITY PREDICTED BY RF-SCORE:    0.00 PKD
ROOT
HETATM    1  C   UNL     1     -12.431  12.354  63.705  1.00  0.00    -0.610 C  
HETATM    2  C   UNL     1     -11.830  12.798  65.005  1.00  0.00    -0.423 A  
HETATM    3  C   UNL     1     -10.567  12.336  65.405  1.00  0.00    -0.309 A  
HETATM    4  C   UNL     1     -10.077  12.609  66.691  1.00  0.00    -0.248 A  
HETATM    5  C   UNL     1     -10.835  13.437  67.536  1.00  0.00    -0.276 A  
HETATM    6  C   UNL     1     -12.051  13.971  67.113  1.00  0.00    -0.436 A  
HETATM    7  C   UNL     1     -12.556  13.637  65.859  1.00  0.00    -0.478 A  
ENDROOT
BRANCH   4   8
HETATM    8  C   UNL     1      -8.796  11.939  67.182  1.00  0.00    -0.180 C  
BRANCH   8   9
HETATM    9  N   UNL     1      -8.894  10.473  67.260  1.00  0.00    -0.136 NA 
HETATM   10  C   UNL     1      -7.610   9.800  67.567  1.00  0.00    -0.091 C  
HETATM   11  C   UNL     1      -7.270   9.415  69.050  1.00  0.00    -0.071 C  
HETATM   12  N   UNL     1      -8.389   9.195  70.003  1.00  0.00    -0.133 NA 
HETATM   13  C   UNL     1      -9.417  10.205  69.668  1.00  0.00    -0.200 C  
HETATM   14  C   UNL     1      -9.920  10.076  68.227  1.00  0.00    -0.153 C  
BRANCH  12  15
HETATM   15  C   UNL     1      -8.954   7.802  69.979  1.00  0.00    -0.142 C  
BRANCH  15  16
HETATM   16  C   UNL     1      -7.929   6.719  70.325  1.00  0.00    -0.115 A  
HETATM   17  C   UNL     1      -7.860   6.250  71.658  1.00  0.00    -0.102 A  
HETATM   18  C   UNL     1      -7.121   6.124  69.363  1.00  0.00    -0.069 A  
HETATM   19  C   UNL     1      -7.020   5.188  71.998  1.00  0.00    -0.073 A  
HETATM   20  C   UNL     1      -6.232   4.593  71.021  1.00  0.00    -0.019 A  
HETATM   21  C   UNL     1      -6.273   5.067  69.708  1.00  0.00    -0.026 A  
ENDBRANCH  15  16
BRANCH  15  22
HETATM   22  C   UNL     1     -10.261   7.689  70.794  1.00  0.00    -0.201 A  
HETATM   23  C   UNL     1     -12.783   8.049  71.984  1.00  0.00    -0.302 A  
HETATM   24  C   UNL     1     -11.427   7.210  70.170  1.00  0.00    -0.245 A  
HETATM   25 CL   UNL     1     -14.335   8.422  72.630  1.00  0.00    -0.274 Cl 
HETATM   26  C   UNL     1     -11.637   8.448  72.665  1.00  0.00    -0.367 A  
HETATM   27  C   UNL     1     -10.379   8.234  72.092  1.00  0.00    -0.370 A  
HETATM   28  C   UNL     1     -12.681   7.395  70.760  1.00  0.00    -0.058 A  
ENDBRANCH  15  22
ENDBRANCH  12  15
ENDBRANCH   8   9
ENDBRANCH   4   8
TORSDOF 5
ENDMDL
MODEL       92
REMARK 921   NORMALIZED FREE ENERGY PREDICTED BY IDOCK:   -4.55 KCAL/MOL
REMARK 922        TOTAL FREE ENERGY PREDICTED BY IDOCK:   -6.59 KCAL/MOL
REMARK 923 INTER-LIGAND FREE ENERGY PREDICTED BY IDOCK:   -6.79 KCAL/MOL
REMARK 924 INTRA-LIGAND FREE ENERGY PREDICTED BY IDOCK:    0.20 KCAL/MOL
REMARK 927      BINDING AFFINITY PREDICTED BY RF-SCORE:    0.00 PKD
ROOT
HETATM    1  C   UNL     1      -9.318   8.946  71.388  1.00  0.00    -0.338 C  
HETATM    2  C   UNL     1      -9.510   9.323  69.949  1.00  0.00    -0.214 A  
HETATM    3  C   UNL     1      -8.589  10.161  69.300  1.00  0.00    -0.180 A  
HETATM    4  C   UNL     1      -8.852  10.655  68.014  1.00  0.00    -0.130 A  
HETATM    5  C   UNL     1     -10.010  10.216  67.350  1.00  0.00    -0.238 A  
HETATM    6  C   UNL     1     -10.886   9.316  67.956  1.00  0.00    -0.166 A  
HETATM    7  C   UNL     1     -10.646   8.886  69.258  1.00  0.00    -0.219 A  
ENDROOT
BRANCH   4   8
HETATM    8  C   UNL     1      -7.943  11.716  67.399  1.00  0.00    -0.147 C  
BRANCH   8   9
HETATM    9  N   UNL     1      -7.812  12.926  68.226  1.00  0.00    -0.136 NA 
HETATM   10  C   UNL     1      -7.210  14.079  67.515  1.00  0.00    -0.165 C  
HETATM   11  C   UNL     1      -8.141  15.161  66.863  1.00  0.00    -0.159 C  
HETATM   12  N   UNL     1      -9.508  15.350  67.416  1.00  0.00    -0.205 NA 
HETATM   13  C   UNL     1      -9.998  14.000  67.768  1.00  0.00    -0.236 C  
HETATM   14  C   UNL     1      -9.106  13.301  68.799  1.00  0.00     0.142 C  
BRANCH  12  15
HETATM   15  C   UNL     1      -9.573  16.287  68.589  1.00  0.00    -0.237 C  
BRANCH  15  16
HETATM   16  C   UNL     1      -9.563  17.766  68.195  1.00  0.00    -0.303 A  
HETATM   17  C   UNL     1      -8.506  18.585  68.657  1.00  0.00    -0.326 A  
HETATM   18  C   UNL     1     -10.508  18.314  67.336  1.00  0.00    -0.430 A  
HETATM   19  C   UNL     1      -8.395  19.911  68.235  1.00  0.00    -0.251 A  
HETATM   20  C   UNL     1      -9.337  20.438  67.361  1.00  0.00    -0.536 A  
HETATM   21  C   UNL     1     -10.400  19.645  66.922  1.00  0.00    -0.583 A  
ENDBRANCH  15  16
BRANCH  15  22
HETATM   22  C   UNL     1     -10.716  15.923  69.562  1.00  0.00    -0.288 A  
HETATM   23  C   UNL     1     -12.512  14.671  71.327  1.00  0.00    -0.339 A  
HETATM   24  C   UNL     1     -10.465  15.896  70.946  1.00  0.00     0.389 A  
HETATM   25 CL   UNL     1     -13.523  13.759  72.381  1.00  0.00    -0.620 Cl 
HETATM   26  C   UNL     1     -12.829  14.766  69.976  1.00  0.00    -0.104 A  
HETATM   27  C   UNL     1     -11.956  15.423  69.102  1.00  0.00    -0.324 A  
HETATM   28  C   UNL     1     -11.356  15.269  71.822  1.00  0.00    -0.445 A  
ENDBRANCH  15  22
ENDBRANCH  12  15
ENDBRANCH   8   9
ENDBRANCH   4   8
TORSDOF 5
ENDMDL
MODEL       93
REMARK 921   NORMALIZED FREE ENERGY PREDICTED BY IDOCK:   -4.55 KCAL/MOL
REMARK 922        TOTAL FREE ENERGY PREDICTED BY IDOCK:   -6.58 KCAL/MOL
REMARK 923 INTER-LIGAND FREE ENERGY PREDICTED BY IDOCK:   -5.66 KCAL/MOL
REMARK 924 INTRA-LIGAND FREE ENERGY PREDICTED BY IDOCK:   -0.92 KCAL/MOL
REMARK 927      BINDING AFFINITY PREDICTED BY RF-SCORE:    0.00 PKD
ROOT
HETATM    1  C   UNL     1     -12.222  14.435  64.110  1.00  0.00    -0.393 C  
HETATM    2  C   UNL     1     -11.073  14.758  65.018  1.00  0.00    -0.412 A  
HETATM    3  C   UNL     1     -10.292  13.734  65.576  1.00  0.00    -0.333 A  
HETATM    4  C   UNL     1      -9.329  14.018  66.556  1.00  0.00    -0.274 A  
HETATM    5  C   UNL     1      -9.097  15.362  66.897  1.00  0.00    -0.265 A  
HETATM    6  C   UNL     1      -9.809  16.391  66.283  1.00  0.00    -0.336 A  
HETATM    7  C   UNL     1     -10.806  16.089  65.361  1.00  0.00    -0.340 A  
ENDROOT
BRANCH   4   8
HETATM    8  C   UNL     1      -8.627  12.882  67.295  1.00  0.00    -0.205 C  
BRANCH   8   9
HETATM    9  N   UNL     1      -8.872  11.558  66.702  1.00  0.00    -0.183 NA 
HETATM   10  C   UNL     1      -7.639  10.839  66.303  1.00  0.00    -0.142 C  
HETATM   11  C   UNL     1      -6.999   9.794  67.282  1.00  0.00    -0.084 C  
HETATM   12  N   UNL     1      -7.873   9.125  68.281  1.00  0.00    -0.101 NA 
HETATM   13  C   UNL     1      -8.827  10.156  68.746  1.00  0.00    -0.146 C  
HETATM   14  C   UNL     1      -9.674  10.729  67.605  1.00  0.00    -0.166 C  
BRANCH  12  15
HETATM   15  C   UNL     1      -8.584   7.908  67.761  1.00  0.00    -0.128 C  
BRANCH  15  16
HETATM   16  C   UNL     1      -7.752   7.089  66.770  1.00  0.00    -0.098 A  
HETATM   17  C   UNL     1      -8.154   7.051  65.415  1.00  0.00    -0.133 A  
HETATM   18  C   UNL     1      -6.575   6.448  67.138  1.00  0.00    -0.058 A  
HETATM   19  C   UNL     1      -7.369   6.409  64.455  1.00  0.00    -0.077 A  
HETATM   20  C   UNL     1      -6.185   5.790  64.836  1.00  0.00    -0.032 A  
HETATM   21  C   UNL     1      -5.795   5.798  66.177  1.00  0.00    -0.018 A  
ENDBRANCH  15  16
BRANCH  15  22
HETATM   22  C   UNL     1      -9.190   7.057  68.898  1.00  0.00    -0.136 A  
HETATM   23  C   UNL     1     -10.519   6.085  71.178  1.00  0.00    -0.230 A  
HETATM   24  C   UNL     1     -10.547   6.689  68.840  1.00  0.00    -0.264 A  
HETATM   25 CL   UNL     1     -11.370   5.654  72.612  1.00  0.00    -0.348 Cl 
HETATM   26  C   UNL     1      -9.154   6.353  71.238  1.00  0.00    -0.148 A  
HETATM   27  C   UNL     1      -8.484   6.799  70.095  1.00  0.00    -0.139 A  
HETATM   28  C   UNL     1     -11.207   6.210  69.975  1.00  0.00    -0.471 A  
ENDBRANCH  15  22
ENDBRANCH  12  15
ENDBRANCH   8   9
ENDBRANCH   4   8
TORSDOF 5
ENDMDL
MODEL       94
REMARK 921   NORMALIZED FREE ENERGY PREDICTED BY IDOCK:   -4.52 KCAL/MOL
REMARK 922        TOTAL FREE ENERGY PREDICTED BY IDOCK:   -6.55 KCAL/MOL
REMARK 923 INTER-LIGAND FREE ENERGY PREDICTED BY IDOCK:   -7.12 KCAL/MOL
REMARK 924 INTRA-LIGAND FREE ENERGY PREDICTED BY IDOCK:    0.57 KCAL/MOL
REMARK 927      BINDING AFFINITY PREDICTED BY RF-SCORE:    0.00 PKD
ROOT
HETATM    1  C   UNL     1     -12.167  12.979  63.219  1.00  0.00    -0.464 C  
HETATM    2  C   UNL     1     -11.851  12.361  64.549  1.00  0.00    -0.452 A  
HETATM    3  C   UNL     1     -12.197  13.014  65.743  1.00  0.00    -0.511 A  
HETATM    4  C   UNL     1     -11.754  12.528  66.981  1.00  0.00    -0.437 A  
HETATM    5  C   UNL     1     -11.037  11.320  67.010  1.00  0.00    -0.356 A  
HETATM    6  C   UNL     1     -10.764  10.621  65.836  1.00  0.00    -0.105 A  
HETATM    7  C   UNL     1     -11.154  11.149  64.608  1.00  0.00    -0.154 A  
ENDROOT
BRANCH   4   8
HETATM    8  C   UNL     1     -11.968  13.351  68.249  1.00  0.00    -0.317 C  
BRANCH   8   9
HETATM    9  N   UNL     1     -10.721  13.885  68.819  1.00  0.00    -0.260 NA 
HETATM   10  C   UNL     1      -9.494  13.397  68.146  1.00  0.00    -0.218 C  
HETATM   11  C   UNL     1      -8.831  14.265  67.019  1.00  0.00    -0.226 C  
HETATM   12  N   UNL     1      -9.056  15.734  67.025  1.00  0.00    -0.209 NA 
HETATM   13  C   UNL     1     -10.461  15.931  67.445  1.00  0.00    -0.306 C  
HETATM   14  C   UNL     1     -10.746  15.349  68.833  1.00  0.00    -0.244 C  
BRANCH  12  15
HETATM   15  C   UNL     1      -8.104  16.499  67.900  1.00  0.00    -0.163 C  
BRANCH  15  16
HETATM   16  C   UNL     1      -7.016  15.627  68.532  1.00  0.00    -0.115 A  
HETATM   17  C   UNL     1      -7.010  15.460  69.937  1.00  0.00    -0.095 A  
HETATM   18  C   UNL     1      -6.084  14.932  67.770  1.00  0.00    -0.149 A  
HETATM   19  C   UNL     1      -6.106  14.588  70.547  1.00  0.00    -0.183 A  
HETATM   20  C   UNL     1      -5.193  13.886  69.770  1.00  0.00    -0.092 A  
HETATM   21  C   UNL     1      -5.174  14.067  68.385  1.00  0.00    -0.103 A  
ENDBRANCH  15  16
BRANCH  15  22
HETATM   22  C   UNL     1      -7.547  17.756  67.196  1.00  0.00    -0.223 A  
HETATM   23  C   UNL     1      -6.853  19.802  65.397  1.00  0.00    -0.291 A  
HETATM   24  C   UNL     1      -8.375  18.881  67.030  1.00  0.00    -0.287 A  
HETATM   25 CL   UNL     1      -6.512  20.965  64.173  1.00  0.00    -0.334 Cl 
HETATM   26  C   UNL     1      -5.972  18.746  65.612  1.00  0.00    -0.240 A  
HETATM   27  C   UNL     1      -6.298  17.748  66.535  1.00  0.00    -0.238 A  
HETATM   28  C   UNL     1      -8.031  19.895  66.131  1.00  0.00    -0.345 A  
ENDBRANCH  15  22
ENDBRANCH  12  15
ENDBRANCH   8   9
ENDBRANCH   4   8
TORSDOF 5
ENDMDL
MODEL       95
REMARK 921   NORMALIZED FREE ENERGY PREDICTED BY IDOCK:   -4.46 KCAL/MOL
REMARK 922        TOTAL FREE ENERGY PREDICTED BY IDOCK:   -6.47 KCAL/MOL
REMARK 923 INTER-LIGAND FREE ENERGY PREDICTED BY IDOCK:   -6.43 KCAL/MOL
REMARK 924 INTRA-LIGAND FREE ENERGY PREDICTED BY IDOCK:   -0.05 KCAL/MOL
REMARK 927      BINDING AFFINITY PREDICTED BY RF-SCORE:    0.00 PKD
ROOT
HETATM    1  C   UNL     1      -6.582   6.015  64.638  1.00  0.00    -0.038 C  
HETATM    2  C   UNL     1      -7.668   6.809  65.301  1.00  0.00    -0.106 A  
HETATM    3  C   UNL     1      -7.562   8.203  65.425  1.00  0.00    -0.089 A  
HETATM    4  C   UNL     1      -8.486   8.928  66.192  1.00  0.00    -0.133 A  
HETATM    5  C   UNL     1      -9.576   8.241  66.754  1.00  0.00    -0.288 A  
HETATM    6  C   UNL     1      -9.735   6.870  66.562  1.00  0.00    -0.185 A  
HETATM    7  C   UNL     1      -8.774   6.153  65.854  1.00  0.00    -0.158 A  
ENDROOT
BRANCH   4   8
HETATM    8  C   UNL     1      -8.250  10.408  66.481  1.00  0.00    -0.131 C  
BRANCH   8   9
HETATM    9  N   UNL     1      -9.485  11.150  66.783  1.00  0.00    -0.181 NA 
HETATM   10  C   UNL     1      -9.809  11.216  68.228  1.00  0.00    -0.189 C  
HETATM   11  C   UNL     1      -9.375  12.470  69.065  1.00  0.00     0.448 C  
HETATM   12  N   UNL     1      -9.180  13.764  68.360  1.00  0.00    -0.198 NA 
HETATM   13  C   UNL     1      -8.558  13.432  67.060  1.00  0.00    -0.158 C  
HETATM   14  C   UNL     1      -9.428  12.498  66.213  1.00  0.00    -0.210 C  
BRANCH  12  15
HETATM   15  C   UNL     1     -10.439  14.565  68.183  1.00  0.00    -0.239 C  
BRANCH  15  16
HETATM   16  C   UNL     1     -11.250  14.726  69.471  1.00  0.00    -0.305 A  
HETATM   17  C   UNL     1     -10.849  15.706  70.409  1.00  0.00    -0.358 A  
HETATM   18  C   UNL     1     -12.411  14.000  69.716  1.00  0.00    -0.344 A  
HETATM   19  C   UNL     1     -11.618  15.964  71.545  1.00  0.00    -0.537 A  
HETATM   20  C   UNL     1     -12.785  15.243  71.765  1.00  0.00    -0.444 A  
HETATM   21  C   UNL     1     -13.175  14.254  70.859  1.00  0.00    -0.320 A  
ENDBRANCH  15  16
BRANCH  15  22
HETATM   22  C   UNL     1     -10.182  15.901  67.452  1.00  0.00    -0.270 A  
HETATM   23  C   UNL     1     -10.314  18.479  66.337  1.00  0.00    -0.423 A  
HETATM   24  C   UNL     1      -9.778  17.027  68.191  1.00  0.00    -0.268 A  
HETATM   25 CL   UNL     1     -10.557  20.066  65.714  1.00  0.00    -0.526 Cl 
HETATM   26  C   UNL     1     -10.631  17.373  65.554  1.00  0.00    -0.115 A  
HETATM   27  C   UNL     1     -10.528  16.087  66.095  1.00  0.00    -0.334 A  
HETATM   28  C   UNL     1      -9.849  18.309  67.638  1.00  0.00    -0.328 A  
ENDBRANCH  15  22
ENDBRANCH  12  15
ENDBRANCH   8   9
ENDBRANCH   4   8
TORSDOF 5
ENDMDL
MODEL       96
REMARK 921   NORMALIZED FREE ENERGY PREDICTED BY IDOCK:   -4.41 KCAL/MOL
REMARK 922        TOTAL FREE ENERGY PREDICTED BY IDOCK:   -6.41 KCAL/MOL
REMARK 923 INTER-LIGAND FREE ENERGY PREDICTED BY IDOCK:   -6.98 KCAL/MOL
REMARK 924 INTRA-LIGAND FREE ENERGY PREDICTED BY IDOCK:    0.58 KCAL/MOL
REMARK 927      BINDING AFFINITY PREDICTED BY RF-SCORE:    0.00 PKD
ROOT
HETATM    1  C   UNL     1      -8.422  10.798  62.413  1.00  0.00    -0.308 C  
HETATM    2  C   UNL     1      -8.470   9.533  63.218  1.00  0.00    -0.200 A  
HETATM    3  C   UNL     1      -8.879   9.553  64.560  1.00  0.00    -0.249 A  
HETATM    4  C   UNL     1      -8.762   8.409  65.364  1.00  0.00    -0.175 A  
HETATM    5  C   UNL     1      -8.317   7.215  64.770  1.00  0.00     0.014 A  
HETATM    6  C   UNL     1      -7.991   7.167  63.416  1.00  0.00    -0.066 A  
HETATM    7  C   UNL     1      -8.049   8.326  62.647  1.00  0.00    -0.172 A  
ENDROOT
BRANCH   4   8
HETATM    8  C   UNL     1      -9.023   8.495  66.865  1.00  0.00    -0.143 C  
BRANCH   8   9
HETATM    9  N   UNL     1     -10.272   9.195  67.203  1.00  0.00    -0.240 NA 
HETATM   10  C   UNL     1     -10.638   9.115  68.638  1.00  0.00    -0.174 C  
HETATM   11  C   UNL     1     -10.239  10.283  69.607  1.00  0.00    -0.235 C  
HETATM   12  N   UNL     1     -10.037  11.641  69.040  1.00  0.00    -0.084 NA 
HETATM   13  C   UNL     1      -9.376  11.445  67.731  1.00  0.00    -0.162 C  
HETATM   14  C   UNL     1     -10.213  10.593  66.772  1.00  0.00    -0.233 C  
BRANCH  12  15
HETATM   15  C   UNL     1     -11.299  12.447  68.906  1.00  0.00    -0.294 C  
BRANCH  15  16
HETATM   16  C   UNL     1     -12.108  12.538  70.203  1.00  0.00    -0.368 A  
HETATM   17  C   UNL     1     -12.473  13.815  70.689  1.00  0.00    -0.429 A  
HETATM   18  C   UNL     1     -12.565  11.410  70.875  1.00  0.00    -0.453 A  
HETATM   19  C   UNL     1     -13.302  13.944  71.805  1.00  0.00    -0.461 A  
HETATM   20  C   UNL     1     -13.765  12.807  72.454  1.00  0.00    -0.457 A  
HETATM   21  C   UNL     1     -13.388  11.542  71.998  1.00  0.00    -0.397 A  
ENDBRANCH  15  16
BRANCH  15  22
HETATM   22  C   UNL     1     -11.047  13.820  68.247  1.00  0.00    -0.279 A  
HETATM   23  C   UNL     1     -10.177  15.980  66.670  1.00  0.00    -0.291 A  
HETATM   24  C   UNL     1     -11.697  14.140  67.041  1.00  0.00    -0.430 A  
HETATM   25 CL   UNL     1      -9.536  17.191  65.627  1.00  0.00     0.020 Cl 
HETATM   26  C   UNL     1      -9.577  15.743  67.904  1.00  0.00    -0.214 A  
HETATM   27  C   UNL     1     -10.035  14.693  68.707  1.00  0.00    -0.235 A  
HETATM   28  C   UNL     1     -11.260  15.210  66.255  1.00  0.00    -0.273 A  
ENDBRANCH  15  22
ENDBRANCH  12  15
ENDBRANCH   8   9
ENDBRANCH   4   8
TORSDOF 5
ENDMDL
MODEL       97
REMARK 921   NORMALIZED FREE ENERGY PREDICTED BY IDOCK:   -4.38 KCAL/MOL
REMARK 922        TOTAL FREE ENERGY PREDICTED BY IDOCK:   -6.36 KCAL/MOL
REMARK 923 INTER-LIGAND FREE ENERGY PREDICTED BY IDOCK:   -8.23 KCAL/MOL
REMARK 924 INTRA-LIGAND FREE ENERGY PREDICTED BY IDOCK:    1.86 KCAL/MOL
REMARK 927      BINDING AFFINITY PREDICTED BY RF-SCORE:    0.00 PKD
ROOT
HETATM    1  C   UNL     1     -11.293  16.841  64.935  1.00  0.00     0.151 C  
HETATM    2  C   UNL     1     -10.345  15.795  65.443  1.00  0.00    -0.417 A  
HETATM    3  C   UNL     1     -10.558  14.437  65.161  1.00  0.00    -0.429 A  
HETATM    4  C   UNL     1      -9.777  13.445  65.773  1.00  0.00    -0.147 A  
HETATM    5  C   UNL     1      -8.715  13.845  66.602  1.00  0.00    -0.038 A  
HETATM    6  C   UNL     1      -8.443  15.195  66.818  1.00  0.00    -0.272 A  
HETATM    7  C   UNL     1      -9.267  16.166  66.256  1.00  0.00    -0.366 A  
ENDROOT
BRANCH   4   8
HETATM    8  C   UNL     1     -10.143  11.972  65.612  1.00  0.00    -0.243 C  
BRANCH   8   9
HETATM    9  N   UNL     1     -11.311  11.568  66.411  1.00  0.00    -0.352 NA 
HETATM   10  C   UNL     1     -11.127  10.290  67.141  1.00  0.00    -0.091 C  
HETATM   11  C   UNL     1     -10.664  10.313  68.640  1.00  0.00    -0.224 C  
HETATM   12  N   UNL     1     -10.957  11.519  69.458  1.00  0.00    -0.177 NA 
HETATM   13  C   UNL     1     -10.769  12.679  68.559  1.00  0.00    -0.248 C  
HETATM   14  C   UNL     1     -11.695  12.633  67.339  1.00  0.00    -0.369 C  
BRANCH  12  15
HETATM   15  C   UNL     1     -12.322  11.521  70.086  1.00  0.00    -0.245 C  
BRANCH  15  16
HETATM   16  C   UNL     1     -12.601  10.288  70.950  1.00  0.00    -0.465 A  
HETATM   17  C   UNL     1     -13.895   9.717  70.921  1.00  0.00     0.126 A  
HETATM   18  C   UNL     1     -11.610   9.663  71.698  1.00  0.00    -0.406 A  
HETATM   19  C   UNL     1     -14.167   8.531  71.606  1.00  0.00    -0.496 A  
HETATM   20  C   UNL     1     -13.160   7.909  72.333  1.00  0.00     0.004 A  
HETATM   21  C   UNL     1     -11.887   8.480  72.390  1.00  0.00    -0.437 A  
ENDBRANCH  15  16
BRANCH  15  22
HETATM   22  C   UNL     1     -12.631  12.852  70.804  1.00  0.00    -0.314 A  
HETATM   23  C   UNL     1     -12.661  15.124  72.461  1.00  0.00    -0.356 A  
HETATM   24  C   UNL     1     -11.918  14.012  70.450  1.00  0.00    -0.398 A  
HETATM   25 CL   UNL     1     -12.543  16.447  73.557  1.00  0.00    -0.563 Cl 
HETATM   26  C   UNL     1     -13.449  14.024  72.787  1.00  0.00    -0.576 A  
HETATM   27  C   UNL     1     -13.465  12.908  71.943  1.00  0.00    -0.478 A  
HETATM   28  C   UNL     1     -11.930  15.139  71.277  1.00  0.00    -0.399 A  
ENDBRANCH  15  22
ENDBRANCH  12  15
ENDBRANCH   8   9
ENDBRANCH   4   8
TORSDOF 5
ENDMDL
MODEL       98
REMARK 921   NORMALIZED FREE ENERGY PREDICTED BY IDOCK:   -4.35 KCAL/MOL
REMARK 922        TOTAL FREE ENERGY PREDICTED BY IDOCK:   -6.33 KCAL/MOL
REMARK 923 INTER-LIGAND FREE ENERGY PREDICTED BY IDOCK:   -5.55 KCAL/MOL
REMARK 924 INTRA-LIGAND FREE ENERGY PREDICTED BY IDOCK:   -0.77 KCAL/MOL
REMARK 927      BINDING AFFINITY PREDICTED BY RF-SCORE:    0.00 PKD
ROOT
HETATM    1  C   UNL     1     -11.405  16.787  64.675  1.00  0.00     0.185 C  
HETATM    2  C   UNL     1     -10.323  16.571  65.691  1.00  0.00    -0.342 A  
HETATM    3  C   UNL     1      -9.603  15.367  65.726  1.00  0.00    -0.368 A  
HETATM    4  C   UNL     1      -8.714  15.092  66.775  1.00  0.00    -0.293 A  
HETATM    5  C   UNL     1      -8.487  16.088  67.740  1.00  0.00    -0.168 A  
HETATM    6  C   UNL     1      -9.134  17.320  67.663  1.00  0.00    -0.228 A  
HETATM    7  C   UNL     1     -10.063  17.554  66.653  1.00  0.00    -0.328 A  
ENDROOT
BRANCH   4   8
HETATM    8  C   UNL     1      -8.089  13.706  66.908  1.00  0.00     0.137 C  
BRANCH   8   9
HETATM    9  N   UNL     1      -9.042  12.608  66.682  1.00  0.00    -0.217 NA 
HETATM   10  C   UNL     1      -8.422  11.373  66.147  1.00  0.00    -0.105 C  
HETATM   11  C   UNL     1      -8.010  10.222  67.131  1.00  0.00    -0.114 C  
HETATM   12  N   UNL     1      -8.720  10.109  68.432  1.00  0.00    -0.120 NA 
HETATM   13  C   UNL     1      -8.950  11.496  68.895  1.00  0.00     0.039 C  
HETATM   14  C   UNL     1      -9.788  12.313  67.907  1.00  0.00    -0.201 C  
BRANCH  12  15
HETATM   15  C   UNL     1     -10.002   9.327  68.369  1.00  0.00    -0.176 C  
BRANCH  15  16
HETATM   16  C   UNL     1      -9.802   7.851  68.016  1.00  0.00    -0.195 A  
HETATM   17  C   UNL     1      -8.671   7.176  68.531  1.00  0.00    -0.126 A  
HETATM   18  C   UNL     1     -10.733   7.130  67.276  1.00  0.00    -0.399 A  
HETATM   19  C   UNL     1      -8.504   5.805  68.328  1.00  0.00    -0.113 A  
HETATM   20  C   UNL     1      -9.453   5.095  67.603  1.00  0.00    -0.145 A  
HETATM   21  C   UNL     1     -10.559   5.759  67.066  1.00  0.00    -0.373 A  
ENDBRANCH  15  16
BRANCH  15  22
HETATM   22  C   UNL     1     -10.878   9.543  69.621  1.00  0.00    -0.255 A  
HETATM   23  C   UNL     1     -12.742   9.367  71.720  1.00  0.00    -0.390 A  
HETATM   24  C   UNL     1     -10.558   8.870  70.815  1.00  0.00    -0.281 A  
HETATM   25 CL   UNL     1     -13.941   9.115  72.930  1.00  0.00    -0.252 Cl 
HETATM   26  C   UNL     1     -13.048  10.118  70.589  1.00  0.00    -0.274 A  
HETATM   27  C   UNL     1     -12.107  10.239  69.561  1.00  0.00    -0.025 A  
HETATM   28  C   UNL     1     -11.487   8.779  71.855  1.00  0.00    -0.428 A  
ENDBRANCH  15  22
ENDBRANCH  12  15
ENDBRANCH   8   9
ENDBRANCH   4   8
TORSDOF 5
ENDMDL
MODEL       99
REMARK 921   NORMALIZED FREE ENERGY PREDICTED BY IDOCK:   -4.31 KCAL/MOL
REMARK 922        TOTAL FREE ENERGY PREDICTED BY IDOCK:   -6.28 KCAL/MOL
REMARK 923 INTER-LIGAND FREE ENERGY PREDICTED BY IDOCK:   -6.13 KCAL/MOL
REMARK 924 INTRA-LIGAND FREE ENERGY PREDICTED BY IDOCK:   -0.15 KCAL/MOL
REMARK 927      BINDING AFFINITY PREDICTED BY RF-SCORE:    0.00 PKD
ROOT
HETATM    1  C   UNL     1      -6.553   1.593  65.982  1.00  0.00    -0.024 C  
HETATM    2  C   UNL     1      -7.515   2.621  65.466  1.00  0.00    -0.072 A  
HETATM    3  C   UNL     1      -7.315   3.985  65.729  1.00  0.00    -0.076 A  
HETATM    4  C   UNL     1      -8.296   4.931  65.398  1.00  0.00    -0.125 A  
HETATM    5  C   UNL     1      -9.443   4.497  64.712  1.00  0.00    -0.126 A  
HETATM    6  C   UNL     1      -9.608   3.155  64.370  1.00  0.00    -0.151 A  
HETATM    7  C   UNL     1      -8.657   2.218  64.763  1.00  0.00    -0.099 A  
ENDROOT
BRANCH   4   8
HETATM    8  C   UNL     1      -8.155   6.378  65.864  1.00  0.00    -0.124 C  
BRANCH   8   9
HETATM    9  N   UNL     1      -9.406   6.950  66.388  1.00  0.00    -0.164 NA 
HETATM   10  C   UNL     1      -9.587   6.765  67.848  1.00  0.00    -0.120 C  
HETATM   11  C   UNL     1      -9.167   7.912  68.833  1.00  0.00    -0.144 C  
HETATM   12  N   UNL     1      -9.144   9.310  68.330  1.00  0.00    -0.129 NA 
HETATM   13  C   UNL     1      -8.633   9.238  66.944  1.00  0.00    -0.127 C  
HETATM   14  C   UNL     1      -9.510   8.368  66.039  1.00  0.00    -0.154 C  
BRANCH  12  15
HETATM   15  C   UNL     1     -10.472  10.010  68.394  1.00  0.00    -0.205 C  
BRANCH  15  16
HETATM   16  C   UNL     1     -11.142   9.929  69.768  1.00  0.00    -0.294 A  
HETATM   17  C   UNL     1     -12.272  10.742  70.023  1.00  0.00    -0.409 A  
HETATM   18  C   UNL     1     -10.731   9.030  70.745  1.00  0.00    -0.301 A  
HETATM   19  C   UNL     1     -12.981  10.623  71.220  1.00  0.00    -0.513 A  
HETATM   20  C   UNL     1     -12.568   9.706  72.178  1.00  0.00    -0.388 A  
HETATM   21  C   UNL     1     -11.437   8.919  71.947  1.00  0.00    -0.442 A  
ENDBRANCH  15  16
BRANCH  15  22
HETATM   22  C   UNL     1     -10.401  11.447  67.834  1.00  0.00    -0.204 A  
HETATM   23  C   UNL     1     -10.641  14.205  67.335  1.00  0.00    -0.279 A  
HETATM   24  C   UNL     1      -9.486  12.362  68.387  1.00  0.00    -0.169 A  
HETATM   25 CL   UNL     1     -10.891  15.900  67.168  1.00  0.00    -0.302 Cl 
HETATM   26  C   UNL     1     -11.501  13.313  66.702  1.00  0.00    -0.384 A  
HETATM   27  C   UNL     1     -11.359  11.939  66.918  1.00  0.00    -0.392 A  
HETATM   28  C   UNL     1      -9.609  13.733  68.142  1.00  0.00    -0.216 A  
ENDBRANCH  15  22
ENDBRANCH  12  15
ENDBRANCH   8   9
ENDBRANCH   4   8
TORSDOF 5
ENDMDL
MODEL      100
REMARK 921   NORMALIZED FREE ENERGY PREDICTED BY IDOCK:   -4.28 KCAL/MOL
REMARK 922        TOTAL FREE ENERGY PREDICTED BY IDOCK:   -6.23 KCAL/MOL
REMARK 923 INTER-LIGAND FREE ENERGY PREDICTED BY IDOCK:   -5.61 KCAL/MOL
REMARK 924 INTRA-LIGAND FREE ENERGY PREDICTED BY IDOCK:   -0.62 KCAL/MOL
REMARK 927      BINDING AFFINITY PREDICTED BY RF-SCORE:    0.00 PKD
ROOT
HETATM    1  C   UNL     1      -9.055   8.084  73.155  1.00  0.00    -0.341 C  
HETATM    2  C   UNL     1      -8.108   7.884  72.009  1.00  0.00    -0.141 A  
HETATM    3  C   UNL     1      -7.625   8.981  71.280  1.00  0.00    -0.104 A  
HETATM    4  C   UNL     1      -6.881   8.791  70.106  1.00  0.00    -0.040 A  
HETATM    5  C   UNL     1      -6.548   7.479  69.728  1.00  0.00    -0.039 A  
HETATM    6  C   UNL     1      -6.952   6.388  70.496  1.00  0.00    -0.064 A  
HETATM    7  C   UNL     1      -7.745   6.589  71.622  1.00  0.00    -0.099 A  
ENDROOT
BRANCH   4   8
HETATM    8  C   UNL     1      -6.530   9.982  69.218  1.00  0.00    -0.049 C  
BRANCH   8   9
HETATM    9  N   UNL     1      -7.349  11.175  69.487  1.00  0.00    -0.073 NA 
HETATM   10  C   UNL     1      -6.594  12.449  69.430  1.00  0.00    -0.072 C  
HETATM   11  C   UNL     1      -6.593  13.291  68.106  1.00  0.00    -0.115 C  
HETATM   12  N   UNL     1      -7.736  13.144  67.167  1.00  0.00    -0.083 NA 
HETATM   13  C   UNL     1      -8.099  11.710  67.186  1.00  0.00    -0.166 C  
HETATM   14  C   UNL     1      -8.500  11.225  68.583  1.00  0.00    -0.143 C  
BRANCH  12  15
HETATM   15  C   UNL     1      -8.915  14.018  67.489  1.00  0.00    -0.195 C  
BRANCH  15  16
HETATM   16  C   UNL     1      -8.573  15.509  67.554  1.00  0.00    -0.184 A  
HETATM   17  C   UNL     1      -8.074  16.143  66.392  1.00  0.00    -0.305 A  
HETATM   18  C   UNL     1      -8.809  16.278  68.688  1.00  0.00    -0.226 A  
HETATM   19  C   UNL     1      -7.852  17.522  66.372  1.00  0.00    -0.329 A  
HETATM   20  C   UNL     1      -8.111  18.279  67.507  1.00  0.00    -0.241 A  
HETATM   21  C   UNL     1      -8.577  17.656  68.668  1.00  0.00    -0.264 A  
ENDBRANCH  15  16
BRANCH  15  22
HETATM   22  C   UNL     1     -10.131  13.710  66.589  1.00  0.00    -0.277 A  
HETATM   23  C   UNL     1     -12.050  12.571  64.878  1.00  0.00    -0.440 A  
HETATM   24  C   UNL     1     -11.202  12.957  67.106  1.00  0.00    -0.329 A  
HETATM   25 CL   UNL     1     -13.122  11.735  63.820  1.00  0.00    -0.286 Cl 
HETATM   26  C   UNL     1     -11.056  13.389  64.350  1.00  0.00    -0.408 A  
HETATM   27  C   UNL     1     -10.124  13.988  65.204  1.00  0.00    -0.343 A  
HETATM   28  C   UNL     1     -12.152  12.387  66.254  1.00  0.00    -0.256 A  
ENDBRANCH  15  22
ENDBRANCH  12  15
ENDBRANCH   8   9
ENDBRANCH   4   8
TORSDOF 5
ENDMDL
MODEL      101
REMARK 921   NORMALIZED FREE ENERGY PREDICTED BY IDOCK:   -4.27 KCAL/MOL
REMARK 922        TOTAL FREE ENERGY PREDICTED BY IDOCK:   -6.23 KCAL/MOL
REMARK 923 INTER-LIGAND FREE ENERGY PREDICTED BY IDOCK:   -6.21 KCAL/MOL
REMARK 924 INTRA-LIGAND FREE ENERGY PREDICTED BY IDOCK:   -0.02 KCAL/MOL
REMARK 927      BINDING AFFINITY PREDICTED BY RF-SCORE:    0.00 PKD
ROOT
HETATM    1  C   UNL     1      -9.290   2.896  64.956  1.00  0.00    -0.133 C  
HETATM    2  C   UNL     1      -8.803   2.801  66.371  1.00  0.00    -0.150 A  
HETATM    3  C   UNL     1      -9.485   3.455  67.409  1.00  0.00    -0.220 A  
HETATM    4  C   UNL     1      -8.941   3.513  68.701  1.00  0.00    -0.183 A  
HETATM    5  C   UNL     1      -7.746   2.820  68.957  1.00  0.00    -0.048 A  
HETATM    6  C   UNL     1      -7.108   2.096  67.951  1.00  0.00    -0.047 A  
HETATM    7  C   UNL     1      -7.624   2.102  66.658  1.00  0.00    -0.066 A  
ENDROOT
BRANCH   4   8
HETATM    8  C   UNL     1      -9.591   4.390  69.768  1.00  0.00    -0.205 C  
BRANCH   8   9
HETATM    9  N   UNL     1      -9.048   5.757  69.814  1.00  0.00    -0.135 NA 
HETATM   10  C   UNL     1      -8.951   6.411  68.488  1.00  0.00    -0.125 C  
HETATM   11  C   UNL     1     -10.104   7.359  68.004  1.00  0.00    -0.179 C  
HETATM   12  N   UNL     1     -10.949   8.031  69.026  1.00  0.00     0.018 NA 
HETATM   13  C   UNL     1     -11.145   7.044  70.109  1.00  0.00    -0.285 C  
HETATM   14  C   UNL     1      -9.823   6.589  70.736  1.00  0.00    -0.184 C  
BRANCH  12  15
HETATM   15  C   UNL     1     -10.377   9.319  69.548  1.00  0.00    -0.216 C  
BRANCH  15  16
HETATM   16  C   UNL     1      -9.427  10.010  68.566  1.00  0.00    -0.150 A  
HETATM   17  C   UNL     1      -9.918  10.383  67.293  1.00  0.00    -0.229 A  
HETATM   18  C   UNL     1      -8.124  10.356  68.909  1.00  0.00    -0.129 A  
HETATM   19  C   UNL     1      -9.122  11.112  66.407  1.00  0.00    -0.198 A  
HETATM   20  C   UNL     1      -7.830  11.466  66.772  1.00  0.00    -0.157 A  
HETATM   21  C   UNL     1      -7.327  11.078  68.016  1.00  0.00    -0.088 A  
ENDBRANCH  15  16
BRANCH  15  22
HETATM   22  C   UNL     1     -11.468  10.258  70.104  1.00  0.00    -0.383 A  
HETATM   23  C   UNL     1     -12.980  12.158  71.524  1.00  0.00    -0.295 A  
HETATM   24  C   UNL     1     -11.493  11.606  69.702  1.00  0.00    -0.359 A  
HETATM   25 CL   UNL     1     -13.766  13.344  72.493  1.00  0.00    -0.677 Cl 
HETATM   26  C   UNL     1     -13.046  10.815  71.885  1.00  0.00    -0.557 A  
HETATM   27  C   UNL     1     -12.326   9.864  71.156  1.00  0.00    -0.466 A  
HETATM   28  C   UNL     1     -12.241  12.550  70.412  1.00  0.00    -0.368 A  
ENDBRANCH  15  22
ENDBRANCH  12  15
ENDBRANCH   8   9
ENDBRANCH   4   8
TORSDOF 5
ENDMDL
MODEL      102
REMARK 921   NORMALIZED FREE ENERGY PREDICTED BY IDOCK:   -4.23 KCAL/MOL
REMARK 922        TOTAL FREE ENERGY PREDICTED BY IDOCK:   -6.17 KCAL/MOL
REMARK 923 INTER-LIGAND FREE ENERGY PREDICTED BY IDOCK:   -8.46 KCAL/MOL
REMARK 924 INTRA-LIGAND FREE ENERGY PREDICTED BY IDOCK:    2.29 KCAL/MOL
REMARK 927      BINDING AFFINITY PREDICTED BY RF-SCORE:    0.00 PKD
ROOT
HETATM    1  C   UNL     1      -6.357  10.337  62.501  1.00  0.00    -0.132 C  
HETATM    2  C   UNL     1      -7.614  10.200  63.307  1.00  0.00    -0.143 A  
HETATM    3  C   UNL     1      -8.731  11.005  63.034  1.00  0.00    -0.154 A  
HETATM    4  C   UNL     1      -9.843  11.004  63.889  1.00  0.00    -0.368 A  
HETATM    5  C   UNL     1      -9.855  10.109  64.972  1.00  0.00    -0.392 A  
HETATM    6  C   UNL     1      -8.785   9.244  65.199  1.00  0.00    -0.216 A  
HETATM    7  C   UNL     1      -7.661   9.303  64.381  1.00  0.00    -0.115 A  
ENDROOT
BRANCH   4   8
HETATM    8  C   UNL     1     -10.963  12.022  63.693  1.00  0.00    -0.448 C  
BRANCH   8   9
HETATM    9  N   UNL     1     -10.733  13.290  64.404  1.00  0.00    -0.403 NA 
HETATM   10  C   UNL     1     -11.937  14.150  64.506  1.00  0.00    -0.458 C  
HETATM   11  C   UNL     1     -12.822  14.095  65.800  1.00  0.00    -0.329 C  
HETATM   12  N   UNL     1     -12.192  13.666  67.076  1.00  0.00    -0.370 NA 
HETATM   13  C   UNL     1     -11.248  12.583  66.723  1.00  0.00    -0.296 C  
HETATM   14  C   UNL     1     -10.172  13.042  65.733  1.00  0.00    -0.290 C  
BRANCH  12  15
HETATM   15  C   UNL     1     -11.509  14.773  67.829  1.00  0.00    -0.345 C  
BRANCH  15  16
HETATM   16  C   UNL     1     -11.729  14.711  69.343  1.00  0.00    -0.355 A  
HETATM   17  C   UNL     1     -11.419  15.850  70.121  1.00  0.00    -0.366 A  
HETATM   18  C   UNL     1     -12.294  13.606  69.968  1.00  0.00    -0.342 A  
HETATM   19  C   UNL     1     -11.704  15.880  71.488  1.00  0.00    -0.545 A  
HETATM   20  C   UNL     1     -12.287  14.774  72.094  1.00  0.00    -0.408 A  
HETATM   21  C   UNL     1     -12.570  13.634  71.339  1.00  0.00    -0.415 A  
ENDBRANCH  15  16
BRANCH  15  22
HETATM   22  C   UNL     1     -10.024  14.916  67.433  1.00  0.00    -0.223 A  
HETATM   23  C   UNL     1      -7.304  15.597  67.213  1.00  0.00    -0.220 A  
HETATM   24  C   UNL     1      -9.044  14.209  68.153  1.00  0.00    -0.193 A  
HETATM   25 CL   UNL     1      -5.665  16.125  67.209  1.00  0.00    -0.148 Cl 
HETATM   26  C   UNL     1      -8.243  16.249  66.420  1.00  0.00    -0.354 A  
HETATM   27  C   UNL     1      -9.591  15.885  66.499  1.00  0.00    -0.291 A  
HETATM   28  C   UNL     1      -7.692  14.552  68.047  1.00  0.00    -0.138 A  
ENDBRANCH  15  22
ENDBRANCH  12  15
ENDBRANCH   8   9
ENDBRANCH   4   8
TORSDOF 5
ENDMDL
MODEL      103
REMARK 921   NORMALIZED FREE ENERGY PREDICTED BY IDOCK:   -4.17 KCAL/MOL
REMARK 922        TOTAL FREE ENERGY PREDICTED BY IDOCK:   -6.10 KCAL/MOL
REMARK 923 INTER-LIGAND FREE ENERGY PREDICTED BY IDOCK:   -5.33 KCAL/MOL
REMARK 924 INTRA-LIGAND FREE ENERGY PREDICTED BY IDOCK:   -0.76 KCAL/MOL
REMARK 927      BINDING AFFINITY PREDICTED BY RF-SCORE:    0.00 PKD
ROOT
HETATM    1  C   UNL     1     -12.218  13.142  63.097  1.00  0.00    -0.275 C  
HETATM    2  C   UNL     1     -11.589  13.228  64.456  1.00  0.00    -0.407 A  
HETATM    3  C   UNL     1     -10.511  12.398  64.801  1.00  0.00    -0.333 A  
HETATM    4  C   UNL     1     -10.033  12.352  66.118  1.00  0.00    -0.267 A  
HETATM    5  C   UNL     1     -10.593  13.225  67.066  1.00  0.00    -0.259 A  
HETATM    6  C   UNL     1     -11.606  14.114  66.710  1.00  0.00    -0.409 A  
HETATM    7  C   UNL     1     -12.115  14.103  65.415  1.00  0.00    -0.415 A  
ENDROOT
BRANCH   4   8
HETATM    8  C   UNL     1      -8.996  11.307  66.522  1.00  0.00    -0.184 C  
BRANCH   8   9
HETATM    9  N   UNL     1      -9.568   9.969  66.742  1.00  0.00    -0.174 NA 
HETATM   10  C   UNL     1      -8.873   8.888  66.003  1.00  0.00    -0.172 C  
HETATM   11  C   UNL     1      -7.760   8.047  66.723  1.00  0.00    -0.098 C  
HETATM   12  N   UNL     1      -7.802   7.930  68.204  1.00  0.00    -0.124 NA 
HETATM   13  C   UNL     1      -8.239   9.251  68.707  1.00  0.00    -0.112 C  
HETATM   14  C   UNL     1      -9.615   9.657  68.172  1.00  0.00    -0.143 C  
BRANCH  12  15
HETATM   15  C   UNL     1      -8.686   6.825  68.709  1.00  0.00    -0.125 C  
BRANCH  15  16
HETATM   16  C   UNL     1      -9.017   5.771  67.650  1.00  0.00    -0.107 A  
HETATM   17  C   UNL     1     -10.320   5.747  67.098  1.00  0.00    -0.293 A  
HETATM   18  C   UNL     1      -8.064   4.890  67.153  1.00  0.00    -0.107 A  
HETATM   19  C   UNL     1     -10.636   4.878  66.053  1.00  0.00    -0.312 A  
HETATM   20  C   UNL     1      -9.666   4.016  65.555  1.00  0.00    -0.194 A  
HETATM   21  C   UNL     1      -8.386   4.013  66.113  1.00  0.00    -0.108 A  
ENDBRANCH  15  16
BRANCH  15  22
HETATM   22  C   UNL     1      -8.165   6.219  70.030  1.00  0.00    -0.125 A  
HETATM   23  C   UNL     1      -7.460   5.664  72.696  1.00  0.00    -0.097 A  
HETATM   24  C   UNL     1      -9.060   5.556  70.889  1.00  0.00    -0.164 A  
HETATM   25 CL   UNL     1      -7.092   5.480  74.368  1.00  0.00    -0.084 Cl 
HETATM   26  C   UNL     1      -6.522   6.236  71.840  1.00  0.00    -0.050 A  
HETATM   27  C   UNL     1      -6.858   6.477  70.504  1.00  0.00    -0.062 A  
HETATM   28  C   UNL     1      -8.710   5.285  72.216  1.00  0.00    -0.129 A  
ENDBRANCH  15  22
ENDBRANCH  12  15
ENDBRANCH   8   9
ENDBRANCH   4   8
TORSDOF 5
ENDMDL
MODEL      104
REMARK 921   NORMALIZED FREE ENERGY PREDICTED BY IDOCK:   -4.12 KCAL/MOL
REMARK 922        TOTAL FREE ENERGY PREDICTED BY IDOCK:   -6.03 KCAL/MOL
REMARK 923 INTER-LIGAND FREE ENERGY PREDICTED BY IDOCK:   -8.24 KCAL/MOL
REMARK 924 INTRA-LIGAND FREE ENERGY PREDICTED BY IDOCK:    2.21 KCAL/MOL
REMARK 927      BINDING AFFINITY PREDICTED BY RF-SCORE:    0.00 PKD
ROOT
HETATM    1  C   UNL     1     -12.880  14.108  65.591  1.00  0.00    -0.402 C  
HETATM    2  C   UNL     1     -11.984  12.942  65.295  1.00  0.00    -0.459 A  
HETATM    3  C   UNL     1     -11.084  12.467  66.262  1.00  0.00    -0.336 A  
HETATM    4  C   UNL     1     -10.127  11.495  65.936  1.00  0.00    -0.271 A  
HETATM    5  C   UNL     1     -10.150  10.937  64.646  1.00  0.00    -0.391 A  
HETATM    6  C   UNL     1     -11.098  11.342  63.707  1.00  0.00    -0.417 A  
HETATM    7  C   UNL     1     -11.999  12.355  64.024  1.00  0.00    -0.546 A  
ENDROOT
BRANCH   4   8
HETATM    8  C   UNL     1      -9.031  11.131  66.934  1.00  0.00    -0.161 C  
BRANCH   8   9
HETATM    9  N   UNL     1      -9.179   9.781  67.501  1.00  0.00    -0.130 NA 
HETATM   10  C   UNL     1      -8.078   9.386  68.410  1.00  0.00    -0.109 C  
HETATM   11  C   UNL     1      -8.245   9.574  69.959  1.00  0.00    -0.170 C  
HETATM   12  N   UNL     1      -9.617   9.589  70.531  1.00  0.00    -0.262 NA 
HETATM   13  C   UNL     1     -10.460  10.314  69.555  1.00  0.00    -0.244 C  
HETATM   14  C   UNL     1     -10.471   9.645  68.177  1.00  0.00    -0.222 C  
BRANCH  12  15
HETATM   15  C   UNL     1     -10.171   8.226  70.836  1.00  0.00    -0.191 C  
BRANCH  15  16
HETATM   16  C   UNL     1     -11.651   8.240  71.227  1.00  0.00    -0.318 A  
HETATM   17  C   UNL     1     -12.258   9.477  71.548  1.00  0.00    -0.468 A  
HETATM   18  C   UNL     1     -12.439   7.095  71.201  1.00  0.00    -0.400 A  
HETATM   19  C   UNL     1     -13.628   9.555  71.804  1.00  0.00    -0.447 A  
HETATM   20  C   UNL     1     -14.405   8.404  71.755  1.00  0.00    -0.558 A  
HETATM   21  C   UNL     1     -13.810   7.174  71.466  1.00  0.00    -0.421 A  
ENDBRANCH  15  16
BRANCH  15  22
HETATM   22  C   UNL     1      -9.843   7.201  69.729  1.00  0.00    -0.173 A  
HETATM   23  C   UNL     1      -9.592   4.930  68.089  1.00  0.00    -0.143 A  
HETATM   24  C   UNL     1     -10.804   6.914  68.743  1.00  0.00    -0.238 A  
HETATM   25 CL   UNL     1      -9.525   3.453  67.207  1.00  0.00    -0.239 Cl 
HETATM   26  C   UNL     1      -8.580   5.243  68.992  1.00  0.00    -0.095 A  
HETATM   27  C   UNL     1      -8.684   6.394  69.780  1.00  0.00    -0.138 A  
HETATM   28  C   UNL     1     -10.681   5.782  67.932  1.00  0.00    -0.295 A  
ENDBRANCH  15  22
ENDBRANCH  12  15
ENDBRANCH   8   9
ENDBRANCH   4   8
TORSDOF 5
ENDMDL
MODEL      105
REMARK 921   NORMALIZED FREE ENERGY PREDICTED BY IDOCK:   -4.07 KCAL/MOL
REMARK 922        TOTAL FREE ENERGY PREDICTED BY IDOCK:   -5.96 KCAL/MOL
REMARK 923 INTER-LIGAND FREE ENERGY PREDICTED BY IDOCK:   -5.74 KCAL/MOL
REMARK 924 INTRA-LIGAND FREE ENERGY PREDICTED BY IDOCK:   -0.23 KCAL/MOL
REMARK 927      BINDING AFFINITY PREDICTED BY RF-SCORE:    0.00 PKD
ROOT
HETATM    1  C   UNL     1      -6.391   7.879  62.422  1.00  0.00    -0.081 C  
HETATM    2  C   UNL     1      -7.187   6.967  63.307  1.00  0.00    -0.069 A  
HETATM    3  C   UNL     1      -7.071   7.042  64.703  1.00  0.00    -0.061 A  
HETATM    4  C   UNL     1      -7.678   6.082  65.527  1.00  0.00    -0.093 A  
HETATM    5  C   UNL     1      -8.485   5.099  64.929  1.00  0.00    -0.149 A  
HETATM    6  C   UNL     1      -8.675   5.071  63.548  1.00  0.00    -0.079 A  
HETATM    7  C   UNL     1      -8.014   5.990  62.739  1.00  0.00    -0.104 A  
ENDROOT
BRANCH   4   8
HETATM    8  C   UNL     1      -7.383   6.059  67.024  1.00  0.00    -0.076 C  
BRANCH   8   9
HETATM    9  N   UNL     1      -8.519   5.600  67.839  1.00  0.00    -0.103 NA 
HETATM   10  C   UNL     1      -8.127   5.022  69.146  1.00  0.00    -0.083 C  
HETATM   11  C   UNL     1      -8.143   5.925  70.430  1.00  0.00    -0.107 C  
HETATM   12  N   UNL     1      -9.046   7.106  70.459  1.00  0.00    -0.155 NA 
HETATM   13  C   UNL     1      -9.016   7.678  69.095  1.00  0.00    -0.135 C  
HETATM   14  C   UNL     1      -9.487   6.682  68.030  1.00  0.00    -0.118 C  
BRANCH  12  15
HETATM   15  C   UNL     1     -10.449   6.798  70.900  1.00  0.00    -0.213 C  
BRANCH  15  16
HETATM   16  C   UNL     1     -10.521   6.023  72.218  1.00  0.00    -0.241 A  
HETATM   17  C   UNL     1     -11.146   4.754  72.227  1.00  0.00     0.011 A  
HETATM   18  C   UNL     1      -9.926   6.485  73.386  1.00  0.00    -0.214 A  
HETATM   19  C   UNL     1     -11.140   3.964  73.378  1.00  0.00    -0.329 A  
HETATM   20  C   UNL     1     -10.524   4.432  74.532  1.00  0.00    -0.295 A  
HETATM   21  C   UNL     1      -9.929   5.695  74.541  1.00  0.00    -0.279 A  
ENDBRANCH  15  16
BRANCH  15  22
HETATM   22  C   UNL     1     -11.355   8.048  70.876  1.00  0.00    -0.291 A  
HETATM   23  C   UNL     1     -12.683  10.475  71.382  1.00  0.00    -0.442 A  
HETATM   24  C   UNL     1     -10.844   9.264  70.387  1.00  0.00    -0.302 A  
HETATM   25 CL   UNL     1     -13.403  11.971  71.837  1.00  0.00    -0.508 Cl 
HETATM   26  C   UNL     1     -13.257   9.276  71.795  1.00  0.00    -0.472 A  
HETATM   27  C   UNL     1     -12.618   8.065  71.510  1.00  0.00    -0.332 A  
HETATM   28  C   UNL     1     -11.503  10.470  70.644  1.00  0.00    -0.418 A  
ENDBRANCH  15  22
ENDBRANCH  12  15
ENDBRANCH   8   9
ENDBRANCH   4   8
TORSDOF 5
ENDMDL
MODEL      106
REMARK 921   NORMALIZED FREE ENERGY PREDICTED BY IDOCK:   -4.07 KCAL/MOL
REMARK 922        TOTAL FREE ENERGY PREDICTED BY IDOCK:   -5.96 KCAL/MOL
REMARK 923 INTER-LIGAND FREE ENERGY PREDICTED BY IDOCK:   -5.28 KCAL/MOL
REMARK 924 INTRA-LIGAND FREE ENERGY PREDICTED BY IDOCK:   -0.68 KCAL/MOL
REMARK 927      BINDING AFFINITY PREDICTED BY RF-SCORE:    0.00 PKD
ROOT
HETATM    1  C   UNL     1      -9.547   3.525  68.437  1.00  0.00    -0.154 C  
HETATM    2  C   UNL     1      -9.145   4.602  67.474  1.00  0.00    -0.134 A  
HETATM    3  C   UNL     1      -9.721   5.880  67.547  1.00  0.00    -0.123 A  
HETATM    4  C   UNL     1      -9.479   6.835  66.548  1.00  0.00    -0.193 A  
HETATM    5  C   UNL     1      -8.572   6.518  65.523  1.00  0.00    -0.109 A  
HETATM    6  C   UNL     1      -7.930   5.281  65.492  1.00  0.00    -0.107 A  
HETATM    7  C   UNL     1      -8.230   4.320  66.453  1.00  0.00    -0.102 A  
ENDROOT
BRANCH   4   8
HETATM    8  C   UNL     1     -10.262   8.145  66.534  1.00  0.00    -0.177 C  
BRANCH   8   9
HETATM    9  N   UNL     1      -9.722   9.161  67.451  1.00  0.00    -0.154 NA 
HETATM   10  C   UNL     1      -8.373   9.651  67.079  1.00  0.00    -0.117 C  
HETATM   11  C   UNL     1      -8.232  10.971  66.241  1.00  0.00    -0.164 C  
HETATM   12  N   UNL     1      -9.319  11.981  66.315  1.00  0.00    -0.227 NA 
HETATM   13  C   UNL     1     -10.585  11.218  66.372  1.00  0.00    -0.266 C  
HETATM   14  C   UNL     1     -10.653  10.283  67.584  1.00  0.00    -0.263 C  
BRANCH  12  15
HETATM   15  C   UNL     1      -9.195  12.936  67.469  1.00  0.00    -0.192 C  
BRANCH  15  16
HETATM   16  C   UNL     1      -7.773  13.046  68.024  1.00  0.00    -0.145 A  
HETATM   17  C   UNL     1      -6.897  14.004  67.462  1.00  0.00    -0.150 A  
HETATM   18  C   UNL     1      -7.337  12.296  69.110  1.00  0.00     0.091 A  
HETATM   19  C   UNL     1      -5.628  14.217  68.006  1.00  0.00    -0.124 A  
HETATM   20  C   UNL     1      -5.215  13.472  69.103  1.00  0.00    -0.073 A  
HETATM   21  C   UNL     1      -6.063  12.504  69.647  1.00  0.00    -0.133 A  
ENDBRANCH  15  16
BRANCH  15  22
HETATM   22  C   UNL     1      -9.840  14.306  67.165  1.00  0.00    -0.252 A  
HETATM   23  C   UNL     1     -10.410  17.024  66.728  1.00  0.00    -0.302 A  
HETATM   24  C   UNL     1      -9.672  14.882  65.892  1.00  0.00    -0.366 A  
HETATM   25 CL   UNL     1     -10.596  18.722  66.507  1.00  0.00    -0.457 Cl 
HETATM   26  C   UNL     1     -10.674  16.456  67.971  1.00  0.00    -0.334 A  
HETATM   27  C   UNL     1     -10.427  15.095  68.178  1.00  0.00    -0.245 A  
HETATM   28  C   UNL     1      -9.951  16.235  65.678  1.00  0.00    -0.306 A  
ENDBRANCH  15  22
ENDBRANCH  12  15
ENDBRANCH   8   9
ENDBRANCH   4   8
TORSDOF 5
ENDMDL
MODEL      107
REMARK 921   NORMALIZED FREE ENERGY PREDICTED BY IDOCK:   -4.02 KCAL/MOL
REMARK 922        TOTAL FREE ENERGY PREDICTED BY IDOCK:   -5.90 KCAL/MOL
REMARK 923 INTER-LIGAND FREE ENERGY PREDICTED BY IDOCK:   -6.24 KCAL/MOL
REMARK 924 INTRA-LIGAND FREE ENERGY PREDICTED BY IDOCK:    0.34 KCAL/MOL
REMARK 927      BINDING AFFINITY PREDICTED BY RF-SCORE:    0.00 PKD
ROOT
HETATM    1  C   UNL     1     -11.459  15.263  69.905  1.00  0.00    -0.325 C  
HETATM    2  C   UNL     1     -11.056  15.563  68.491  1.00  0.00    -0.307 A  
HETATM    3  C   UNL     1     -11.771  15.021  67.412  1.00  0.00    -0.255 A  
HETATM    4  C   UNL     1     -11.299  15.156  66.098  1.00  0.00    -0.220 A  
HETATM    5  C   UNL     1     -10.146  15.928  65.876  1.00  0.00    -0.376 A  
HETATM    6  C   UNL     1      -9.479  16.541  66.935  1.00  0.00    -0.250 A  
HETATM    7  C   UNL     1      -9.922  16.344  68.240  1.00  0.00    -0.243 A  
ENDROOT
BRANCH   4   8
HETATM    8  C   UNL     1     -11.976  14.399  64.958  1.00  0.00    -0.412 C  
BRANCH   8   9
HETATM    9  N   UNL     1     -11.318  13.124  64.630  1.00  0.00    -0.319 NA 
HETATM   10  C   UNL     1      -9.865  13.103  64.924  1.00  0.00    -0.019 C  
HETATM   11  C   UNL     1      -9.357  12.507  66.283  1.00  0.00    -0.177 C  
HETATM   12  N   UNL     1     -10.198  11.497  66.977  1.00  0.00    -0.209 NA 
HETATM   13  C   UNL     1     -11.600  11.927  66.782  1.00  0.00    -0.268 C  
HETATM   14  C   UNL     1     -11.989  12.010  65.303  1.00  0.00    -0.139 C  
BRANCH  12  15
HETATM   15  C   UNL     1      -9.982  10.086  66.505  1.00  0.00    -0.225 C  
BRANCH  15  16
HETATM   16  C   UNL     1      -8.842   9.946  65.493  1.00  0.00    -0.186 A  
HETATM   17  C   UNL     1      -7.538   9.679  65.971  1.00  0.00    -0.102 A  
HETATM   18  C   UNL     1      -9.056   9.992  64.120  1.00  0.00    -0.295 A  
HETATM   19  C   UNL     1      -6.489   9.435  65.083  1.00  0.00    -0.075 A  
HETATM   20  C   UNL     1      -6.723   9.466  63.714  1.00  0.00    -0.096 A  
HETATM   21  C   UNL     1      -8.002   9.757  63.232  1.00  0.00    -0.145 A  
ENDBRANCH  15  16
BRANCH  15  22
HETATM   22  C   UNL     1      -9.882   9.088  67.679  1.00  0.00    -0.220 A  
HETATM   23  C   UNL     1     -10.339   7.391  69.875  1.00  0.00    -0.218 A  
HETATM   24  C   UNL     1     -10.276   7.751  67.487  1.00  0.00    -0.301 A  
HETATM   25 CL   UNL     1     -10.783   6.409  71.218  1.00  0.00    -0.276 Cl 
HETATM   26  C   UNL     1      -9.860   8.680  70.089  1.00  0.00    -0.191 A  
HETATM   27  C   UNL     1      -9.594   9.512  68.996  1.00  0.00    -0.166 A  
HETATM   28  C   UNL     1     -10.508   6.910  68.579  1.00  0.00    -0.229 A  
ENDBRANCH  15  22
ENDBRANCH  12  15
ENDBRANCH   8   9
ENDBRANCH   4   8
TORSDOF 5
ENDMDL
MODEL      108
REMARK 921   NORMALIZED FREE ENERGY PREDICTED BY IDOCK:   -3.99 KCAL/MOL
REMARK 922        TOTAL FREE ENERGY PREDICTED BY IDOCK:   -5.86 KCAL/MOL
REMARK 923 INTER-LIGAND FREE ENERGY PREDICTED BY IDOCK:   -5.72 KCAL/MOL
REMARK 924 INTRA-LIGAND FREE ENERGY PREDICTED BY IDOCK:   -0.14 KCAL/MOL
REMARK 927      BINDING AFFINITY PREDICTED BY RF-SCORE:    0.00 PKD
ROOT
HETATM    1  C   UNL     1     -12.638  11.907  63.574  1.00  0.00    -0.579 C  
HETATM    2  C   UNL     1     -12.212  12.579  64.845  1.00  0.00    -0.534 A  
HETATM    3  C   UNL     1     -11.104  12.110  65.567  1.00  0.00    -0.361 A  
HETATM    4  C   UNL     1     -10.805  12.623  66.838  1.00  0.00    -0.282 A  
HETATM    5  C   UNL     1     -11.583  13.683  67.332  1.00  0.00    -0.389 A  
HETATM    6  C   UNL     1     -12.633  14.213  66.583  1.00  0.00    -0.087 A  
HETATM    7  C   UNL     1     -12.958  13.650  65.352  1.00  0.00    -0.331 A  
ENDROOT
BRANCH   4   8
HETATM    8  C   UNL     1      -9.721  11.972  67.693  1.00  0.00    -0.187 C  
BRANCH   8   9
HETATM    9  N   UNL     1     -10.226  10.896  68.560  1.00  0.00    -0.177 NA 
HETATM   10  C   UNL     1     -10.796   9.744  67.822  1.00  0.00    -0.246 C  
HETATM   11  C   UNL     1      -9.900   8.488  67.533  1.00  0.00    -0.177 C  
HETATM   12  N   UNL     1      -8.754   8.208  68.436  1.00  0.00    -0.134 NA 
HETATM   13  C   UNL     1      -8.174   9.524  68.784  1.00  0.00    -0.112 C  
HETATM   14  C   UNL     1      -9.182  10.443  69.481  1.00  0.00    -0.120 C  
BRANCH  12  15
HETATM   15  C   UNL     1      -9.116   7.421  69.665  1.00  0.00    -0.140 C  
BRANCH  15  16
HETATM   16  C   UNL     1      -9.323   5.928  69.397  1.00  0.00    -0.150 A  
HETATM   17  C   UNL     1      -9.054   5.426  68.102  1.00  0.00    -0.115 A  
HETATM   18  C   UNL     1      -9.687   5.036  70.399  1.00  0.00    -0.280 A  
HETATM   19  C   UNL     1      -9.123   4.056  67.840  1.00  0.00    -0.176 A  
HETATM   20  C   UNL     1      -9.470   3.176  68.857  1.00  0.00    -0.183 A  
HETATM   21  C   UNL     1      -9.765   3.665  70.132  1.00  0.00    -0.188 A  
ENDBRANCH  15  16
BRANCH  15  22
HETATM   22  C   UNL     1      -8.157   7.703  70.841  1.00  0.00    -0.103 A  
HETATM   23  C   UNL     1      -6.536   7.594  73.137  1.00  0.00    -0.069 A  
HETATM   24  C   UNL     1      -6.817   7.283  70.758  1.00  0.00    -0.052 A  
HETATM   25 CL   UNL     1      -5.602   7.365  74.565  1.00  0.00    -0.069 Cl 
HETATM   26  C   UNL     1      -7.828   8.102  73.230  1.00  0.00    -0.220 A  
HETATM   27  C   UNL     1      -8.622   8.193  72.082  1.00  0.00    -0.226 A  
HETATM   28  C   UNL     1      -6.013   7.224  71.901  1.00  0.00    -0.037 A  
ENDBRANCH  15  22
ENDBRANCH  12  15
ENDBRANCH   8   9
ENDBRANCH   4   8
TORSDOF 5
ENDMDL
MODEL      109
REMARK 921   NORMALIZED FREE ENERGY PREDICTED BY IDOCK:   -3.99 KCAL/MOL
REMARK 922        TOTAL FREE ENERGY PREDICTED BY IDOCK:   -5.86 KCAL/MOL
REMARK 923 INTER-LIGAND FREE ENERGY PREDICTED BY IDOCK:   -5.62 KCAL/MOL
REMARK 924 INTRA-LIGAND FREE ENERGY PREDICTED BY IDOCK:   -0.25 KCAL/MOL
REMARK 927      BINDING AFFINITY PREDICTED BY RF-SCORE:    0.00 PKD
ROOT
HETATM    1  C   UNL     1      -7.731   9.221  63.347  1.00  0.00    -0.121 C  
HETATM    2  C   UNL     1      -8.725  10.143  63.987  1.00  0.00    -0.224 A  
HETATM    3  C   UNL     1      -9.220   9.882  65.274  1.00  0.00    -0.280 A  
HETATM    4  C   UNL     1     -10.273  10.641  65.806  1.00  0.00    -0.317 A  
HETATM    5  C   UNL     1     -10.757  11.731  65.063  1.00  0.00    -0.344 A  
HETATM    6  C   UNL     1     -10.210  12.049  63.821  1.00  0.00    -0.447 A  
HETATM    7  C   UNL     1      -9.211  11.247  63.276  1.00  0.00    -0.235 A  
ENDROOT
BRANCH   4   8
HETATM    8  C   UNL     1     -10.932  10.224  67.118  1.00  0.00    -0.165 C  
BRANCH   8   9
HETATM    9  N   UNL     1      -9.977   9.739  68.127  1.00  0.00    -0.149 NA 
HETATM   10  C   UNL     1     -10.530   9.678  69.500  1.00  0.00    -0.224 C  
HETATM   11  C   UNL     1     -11.112   8.326  70.044  1.00  0.00    -0.147 C  
HETATM   12  N   UNL     1     -10.614   7.052  69.462  1.00  0.00    -0.227 NA 
HETATM   13  C   UNL     1     -10.432   7.305  68.016  1.00  0.00    -0.197 C  
HETATM   14  C   UNL     1      -9.435   8.435  67.739  1.00  0.00    -0.149 C  
BRANCH  12  15
HETATM   15  C   UNL     1      -9.353   6.536  70.097  1.00  0.00    -0.158 C  
BRANCH  15  16
HETATM   16  C   UNL     1      -9.432   6.435  71.622  1.00  0.00    -0.160 A  
HETATM   17  C   UNL     1      -8.728   7.380  72.404  1.00  0.00    -0.145 A  
HETATM   18  C   UNL     1     -10.233   5.497  72.266  1.00  0.00    -0.244 A  
HETATM   19  C   UNL     1      -8.857   7.395  73.794  1.00  0.00    -0.260 A  
HETATM   20  C   UNL     1      -9.676   6.464  74.420  1.00  0.00    -0.310 A  
HETATM   21  C   UNL     1     -10.353   5.508  73.659  1.00  0.00    -0.261 A  
ENDBRANCH  15  16
BRANCH  15  22
HETATM   22  C   UNL     1      -8.850   5.240  69.424  1.00  0.00    -0.116 A  
HETATM   23  C   UNL     1      -8.071   3.204  67.648  1.00  0.00    -0.080 A  
HETATM   24  C   UNL     1      -7.537   5.186  68.922  1.00  0.00    -0.081 A  
HETATM   25 CL   UNL     1      -7.648   2.061  66.432  1.00  0.00    -0.065 Cl 
HETATM   26  C   UNL     1      -9.347   3.182  68.203  1.00  0.00    -0.247 A  
HETATM   27  C   UNL     1      -9.723   4.172  69.117  1.00  0.00    -0.205 A  
HETATM   28  C   UNL     1      -7.153   4.176  68.035  1.00  0.00    -0.059 A  
ENDBRANCH  15  22
ENDBRANCH  12  15
ENDBRANCH   8   9
ENDBRANCH   4   8
TORSDOF 5
ENDMDL
MODEL      110
REMARK 921   NORMALIZED FREE ENERGY PREDICTED BY IDOCK:   -3.98 KCAL/MOL
REMARK 922        TOTAL FREE ENERGY PREDICTED BY IDOCK:   -5.84 KCAL/MOL
REMARK 923 INTER-LIGAND FREE ENERGY PREDICTED BY IDOCK:   -6.96 KCAL/MOL
REMARK 924 INTRA-LIGAND FREE ENERGY PREDICTED BY IDOCK:    1.11 KCAL/MOL
REMARK 927      BINDING AFFINITY PREDICTED BY RF-SCORE:    0.00 PKD
ROOT
HETATM    1  C   UNL     1      -5.140   9.693  67.295  1.00  0.00    -0.035 C  
HETATM    2  C   UNL     1      -6.503   9.402  66.741  1.00  0.00    -0.067 A  
HETATM    3  C   UNL     1      -7.116   8.160  66.962  1.00  0.00    -0.079 A  
HETATM    4  C   UNL     1      -8.309   7.820  66.306  1.00  0.00    -0.131 A  
HETATM    5  C   UNL     1      -8.927   8.788  65.496  1.00  0.00    -0.231 A  
HETATM    6  C   UNL     1      -8.368  10.055  65.340  1.00  0.00    -0.154 A  
HETATM    7  C   UNL     1      -7.150  10.355  65.945  1.00  0.00    -0.135 A  
ENDROOT
BRANCH   4   8
HETATM    8  C   UNL     1      -8.860   6.400  66.401  1.00  0.00    -0.141 C  
BRANCH   8   9
HETATM    9  N   UNL     1      -9.660   6.162  67.612  1.00  0.00    -0.111 NA 
HETATM   10  C   UNL     1      -8.881   6.227  68.871  1.00  0.00    -0.124 C  
HETATM   11  C   UNL     1      -8.845   7.563  69.693  1.00  0.00    -0.141 C  
HETATM   12  N   UNL     1      -9.976   8.517  69.552  1.00  0.00    -0.189 NA 
HETATM   13  C   UNL     1     -10.366   8.481  68.126  1.00  0.00    -0.206 C  
HETATM   14  C   UNL     1     -10.796   7.084  67.669  1.00  0.00    -0.242 C  
BRANCH  12  15
HETATM   15  C   UNL     1     -11.143   8.226  70.453  1.00  0.00    -0.235 C  
BRANCH  15  16
HETATM   16  C   UNL     1     -10.763   7.459  71.722  1.00  0.00    -0.242 A  
HETATM   17  C   UNL     1      -9.929   8.092  72.674  1.00  0.00    -0.358 A  
HETATM   18  C   UNL     1     -11.270   6.198  72.010  1.00  0.00    -0.335 A  
HETATM   19  C   UNL     1      -9.644   7.476  73.894  1.00  0.00    -0.261 A  
HETATM   20  C   UNL     1     -10.175   6.223  74.174  1.00  0.00    -0.338 A  
HETATM   21  C   UNL     1     -10.976   5.579  73.229  1.00  0.00    -0.339 A  
ENDBRANCH  15  16
BRANCH  15  22
HETATM   22  C   UNL     1     -11.992   9.485  70.732  1.00  0.00    -0.326 A  
HETATM   23  C   UNL     1     -13.071  11.903  71.681  1.00  0.00    -0.328 A  
HETATM   24  C   UNL     1     -11.613  10.716  70.165  1.00  0.00    -0.414 A  
HETATM   25 CL   UNL     1     -13.601  13.386  72.376  1.00  0.00    -0.687 Cl 
HETATM   26  C   UNL     1     -13.532  10.694  72.194  1.00  0.00    -0.237 A  
HETATM   27  C   UNL     1     -13.025   9.490  71.696  1.00  0.00    -0.483 A  
HETATM   28  C   UNL     1     -12.146  11.917  70.641  1.00  0.00    -0.389 A  
ENDBRANCH  15  22
ENDBRANCH  12  15
ENDBRANCH   8   9
ENDBRANCH   4   8
TORSDOF 5
ENDMDL
MODEL      111
REMARK 921   NORMALIZED FREE ENERGY PREDICTED BY IDOCK:   -3.97 KCAL/MOL
REMARK 922        TOTAL FREE ENERGY PREDICTED BY IDOCK:   -5.83 KCAL/MOL
REMARK 923 INTER-LIGAND FREE ENERGY PREDICTED BY IDOCK:   -8.22 KCAL/MOL
REMARK 924 INTRA-LIGAND FREE ENERGY PREDICTED BY IDOCK:    2.39 KCAL/MOL
REMARK 927      BINDING AFFINITY PREDICTED BY RF-SCORE:    0.00 PKD
ROOT
HETATM    1  C   UNL     1      -8.091   8.034  73.283  1.00  0.00    -0.240 C  
HETATM    2  C   UNL     1      -9.349   7.981  72.469  1.00  0.00    -0.289 A  
HETATM    3  C   UNL     1      -9.306   8.128  71.074  1.00  0.00    -0.180 A  
HETATM    4  C   UNL     1     -10.488   8.251  70.328  1.00  0.00    -0.221 A  
HETATM    5  C   UNL     1     -11.718   8.128  70.996  1.00  0.00    -0.295 A  
HETATM    6  C   UNL     1     -11.768   7.894  72.370  1.00  0.00    -0.423 A  
HETATM    7  C   UNL     1     -10.588   7.840  73.106  1.00  0.00    -0.415 A  
ENDROOT
BRANCH   4   8
HETATM    8  C   UNL     1     -10.426   8.607  68.845  1.00  0.00    -0.192 C  
BRANCH   8   9
HETATM    9  N   UNL     1     -10.838   9.990  68.556  1.00  0.00    -0.233 NA 
HETATM   10  C   UNL     1     -10.082  11.015  69.315  1.00  0.00    -0.095 C  
HETATM   11  C   UNL     1      -8.844  11.714  68.651  1.00  0.00    -0.082 C  
HETATM   12  N   UNL     1      -8.779  11.790  67.168  1.00  0.00    -0.162 NA 
HETATM   13  C   UNL     1      -9.319  10.507  66.668  1.00  0.00    -0.161 C  
HETATM   14  C   UNL     1     -10.762  10.261  67.120  1.00  0.00    -0.241 C  
BRANCH  12  15
HETATM   15  C   UNL     1      -9.508  12.965  66.579  1.00  0.00    -0.251 C  
BRANCH  15  16
HETATM   16  C   UNL     1     -10.474  12.585  65.454  1.00  0.00    -0.308 A  
HETATM   17  C   UNL     1     -11.848  12.887  65.606  1.00  0.00    -0.464 A  
HETATM   18  C   UNL     1     -10.040  12.028  64.256  1.00  0.00    -0.319 A  
HETATM   19  C   UNL     1     -12.748  12.660  64.564  1.00  0.00    -0.439 A  
HETATM   20  C   UNL     1     -12.295  12.120  63.366  1.00  0.00    -0.648 A  
HETATM   21  C   UNL     1     -10.945  11.793  63.217  1.00  0.00    -0.387 A  
ENDBRANCH  15  16
BRANCH  15  22
HETATM   22  C   UNL     1     -10.154  13.853  67.664  1.00  0.00    -0.241 A  
HETATM   23  C   UNL     1     -11.043  15.049  70.049  1.00  0.00    -0.263 A  
HETATM   24  C   UNL     1      -9.376  14.827  68.315  1.00  0.00    -0.199 A  
HETATM   25 CL   UNL     1     -11.510  15.652  71.593  1.00  0.00    -0.487 Cl 
HETATM   26  C   UNL     1     -11.873  14.158  69.375  1.00  0.00    -0.378 A  
HETATM   27  C   UNL     1     -11.449  13.592  68.168  1.00  0.00    -0.348 A  
HETATM   28  C   UNL     1      -9.817  15.418  69.504  1.00  0.00    -0.262 A  
ENDBRANCH  15  22
ENDBRANCH  12  15
ENDBRANCH   8   9
ENDBRANCH   4   8
TORSDOF 5
ENDMDL
MODEL      112
REMARK 921   NORMALIZED FREE ENERGY PREDICTED BY IDOCK:   -3.96 KCAL/MOL
REMARK 922        TOTAL FREE ENERGY PREDICTED BY IDOCK:   -5.82 KCAL/MOL
REMARK 923 INTER-LIGAND FREE ENERGY PREDICTED BY IDOCK:   -4.97 KCAL/MOL
REMARK 924 INTRA-LIGAND FREE ENERGY PREDICTED BY IDOCK:   -0.85 KCAL/MOL
REMARK 927      BINDING AFFINITY PREDICTED BY RF-SCORE:    0.00 PKD
ROOT
HETATM    1  C   UNL     1     -13.112  12.269  63.826  1.00  0.00    -0.165 C  
HETATM    2  C   UNL     1     -11.990  12.385  64.815  1.00  0.00    -0.462 A  
HETATM    3  C   UNL     1     -10.848  11.578  64.701  1.00  0.00    -0.372 A  
HETATM    4  C   UNL     1      -9.877  11.559  65.714  1.00  0.00    -0.266 A  
HETATM    5  C   UNL     1     -10.026  12.437  66.801  1.00  0.00    -0.234 A  
HETATM    6  C   UNL     1     -11.114  13.305  66.878  1.00  0.00    -0.310 A  
HETATM    7  C   UNL     1     -12.102  13.265  65.898  1.00  0.00    -0.493 A  
ENDROOT
BRANCH   4   8
HETATM    8  C   UNL     1      -8.745  10.537  65.672  1.00  0.00    -0.180 C  
BRANCH   8   9
HETATM    9  N   UNL     1      -9.213   9.147  65.550  1.00  0.00    -0.228 NA 
HETATM   10  C   UNL     1      -8.177   8.203  65.068  1.00  0.00    -0.154 C  
HETATM   11  C   UNL     1      -7.347   7.366  66.104  1.00  0.00    -0.082 C  
HETATM   12  N   UNL     1      -7.946   7.086  67.435  1.00  0.00    -0.111 NA 
HETATM   13  C   UNL     1      -8.679   8.311  67.821  1.00  0.00    -0.134 C  
HETATM   14  C   UNL     1      -9.776   8.680  66.818  1.00  0.00    -0.233 C  
BRANCH  12  15
HETATM   15  C   UNL     1      -8.835   5.875  67.468  1.00  0.00    -0.106 C  
BRANCH  15  16
HETATM   16  C   UNL     1      -8.605   4.913  66.300  1.00  0.00    -0.115 A  
HETATM   17  C   UNL     1      -9.649   4.714  65.367  1.00  0.00    -0.177 A  
HETATM   18  C   UNL     1      -7.381   4.291  66.078  1.00  0.00    -0.080 A  
HETATM   19  C   UNL     1      -9.449   3.932  64.227  1.00  0.00    -0.161 A  
HETATM   20  C   UNL     1      -8.215   3.333  64.011  1.00  0.00    -0.089 A  
HETATM   21  C   UNL     1      -7.186   3.501  64.941  1.00  0.00    -0.067 A  
ENDBRANCH  15  16
BRANCH  15  22
HETATM   22  C   UNL     1      -8.819   5.177  68.845  1.00  0.00    -0.106 A  
HETATM   23  C   UNL     1      -8.411   3.473  71.045  1.00  0.00    -0.067 A  
HETATM   24  C   UNL     1      -7.714   5.353  69.698  1.00  0.00    -0.074 A  
HETATM   25 CL   UNL     1      -8.073   2.326  72.284  1.00  0.00    -0.053 Cl 
HETATM   26  C   UNL     1      -9.561   3.337  70.272  1.00  0.00    -0.198 A  
HETATM   27  C   UNL     1      -9.785   4.209  69.202  1.00  0.00    -0.205 A  
HETATM   28  C   UNL     1      -7.510   4.502  70.788  1.00  0.00    -0.052 A  
ENDBRANCH  15  22
ENDBRANCH  12  15
ENDBRANCH   8   9
ENDBRANCH   4   8
TORSDOF 5
ENDMDL
MODEL      113
REMARK 921   NORMALIZED FREE ENERGY PREDICTED BY IDOCK:   -3.95 KCAL/MOL
REMARK 922        TOTAL FREE ENERGY PREDICTED BY IDOCK:   -5.81 KCAL/MOL
REMARK 923 INTER-LIGAND FREE ENERGY PREDICTED BY IDOCK:   -7.95 KCAL/MOL
REMARK 924 INTRA-LIGAND FREE ENERGY PREDICTED BY IDOCK:    2.14 KCAL/MOL
REMARK 927      BINDING AFFINITY PREDICTED BY RF-SCORE:    0.00 PKD
ROOT
HETATM    1  C   UNL     1      -9.532   8.163  71.506  1.00  0.00    -0.222 C  
HETATM    2  C   UNL     1     -10.832   8.912  71.483  1.00  0.00    -0.396 A  
HETATM    3  C   UNL     1     -10.942  10.135  70.803  1.00  0.00    -0.313 A  
HETATM    4  C   UNL     1     -12.097  10.921  70.921  1.00  0.00    -0.455 A  
HETATM    5  C   UNL     1     -13.181  10.413  71.658  1.00  0.00    -0.502 A  
HETATM    6  C   UNL     1     -13.111   9.160  72.265  1.00  0.00    -0.509 A  
HETATM    7  C   UNL     1     -11.933   8.421  72.194  1.00  0.00    -0.438 A  
ENDROOT
BRANCH   4   8
HETATM    8  C   UNL     1     -12.129  12.332  70.340  1.00  0.00    -0.300 C  
BRANCH   8   9
HETATM    9  N   UNL     1     -11.244  12.507  69.178  1.00  0.00    -0.253 NA 
HETATM   10  C   UNL     1     -11.896  12.226  67.877  1.00  0.00    -0.293 C  
HETATM   11  C   UNL     1     -12.498  13.408  67.039  1.00  0.00    -0.017 C  
HETATM   12  N   UNL     1     -11.942  14.773  67.232  1.00  0.00    -0.304 NA 
HETATM   13  C   UNL     1     -11.658  14.899  68.678  1.00  0.00    -0.318 C  
HETATM   14  C   UNL     1     -10.658  13.849  69.174  1.00  0.00    -0.100 C  
BRANCH  12  15
HETATM   15  C   UNL     1     -10.725  15.066  66.401  1.00  0.00    -0.322 C  
BRANCH  15  16
HETATM   16  C   UNL     1      -9.689  15.938  67.116  1.00  0.00    -0.227 A  
HETATM   17  C   UNL     1      -8.325  15.571  67.042  1.00  0.00    -0.265 A  
HETATM   18  C   UNL     1     -10.032  17.117  67.767  1.00  0.00    -0.290 A  
HETATM   19  C   UNL     1      -7.335  16.393  67.584  1.00  0.00    -0.156 A  
HETATM   20  C   UNL     1      -7.693  17.578  68.215  1.00  0.00    -0.247 A  
HETATM   21  C   UNL     1      -9.040  17.934  68.317  1.00  0.00    -0.280 A  
ENDBRANCH  15  16
BRANCH  15  22
HETATM   22  C   UNL     1     -10.122  13.787  65.780  1.00  0.00    -0.322 A  
HETATM   23  C   UNL     1      -9.503  11.163  64.981  1.00  0.00    -0.227 A  
HETATM   24  C   UNL     1     -10.723  13.220  64.642  1.00  0.00    -0.415 A  
HETATM   25 CL   UNL     1      -9.253   9.503  64.596  1.00  0.00    -0.280 Cl 
HETATM   26  C   UNL     1      -8.826  11.733  66.054  1.00  0.00    -0.057 A  
HETATM   27  C   UNL     1      -9.104  13.052  66.429  1.00  0.00    -0.073 A  
HETATM   28  C   UNL     1     -10.419  11.913  64.248  1.00  0.00    -0.370 A  
ENDBRANCH  15  22
ENDBRANCH  12  15
ENDBRANCH   8   9
ENDBRANCH   4   8
TORSDOF 5
ENDMDL
MODEL      114
REMARK 921   NORMALIZED FREE ENERGY PREDICTED BY IDOCK:   -3.93 KCAL/MOL
REMARK 922        TOTAL FREE ENERGY PREDICTED BY IDOCK:   -5.78 KCAL/MOL
REMARK 923 INTER-LIGAND FREE ENERGY PREDICTED BY IDOCK:   -8.02 KCAL/MOL
REMARK 924 INTRA-LIGAND FREE ENERGY PREDICTED BY IDOCK:    2.24 KCAL/MOL
REMARK 927      BINDING AFFINITY PREDICTED BY RF-SCORE:    0.00 PKD
ROOT
HETATM    1  C   UNL     1      -7.007   9.707  70.516  1.00  0.00    -0.133 C  
HETATM    2  C   UNL     1      -8.231   9.667  69.650  1.00  0.00    -0.148 A  
HETATM    3  C   UNL     1      -8.349  10.514  68.537  1.00  0.00    -0.129 A  
HETATM    4  C   UNL     1      -9.555  10.604  67.828  1.00  0.00    -0.172 A  
HETATM    5  C   UNL     1     -10.614   9.756  68.195  1.00  0.00    -0.276 A  
HETATM    6  C   UNL     1     -10.475   8.849  69.245  1.00  0.00    -0.234 A  
HETATM    7  C   UNL     1      -9.294   8.818  69.982  1.00  0.00    -0.175 A  
ENDROOT
BRANCH   4   8
HETATM    8  C   UNL     1      -9.734  11.668  66.748  1.00  0.00    -0.201 C  
BRANCH   8   9
HETATM    9  N   UNL     1      -9.637  13.044  67.259  1.00  0.00    -0.218 NA 
HETATM   10  C   UNL     1     -10.173  14.069  66.332  1.00  0.00    -0.291 C  
HETATM   11  C   UNL     1     -11.647  14.578  66.506  1.00  0.00    -0.371 C  
HETATM   12  N   UNL     1     -12.277  14.491  67.849  1.00  0.00    -0.211 NA 
HETATM   13  C   UNL     1     -11.810  13.217  68.439  1.00  0.00    -0.360 C  
HETATM   14  C   UNL     1     -10.285  13.154  68.568  1.00  0.00    -0.215 C  
BRANCH  12  15
HETATM   15  C   UNL     1     -11.978  15.659  68.747  1.00  0.00    -0.229 C  
BRANCH  15  16
HETATM   16  C   UNL     1     -12.226  15.372  70.230  1.00  0.00    -0.414 A  
HETATM   17  C   UNL     1     -11.578  16.177  71.196  1.00  0.00    -0.453 A  
HETATM   18  C   UNL     1     -13.124  14.402  70.660  1.00  0.00    -0.279 A  
HETATM   19  C   UNL     1     -11.857  16.025  72.555  1.00  0.00    -0.630 A  
HETATM   20  C   UNL     1     -12.771  15.064  72.967  1.00  0.00    -0.560 A  
HETATM   21  C   UNL     1     -13.395  14.245  72.023  1.00  0.00    -0.484 A  
ENDBRANCH  15  16
BRANCH  15  22
HETATM   22  C   UNL     1     -10.586  16.268  68.467  1.00  0.00    -0.294 A  
HETATM   23  C   UNL     1      -8.189  17.738  68.485  1.00  0.00    -0.296 A  
HETATM   24  C   UNL     1      -9.476  15.826  69.209  1.00  0.00    -0.270 A  
HETATM   25 CL   UNL     1      -6.786  18.726  68.630  1.00  0.00    -0.281 Cl 
HETATM   26  C   UNL     1      -9.241  18.145  67.670  1.00  0.00    -0.259 A  
HETATM   27  C   UNL     1     -10.420  17.394  67.630  1.00  0.00    -0.368 A  
HETATM   28  C   UNL     1      -8.286  16.560  69.221  1.00  0.00    -0.072 A  
ENDBRANCH  15  22
ENDBRANCH  12  15
ENDBRANCH   8   9
ENDBRANCH   4   8
TORSDOF 5
ENDMDL
MODEL      115
REMARK 921   NORMALIZED FREE ENERGY PREDICTED BY IDOCK:   -3.93 KCAL/MOL
REMARK 922        TOTAL FREE ENERGY PREDICTED BY IDOCK:   -5.78 KCAL/MOL
REMARK 923 INTER-LIGAND FREE ENERGY PREDICTED BY IDOCK:   -7.99 KCAL/MOL
REMARK 924 INTRA-LIGAND FREE ENERGY PREDICTED BY IDOCK:    2.20 KCAL/MOL
REMARK 927      BINDING AFFINITY PREDICTED BY RF-SCORE:    0.00 PKD
ROOT
HETATM    1  C   UNL     1      -5.567   9.017  65.077  1.00  0.00    -0.054 C  
HETATM    2  C   UNL     1      -7.036   8.973  65.381  1.00  0.00    -0.080 A  
HETATM    3  C   UNL     1      -7.929   9.833  64.724  1.00  0.00    -0.138 A  
HETATM    4  C   UNL     1      -9.271   9.917  65.125  1.00  0.00    -0.288 A  
HETATM    5  C   UNL     1      -9.724   9.052  66.136  1.00  0.00    -0.354 A  
HETATM    6  C   UNL     1      -8.861   8.135  66.734  1.00  0.00    -0.156 A  
HETATM    7  C   UNL     1      -7.518   8.109  66.371  1.00  0.00    -0.087 A  
ENDROOT
BRANCH   4   8
HETATM    8  C   UNL     1     -10.181  10.992  64.537  1.00  0.00    -0.344 C  
BRANCH   8   9
HETATM    9  N   UNL     1      -9.930  12.335  65.082  1.00  0.00    -0.247 NA 
HETATM   10  C   UNL     1     -10.748  13.401  64.457  1.00  0.00    -0.419 C  
HETATM   11  C   UNL     1     -12.085  13.856  65.141  1.00  0.00    -0.403 C  
HETATM   12  N   UNL     1     -12.234  13.667  66.608  1.00  0.00    -0.410 NA 
HETATM   13  C   UNL     1     -11.591  12.372  66.921  1.00  0.00    -0.370 C  
HETATM   14  C   UNL     1     -10.108  12.344  66.535  1.00  0.00    -0.232 C  
BRANCH  12  15
HETATM   15  C   UNL     1     -11.662  14.783  67.435  1.00  0.00    -0.350 C  
BRANCH  15  16
HETATM   16  C   UNL     1     -11.879  14.606  68.939  1.00  0.00    -0.344 A  
HETATM   17  C   UNL     1     -12.017  15.759  69.747  1.00  0.00    -0.337 A  
HETATM   18  C   UNL     1     -12.025  13.354  69.528  1.00  0.00    -0.377 A  
HETATM   19  C   UNL     1     -12.325  15.646  71.104  1.00  0.00    -0.482 A  
HETATM   20  C   UNL     1     -12.487  14.389  71.673  1.00  0.00    -0.427 A  
HETATM   21  C   UNL     1     -12.325  13.244  70.889  1.00  0.00    -0.413 A  
ENDBRANCH  15  16
BRANCH  15  22
HETATM   22  C   UNL     1     -10.196  15.092  67.062  1.00  0.00    -0.262 A  
HETATM   23  C   UNL     1      -7.586  16.116  66.844  1.00  0.00    -0.240 A  
HETATM   24  C   UNL     1      -9.157  14.594  67.868  1.00  0.00    -0.189 A  
HETATM   25 CL   UNL     1      -6.033  16.861  66.828  1.00  0.00    -0.216 Cl 
HETATM   26  C   UNL     1      -8.574  16.559  65.970  1.00  0.00    -0.241 A  
HETATM   27  C   UNL     1      -9.864  16.023  66.051  1.00  0.00    -0.365 A  
HETATM   28  C   UNL     1      -7.860  15.107  67.762  1.00  0.00    -0.161 A  
ENDBRANCH  15  22
ENDBRANCH  12  15
ENDBRANCH   8   9
ENDBRANCH   4   8
TORSDOF 5
ENDMDL
MODEL      116
REMARK 921   NORMALIZED FREE ENERGY PREDICTED BY IDOCK:   -3.88 KCAL/MOL
REMARK 922        TOTAL FREE ENERGY PREDICTED BY IDOCK:   -5.72 KCAL/MOL
REMARK 923 INTER-LIGAND FREE ENERGY PREDICTED BY IDOCK:   -4.81 KCAL/MOL
REMARK 924 INTRA-LIGAND FREE ENERGY PREDICTED BY IDOCK:   -0.91 KCAL/MOL
REMARK 927      BINDING AFFINITY PREDICTED BY RF-SCORE:    0.00 PKD
ROOT
HETATM    1  C   UNL     1      -7.781  10.215  63.470  1.00  0.00    -0.144 C  
HETATM    2  C   UNL     1      -8.958  10.662  64.285  1.00  0.00    -0.214 A  
HETATM    3  C   UNL     1      -9.169  10.157  65.577  1.00  0.00    -0.237 A  
HETATM    4  C   UNL     1     -10.353  10.437  66.273  1.00  0.00    -0.270 A  
HETATM    5  C   UNL     1     -11.284  11.313  65.689  1.00  0.00    -0.074 A  
HETATM    6  C   UNL     1     -11.041  11.888  64.442  1.00  0.00    -0.395 A  
HETATM    7  C   UNL     1      -9.892  11.549  63.734  1.00  0.00    -0.348 A  
ENDROOT
BRANCH   4   8
HETATM    8  C   UNL     1     -10.657   9.726  67.589  1.00  0.00    -0.276 C  
BRANCH   8   9
HETATM    9  N   UNL     1      -9.460   9.178  68.249  1.00  0.00    -0.142 NA 
HETATM   10  C   UNL     1      -9.167   9.790  69.567  1.00  0.00    -0.213 C  
HETATM   11  C   UNL     1      -9.669   9.089  70.877  1.00  0.00    -0.264 C  
HETATM   12  N   UNL     1      -9.904   7.621  70.855  1.00  0.00    -0.177 NA 
HETATM   13  C   UNL     1     -10.487   7.320  69.529  1.00  0.00    -0.230 C  
HETATM   14  C   UNL     1      -9.562   7.723  68.375  1.00  0.00    -0.152 C  
BRANCH  12  15
HETATM   15  C   UNL     1      -8.676   6.796  71.120  1.00  0.00    -0.136 C  
BRANCH  15  16
HETATM   16  C   UNL     1      -7.660   7.486  72.034  1.00  0.00    -0.084 A  
HETATM   17  C   UNL     1      -6.460   7.976  71.469  1.00  0.00    -0.041 A  
HETATM   18  C   UNL     1      -7.910   7.717  73.382  1.00  0.00    -0.184 A  
HETATM   19  C   UNL     1      -5.555   8.707  72.241  1.00  0.00    -0.056 A  
HETATM   20  C   UNL     1      -5.828   8.946  73.582  1.00  0.00    -0.090 A  
HETATM   21  C   UNL     1      -6.997   8.441  74.156  1.00  0.00    -0.178 A  
ENDBRANCH  15  16
BRANCH  15  22
HETATM   22  C   UNL     1      -9.024   5.360  71.567  1.00  0.00    -0.147 A  
HETATM   23  C   UNL     1      -9.315   2.908  72.913  1.00  0.00    -0.091 A  
HETATM   24  C   UNL     1     -10.087   5.153  72.465  1.00  0.00    -0.226 A  
HETATM   25 CL   UNL     1      -9.390   1.473  73.861  1.00  0.00    -0.071 Cl 
HETATM   26  C   UNL     1      -8.312   3.056  71.960  1.00  0.00    -0.065 A  
HETATM   27  C   UNL     1      -8.190   4.261  71.261  1.00  0.00    -0.083 A  
HETATM   28  C   UNL     1     -10.227   3.935  73.138  1.00  0.00    -0.224 A  
ENDBRANCH  15  22
ENDBRANCH  12  15
ENDBRANCH   8   9
ENDBRANCH   4   8
TORSDOF 5
ENDMDL
MODEL      117
REMARK 921   NORMALIZED FREE ENERGY PREDICTED BY IDOCK:   -3.87 KCAL/MOL
REMARK 922        TOTAL FREE ENERGY PREDICTED BY IDOCK:   -5.71 KCAL/MOL
REMARK 923 INTER-LIGAND FREE ENERGY PREDICTED BY IDOCK:   -5.28 KCAL/MOL
REMARK 924 INTRA-LIGAND FREE ENERGY PREDICTED BY IDOCK:   -0.43 KCAL/MOL
REMARK 927      BINDING AFFINITY PREDICTED BY RF-SCORE:    0.00 PKD
ROOT
HETATM    1  C   UNL     1      -6.577   4.148  67.074  1.00  0.00    -0.046 C  
HETATM    2  C   UNL     1      -6.358   5.329  66.176  1.00  0.00    -0.039 A  
HETATM    3  C   UNL     1      -6.361   6.633  66.693  1.00  0.00    -0.042 A  
HETATM    4  C   UNL     1      -6.330   7.745  65.839  1.00  0.00    -0.042 A  
HETATM    5  C   UNL     1      -6.198   7.525  64.457  1.00  0.00    -0.041 A  
HETATM    6  C   UNL     1      -6.108   6.232  63.943  1.00  0.00    -0.022 A  
HETATM    7  C   UNL     1      -6.206   5.138  64.797  1.00  0.00    -0.033 A  
ENDROOT
BRANCH   4   8
HETATM    8  C   UNL     1      -6.531   9.150  66.400  1.00  0.00    -0.066 C  
BRANCH   8   9
HETATM    9  N   UNL     1      -7.943   9.562  66.456  1.00  0.00    -0.111 NA 
HETATM   10  C   UNL     1      -8.560   9.414  67.795  1.00  0.00    -0.116 C  
HETATM   11  C   UNL     1      -8.621  10.648  68.762  1.00  0.00    -0.150 C  
HETATM   12  N   UNL     1      -8.605  12.014  68.176  1.00  0.00    -0.167 NA 
HETATM   13  C   UNL     1      -7.670  11.957  67.030  1.00  0.00    -0.146 C  
HETATM   14  C   UNL     1      -8.099  10.935  65.973  1.00  0.00    -0.142 C  
BRANCH  12  15
HETATM   15  C   UNL     1      -9.957  12.522  67.762  1.00  0.00    -0.210 C  
BRANCH  15  16
HETATM   16  C   UNL     1     -11.020  12.400  68.857  1.00  0.00    -0.268 A  
HETATM   17  C   UNL     1     -11.618  11.138  69.085  1.00  0.00    -0.393 A  
HETATM   18  C   UNL     1     -11.359  13.462  69.687  1.00  0.00    -0.206 A  
HETATM   19  C   UNL     1     -12.510  10.953  70.143  1.00  0.00    -0.356 A  
HETATM   20  C   UNL     1     -12.825  12.020  70.975  1.00  0.00    -0.279 A  
HETATM   21  C   UNL     1     -12.260  13.276  70.740  1.00  0.00    -0.390 A  
ENDBRANCH  15  16
BRANCH  15  22
HETATM   22  C   UNL     1      -9.884  13.933  67.139  1.00  0.00    -0.241 A  
HETATM   23  C   UNL     1     -10.208  16.640  66.449  1.00  0.00    -0.315 A  
HETATM   24  C   UNL     1      -9.132  14.935  67.779  1.00  0.00    -0.185 A  
HETATM   25 CL   UNL     1     -10.531  18.304  66.146  1.00  0.00    -0.433 Cl 
HETATM   26  C   UNL     1     -10.894  15.661  65.737  1.00  0.00    -0.312 A  
HETATM   27  C   UNL     1     -10.704  14.312  66.052  1.00  0.00    -0.304 A  
HETATM   28  C   UNL     1      -9.297  16.281  67.439  1.00  0.00    -0.224 A  
ENDBRANCH  15  22
ENDBRANCH  12  15
ENDBRANCH   8   9
ENDBRANCH   4   8
TORSDOF 5
ENDMDL
MODEL      118
REMARK 921   NORMALIZED FREE ENERGY PREDICTED BY IDOCK:   -3.84 KCAL/MOL
REMARK 922        TOTAL FREE ENERGY PREDICTED BY IDOCK:   -5.66 KCAL/MOL
REMARK 923 INTER-LIGAND FREE ENERGY PREDICTED BY IDOCK:   -5.28 KCAL/MOL
REMARK 924 INTRA-LIGAND FREE ENERGY PREDICTED BY IDOCK:   -0.38 KCAL/MOL
REMARK 927      BINDING AFFINITY PREDICTED BY RF-SCORE:    0.00 PKD
ROOT
HETATM    1  C   UNL     1      -9.382   1.945  69.658  1.00  0.00    -0.158 C  
HETATM    2  C   UNL     1      -8.865   3.302  70.034  1.00  0.00    -0.149 A  
HETATM    3  C   UNL     1      -9.629   4.453  69.784  1.00  0.00    -0.276 A  
HETATM    4  C   UNL     1      -9.083   5.732  69.974  1.00  0.00    -0.157 A  
HETATM    5  C   UNL     1      -7.789   5.835  70.512  1.00  0.00    -0.100 A  
HETATM    6  C   UNL     1      -7.057   4.696  70.843  1.00  0.00    -0.037 A  
HETATM    7  C   UNL     1      -7.586   3.434  70.588  1.00  0.00    -0.040 A  
ENDROOT
BRANCH   4   8
HETATM    8  C   UNL     1      -9.849   6.969  69.515  1.00  0.00    -0.160 C  
BRANCH   8   9
HETATM    9  N   UNL     1      -9.045   7.884  68.689  1.00  0.00    -0.137 NA 
HETATM   10  C   UNL     1      -8.978   7.502  67.259  1.00  0.00    -0.124 C  
HETATM   11  C   UNL     1      -9.969   8.157  66.233  1.00  0.00    -0.077 C  
HETATM   12  N   UNL     1     -10.537   9.494  66.547  1.00  0.00    -0.126 NA 
HETATM   13  C   UNL     1     -10.796   9.498  68.003  1.00  0.00    -0.168 C  
HETATM   14  C   UNL     1      -9.526   9.260  68.826  1.00  0.00    -0.150 C  
BRANCH  12  15
HETATM   15  C   UNL     1      -9.664  10.646  66.137  1.00  0.00    -0.205 C  
BRANCH  15  16
HETATM   16  C   UNL     1      -8.632  10.283  65.066  1.00  0.00    -0.190 A  
HETATM   17  C   UNL     1      -9.084   9.721  63.849  1.00  0.00    -0.275 A  
HETATM   18  C   UNL     1      -7.277  10.558  65.214  1.00  0.00    -0.051 A  
HETATM   19  C   UNL     1      -8.193   9.475  62.803  1.00  0.00    -0.155 A  
HETATM   20  C   UNL     1      -6.845   9.773  62.960  1.00  0.00    -0.113 A  
HETATM   21  C   UNL     1      -6.385  10.302  64.168  1.00  0.00    -0.094 A  
ENDBRANCH  15  16
BRANCH  15  22
HETATM   22  C   UNL     1     -10.486  11.906  65.789  1.00  0.00    -0.295 A  
HETATM   23  C   UNL     1     -11.444  14.368  64.827  1.00  0.00    -0.402 A  
HETATM   24  C   UNL     1     -11.128  11.991  64.540  1.00  0.00    -0.384 A  
HETATM   25 CL   UNL     1     -11.874  15.900  64.168  1.00  0.00    -0.200 Cl 
HETATM   26  C   UNL     1     -10.898  14.294  66.105  1.00  0.00    -0.310 A  
HETATM   27  C   UNL     1     -10.457  13.063  66.600  1.00  0.00    -0.271 A  
HETATM   28  C   UNL     1     -11.599  13.217  64.060  1.00  0.00    -0.481 A  
ENDBRANCH  15  22
ENDBRANCH  12  15
ENDBRANCH   8   9
ENDBRANCH   4   8
TORSDOF 5
ENDMDL
MODEL      119
REMARK 921   NORMALIZED FREE ENERGY PREDICTED BY IDOCK:   -3.77 KCAL/MOL
REMARK 922        TOTAL FREE ENERGY PREDICTED BY IDOCK:   -5.58 KCAL/MOL
REMARK 923 INTER-LIGAND FREE ENERGY PREDICTED BY IDOCK:   -5.51 KCAL/MOL
REMARK 924 INTRA-LIGAND FREE ENERGY PREDICTED BY IDOCK:   -0.07 KCAL/MOL
REMARK 927      BINDING AFFINITY PREDICTED BY RF-SCORE:    0.00 PKD
ROOT
HETATM    1  C   UNL     1      -9.408   8.339  72.952  1.00  0.00    -0.324 C  
HETATM    2  C   UNL     1      -9.785   8.122  71.517  1.00  0.00    -0.230 A  
HETATM    3  C   UNL     1      -9.391   9.035  70.527  1.00  0.00    -0.262 A  
HETATM    4  C   UNL     1      -9.883   8.931  69.217  1.00  0.00    -0.176 A  
HETATM    5  C   UNL     1     -10.702   7.836  68.894  1.00  0.00    -0.108 A  
HETATM    6  C   UNL     1     -11.028   6.877  69.852  1.00  0.00    -0.318 A  
HETATM    7  C   UNL     1     -10.586   7.030  71.163  1.00  0.00    -0.237 A  
ENDROOT
BRANCH   4   8
HETATM    8  C   UNL     1      -9.606  10.037  68.203  1.00  0.00    -0.139 C  
BRANCH   8   9
HETATM    9  N   UNL     1     -10.307  11.296  68.502  1.00  0.00    -0.195 NA 
HETATM   10  C   UNL     1      -9.563  12.196  69.416  1.00  0.00     0.941 C  
HETATM   11  C   UNL     1      -8.677  13.346  68.821  1.00  0.00     0.128 C  
HETATM   12  N   UNL     1      -9.013  13.881  67.476  1.00  0.00    -0.186 NA 
HETATM   13  C   UNL     1      -9.440  12.718  66.667  1.00  0.00    -0.249 C  
HETATM   14  C   UNL     1     -10.653  12.000  67.266  1.00  0.00    -0.222 C  
BRANCH  12  15
HETATM   15  C   UNL     1     -10.058  14.961  67.486  1.00  0.00    -0.228 C  
BRANCH  15  16
HETATM   16  C   UNL     1     -10.776  15.107  68.831  1.00  0.00    -0.240 A  
HETATM   17  C   UNL     1     -12.060  14.532  68.981  1.00  0.00    -0.286 A  
HETATM   18  C   UNL     1     -10.180  15.713  69.931  1.00  0.00    -0.297 A  
HETATM   19  C   UNL     1     -12.706  14.544  70.219  1.00  0.00    -0.325 A  
HETATM   20  C   UNL     1     -12.089  15.137  71.313  1.00  0.00    -0.399 A  
HETATM   21  C   UNL     1     -10.834  15.732  71.167  1.00  0.00    -0.041 A  
ENDBRANCH  15  16
BRANCH  15  22
HETATM   22  C   UNL     1      -9.520  16.299  66.934  1.00  0.00    -0.245 A  
HETATM   23  C   UNL     1      -8.372  18.838  66.553  1.00  0.00    -0.297 A  
HETATM   24  C   UNL     1      -8.144  16.436  66.672  1.00  0.00    -0.321 A  
HETATM   25 CL   UNL     1      -7.646  20.398  66.491  1.00  0.00    -0.284 Cl 
HETATM   26  C   UNL     1      -9.749  18.722  66.717  1.00  0.00    -0.355 A  
HETATM   27  C   UNL     1     -10.327  17.457  66.867  1.00  0.00    -0.317 A  
HETATM   28  C   UNL     1      -7.574  17.699  66.488  1.00  0.00    -0.299 A  
ENDBRANCH  15  22
ENDBRANCH  12  15
ENDBRANCH   8   9
ENDBRANCH   4   8
TORSDOF 5
ENDMDL
MODEL      120
REMARK 921   NORMALIZED FREE ENERGY PREDICTED BY IDOCK:   -3.77 KCAL/MOL
REMARK 922        TOTAL FREE ENERGY PREDICTED BY IDOCK:   -5.58 KCAL/MOL
REMARK 923 INTER-LIGAND FREE ENERGY PREDICTED BY IDOCK:   -4.62 KCAL/MOL
REMARK 924 INTRA-LIGAND FREE ENERGY PREDICTED BY IDOCK:   -0.96 KCAL/MOL
REMARK 927      BINDING AFFINITY PREDICTED BY RF-SCORE:    0.00 PKD
ROOT
HETATM    1  C   UNL     1     -10.093  16.400  67.781  1.00  0.00    -0.262 C  
HETATM    2  C   UNL     1      -9.002  15.386  67.610  1.00  0.00    -0.185 A  
HETATM    3  C   UNL     1      -9.306  14.053  67.291  1.00  0.00    -0.230 A  
HETATM    4  C   UNL     1      -8.309  13.067  67.300  1.00  0.00    -0.186 A  
HETATM    5  C   UNL     1      -6.981  13.459  67.540  1.00  0.00    -0.153 A  
HETATM    6  C   UNL     1      -6.659  14.795  67.772  1.00  0.00    -0.188 A  
HETATM    7  C   UNL     1      -7.668  15.752  67.825  1.00  0.00    -0.159 A  
ENDROOT
BRANCH   4   8
HETATM    8  C   UNL     1      -8.683  11.595  67.146  1.00  0.00    -0.164 C  
BRANCH   8   9
HETATM    9  N   UNL     1      -8.261  10.761  68.283  1.00  0.00    -0.118 NA 
HETATM   10  C   UNL     1      -9.276  10.650  69.358  1.00  0.00    -0.051 C  
HETATM   11  C   UNL     1     -10.247   9.418  69.384  1.00  0.00    -0.207 C  
HETATM   12  N   UNL     1      -9.809   8.152  68.739  1.00  0.00    -0.171 NA 
HETATM   13  C   UNL     1      -9.073   8.548  67.518  1.00  0.00    -0.134 C  
HETATM   14  C   UNL     1      -7.859   9.430  67.824  1.00  0.00    -0.095 C  
BRANCH  12  15
HETATM   15  C   UNL     1      -8.978   7.266  69.623  1.00  0.00    -0.141 C  
BRANCH  15  16
HETATM   16  C   UNL     1      -9.541   7.110  71.038  1.00  0.00    -0.158 A  
HETATM   17  C   UNL     1     -10.871   6.653  71.194  1.00  0.00    -0.284 A  
HETATM   18  C   UNL     1      -8.769   7.325  72.174  1.00  0.00    -0.134 A  
HETATM   19  C   UNL     1     -11.391   6.391  72.463  1.00  0.00    -0.299 A  
HETATM   20  C   UNL     1     -10.600   6.593  73.587  1.00  0.00    -0.323 A  
HETATM   21  C   UNL     1      -9.296   7.071  73.444  1.00  0.00    -0.198 A  
ENDBRANCH  15  16
BRANCH  15  22
HETATM   22  C   UNL     1      -8.644   5.918  68.948  1.00  0.00    -0.110 A  
HETATM   23  C   UNL     1      -8.233   3.215  68.289  1.00  0.00    -0.073 A  
HETATM   24  C   UNL     1      -9.680   5.147  68.390  1.00  0.00    -0.200 A  
HETATM   25 CL   UNL     1      -8.029   1.523  68.047  1.00  0.00    -0.057 Cl 
HETATM   26  C   UNL     1      -7.167   3.981  68.750  1.00  0.00    -0.055 A  
HETATM   27  C   UNL     1      -7.360   5.336  69.041  1.00  0.00    -0.066 A  
HETATM   28  C   UNL     1      -9.476   3.802  68.068  1.00  0.00    -0.221 A  
ENDBRANCH  15  22
ENDBRANCH  12  15
ENDBRANCH   8   9
ENDBRANCH   4   8
TORSDOF 5
ENDMDL
MODEL      121
REMARK 921   NORMALIZED FREE ENERGY PREDICTED BY IDOCK:   -3.69 KCAL/MOL
REMARK 922        TOTAL FREE ENERGY PREDICTED BY IDOCK:   -5.48 KCAL/MOL
REMARK 923 INTER-LIGAND FREE ENERGY PREDICTED BY IDOCK:   -5.40 KCAL/MOL
REMARK 924 INTRA-LIGAND FREE ENERGY PREDICTED BY IDOCK:   -0.08 KCAL/MOL
REMARK 927      BINDING AFFINITY PREDICTED BY RF-SCORE:    0.00 PKD
ROOT
HETATM    1  C   UNL     1     -10.467  20.317  66.543  1.00  0.00    -0.326 C  
HETATM    2  C   UNL     1      -9.519  19.221  66.159  1.00  0.00    -0.320 A  
HETATM    3  C   UNL     1      -9.958  17.890  66.078  1.00  0.00    -0.217 A  
HETATM    4  C   UNL     1      -9.044  16.843  65.889  1.00  0.00    -0.091 A  
HETATM    5  C   UNL     1      -7.690  17.162  65.686  1.00  0.00     0.617 A  
HETATM    6  C   UNL     1      -7.260  18.488  65.680  1.00  0.00    -0.154 A  
HETATM    7  C   UNL     1      -8.168  19.513  65.934  1.00  0.00    -0.174 A  
ENDROOT
BRANCH   4   8
HETATM    8  C   UNL     1      -9.505  15.392  65.999  1.00  0.00    -0.346 C  
BRANCH   8   9
HETATM    9  N   UNL     1      -9.750  14.958  67.384  1.00  0.00    -0.216 NA 
HETATM   10  C   UNL     1     -11.158  14.585  67.658  1.00  0.00    -0.304 C  
HETATM   11  C   UNL     1     -11.592  13.080  67.577  1.00  0.00    -0.356 C  
HETATM   12  N   UNL     1     -10.563  12.029  67.796  1.00  0.00    -0.202 NA 
HETATM   13  C   UNL     1      -9.327  12.527  67.154  1.00  0.00    -0.201 C  
HETATM   14  C   UNL     1      -8.853  13.858  67.745  1.00  0.00    -0.189 C  
BRANCH  12  15
HETATM   15  C   UNL     1     -10.335  11.681  69.240  1.00  0.00     0.069 C  
BRANCH  15  16
HETATM   16  C   UNL     1     -11.540  11.974  70.138  1.00  0.00    -0.228 A  
HETATM   17  C   UNL     1     -12.210  10.890  70.752  1.00  0.00    -0.483 A  
HETATM   18  C   UNL     1     -11.948  13.269  70.436  1.00  0.00    -0.350 A  
HETATM   19  C   UNL     1     -13.243  11.114  71.664  1.00  0.00    -0.449 A  
HETATM   20  C   UNL     1     -13.626  12.415  71.966  1.00  0.00    -0.349 A  
HETATM   21  C   UNL     1     -12.989  13.491  71.343  1.00  0.00    -0.421 A  
ENDBRANCH  15  16
BRANCH  15  22
HETATM   22  C   UNL     1      -9.778  10.251  69.413  1.00  0.00    -0.242 A  
HETATM   23  C   UNL     1      -8.251   7.890  69.403  1.00  0.00    -0.130 A  
HETATM   24  C   UNL     1      -8.847   9.991  70.435  1.00  0.00     0.199 A  
HETATM   25 CL   UNL     1      -7.200   6.530  69.301  1.00  0.00    -0.087 Cl 
HETATM   26  C   UNL     1      -9.231   8.080  68.433  1.00  0.00    -0.135 A  
HETATM   27  C   UNL     1     -10.018   9.236  68.460  1.00  0.00    -0.193 A  
HETATM   28  C   UNL     1      -8.085   8.818  70.426  1.00  0.00    -0.118 A  
ENDBRANCH  15  22
ENDBRANCH  12  15
ENDBRANCH   8   9
ENDBRANCH   4   8
TORSDOF 5
ENDMDL
MODEL      122
REMARK 921   NORMALIZED FREE ENERGY PREDICTED BY IDOCK:   -3.67 KCAL/MOL
REMARK 922        TOTAL FREE ENERGY PREDICTED BY IDOCK:   -5.45 KCAL/MOL
REMARK 923 INTER-LIGAND FREE ENERGY PREDICTED BY IDOCK:   -4.85 KCAL/MOL
REMARK 924 INTRA-LIGAND FREE ENERGY PREDICTED BY IDOCK:   -0.60 KCAL/MOL
REMARK 927      BINDING AFFINITY PREDICTED BY RF-SCORE:    0.00 PKD
ROOT
HETATM    1  C   UNL     1      -7.483   8.280  62.921  1.00  0.00    -0.114 C  
HETATM    2  C   UNL     1      -8.160   8.008  64.232  1.00  0.00    -0.117 A  
HETATM    3  C   UNL     1      -9.115   8.900  64.744  1.00  0.00    -0.007 A  
HETATM    4  C   UNL     1      -9.622   8.741  66.042  1.00  0.00    -0.297 A  
HETATM    5  C   UNL     1      -9.227   7.615  66.783  1.00  0.00    -0.197 A  
HETATM    6  C   UNL     1      -8.344   6.678  66.248  1.00  0.00    -0.125 A  
HETATM    7  C   UNL     1      -7.798   6.884  64.984  1.00  0.00    -0.121 A  
ENDROOT
BRANCH   4   8
HETATM    8  C   UNL     1     -10.506   9.822  66.658  1.00  0.00    -0.163 C  
BRANCH   8   9
HETATM    9  N   UNL     1      -9.772  10.755  67.528  1.00  0.00    -0.165 NA 
HETATM   10  C   UNL     1      -8.606  11.395  66.875  1.00  0.00    -0.154 C  
HETATM   11  C   UNL     1      -8.762  12.816  66.228  1.00  0.00     0.235 C  
HETATM   12  N   UNL     1      -9.825  13.719  66.741  1.00  0.00    -0.267 NA 
HETATM   13  C   UNL     1     -10.991  12.855  67.033  1.00  0.00    -0.262 C  
HETATM   14  C   UNL     1     -10.674  11.773  68.070  1.00  0.00    -0.208 C  
BRANCH  12  15
HETATM   15  C   UNL     1      -9.421  14.527  67.942  1.00  0.00    -0.212 C  
BRANCH  15  16
HETATM   16  C   UNL     1      -7.940  14.391  68.302  1.00  0.00    -0.140 A  
HETATM   17  C   UNL     1      -7.571  13.501  69.338  1.00  0.00     0.407 A  
HETATM   18  C   UNL     1      -6.939  15.050  67.597  1.00  0.00    -0.205 A  
HETATM   19  C   UNL     1      -6.226  13.262  69.628  1.00  0.00    -0.113 A  
HETATM   20  C   UNL     1      -5.238  13.913  68.901  1.00  0.00    -0.072 A  
HETATM   21  C   UNL     1      -5.593  14.815  67.895  1.00  0.00    -0.117 A  
ENDBRANCH  15  16
BRANCH  15  22
HETATM   22  C   UNL     1      -9.893  15.994  67.843  1.00  0.00    -0.226 A  
HETATM   23  C   UNL     1     -10.127  18.776  67.505  1.00  0.00    -0.360 A  
HETATM   24  C   UNL     1     -10.179  16.546  66.580  1.00  0.00    -0.302 A  
HETATM   25 CL   UNL     1     -10.099  20.482  67.270  1.00  0.00    -0.519 Cl 
HETATM   26  C   UNL     1      -9.937  18.251  68.780  1.00  0.00    -0.391 A  
HETATM   27  C   UNL     1      -9.860  16.865  68.955  1.00  0.00    -0.267 A  
HETATM   28  C   UNL     1     -10.290  17.929  66.413  1.00  0.00    -0.365 A  
ENDBRANCH  15  22
ENDBRANCH  12  15
ENDBRANCH   8   9
ENDBRANCH   4   8
TORSDOF 5
ENDMDL
MODEL      123
REMARK 921   NORMALIZED FREE ENERGY PREDICTED BY IDOCK:   -3.66 KCAL/MOL
REMARK 922        TOTAL FREE ENERGY PREDICTED BY IDOCK:   -5.43 KCAL/MOL
REMARK 923 INTER-LIGAND FREE ENERGY PREDICTED BY IDOCK:   -7.66 KCAL/MOL
REMARK 924 INTRA-LIGAND FREE ENERGY PREDICTED BY IDOCK:    2.23 KCAL/MOL
REMARK 927      BINDING AFFINITY PREDICTED BY RF-SCORE:    0.00 PKD
ROOT
HETATM    1  C   UNL     1     -13.770  12.552  72.195  1.00  0.00    -0.338 C  
HETATM    2  C   UNL     1     -13.192  13.934  72.277  1.00  0.00    -0.568 A  
HETATM    3  C   UNL     1     -12.796  14.615  71.115  1.00  0.00    -0.411 A  
HETATM    4  C   UNL     1     -12.100  15.829  71.196  1.00  0.00    -0.475 A  
HETATM    5  C   UNL     1     -11.892  16.399  72.464  1.00  0.00    -0.547 A  
HETATM    6  C   UNL     1     -12.358  15.770  73.618  1.00  0.00    -0.689 A  
HETATM    7  C   UNL     1     -12.989  14.533  73.525  1.00  0.00    -0.206 A  
ENDROOT
BRANCH   4   8
HETATM    8  C   UNL     1     -11.505  16.459  69.940  1.00  0.00    -0.079 C  
BRANCH   8   9
HETATM    9  N   UNL     1     -11.349  15.510  68.826  1.00  0.00    -0.313 NA 
HETATM   10  C   UNL     1     -11.043  16.152  67.526  1.00  0.00    -0.175 C  
HETATM   11  C   UNL     1      -9.552  16.272  67.052  1.00  0.00    -0.231 C  
HETATM   12  N   UNL     1      -8.559  15.295  67.569  1.00  0.00    -0.168 NA 
HETATM   13  C   UNL     1      -8.917  15.057  68.985  1.00  0.00    -0.205 C  
HETATM   14  C   UNL     1     -10.336  14.502  69.146  1.00  0.00    -0.189 C  
BRANCH  12  15
HETATM   15  C   UNL     1      -8.496  14.010  66.791  1.00  0.00     0.010 C  
BRANCH  15  16
HETATM   16  C   UNL     1      -7.894  12.845  67.580  1.00  0.00    -0.168 A  
HETATM   17  C   UNL     1      -6.570  12.963  68.065  1.00  0.00    -0.107 A  
HETATM   18  C   UNL     1      -8.627  11.709  67.905  1.00  0.00    -0.150 A  
HETATM   19  C   UNL     1      -6.018  11.975  68.882  1.00  0.00    -0.060 A  
HETATM   20  C   UNL     1      -6.771  10.855  69.213  1.00  0.00    -0.086 A  
HETATM   21  C   UNL     1      -8.069  10.715  68.715  1.00  0.00    -0.139 A  
ENDBRANCH  15  16
BRANCH  15  22
HETATM   22  C   UNL     1      -9.846  13.665  66.126  1.00  0.00    -0.304 A  
HETATM   23  C   UNL     1     -11.967  12.533  64.668  1.00  0.00    -0.404 A  
HETATM   24  C   UNL     1     -10.667  12.677  66.699  1.00  0.00    -0.275 A  
HETATM   25 CL   UNL     1     -13.152  11.723  63.717  1.00  0.00    -0.286 Cl 
HETATM   26  C   UNL     1     -11.229  13.574  64.114  1.00  0.00    -0.341 A  
HETATM   27  C   UNL     1     -10.199  14.165  64.852  1.00  0.00    -0.371 A  
HETATM   28  C   UNL     1     -11.718  12.111  65.971  1.00  0.00    -0.388 A  
ENDBRANCH  15  22
ENDBRANCH  12  15
ENDBRANCH   8   9
ENDBRANCH   4   8
TORSDOF 5
ENDMDL
MODEL      124
REMARK 921   NORMALIZED FREE ENERGY PREDICTED BY IDOCK:   -3.66 KCAL/MOL
REMARK 922        TOTAL FREE ENERGY PREDICTED BY IDOCK:   -5.43 KCAL/MOL
REMARK 923 INTER-LIGAND FREE ENERGY PREDICTED BY IDOCK:   -4.87 KCAL/MOL
REMARK 924 INTRA-LIGAND FREE ENERGY PREDICTED BY IDOCK:   -0.56 KCAL/MOL
REMARK 927      BINDING AFFINITY PREDICTED BY RF-SCORE:    0.00 PKD
ROOT
HETATM    1  C   UNL     1     -12.727   9.758  70.966  1.00  0.00    -0.392 C  
HETATM    2  C   UNL     1     -11.598   9.085  71.689  1.00  0.00    -0.426 A  
HETATM    3  C   UNL     1     -10.265   9.371  71.359  1.00  0.00    -0.297 A  
HETATM    4  C   UNL     1      -9.213   8.624  71.909  1.00  0.00    -0.345 A  
HETATM    5  C   UNL     1      -9.517   7.646  72.871  1.00  0.00    -0.262 A  
HETATM    6  C   UNL     1     -10.833   7.415  73.268  1.00  0.00    -0.417 A  
HETATM    7  C   UNL     1     -11.872   8.120  72.665  1.00  0.00    -0.389 A  
ENDROOT
BRANCH   4   8
HETATM    8  C   UNL     1      -7.788   8.812  71.395  1.00  0.00    -0.128 C  
BRANCH   8   9
HETATM    9  N   UNL     1      -7.368   7.776  70.438  1.00  0.00    -0.068 NA 
HETATM   10  C   UNL     1      -8.477   6.921  69.951  1.00  0.00    -0.140 C  
HETATM   11  C   UNL     1      -9.183   7.265  68.593  1.00  0.00    -0.136 C  
HETATM   12  N   UNL     1      -8.424   8.029  67.569  1.00  0.00    -0.126 NA 
HETATM   13  C   UNL     1      -7.622   9.025  68.313  1.00  0.00    -0.091 C  
HETATM   14  C   UNL     1      -6.656   8.376  69.308  1.00  0.00    -0.042 C  
BRANCH  12  15
HETATM   15  C   UNL     1      -7.563   7.179  66.678  1.00  0.00    -0.093 C  
BRANCH  15  16
HETATM   16  C   UNL     1      -8.130   5.778  66.434  1.00  0.00    -0.106 A  
HETATM   17  C   UNL     1      -7.354   4.656  66.807  1.00  0.00    -0.081 A  
HETATM   18  C   UNL     1      -9.410   5.570  65.932  1.00  0.00    -0.140 A  
HETATM   19  C   UNL     1      -7.872   3.364  66.705  1.00  0.00    -0.081 A  
HETATM   20  C   UNL     1      -9.160   3.174  66.220  1.00  0.00    -0.158 A  
HETATM   21  C   UNL     1      -9.924   4.274  65.822  1.00  0.00    -0.233 A  
ENDBRANCH  15  16
BRANCH  15  22
HETATM   22  C   UNL     1      -7.166   7.912  65.379  1.00  0.00    -0.064 A  
HETATM   23  C   UNL     1      -6.262   9.721  63.425  1.00  0.00    -0.113 A  
HETATM   24  C   UNL     1      -5.819   7.920  64.972  1.00  0.00    -0.037 A  
HETATM   25 CL   UNL     1      -5.679  10.940  62.358  1.00  0.00    -0.166 Cl 
HETATM   26  C   UNL     1      -7.616   9.669  63.741  1.00  0.00    -0.126 A  
HETATM   27  C   UNL     1      -8.073   8.743  64.684  1.00  0.00    -0.157 A  
HETATM   28  C   UNL     1      -5.370   8.824  64.004  1.00  0.00    -0.056 A  
ENDBRANCH  15  22
ENDBRANCH  12  15
ENDBRANCH   8   9
ENDBRANCH   4   8
TORSDOF 5
ENDMDL
MODEL      125
REMARK 921   NORMALIZED FREE ENERGY PREDICTED BY IDOCK:   -3.65 KCAL/MOL
REMARK 922        TOTAL FREE ENERGY PREDICTED BY IDOCK:   -5.42 KCAL/MOL
REMARK 923 INTER-LIGAND FREE ENERGY PREDICTED BY IDOCK:   -7.53 KCAL/MOL
REMARK 924 INTRA-LIGAND FREE ENERGY PREDICTED BY IDOCK:    2.11 KCAL/MOL
REMARK 927      BINDING AFFINITY PREDICTED BY RF-SCORE:    0.00 PKD
ROOT
HETATM    1  C   UNL     1      -7.284  19.972  65.545  1.00  0.00    -0.307 C  
HETATM    2  C   UNL     1      -8.437  19.440  66.343  1.00  0.00    -0.361 A  
HETATM    3  C   UNL     1      -8.281  18.306  67.157  1.00  0.00    -0.239 A  
HETATM    4  C   UNL     1      -9.391  17.704  67.768  1.00  0.00    -0.255 A  
HETATM    5  C   UNL     1     -10.648  18.316  67.627  1.00  0.00    -0.427 A  
HETATM    6  C   UNL     1     -10.795  19.491  66.891  1.00  0.00    -0.523 A  
HETATM    7  C   UNL     1      -9.697  20.040  66.236  1.00  0.00    -0.546 A  
ENDROOT
BRANCH   4   8
HETATM    8  C   UNL     1      -9.239  16.366  68.485  1.00  0.00    -0.226 C  
BRANCH   8   9
HETATM    9  N   UNL     1      -9.831  15.236  67.750  1.00  0.00    -0.220 NA 
HETATM   10  C   UNL     1      -8.946  14.670  66.704  1.00  0.00    -0.238 C  
HETATM   11  C   UNL     1      -8.059  13.417  67.033  1.00  0.00    -0.001 C  
HETATM   12  N   UNL     1      -8.500  12.496  68.113  1.00  0.00    -0.175 NA 
HETATM   13  C   UNL     1      -9.075  13.353  69.173  1.00  0.00     0.602 C  
HETATM   14  C   UNL     1     -10.260  14.187  68.676  1.00  0.00    -0.238 C  
BRANCH  12  15
HETATM   15  C   UNL     1      -9.473  11.442  67.665  1.00  0.00    -0.162 C  
BRANCH  15  16
HETATM   16  C   UNL     1     -10.401  10.951  68.779  1.00  0.00    -0.215 A  
HETATM   17  C   UNL     1      -9.880  10.074  69.760  1.00  0.00    -0.270 A  
HETATM   18  C   UNL     1     -11.712  11.396  68.907  1.00  0.00    -0.409 A  
HETATM   19  C   UNL     1     -10.656   9.687  70.854  1.00  0.00    -0.386 A  
HETATM   20  C   UNL     1     -11.958  10.156  70.977  1.00  0.00    -0.474 A  
HETATM   21  C   UNL     1     -12.490  10.999  69.999  1.00  0.00    -0.319 A  
ENDBRANCH  15  16
BRANCH  15  22
HETATM   22  C   UNL     1     -10.226  11.853  66.380  1.00  0.00    -0.240 A  
HETATM   23  C   UNL     1     -11.929  12.047  64.150  1.00  0.00    -0.369 A  
HETATM   24  C   UNL     1     -11.480  12.481  66.484  1.00  0.00    -0.418 A  
HETATM   25 CL   UNL     1     -13.035  12.012  62.831  1.00  0.00     0.048 Cl 
HETATM   26  C   UNL     1     -10.656  11.505  64.000  1.00  0.00    -0.437 A  
HETATM   27  C   UNL     1      -9.793  11.443  65.099  1.00  0.00    -0.302 A  
HETATM   28  C   UNL     1     -12.328  12.573  65.376  1.00  0.00    -0.426 A  
ENDBRANCH  15  22
ENDBRANCH  12  15
ENDBRANCH   8   9
ENDBRANCH   4   8
TORSDOF 5
ENDMDL
MODEL      126
REMARK 921   NORMALIZED FREE ENERGY PREDICTED BY IDOCK:   -3.57 KCAL/MOL
REMARK 922        TOTAL FREE ENERGY PREDICTED BY IDOCK:   -5.32 KCAL/MOL
REMARK 923 INTER-LIGAND FREE ENERGY PREDICTED BY IDOCK:   -5.03 KCAL/MOL
REMARK 924 INTRA-LIGAND FREE ENERGY PREDICTED BY IDOCK:   -0.30 KCAL/MOL
REMARK 927      BINDING AFFINITY PREDICTED BY RF-SCORE:    0.00 PKD
ROOT
HETATM    1  C   UNL     1      -9.524  10.618  62.687  1.00  0.00    -0.332 C  
HETATM    2  C   UNL     1      -8.332  10.470  63.585  1.00  0.00    -0.108 A  
HETATM    3  C   UNL     1      -8.470  10.553  64.979  1.00  0.00    -0.166 A  
HETATM    4  C   UNL     1      -7.342  10.588  65.811  1.00  0.00    -0.137 A  
HETATM    5  C   UNL     1      -6.073  10.442  65.227  1.00  0.00    -0.130 A  
HETATM    6  C   UNL     1      -5.933  10.272  63.850  1.00  0.00    -0.133 A  
HETATM    7  C   UNL     1      -7.057  10.305  63.030  1.00  0.00    -0.119 A  
ENDROOT
BRANCH   4   8
HETATM    8  C   UNL     1      -7.497  10.876  67.302  1.00  0.00    -0.104 C  
BRANCH   8   9
HETATM    9  N   UNL     1      -7.315   9.687  68.151  1.00  0.00    -0.080 NA 
HETATM   10  C   UNL     1      -7.926   9.808  69.496  1.00  0.00    -0.137 C  
HETATM   11  C   UNL     1      -9.360   9.225  69.751  1.00  0.00    -0.188 C  
HETATM   12  N   UNL     1      -9.840   8.111  68.892  1.00  0.00    -0.171 NA 
HETATM   13  C   UNL     1      -9.339   8.400  67.530  1.00  0.00    -0.147 C  
HETATM   14  C   UNL     1      -7.811   8.488  67.472  1.00  0.00    -0.099 C  
BRANCH  12  15
HETATM   15  C   UNL     1      -9.417   6.747  69.359  1.00  0.00    -0.147 C  
BRANCH  15  16
HETATM   16  C   UNL     1      -9.957   6.379  70.744  1.00  0.00    -0.212 A  
HETATM   17  C   UNL     1      -9.036   6.155  71.795  1.00  0.00    -0.145 A  
HETATM   18  C   UNL     1     -11.317   6.334  71.025  1.00  0.00    -0.378 A  
HETATM   19  C   UNL     1      -9.483   5.925  73.097  1.00  0.00    -0.143 A  
HETATM   20  C   UNL     1     -10.846   5.903  73.365  1.00  0.00    -0.275 A  
HETATM   21  C   UNL     1     -11.762   6.094  72.329  1.00  0.00    -0.352 A  
ENDBRANCH  15  16
BRANCH  15  22
HETATM   22  C   UNL     1      -9.677   5.660  68.294  1.00  0.00    -0.160 A  
HETATM   23  C   UNL     1      -9.756   4.051  65.989  1.00  0.00    -0.187 A  
HETATM   24  C   UNL     1      -8.720   4.650  68.087  1.00  0.00    -0.113 A  
HETATM   25 CL   UNL     1      -9.705   3.186  64.501  1.00  0.00    -0.154 Cl 
HETATM   26  C   UNL     1     -10.768   4.978  66.216  1.00  0.00    -0.262 A  
HETATM   27  C   UNL     1     -10.752   5.752  67.381  1.00  0.00    -0.332 A  
HETATM   28  C   UNL     1      -8.757   3.854  66.938  1.00  0.00    -0.114 A  
ENDBRANCH  15  22
ENDBRANCH  12  15
ENDBRANCH   8   9
ENDBRANCH   4   8
TORSDOF 5
ENDMDL
MODEL      127
REMARK 921   NORMALIZED FREE ENERGY PREDICTED BY IDOCK:   -3.50 KCAL/MOL
REMARK 922        TOTAL FREE ENERGY PREDICTED BY IDOCK:   -5.23 KCAL/MOL
REMARK 923 INTER-LIGAND FREE ENERGY PREDICTED BY IDOCK:   -7.66 KCAL/MOL
REMARK 924 INTRA-LIGAND FREE ENERGY PREDICTED BY IDOCK:    2.43 KCAL/MOL
REMARK 927      BINDING AFFINITY PREDICTED BY RF-SCORE:    0.00 PKD
ROOT
HETATM    1  C   UNL     1     -10.661   6.486  67.070  1.00  0.00    -0.402 C  
HETATM    2  C   UNL     1     -10.516   7.558  68.109  1.00  0.00    -0.233 A  
HETATM    3  C   UNL     1      -9.871   8.767  67.806  1.00  0.00    -0.217 A  
HETATM    4  C   UNL     1      -9.582   9.698  68.814  1.00  0.00    -0.153 A  
HETATM    5  C   UNL     1     -10.037   9.439  70.118  1.00  0.00    -0.273 A  
HETATM    6  C   UNL     1     -10.755   8.279  70.409  1.00  0.00    -0.239 A  
HETATM    7  C   UNL     1     -10.977   7.334  69.412  1.00  0.00    -0.157 A  
ENDROOT
BRANCH   4   8
HETATM    8  C   UNL     1      -8.710  10.913  68.509  1.00  0.00    -0.153 C  
BRANCH   8   9
HETATM    9  N   UNL     1      -9.337  11.867  67.580  1.00  0.00    -0.178 NA 
HETATM   10  C   UNL     1     -10.791  12.051  67.798  1.00  0.00    -0.215 C  
HETATM   11  C   UNL     1     -11.299  13.250  68.674  1.00  0.00    -0.288 C  
HETATM   12  N   UNL     1     -10.443  14.459  68.791  1.00  0.00    -0.241 NA 
HETATM   13  C   UNL     1      -9.049  13.969  68.861  1.00  0.00     0.050 C  
HETATM   14  C   UNL     1      -8.648  13.158  67.624  1.00  0.00    -0.193 C  
BRANCH  12  15
HETATM   15  C   UNL     1     -10.625  15.453  67.678  1.00  0.00    -0.280 C  
BRANCH  15  16
HETATM   16  C   UNL     1      -9.418  16.373  67.475  1.00  0.00    -0.224 A  
HETATM   17  C   UNL     1      -9.021  17.218  68.537  1.00  0.00    -0.273 A  
HETATM   18  C   UNL     1      -8.652  16.351  66.315  1.00  0.00    -0.375 A  
HETATM   19  C   UNL     1      -7.864  17.993  68.439  1.00  0.00    -0.300 A  
HETATM   20  C   UNL     1      -7.099  17.945  67.280  1.00  0.00    -0.201 A  
HETATM   21  C   UNL     1      -7.499  17.135  66.214  1.00  0.00    -0.344 A  
ENDBRANCH  15  16
BRANCH  15  22
HETATM   22  C   UNL     1     -11.109  14.784  66.373  1.00  0.00    -0.340 A  
HETATM   23  C   UNL     1     -11.930  13.017  64.345  1.00  0.00    -0.397 A  
HETATM   24  C   UNL     1     -12.459  14.410  66.247  1.00  0.00    -0.239 A  
HETATM   25 CL   UNL     1     -12.399  11.806  63.214  1.00  0.00    -0.553 Cl 
HETATM   26  C   UNL     1     -10.606  13.445  64.391  1.00  0.00    -0.423 A  
HETATM   27  C   UNL     1     -10.205  14.355  65.375  1.00  0.00    -0.408 A  
HETATM   28  C   UNL     1     -12.865  13.527  65.241  1.00  0.00    -0.410 A  
ENDBRANCH  15  22
ENDBRANCH  12  15
ENDBRANCH   8   9
ENDBRANCH   4   8
TORSDOF 5
ENDMDL
MODEL      128
REMARK 921   NORMALIZED FREE ENERGY PREDICTED BY IDOCK:   -3.49 KCAL/MOL
REMARK 922        TOTAL FREE ENERGY PREDICTED BY IDOCK:   -5.22 KCAL/MOL
REMARK 923 INTER-LIGAND FREE ENERGY PREDICTED BY IDOCK:   -4.62 KCAL/MOL
REMARK 924 INTRA-LIGAND FREE ENERGY PREDICTED BY IDOCK:   -0.60 KCAL/MOL
REMARK 927      BINDING AFFINITY PREDICTED BY RF-SCORE:    0.00 PKD
ROOT
HETATM    1  C   UNL     1      -9.525   1.719  68.670  1.00  0.00    -0.218 C  
HETATM    2  C   UNL     1      -9.229   2.864  67.747  1.00  0.00    -0.250 A  
HETATM    3  C   UNL     1      -9.972   4.053  67.819  1.00  0.00     0.008 A  
HETATM    4  C   UNL     1      -9.817   5.056  66.852  1.00  0.00    -0.209 A  
HETATM    5  C   UNL     1      -8.833   4.887  65.862  1.00  0.00    -0.130 A  
HETATM    6  C   UNL     1      -8.032   3.747  65.836  1.00  0.00    -0.093 A  
HETATM    7  C   UNL     1      -8.242   2.731  66.764  1.00  0.00    -0.087 A  
ENDROOT
BRANCH   4   8
HETATM    8  C   UNL     1     -10.765   6.252  66.827  1.00  0.00    -0.293 C  
BRANCH   8   9
HETATM    9  N   UNL     1     -10.355   7.343  67.725  1.00  0.00    -0.198 NA 
HETATM   10  C   UNL     1      -8.887   7.516  67.832  1.00  0.00    -0.126 C  
HETATM   11  C   UNL     1      -8.163   8.578  66.932  1.00  0.00    -0.106 C  
HETATM   12  N   UNL     1      -8.943   9.743  66.438  1.00  0.00    -0.148 NA 
HETATM   13  C   UNL     1     -10.291   9.225  66.114  1.00  0.00    -0.048 C  
HETATM   14  C   UNL     1     -10.988   8.603  67.328  1.00  0.00     0.187 C  
BRANCH  12  15
HETATM   15  C   UNL     1      -9.009  10.894  67.401  1.00  0.00    -0.136 C  
BRANCH  15  16
HETATM   16  C   UNL     1      -7.644  11.300  67.965  1.00  0.00    -0.105 A  
HETATM   17  C   UNL     1      -6.673  11.827  67.082  1.00  0.00    -0.145 A  
HETATM   18  C   UNL     1      -7.354  11.244  69.324  1.00  0.00    -0.068 A  
HETATM   19  C   UNL     1      -5.457  12.312  67.567  1.00  0.00    -0.118 A  
HETATM   20  C   UNL     1      -5.190  12.266  68.929  1.00  0.00    -0.054 A  
HETATM   21  C   UNL     1      -6.131  11.721  69.805  1.00  0.00    -0.136 A  
ENDBRANCH  15  16
BRANCH  15  22
HETATM   22  C   UNL     1      -9.812  12.084  66.833  1.00  0.00    -0.217 A  
HETATM   23  C   UNL     1     -10.683  14.493  65.672  1.00  0.00    -0.327 A  
HETATM   24  C   UNL     1     -10.017  12.182  65.445  1.00  0.00    -0.269 A  
HETATM   25 CL   UNL     1     -11.048  16.011  64.947  1.00  0.00    -0.428 Cl 
HETATM   26  C   UNL     1     -10.579  14.394  67.056  1.00  0.00    -0.274 A  
HETATM   27  C   UNL     1     -10.184  13.185  67.638  1.00  0.00    -0.224 A  
HETATM   28  C   UNL     1     -10.444  13.382  64.868  1.00  0.00    -0.404 A  
ENDBRANCH  15  22
ENDBRANCH  12  15
ENDBRANCH   8   9
ENDBRANCH   4   8
TORSDOF 5
ENDMDL
MODEL      129
REMARK 921   NORMALIZED FREE ENERGY PREDICTED BY IDOCK:   -3.39 KCAL/MOL
REMARK 922        TOTAL FREE ENERGY PREDICTED BY IDOCK:   -5.09 KCAL/MOL
REMARK 923 INTER-LIGAND FREE ENERGY PREDICTED BY IDOCK:   -5.09 KCAL/MOL
REMARK 924 INTRA-LIGAND FREE ENERGY PREDICTED BY IDOCK:   -0.00 KCAL/MOL
REMARK 927      BINDING AFFINITY PREDICTED BY RF-SCORE:    0.00 PKD
ROOT
HETATM    1  C   UNL     1      -9.856  19.798  68.932  1.00  0.00    -0.454 C  
HETATM    2  C   UNL     1      -8.633  19.154  68.350  1.00  0.00    -0.387 A  
HETATM    3  C   UNL     1      -8.565  17.761  68.187  1.00  0.00    -0.262 A  
HETATM    4  C   UNL     1      -7.366  17.141  67.807  1.00  0.00    -0.179 A  
HETATM    5  C   UNL     1      -6.260  17.951  67.498  1.00  0.00    -0.171 A  
HETATM    6  C   UNL     1      -6.346  19.340  67.575  1.00  0.00    -0.215 A  
HETATM    7  C   UNL     1      -7.522  19.938  68.017  1.00  0.00    -0.332 A  
ENDROOT
BRANCH   4   8
HETATM    8  C   UNL     1      -7.250  15.619  67.824  1.00  0.00    -0.155 C  
BRANCH   8   9
HETATM    9  N   UNL     1      -8.540  14.931  67.654  1.00  0.00    -0.165 NA 
HETATM   10  C   UNL     1      -8.724  14.319  66.316  1.00  0.00     0.300 C  
HETATM   11  C   UNL     1      -8.388  12.801  66.105  1.00  0.00     0.772 C  
HETATM   12  N   UNL     1      -8.449  11.888  67.276  1.00  0.00    -0.164 NA 
HETATM   13  C   UNL     1      -7.921  12.658  68.423  1.00  0.00    -0.134 C  
HETATM   14  C   UNL     1      -8.731  13.928  68.703  1.00  0.00    -0.075 C  
BRANCH  12  15
HETATM   15  C   UNL     1      -9.820  11.342  67.561  1.00  0.00    -0.178 C  
BRANCH  15  16
HETATM   16  C   UNL     1     -10.898  11.863  66.607  1.00  0.00    -0.315 A  
HETATM   17  C   UNL     1     -11.831  12.811  67.088  1.00  0.00    -0.415 A  
HETATM   18  C   UNL     1     -10.944  11.499  65.266  1.00  0.00    -0.291 A  
HETATM   19  C   UNL     1     -12.762  13.396  66.227  1.00  0.00    -0.059 A  
HETATM   20  C   UNL     1     -12.783  13.035  64.886  1.00  0.00    -0.456 A  
HETATM   21  C   UNL     1     -11.884  12.079  64.408  1.00  0.00    -0.395 A  
ENDBRANCH  15  16
BRANCH  15  22
HETATM   22  C   UNL     1      -9.818   9.804  67.698  1.00  0.00    -0.202 A  
HETATM   23  C   UNL     1      -9.167   7.075  67.888  1.00  0.00    -0.125 A  
HETATM   24  C   UNL     1      -9.516   9.220  68.942  1.00  0.00    -0.154 A  
HETATM   25 CL   UNL     1      -8.603   5.450  67.977  1.00  0.00    -0.101 Cl 
HETATM   26  C   UNL     1      -9.552   7.607  66.661  1.00  0.00    -0.271 A  
HETATM   27  C   UNL     1      -9.915   8.955  66.572  1.00  0.00    -0.358 A  
HETATM   28  C   UNL     1      -9.188   7.864  69.034  1.00  0.00    -0.147 A  
ENDBRANCH  15  22
ENDBRANCH  12  15
ENDBRANCH   8   9
ENDBRANCH   4   8
TORSDOF 5
ENDMDL
MODEL      130
REMARK 921   NORMALIZED FREE ENERGY PREDICTED BY IDOCK:   -3.29 KCAL/MOL
REMARK 922        TOTAL FREE ENERGY PREDICTED BY IDOCK:   -4.96 KCAL/MOL
REMARK 923 INTER-LIGAND FREE ENERGY PREDICTED BY IDOCK:   -6.39 KCAL/MOL
REMARK 924 INTRA-LIGAND FREE ENERGY PREDICTED BY IDOCK:    1.43 KCAL/MOL
REMARK 927      BINDING AFFINITY PREDICTED BY RF-SCORE:    0.00 PKD
ROOT
HETATM    1  C   UNL     1     -12.579  15.385  63.839  1.00  0.00     0.537 C  
HETATM    2  C   UNL     1     -11.415  14.859  64.627  1.00  0.00    -0.380 A  
HETATM    3  C   UNL     1     -10.895  13.581  64.369  1.00  0.00    -0.403 A  
HETATM    4  C   UNL     1      -9.925  13.018  65.212  1.00  0.00    -0.186 A  
HETATM    5  C   UNL     1      -9.415  13.799  66.263  1.00  0.00    -0.221 A  
HETATM    6  C   UNL     1      -9.866  15.102  66.472  1.00  0.00    -0.278 A  
HETATM    7  C   UNL     1     -10.876  15.623  65.669  1.00  0.00    -0.336 A  
ENDROOT
BRANCH   4   8
HETATM    8  C   UNL     1      -9.511  11.559  65.038  1.00  0.00    -0.152 C  
BRANCH   8   9
HETATM    9  N   UNL     1     -10.410  10.611  65.716  1.00  0.00    -0.244 NA 
HETATM   10  C   UNL     1      -9.800   9.286  65.977  1.00  0.00    -0.293 C  
HETATM   11  C   UNL     1      -9.154   8.990  67.376  1.00  0.00    -0.131 C  
HETATM   12  N   UNL     1      -9.633   9.754  68.557  1.00  0.00    -0.147 NA 
HETATM   13  C   UNL     1      -9.882  11.133  68.081  1.00  0.00    -0.180 C  
HETATM   14  C   UNL     1     -10.924  11.187  66.960  1.00  0.00    -0.289 C  
BRANCH  12  15
HETATM   15  C   UNL     1     -10.850   9.169  69.217  1.00  0.00    -0.132 C  
BRANCH  15  16
HETATM   16  C   UNL     1     -10.623   7.768  69.791  1.00  0.00    -0.241 A  
HETATM   17  C   UNL     1     -11.162   6.656  69.104  1.00  0.00    -0.305 A  
HETATM   18  C   UNL     1      -9.840   7.544  70.918  1.00  0.00    -0.177 A  
HETATM   19  C   UNL     1     -10.889   5.354  69.528  1.00  0.00    -0.127 A  
HETATM   20  C   UNL     1     -10.089   5.147  70.644  1.00  0.00    -0.309 A  
HETATM   21  C   UNL     1      -9.575   6.240  71.346  1.00  0.00    -0.170 A  
ENDBRANCH  15  16
BRANCH  15  22
HETATM   22  C   UNL     1     -11.493  10.145  70.226  1.00  0.00    -0.381 A  
HETATM   23  C   UNL     1     -13.172  11.892  71.654  1.00  0.00    -0.262 A  
HETATM   24  C   UNL     1     -12.392   9.653  71.189  1.00  0.00    -0.427 A  
HETATM   25 CL   UNL     1     -14.314  12.942  72.400  1.00  0.00    -0.156 Cl 
HETATM   26  C   UNL     1     -12.226  12.411  70.776  1.00  0.00    -0.336 A  
HETATM   27  C   UNL     1     -11.363  11.546  70.094  1.00  0.00    -0.146 A  
HETATM   28  C   UNL     1     -13.230  10.522  71.895  1.00  0.00    -0.526 A  
ENDBRANCH  15  22
ENDBRANCH  12  15
ENDBRANCH   8   9
ENDBRANCH   4   8
TORSDOF 5
ENDMDL
MODEL      131
REMARK 921   NORMALIZED FREE ENERGY PREDICTED BY IDOCK:   -3.29 KCAL/MOL
REMARK 922        TOTAL FREE ENERGY PREDICTED BY IDOCK:   -4.95 KCAL/MOL
REMARK 923 INTER-LIGAND FREE ENERGY PREDICTED BY IDOCK:   -5.25 KCAL/MOL
REMARK 924 INTRA-LIGAND FREE ENERGY PREDICTED BY IDOCK:    0.30 KCAL/MOL
REMARK 927      BINDING AFFINITY PREDICTED BY RF-SCORE:    0.00 PKD
ROOT
HETATM    1  C   UNL     1     -11.941  13.901  69.461  1.00  0.00    -0.396 C  
HETATM    2  C   UNL     1     -11.661  14.593  68.160  1.00  0.00    -0.360 A  
HETATM    3  C   UNL     1     -11.955  13.967  66.938  1.00  0.00    -0.479 A  
HETATM    4  C   UNL     1     -11.539  14.533  65.724  1.00  0.00    -0.347 A  
HETATM    5  C   UNL     1     -10.907  15.788  65.750  1.00  0.00    -0.286 A  
HETATM    6  C   UNL     1     -10.690  16.456  66.954  1.00  0.00    -0.202 A  
HETATM    7  C   UNL     1     -11.049  15.852  68.156  1.00  0.00    -0.338 A  
ENDROOT
BRANCH   4   8
HETATM    8  C   UNL     1     -11.689  13.751  64.422  1.00  0.00    -0.408 C  
BRANCH   8   9
HETATM    9  N   UNL     1     -10.553  12.859  64.140  1.00  0.00    -0.411 NA 
HETATM   10  C   UNL     1      -9.464  12.936  65.143  1.00  0.00     0.324 C  
HETATM   11  C   UNL     1      -9.418  11.897  66.318  1.00  0.00    -0.227 C  
HETATM   12  N   UNL     1     -10.060  10.571  66.122  1.00  0.00    -0.237 NA 
HETATM   13  C   UNL     1     -11.293  10.824  65.345  1.00  0.00     0.595 C  
HETATM   14  C   UNL     1     -11.009  11.476  63.988  1.00  0.00    -0.383 C  
BRANCH  12  15
HETATM   15  C   UNL     1      -9.182   9.553  65.451  1.00  0.00    -0.247 C  
BRANCH  15  16
HETATM   16  C   UNL     1      -7.733  10.015  65.273  1.00  0.00    -0.139 A  
HETATM   17  C   UNL     1      -7.179  10.032  63.972  1.00  0.00    -0.129 A  
HETATM   18  C   UNL     1      -6.970  10.494  66.332  1.00  0.00    -0.124 A  
HETATM   19  C   UNL     1      -5.902  10.547  63.747  1.00  0.00    -0.080 A  
HETATM   20  C   UNL     1      -5.159  11.039  64.813  1.00  0.00     0.061 A  
HETATM   21  C   UNL     1      -5.687  11.001  66.106  1.00  0.00    -0.143 A  
ENDBRANCH  15  16
BRANCH  15  22
HETATM   22  C   UNL     1      -9.302   8.159  66.102  1.00  0.00    -0.232 A  
HETATM   23  C   UNL     1      -9.737   5.445  66.697  1.00  0.00    -0.161 A  
HETATM   24  C   UNL     1      -8.294   7.202  65.883  1.00  0.00    -0.141 A  
HETATM   25 CL   UNL     1     -10.065   3.766  66.901  1.00  0.00     0.125 Cl 
HETATM   26  C   UNL     1     -10.715   6.383  67.011  1.00  0.00    -0.434 A  
HETATM   27  C   UNL     1     -10.485   7.739  66.752  1.00  0.00    -0.318 A  
HETATM   28  C   UNL     1      -8.513   5.853  66.175  1.00  0.00    -0.132 A  
ENDBRANCH  15  22
ENDBRANCH  12  15
ENDBRANCH   8   9
ENDBRANCH   4   8
TORSDOF 5
ENDMDL
MODEL      132
REMARK 921   NORMALIZED FREE ENERGY PREDICTED BY IDOCK:   -3.26 KCAL/MOL
REMARK 922        TOTAL FREE ENERGY PREDICTED BY IDOCK:   -4.92 KCAL/MOL
REMARK 923 INTER-LIGAND FREE ENERGY PREDICTED BY IDOCK:   -4.40 KCAL/MOL
REMARK 924 INTRA-LIGAND FREE ENERGY PREDICTED BY IDOCK:   -0.52 KCAL/MOL
REMARK 927      BINDING AFFINITY PREDICTED BY RF-SCORE:    0.00 PKD
ROOT
HETATM    1  C   UNL     1      -6.420  18.457  65.562  1.00  0.00    -0.303 C  
HETATM    2  C   UNL     1      -6.850  17.612  66.724  1.00  0.00    -0.234 A  
HETATM    3  C   UNL     1      -6.238  16.374  66.974  1.00  0.00    -0.155 A  
HETATM    4  C   UNL     1      -6.748  15.505  67.950  1.00  0.00    -0.172 A  
HETATM    5  C   UNL     1      -7.827  15.941  68.738  1.00  0.00    -0.185 A  
HETATM    6  C   UNL     1      -8.384  17.205  68.553  1.00  0.00    -0.262 A  
HETATM    7  C   UNL     1      -7.910  18.030  67.537  1.00  0.00    -0.217 A  
ENDROOT
BRANCH   4   8
HETATM    8  C   UNL     1      -6.199  14.086  68.077  1.00  0.00    -0.142 C  
BRANCH   8   9
HETATM    9  N   UNL     1      -6.901  13.108  67.231  1.00  0.00    -0.121 NA 
HETATM   10  C   UNL     1      -6.109  11.891  66.935  1.00  0.00    -0.120 C  
HETATM   11  C   UNL     1      -6.301  10.606  67.816  1.00  0.00    -0.059 C  
HETATM   12  N   UNL     1      -7.597  10.411  68.517  1.00  0.00    -0.091 NA 
HETATM   13  C   UNL     1      -8.019  11.752  68.979  1.00  0.00     0.103 C  
HETATM   14  C   UNL     1      -8.189  12.744  67.824  1.00  0.00    -0.176 C  
BRANCH  12  15
HETATM   15  C   UNL     1      -8.659   9.756  67.679  1.00  0.00    -0.125 C  
BRANCH  15  16
HETATM   16  C   UNL     1      -8.211   8.437  67.043  1.00  0.00    -0.107 A  
HETATM   17  C   UNL     1      -7.458   7.528  67.822  1.00  0.00    -0.101 A  
HETATM   18  C   UNL     1      -8.583   8.067  65.756  1.00  0.00    -0.174 A  
HETATM   19  C   UNL     1      -7.122   6.268  67.322  1.00  0.00    -0.073 A  
HETATM   20  C   UNL     1      -7.518   5.907  66.041  1.00  0.00    -0.085 A  
HETATM   21  C   UNL     1      -8.236   6.809  65.253  1.00  0.00    -0.127 A  
ENDBRANCH  15  16
BRANCH  15  22
HETATM   22  C   UNL     1     -10.006   9.646  68.426  1.00  0.00    -0.178 A  
HETATM   23  C   UNL     1     -12.202   9.916  70.162  1.00  0.00     0.029 A  
HETATM   24  C   UNL     1     -11.022  10.582  68.162  1.00  0.00    -0.330 A  
HETATM   25 CL   UNL     1     -13.452  10.196  71.313  1.00  0.00    -0.362 Cl 
HETATM   26  C   UNL     1     -11.259   8.919  70.395  1.00  0.00    -0.259 A  
HETATM   27  C   UNL     1     -10.187   8.758  69.510  1.00  0.00    -0.208 A  
HETATM   28  C   UNL     1     -12.111  10.718  69.029  1.00  0.00    -0.170 A  
ENDBRANCH  15  22
ENDBRANCH  12  15
ENDBRANCH   8   9
ENDBRANCH   4   8
TORSDOF 5
ENDMDL
MODEL      133
REMARK 921   NORMALIZED FREE ENERGY PREDICTED BY IDOCK:   -3.24 KCAL/MOL
REMARK 922        TOTAL FREE ENERGY PREDICTED BY IDOCK:   -4.90 KCAL/MOL
REMARK 923 INTER-LIGAND FREE ENERGY PREDICTED BY IDOCK:   -7.63 KCAL/MOL
REMARK 924 INTRA-LIGAND FREE ENERGY PREDICTED BY IDOCK:    2.73 KCAL/MOL
REMARK 927      BINDING AFFINITY PREDICTED BY RF-SCORE:    0.00 PKD
ROOT
HETATM    1  C   UNL     1     -10.846   6.027  69.489  1.00  0.00    -0.439 C  
HETATM    2  C   UNL     1     -10.940   7.482  69.841  1.00  0.00    -0.223 A  
HETATM    3  C   UNL     1     -10.099   8.423  69.226  1.00  0.00    -0.202 A  
HETATM    4  C   UNL     1     -10.062   9.752  69.673  1.00  0.00    -0.250 A  
HETATM    5  C   UNL     1     -10.954  10.145  70.685  1.00  0.00    -0.357 A  
HETATM    6  C   UNL     1     -11.852   9.235  71.241  1.00  0.00    -0.415 A  
HETATM    7  C   UNL     1     -11.832   7.904  70.834  1.00  0.00    -0.242 A  
ENDROOT
BRANCH   4   8
HETATM    8  C   UNL     1      -9.008  10.714  69.132  1.00  0.00    -0.128 C  
BRANCH   8   9
HETATM    9  N   UNL     1      -9.424  11.409  67.903  1.00  0.00    -0.169 NA 
HETATM   10  C   UNL     1     -10.748  10.983  67.390  1.00  0.00    -0.257 C  
HETATM   11  C   UNL     1     -12.027  11.811  67.764  1.00  0.00    -0.064 C  
HETATM   12  N   UNL     1     -11.870  13.248  68.110  1.00  0.00    -0.353 NA 
HETATM   13  C   UNL     1     -10.615  13.347  68.886  1.00  0.00    -0.155 C  
HETATM   14  C   UNL     1      -9.396  12.860  68.096  1.00  0.00    -0.214 C  
BRANCH  12  15
HETATM   15  C   UNL     1     -11.862  14.170  66.924  1.00  0.00    -0.431 C  
BRANCH  15  16
HETATM   16  C   UNL     1     -11.108  15.480  67.170  1.00  0.00    -0.256 A  
HETATM   17  C   UNL     1     -10.437  16.093  66.086  1.00  0.00    -0.334 A  
HETATM   18  C   UNL     1     -11.126  16.129  68.400  1.00  0.00    -0.359 A  
HETATM   19  C   UNL     1      -9.830  17.341  66.237  1.00  0.00    -0.299 A  
HETATM   20  C   UNL     1      -9.873  17.985  67.467  1.00  0.00    -0.309 A  
HETATM   21  C   UNL     1     -10.509  17.375  68.551  1.00  0.00    -0.370 A  
ENDBRANCH  15  16
BRANCH  15  22
HETATM   22  C   UNL     1     -11.426  13.451  65.629  1.00  0.00    -0.335 A  
HETATM   23  C   UNL     1     -10.536  11.634  63.675  1.00  0.00    -0.433 A  
HETATM   24  C   UNL     1     -12.331  12.596  64.974  1.00  0.00    -0.561 A  
HETATM   25 CL   UNL     1      -9.965  10.410  62.607  1.00  0.00    -0.080 Cl 
HETATM   26  C   UNL     1      -9.637  12.533  64.240  1.00  0.00     0.183 A  
HETATM   27  C   UNL     1     -10.085  13.464  65.183  1.00  0.00    -0.266 A  
HETATM   28  C   UNL     1     -11.887  11.690  64.006  1.00  0.00    -0.307 A  
ENDBRANCH  15  22
ENDBRANCH  12  15
ENDBRANCH   8   9
ENDBRANCH   4   8
TORSDOF 5
ENDMDL
MODEL      134
REMARK 921   NORMALIZED FREE ENERGY PREDICTED BY IDOCK:   -3.23 KCAL/MOL
REMARK 922        TOTAL FREE ENERGY PREDICTED BY IDOCK:   -4.88 KCAL/MOL
REMARK 923 INTER-LIGAND FREE ENERGY PREDICTED BY IDOCK:   -7.21 KCAL/MOL
REMARK 924 INTRA-LIGAND FREE ENERGY PREDICTED BY IDOCK:    2.33 KCAL/MOL
REMARK 927      BINDING AFFINITY PREDICTED BY RF-SCORE:    0.00 PKD
ROOT
HETATM    1  C   UNL     1     -12.162  12.998  63.335  1.00  0.00    -0.552 C  
HETATM    2  C   UNL     1     -11.696  12.785  64.745  1.00  0.00    -0.398 A  
HETATM    3  C   UNL     1     -10.805  11.745  65.055  1.00  0.00    -0.350 A  
HETATM    4  C   UNL     1     -10.501  11.434  66.388  1.00  0.00    -0.299 A  
HETATM    5  C   UNL     1     -11.032  12.247  67.404  1.00  0.00    -0.298 A  
HETATM    6  C   UNL     1     -11.849  13.334  67.099  1.00  0.00    -0.424 A  
HETATM    7  C   UNL     1     -12.195  13.591  65.775  1.00  0.00    -0.505 A  
ENDROOT
BRANCH   4   8
HETATM    8  C   UNL     1      -9.691  10.184  66.719  1.00  0.00    -0.187 C  
BRANCH   8   9
HETATM    9  N   UNL     1     -10.235   9.414  67.849  1.00  0.00    -0.198 NA 
HETATM   10  C   UNL     1     -10.525   7.997  67.528  1.00  0.00    -0.260 C  
HETATM   11  C   UNL     1      -9.461   6.892  67.861  1.00  0.00    -0.120 C  
HETATM   12  N   UNL     1      -8.486   7.148  68.953  1.00  0.00    -0.126 NA 
HETATM   13  C   UNL     1      -8.128   8.581  68.855  1.00  0.00    -0.119 C  
HETATM   14  C   UNL     1      -9.343   9.501  69.008  1.00  0.00    -0.155 C  
BRANCH  12  15
HETATM   15  C   UNL     1      -8.990   6.797  70.324  1.00  0.00    -0.152 C  
BRANCH  15  16
HETATM   16  C   UNL     1      -7.974   7.061  71.438  1.00  0.00    -0.103 A  
HETATM   17  C   UNL     1      -8.443   7.225  72.762  1.00  0.00    -0.132 A  
HETATM   18  C   UNL     1      -6.603   7.067  71.208  1.00  0.00    -0.045 A  
HETATM   19  C   UNL     1      -7.548   7.359  73.825  1.00  0.00    -0.132 A  
HETATM   20  C   UNL     1      -6.181   7.343  73.581  1.00  0.00    -0.064 A  
HETATM   21  C   UNL     1      -5.708   7.211  72.273  1.00  0.00    -0.037 A  
ENDBRANCH  15  16
BRANCH  15  22
HETATM   22  C   UNL     1     -10.380   7.407  70.609  1.00  0.00    -0.217 A  
HETATM   23  C   UNL     1     -12.802   8.292  71.731  1.00  0.00    -0.338 A  
HETATM   24  C   UNL     1     -10.469   8.666  71.230  1.00  0.00    -0.311 A  
HETATM   25 CL   UNL     1     -14.236   8.755  72.564  1.00  0.00    -0.472 Cl 
HETATM   26  C   UNL     1     -12.764   7.084  71.040  1.00  0.00    -0.300 A  
HETATM   27  C   UNL     1     -11.569   6.661  70.447  1.00  0.00    -0.457 A  
HETATM   28  C   UNL     1     -11.673   9.103  71.792  1.00  0.00    -0.456 A  
ENDBRANCH  15  22
ENDBRANCH  12  15
ENDBRANCH   8   9
ENDBRANCH   4   8
TORSDOF 5
ENDMDL
MODEL      135
REMARK 921   NORMALIZED FREE ENERGY PREDICTED BY IDOCK:   -3.20 KCAL/MOL
REMARK 922        TOTAL FREE ENERGY PREDICTED BY IDOCK:   -4.84 KCAL/MOL
REMARK 923 INTER-LIGAND FREE ENERGY PREDICTED BY IDOCK:   -4.54 KCAL/MOL
REMARK 924 INTRA-LIGAND FREE ENERGY PREDICTED BY IDOCK:   -0.30 KCAL/MOL
REMARK 927      BINDING AFFINITY PREDICTED BY RF-SCORE:    0.00 PKD
ROOT
HETATM    1  C   UNL     1     -11.180   3.827  72.926  1.00  0.00     0.026 C  
HETATM    2  C   UNL     1     -10.025   4.288  72.088  1.00  0.00    -0.246 A  
HETATM    3  C   UNL     1      -9.571   5.614  72.162  1.00  0.00    -0.170 A  
HETATM    4  C   UNL     1      -8.610   6.095  71.261  1.00  0.00    -0.129 A  
HETATM    5  C   UNL     1      -8.041   5.195  70.343  1.00  0.00    -0.090 A  
HETATM    6  C   UNL     1      -8.426   3.856  70.321  1.00  0.00    -0.091 A  
HETATM    7  C   UNL     1      -9.428   3.408  71.178  1.00  0.00    -0.224 A  
ENDROOT
BRANCH   4   8
HETATM    8  C   UNL     1      -8.269   7.583  71.223  1.00  0.00    -0.100 C  
BRANCH   8   9
HETATM    9  N   UNL     1      -7.799   8.044  69.907  1.00  0.00    -0.100 NA 
HETATM   10  C   UNL     1      -8.711   7.703  68.789  1.00  0.00    -0.128 C  
HETATM   11  C   UNL     1      -9.759   8.760  68.293  1.00  0.00    -0.158 C  
HETATM   12  N   UNL     1      -9.475  10.202  68.514  1.00  0.00    -0.153 NA 
HETATM   13  C   UNL     1      -8.835  10.295  69.845  1.00  0.00     0.054 C  
HETATM   14  C   UNL     1      -7.537   9.484  69.929  1.00  0.00    -0.123 C  
BRANCH  12  15
HETATM   15  C   UNL     1      -8.627  10.834  67.447  1.00  0.00    -0.126 C  
BRANCH  15  16
HETATM   16  C   UNL     1      -9.304  10.883  66.075  1.00  0.00    -0.215 A  
HETATM   17  C   UNL     1     -10.579  11.487  65.967  1.00  0.00    -0.310 A  
HETATM   18  C   UNL     1      -8.679  10.428  64.919  1.00  0.00    -0.197 A  
HETATM   19  C   UNL     1     -11.187  11.653  64.721  1.00  0.00    -0.300 A  
HETATM   20  C   UNL     1     -10.540  11.210  63.574  1.00  0.00    -0.393 A  
HETATM   21  C   UNL     1      -9.294  10.587  63.674  1.00  0.00    -0.324 A  
ENDBRANCH  15  16
BRANCH  15  22
HETATM   22  C   UNL     1      -8.050  12.196  67.891  1.00  0.00    -0.153 A  
HETATM   23  C   UNL     1      -7.092  14.833  68.073  1.00  0.00    -0.138 A  
HETATM   24  C   UNL     1      -8.925  13.263  68.165  1.00  0.00    -0.195 A  
HETATM   25 CL   UNL     1      -6.531  16.460  68.013  1.00  0.00    -0.137 Cl 
HETATM   26  C   UNL     1      -6.193  13.785  67.895  1.00  0.00    -0.160 A  
HETATM   27  C   UNL     1      -6.664  12.469  67.844  1.00  0.00    -0.103 A  
HETATM   28  C   UNL     1      -8.448  14.574  68.250  1.00  0.00    -0.161 A  
ENDBRANCH  15  22
ENDBRANCH  12  15
ENDBRANCH   8   9
ENDBRANCH   4   8
TORSDOF 5
ENDMDL
MODEL      136
REMARK 921   NORMALIZED FREE ENERGY PREDICTED BY IDOCK:   -3.19 KCAL/MOL
REMARK 922        TOTAL FREE ENERGY PREDICTED BY IDOCK:   -4.84 KCAL/MOL
REMARK 923 INTER-LIGAND FREE ENERGY PREDICTED BY IDOCK:   -4.68 KCAL/MOL
REMARK 924 INTRA-LIGAND FREE ENERGY PREDICTED BY IDOCK:   -0.16 KCAL/MOL
REMARK 927      BINDING AFFINITY PREDICTED BY RF-SCORE:    0.00 PKD
ROOT
HETATM    1  C   UNL     1      -9.220   3.261  62.624  1.00  0.00    -0.091 C  
HETATM    2  C   UNL     1      -8.640   3.010  63.984  1.00  0.00    -0.089 A  
HETATM    3  C   UNL     1      -9.421   3.178  65.138  1.00  0.00    -0.122 A  
HETATM    4  C   UNL     1      -8.840   3.113  66.413  1.00  0.00    -0.146 A  
HETATM    5  C   UNL     1      -7.479   2.780  66.514  1.00  0.00    -0.071 A  
HETATM    6  C   UNL     1      -6.717   2.526  65.375  1.00  0.00    -0.039 A  
HETATM    7  C   UNL     1      -7.291   2.659  64.113  1.00  0.00    -0.062 A  
ENDROOT
BRANCH   4   8
HETATM    8  C   UNL     1      -9.655   3.491  67.647  1.00  0.00    -0.127 C  
BRANCH   8   9
HETATM    9  N   UNL     1      -9.068   4.597  68.421  1.00  0.00    -0.114 NA 
HETATM   10  C   UNL     1      -8.446   5.652  67.586  1.00  0.00    -0.102 C  
HETATM   11  C   UNL     1      -9.270   6.935  67.215  1.00  0.00    -0.127 C  
HETATM   12  N   UNL     1     -10.378   7.353  68.113  1.00  0.00    -0.187 NA 
HETATM   13  C   UNL     1     -11.029   6.106  68.570  1.00  0.00    -0.320 C  
HETATM   14  C   UNL     1     -10.064   5.182  69.321  1.00  0.00    -0.213 C  
BRANCH  12  15
HETATM   15  C   UNL     1      -9.944   8.208  69.270  1.00  0.00    -0.188 C  
BRANCH  15  16
HETATM   16  C   UNL     1      -8.444   8.512  69.279  1.00  0.00    -0.128 A  
HETATM   17  C   UNL     1      -7.628   7.881  70.248  1.00  0.00    -0.086 A  
HETATM   18  C   UNL     1      -7.842   9.321  68.322  1.00  0.00    -0.098 A  
HETATM   19  C   UNL     1      -6.242   8.041  70.226  1.00  0.00    -0.032 A  
HETATM   20  C   UNL     1      -5.655   8.838  69.252  1.00  0.00    -0.035 A  
HETATM   21  C   UNL     1      -6.454   9.488  68.309  1.00  0.00    -0.053 A  
ENDBRANCH  15  16
BRANCH  15  22
HETATM   22  C   UNL     1     -10.823   9.468  69.426  1.00  0.00    -0.226 A  
HETATM   23  C   UNL     1     -11.848  12.058  69.810  1.00  0.00    -0.331 A  
HETATM   24  C   UNL     1     -10.955  10.358  68.345  1.00  0.00    -0.312 A  
HETATM   25 CL   UNL     1     -12.313  13.695  70.077  1.00  0.00    -0.370 Cl 
HETATM   26  C   UNL     1     -11.815  11.166  70.877  1.00  0.00    -0.237 A  
HETATM   27  C   UNL     1     -11.342   9.865  70.679  1.00  0.00    -0.413 A  
HETATM   28  C   UNL     1     -11.460  11.648  68.538  1.00  0.00    -0.358 A  
ENDBRANCH  15  22
ENDBRANCH  12  15
ENDBRANCH   8   9
ENDBRANCH   4   8
TORSDOF 5
ENDMDL
MODEL      137
REMARK 921   NORMALIZED FREE ENERGY PREDICTED BY IDOCK:   -3.12 KCAL/MOL
REMARK 922        TOTAL FREE ENERGY PREDICTED BY IDOCK:   -4.74 KCAL/MOL
REMARK 923 INTER-LIGAND FREE ENERGY PREDICTED BY IDOCK:   -7.14 KCAL/MOL
REMARK 924 INTRA-LIGAND FREE ENERGY PREDICTED BY IDOCK:    2.40 KCAL/MOL
REMARK 927      BINDING AFFINITY PREDICTED BY RF-SCORE:    0.00 PKD
ROOT
HETATM    1  C   UNL     1     -12.558  16.276  73.813  1.00  0.00    -0.649 C  
HETATM    2  C   UNL     1     -12.585  15.341  72.640  1.00  0.00    -0.470 A  
HETATM    3  C   UNL     1     -12.061  15.735  71.399  1.00  0.00    -0.494 A  
HETATM    4  C   UNL     1     -12.237  14.936  70.260  1.00  0.00    -0.389 A  
HETATM    5  C   UNL     1     -12.866  13.688  70.406  1.00  0.00    -0.108 A  
HETATM    6  C   UNL     1     -13.312  13.253  71.653  1.00  0.00    -0.406 A  
HETATM    7  C   UNL     1     -13.189  14.084  72.762  1.00  0.00    -0.580 A  
ENDROOT
BRANCH   4   8
HETATM    8  C   UNL     1     -11.837  15.463  68.884  1.00  0.00    -0.329 C  
BRANCH   8   9
HETATM    9  N   UNL     1     -10.387  15.425  68.640  1.00  0.00    -0.228 NA 
HETATM   10  C   UNL     1     -10.006  15.680  67.230  1.00  0.00    -0.236 C  
HETATM   11  C   UNL     1      -9.596  17.129  66.787  1.00  0.00    -0.270 C  
HETATM   12  N   UNL     1      -9.051  18.059  67.810  1.00  0.00    -0.259 NA 
HETATM   13  C   UNL     1      -9.819  17.803  69.048  1.00  0.00    -0.225 C  
HETATM   14  C   UNL     1      -9.690  16.355  69.531  1.00  0.00    -0.080 C  
BRANCH  12  15
HETATM   15  C   UNL     1      -7.572  17.924  68.039  1.00  0.00    -0.238 C  
BRANCH  15  16
HETATM   16  C   UNL     1      -7.113  16.478  68.247  1.00  0.00    -0.151 A  
HETATM   17  C   UNL     1      -6.974  15.640  67.116  1.00  0.00    -0.169 A  
HETATM   18  C   UNL     1      -6.752  15.984  69.496  1.00  0.00    -0.199 A  
HETATM   19  C   UNL     1      -6.455  14.350  67.244  1.00  0.00     0.312 A  
HETATM   20  C   UNL     1      -6.082  13.878  68.496  1.00  0.00    -0.093 A  
HETATM   21  C   UNL     1      -6.242  14.689  69.622  1.00  0.00    -0.133 A  
ENDBRANCH  15  16
BRANCH  15  22
HETATM   22  C   UNL     1      -6.746  18.679  66.975  1.00  0.00    -0.205 A  
HETATM   23  C   UNL     1      -5.831  20.202  64.795  1.00  0.00    -0.222 A  
HETATM   24  C   UNL     1      -6.576  20.071  67.089  1.00  0.00    -0.235 A  
HETATM   25 CL   UNL     1      -5.437  21.151  63.413  1.00  0.00    -0.265 Cl 
HETATM   26  C   UNL     1      -5.901  18.817  64.686  1.00  0.00    -0.254 A  
HETATM   27  C   UNL     1      -6.318  18.054  65.781  1.00  0.00    -0.287 A  
HETATM   28  C   UNL     1      -6.126  20.828  66.003  1.00  0.00    -0.276 A  
ENDBRANCH  15  22
ENDBRANCH  12  15
ENDBRANCH   8   9
ENDBRANCH   4   8
TORSDOF 5
ENDMDL
MODEL      138
REMARK 921   NORMALIZED FREE ENERGY PREDICTED BY IDOCK:   -3.09 KCAL/MOL
REMARK 922        TOTAL FREE ENERGY PREDICTED BY IDOCK:   -4.70 KCAL/MOL
REMARK 923 INTER-LIGAND FREE ENERGY PREDICTED BY IDOCK:   -3.98 KCAL/MOL
REMARK 924 INTRA-LIGAND FREE ENERGY PREDICTED BY IDOCK:   -0.73 KCAL/MOL
REMARK 927      BINDING AFFINITY PREDICTED BY RF-SCORE:    0.00 PKD
ROOT
HETATM    1  C   UNL     1      -9.101   2.954  66.386  1.00  0.00    -0.146 C  
HETATM    2  C   UNL     1      -8.265   4.023  65.746  1.00  0.00    -0.105 A  
HETATM    3  C   UNL     1      -8.733   5.343  65.660  1.00  0.00    -0.152 A  
HETATM    4  C   UNL     1      -8.035   6.304  64.914  1.00  0.00    -0.124 A  
HETATM    5  C   UNL     1      -6.807   5.943  64.335  1.00  0.00    -0.050 A  
HETATM    6  C   UNL     1      -6.293   4.656  64.490  1.00  0.00    -0.034 A  
HETATM    7  C   UNL     1      -7.029   3.694  65.177  1.00  0.00    -0.057 A  
ENDROOT
BRANCH   4   8
HETATM    8  C   UNL     1      -8.653   7.678  64.665  1.00  0.00     0.207 C  
BRANCH   8   9
HETATM    9  N   UNL     1      -8.035   8.751  65.460  1.00  0.00    -0.098 NA 
HETATM   10  C   UNL     1      -8.538  10.107  65.133  1.00  0.00    -0.164 C  
HETATM   11  C   UNL     1      -9.689  10.736  65.994  1.00  0.00    -0.217 C  
HETATM   12  N   UNL     1      -9.866  10.273  67.395  1.00  0.00    -0.174 NA 
HETATM   13  C   UNL     1      -9.599   8.818  67.382  1.00  0.00    -0.161 C  
HETATM   14  C   UNL     1      -8.186   8.484  66.892  1.00  0.00    -0.106 C  
BRANCH  12  15
HETATM   15  C   UNL     1      -8.999  10.986  68.394  1.00  0.00    -0.158 C  
BRANCH  15  16
HETATM   16  C   UNL     1      -9.321  12.476  68.531  1.00  0.00    -0.084 A  
HETATM   17  C   UNL     1      -8.257  13.408  68.484  1.00  0.00    -0.093 A  
HETATM   18  C   UNL     1     -10.624  12.952  68.620  1.00  0.00    -0.256 A  
HETATM   19  C   UNL     1      -8.511  14.781  68.495  1.00  0.00    -0.159 A  
HETATM   20  C   UNL     1      -9.820  15.239  68.565  1.00  0.00    -0.210 A  
HETATM   21  C   UNL     1     -10.875  14.327  68.640  1.00  0.00    -0.265 A  
ENDBRANCH  15  16
BRANCH  15  22
HETATM   22  C   UNL     1      -8.942  10.247  69.748  1.00  0.00    -0.079 A  
HETATM   23  C   UNL     1      -8.770   8.371  71.837  1.00  0.00    -0.195 A  
HETATM   24  C   UNL     1      -7.695   9.874  70.282  1.00  0.00    -0.160 A  
HETATM   25 CL   UNL     1      -8.659   7.100  72.994  1.00  0.00    -0.139 Cl 
HETATM   26  C   UNL     1     -10.019   8.793  71.391  1.00  0.00    -0.354 A  
HETATM   27  C   UNL     1     -10.107   9.754  70.379  1.00  0.00    -0.313 A  
HETATM   28  C   UNL     1      -7.610   8.938  71.317  1.00  0.00    -0.132 A  
ENDBRANCH  15  22
ENDBRANCH  12  15
ENDBRANCH   8   9
ENDBRANCH   4   8
TORSDOF 5
ENDMDL
MODEL      139
REMARK 921   NORMALIZED FREE ENERGY PREDICTED BY IDOCK:   -3.08 KCAL/MOL
REMARK 922        TOTAL FREE ENERGY PREDICTED BY IDOCK:   -4.69 KCAL/MOL
REMARK 923 INTER-LIGAND FREE ENERGY PREDICTED BY IDOCK:   -6.03 KCAL/MOL
REMARK 924 INTRA-LIGAND FREE ENERGY PREDICTED BY IDOCK:    1.34 KCAL/MOL
REMARK 927      BINDING AFFINITY PREDICTED BY RF-SCORE:    0.00 PKD
ROOT
HETATM    1  C   UNL     1      -6.825  20.276  71.025  1.00  0.00     0.465 C  
HETATM    2  C   UNL     1      -6.496  19.752  69.658  1.00  0.00    -0.389 A  
HETATM    3  C   UNL     1      -7.057  18.550  69.198  1.00  0.00    -0.233 A  
HETATM    4  C   UNL     1      -6.623  17.969  67.998  1.00  0.00    -0.196 A  
HETATM    5  C   UNL     1      -5.684  18.664  67.217  1.00  0.00    -0.148 A  
HETATM    6  C   UNL     1      -5.187  19.901  67.626  1.00  0.00    -0.184 A  
HETATM    7  C   UNL     1      -5.577  20.434  68.852  1.00  0.00    -0.326 A  
ENDROOT
BRANCH   4   8
HETATM    8  C   UNL     1      -7.094  16.571  67.607  1.00  0.00    -0.133 C  
BRANCH   8   9
HETATM    9  N   UNL     1      -7.785  15.860  68.695  1.00  0.00    -0.151 NA 
HETATM   10  C   UNL     1      -9.071  16.479  69.096  1.00  0.00    -0.184 C  
HETATM   11  C   UNL     1     -10.414  15.942  68.488  1.00  0.00    -0.241 C  
HETATM   12  N   UNL     1     -10.465  14.538  68.004  1.00  0.00    -0.234 NA 
HETATM   13  C   UNL     1      -9.155  14.274  67.372  1.00  0.00    -0.196 C  
HETATM   14  C   UNL     1      -7.986  14.453  68.346  1.00  0.00    -0.141 C  
BRANCH  12  15
HETATM   15  C   UNL     1     -10.777  13.529  69.074  1.00  0.00    -0.149 C  
BRANCH  15  16
HETATM   16  C   UNL     1     -11.874  13.979  70.041  1.00  0.00    -0.388 A  
HETATM   17  C   UNL     1     -12.493  15.234  69.830  1.00  0.00    -0.275 A  
HETATM   18  C   UNL     1     -12.339  13.168  71.070  1.00  0.00    -0.355 A  
HETATM   19  C   UNL     1     -13.572  15.639  70.619  1.00  0.00     0.192 A  
HETATM   20  C   UNL     1     -14.036  14.808  71.630  1.00  0.00    -0.590 A  
HETATM   21  C   UNL     1     -13.413  13.580  71.864  1.00  0.00    -0.528 A  
ENDBRANCH  15  16
BRANCH  15  22
HETATM   22  C   UNL     1     -11.017  12.119  68.492  1.00  0.00    -0.276 A  
HETATM   23  C   UNL     1     -10.805   9.554  67.358  1.00  0.00    -0.145 A  
HETATM   24  C   UNL     1     -10.796  10.989  69.301  1.00  0.00    -0.285 A  
HETATM   25 CL   UNL     1     -10.506   8.015  66.647  1.00  0.00    -0.318 Cl 
HETATM   26  C   UNL     1     -11.118  10.641  66.548  1.00  0.00    -0.012 A  
HETATM   27  C   UNL     1     -11.262  11.911  67.116  1.00  0.00    -0.377 A  
HETATM   28  C   UNL     1     -10.685   9.715  68.736  1.00  0.00    -0.234 A  
ENDBRANCH  15  22
ENDBRANCH  12  15
ENDBRANCH   8   9
ENDBRANCH   4   8
TORSDOF 5
ENDMDL
MODEL      140
REMARK 921   NORMALIZED FREE ENERGY PREDICTED BY IDOCK:   -3.07 KCAL/MOL
REMARK 922        TOTAL FREE ENERGY PREDICTED BY IDOCK:   -4.68 KCAL/MOL
REMARK 923 INTER-LIGAND FREE ENERGY PREDICTED BY IDOCK:   -6.81 KCAL/MOL
REMARK 924 INTRA-LIGAND FREE ENERGY PREDICTED BY IDOCK:    2.13 KCAL/MOL
REMARK 927      BINDING AFFINITY PREDICTED BY RF-SCORE:    0.00 PKD
ROOT
HETATM    1  C   UNL     1     -10.029   5.902  66.892  1.00  0.00    -0.205 C  
HETATM    2  C   UNL     1     -10.296   7.043  67.828  1.00  0.00    -0.255 A  
HETATM    3  C   UNL     1     -10.667   8.303  67.334  1.00  0.00    -0.236 A  
HETATM    4  C   UNL     1     -10.749   9.413  68.187  1.00  0.00    -0.230 A  
HETATM    5  C   UNL     1     -10.546   9.217  69.564  1.00  0.00    -0.236 A  
HETATM    6  C   UNL     1     -10.262   7.951  70.073  1.00  0.00    -0.208 A  
HETATM    7  C   UNL     1     -10.118   6.872  69.206  1.00  0.00    -0.178 A  
ENDROOT
BRANCH   4   8
HETATM    8  C   UNL     1     -10.960  10.811  67.610  1.00  0.00    -0.306 C  
BRANCH   8   9
HETATM    9  N   UNL     1     -10.245  11.864  68.349  1.00  0.00    -0.201 NA 
HETATM   10  C   UNL     1      -9.098  12.444  67.610  1.00  0.00    -0.186 C  
HETATM   11  C   UNL     1      -9.294  13.767  66.789  1.00  0.00    -0.266 C  
HETATM   12  N   UNL     1     -10.377  14.702  67.193  1.00  0.00    -0.263 NA 
HETATM   13  C   UNL     1     -11.518  13.854  67.602  1.00  0.00    -0.324 C  
HETATM   14  C   UNL     1     -11.169  12.920  68.765  1.00  0.00    -0.279 C  
BRANCH  12  15
HETATM   15  C   UNL     1      -9.987  15.666  68.278  1.00  0.00    -0.213 C  
BRANCH  15  16
HETATM   16  C   UNL     1      -9.463  17.004  67.750  1.00  0.00    -0.245 A  
HETATM   17  C   UNL     1      -9.921  17.465  66.493  1.00  0.00    -0.314 A  
HETATM   18  C   UNL     1      -8.617  17.818  68.494  1.00  0.00    -0.291 A  
HETATM   19  C   UNL     1      -9.557  18.727  66.021  1.00  0.00    -0.109 A  
HETATM   20  C   UNL     1      -8.726  19.536  66.786  1.00  0.00    -0.358 A  
HETATM   21  C   UNL     1      -8.246  19.078  68.015  1.00  0.00    -0.334 A  
ENDBRANCH  15  16
BRANCH  15  22
HETATM   22  C   UNL     1     -11.092  15.821  69.344  1.00  0.00    -0.314 A  
HETATM   23  C   UNL     1     -12.922  15.500  71.455  1.00  0.00    -0.472 A  
HETATM   24  C   UNL     1     -10.739  16.164  70.662  1.00  0.00     0.015 A  
HETATM   25 CL   UNL     1     -13.982  15.142  72.765  1.00  0.00    -0.498 Cl 
HETATM   26  C   UNL     1     -13.326  15.243  70.149  1.00  0.00     0.195 A  
HETATM   27  C   UNL     1     -12.429  15.440  69.094  1.00  0.00     0.041 A  
HETATM   28  C   UNL     1     -11.648  15.999  71.712  1.00  0.00    -0.534 A  
ENDBRANCH  15  22
ENDBRANCH  12  15
ENDBRANCH   8   9
ENDBRANCH   4   8
TORSDOF 5
ENDMDL
MODEL      141
REMARK 921   NORMALIZED FREE ENERGY PREDICTED BY IDOCK:   -3.04 KCAL/MOL
REMARK 922        TOTAL FREE ENERGY PREDICTED BY IDOCK:   -4.64 KCAL/MOL
REMARK 923 INTER-LIGAND FREE ENERGY PREDICTED BY IDOCK:   -3.87 KCAL/MOL
REMARK 924 INTRA-LIGAND FREE ENERGY PREDICTED BY IDOCK:   -0.77 KCAL/MOL
REMARK 927      BINDING AFFINITY PREDICTED BY RF-SCORE:    0.00 PKD
ROOT
HETATM    1  C   UNL     1     -13.800   6.966  71.792  1.00  0.00    -0.253 C  
HETATM    2  C   UNL     1     -12.442   7.599  71.849  1.00  0.00    -0.338 A  
HETATM    3  C   UNL     1     -11.920   8.277  70.736  1.00  0.00    -0.118 A  
HETATM    4  C   UNL     1     -10.589   8.720  70.725  1.00  0.00    -0.269 A  
HETATM    5  C   UNL     1      -9.818   8.557  71.889  1.00  0.00    -0.358 A  
HETATM    6  C   UNL     1     -10.358   7.962  73.028  1.00  0.00    -0.401 A  
HETATM    7  C   UNL     1     -11.659   7.468  73.002  1.00  0.00    -0.154 A  
ENDROOT
BRANCH   4   8
HETATM    8  C   UNL     1      -9.977   9.277  69.443  1.00  0.00    -0.181 C  
BRANCH   8   9
HETATM    9  N   UNL     1      -8.912   8.428  68.885  1.00  0.00    -0.146 NA 
HETATM   10  C   UNL     1      -9.377   7.093  68.440  1.00  0.00    -0.135 C  
HETATM   11  C   UNL     1      -9.743   6.862  66.931  1.00  0.00    -0.171 C  
HETATM   12  N   UNL     1      -9.111   7.732  65.904  1.00  0.00    -0.122 NA 
HETATM   13  C   UNL     1      -9.043   9.085  66.499  1.00  0.00    -0.163 C  
HETATM   14  C   UNL     1      -8.222   9.117  67.792  1.00  0.00    -0.109 C  
BRANCH  12  15
HETATM   15  C   UNL     1      -7.760   7.260  65.444  1.00  0.00    -0.111 C  
BRANCH  15  16
HETATM   16  C   UNL     1      -7.742   5.797  64.994  1.00  0.00    -0.096 A  
HETATM   17  C   UNL     1      -8.471   5.432  63.838  1.00  0.00    -0.070 A  
HETATM   18  C   UNL     1      -6.972   4.832  65.633  1.00  0.00    -0.063 A  
HETATM   19  C   UNL     1      -8.396   4.135  63.328  1.00  0.00    -0.095 A  
HETATM   20  C   UNL     1      -7.608   3.187  63.967  1.00  0.00    -0.075 A  
HETATM   21  C   UNL     1      -6.907   3.531  65.125  1.00  0.00    -0.049 A  
ENDBRANCH  15  16
BRANCH  15  22
HETATM   22  C   UNL     1      -7.126   8.223  64.417  1.00  0.00    -0.078 A  
HETATM   23  C   UNL     1      -5.946  10.383  63.056  1.00  0.00    -0.142 A  
HETATM   24  C   UNL     1      -5.728   8.374  64.381  1.00  0.00    -0.060 A  
HETATM   25 CL   UNL     1      -5.237  11.794  62.371  1.00  0.00     0.221 Cl 
HETATM   26  C   UNL     1      -7.324  10.203  62.998  1.00  0.00    -0.139 A  
HETATM   27  C   UNL     1      -7.909   9.107  63.641  1.00  0.00    -0.136 A  
HETATM   28  C   UNL     1      -5.143   9.451  63.708  1.00  0.00    -0.060 A  
ENDBRANCH  15  22
ENDBRANCH  12  15
ENDBRANCH   8   9
ENDBRANCH   4   8
TORSDOF 5
ENDMDL
MODEL      142
REMARK 921   NORMALIZED FREE ENERGY PREDICTED BY IDOCK:   -3.00 KCAL/MOL
REMARK 922        TOTAL FREE ENERGY PREDICTED BY IDOCK:   -4.58 KCAL/MOL
REMARK 923 INTER-LIGAND FREE ENERGY PREDICTED BY IDOCK:   -5.09 KCAL/MOL
REMARK 924 INTRA-LIGAND FREE ENERGY PREDICTED BY IDOCK:    0.51 KCAL/MOL
REMARK 927      BINDING AFFINITY PREDICTED BY RF-SCORE:    0.00 PKD
ROOT
HETATM    1  C   UNL     1      -9.414   3.462  70.309  1.00  0.00    -0.247 C  
HETATM    2  C   UNL     1      -8.743   3.420  68.969  1.00  0.00    -0.142 A  
HETATM    3  C   UNL     1      -8.402   4.607  68.301  1.00  0.00    -0.090 A  
HETATM    4  C   UNL     1      -7.934   4.578  66.979  1.00  0.00    -0.102 A  
HETATM    5  C   UNL     1      -7.722   3.329  66.371  1.00  0.00    -0.077 A  
HETATM    6  C   UNL     1      -7.976   2.144  67.059  1.00  0.00    -0.067 A  
HETATM    7  C   UNL     1      -8.503   2.190  68.346  1.00  0.00    -0.086 A  
ENDROOT
BRANCH   4   8
HETATM    8  C   UNL     1      -7.755   5.878  66.200  1.00  0.00    -0.102 C  
BRANCH   8   9
HETATM    9  N   UNL     1      -7.285   6.999  67.029  1.00  0.00    -0.079 NA 
HETATM   10  C   UNL     1      -7.025   8.244  66.268  1.00  0.00    -0.066 C  
HETATM   11  C   UNL     1      -8.137   9.349  66.185  1.00  0.00    -0.111 C  
HETATM   12  N   UNL     1      -9.149   9.423  67.271  1.00  0.00    -0.133 NA 
HETATM   13  C   UNL     1      -9.457   8.024  67.640  1.00  0.00    -0.145 C  
HETATM   14  C   UNL     1      -8.221   7.259  68.124  1.00  0.00    -0.124 C  
BRANCH  12  15
HETATM   15  C   UNL     1      -8.716  10.227  68.464  1.00  0.00    -0.130 C  
BRANCH  15  16
HETATM   16  C   UNL     1      -8.436  11.698  68.143  1.00  0.00    -0.156 A  
HETATM   17  C   UNL     1      -9.303  12.377  67.255  1.00  0.00    -0.184 A  
HETATM   18  C   UNL     1      -7.409  12.410  68.752  1.00  0.00    -0.076 A  
HETATM   19  C   UNL     1      -9.153  13.745  67.018  1.00  0.00    -0.253 A  
HETATM   20  C   UNL     1      -8.133  14.446  67.649  1.00  0.00    -0.188 A  
HETATM   21  C   UNL     1      -7.255  13.778  68.505  1.00  0.00    -0.108 A  
ENDBRANCH  15  16
BRANCH  15  22
HETATM   22  C   UNL     1      -9.660  10.035  69.670  1.00  0.00    -0.251 A  
HETATM   23  C   UNL     1     -11.583   9.165  71.529  1.00  0.00    -0.368 A  
HETATM   24  C   UNL     1      -9.326   9.103  70.669  1.00  0.00    -0.312 A  
HETATM   25 CL   UNL     1     -12.801   8.508  72.553  1.00  0.00    -0.364 Cl 
HETATM   26  C   UNL     1     -11.912  10.158  70.610  1.00  0.00    -0.423 A  
HETATM   27  C   UNL     1     -10.946  10.620  69.711  1.00  0.00    -0.340 A  
HETATM   28  C   UNL     1     -10.284   8.667  71.589  1.00  0.00    -0.366 A  
ENDBRANCH  15  22
ENDBRANCH  12  15
ENDBRANCH   8   9
ENDBRANCH   4   8
TORSDOF 5
ENDMDL
MODEL      143
REMARK 921   NORMALIZED FREE ENERGY PREDICTED BY IDOCK:   -2.98 KCAL/MOL
REMARK 922        TOTAL FREE ENERGY PREDICTED BY IDOCK:   -4.56 KCAL/MOL
REMARK 923 INTER-LIGAND FREE ENERGY PREDICTED BY IDOCK:   -6.81 KCAL/MOL
REMARK 924 INTRA-LIGAND FREE ENERGY PREDICTED BY IDOCK:    2.25 KCAL/MOL
REMARK 927      BINDING AFFINITY PREDICTED BY RF-SCORE:    0.00 PKD
ROOT
HETATM    1  C   UNL     1     -12.331  14.365  64.866  1.00  0.00    -0.414 C  
HETATM    2  C   UNL     1     -11.588  13.081  64.646  1.00  0.00    -0.389 A  
HETATM    3  C   UNL     1     -11.059  12.365  65.731  1.00  0.00    -0.351 A  
HETATM    4  C   UNL     1     -10.220  11.260  65.522  1.00  0.00    -0.312 A  
HETATM    5  C   UNL     1      -9.998  10.827  64.203  1.00  0.00    -0.405 A  
HETATM    6  C   UNL     1     -10.591  11.482  63.125  1.00  0.00    -0.323 A  
HETATM    7  C   UNL     1     -11.368  12.616  63.344  1.00  0.00    -0.456 A  
ENDROOT
BRANCH   4   8
HETATM    8  C   UNL     1      -9.495  10.613  66.699  1.00  0.00    -0.167 C  
BRANCH   8   9
HETATM    9  N   UNL     1      -9.871   9.208  66.919  1.00  0.00    -0.198 NA 
HETATM   10  C   UNL     1      -8.809   8.238  66.564  1.00  0.00    -0.150 C  
HETATM   11  C   UNL     1      -7.850   7.694  67.681  1.00  0.00    -0.123 C  
HETATM   12  N   UNL     1      -8.329   7.682  69.087  1.00  0.00    -0.130 NA 
HETATM   13  C   UNL     1      -9.117   8.922  69.262  1.00  0.00    -0.145 C  
HETATM   14  C   UNL     1     -10.308   9.002  68.301  1.00  0.00    -0.209 C  
BRANCH  12  15
HETATM   15  C   UNL     1      -9.127   6.463  69.456  1.00  0.00    -0.138 C  
BRANCH  15  16
HETATM   16  C   UNL     1     -10.346   6.769  70.330  1.00  0.00    -0.224 A  
HETATM   17  C   UNL     1     -10.152   7.459  71.549  1.00  0.00    -0.197 A  
HETATM   18  C   UNL     1     -11.643   6.464  69.932  1.00  0.00    -0.422 A  
HETATM   19  C   UNL     1     -11.242   7.856  72.326  1.00  0.00    -0.389 A  
HETATM   20  C   UNL     1     -12.533   7.560  71.904  1.00  0.00    -0.335 A  
HETATM   21  C   UNL     1     -12.733   6.854  70.715  1.00  0.00    -0.112 A  
ENDBRANCH  15  16
BRANCH  15  22
HETATM   22  C   UNL     1      -9.461   5.591  68.226  1.00  0.00    -0.137 A  
HETATM   23  C   UNL     1      -9.773   4.487  65.658  1.00  0.00    -0.199 A  
HETATM   24  C   UNL     1      -8.466   4.766  67.671  1.00  0.00    -0.104 A  
HETATM   25 CL   UNL     1      -9.890   3.954  64.025  1.00  0.00    -0.169 Cl 
HETATM   26  C   UNL     1     -10.811   5.221  66.222  1.00  0.00    -0.181 A  
HETATM   27  C   UNL     1     -10.673   5.739  67.515  1.00  0.00    -0.320 A  
HETATM   28  C   UNL     1      -8.620   4.222  66.392  1.00  0.00    -0.112 A  
ENDBRANCH  15  22
ENDBRANCH  12  15
ENDBRANCH   8   9
ENDBRANCH   4   8
TORSDOF 5
ENDMDL
MODEL      144
REMARK 921   NORMALIZED FREE ENERGY PREDICTED BY IDOCK:   -2.95 KCAL/MOL
REMARK 922        TOTAL FREE ENERGY PREDICTED BY IDOCK:   -4.52 KCAL/MOL
REMARK 923 INTER-LIGAND FREE ENERGY PREDICTED BY IDOCK:   -7.18 KCAL/MOL
REMARK 924 INTRA-LIGAND FREE ENERGY PREDICTED BY IDOCK:    2.66 KCAL/MOL
REMARK 927      BINDING AFFINITY PREDICTED BY RF-SCORE:    0.00 PKD
ROOT
HETATM    1  C   UNL     1     -12.131  13.400  64.143  1.00  0.00    -0.491 C  
HETATM    2  C   UNL     1     -12.038  13.374  65.640  1.00  0.00    -0.476 A  
HETATM    3  C   UNL     1     -11.915  14.565  66.371  1.00  0.00    -0.350 A  
HETATM    4  C   UNL     1     -11.656  14.538  67.749  1.00  0.00    -0.390 A  
HETATM    5  C   UNL     1     -11.618  13.294  68.400  1.00  0.00    -0.372 A  
HETATM    6  C   UNL     1     -11.825  12.109  67.695  1.00  0.00    -0.316 A  
HETATM    7  C   UNL     1     -12.015  12.148  66.316  1.00  0.00    -0.213 A  
ENDROOT
BRANCH   4   8
HETATM    8  C   UNL     1     -11.330  15.830  68.494  1.00  0.00    -0.374 C  
BRANCH   8   9
HETATM    9  N   UNL     1      -9.893  16.013  68.749  1.00  0.00    -0.213 NA 
HETATM   10  C   UNL     1      -9.054  14.870  68.317  1.00  0.00    -0.179 C  
HETATM   11  C   UNL     1      -8.359  14.905  66.911  1.00  0.00    -0.177 C  
HETATM   12  N   UNL     1      -8.065  16.226  66.295  1.00  0.00    -0.298 NA 
HETATM   13  C   UNL     1      -9.213  17.097  66.626  1.00  0.00    -0.260 C  
HETATM   14  C   UNL     1      -9.414  17.254  68.137  1.00  0.00    -0.278 C  
BRANCH  12  15
HETATM   15  C   UNL     1      -6.763  16.834  66.734  1.00  0.00    -0.221 C  
BRANCH  15  16
HETATM   16  C   UNL     1      -6.836  18.348  66.952  1.00  0.00    -0.209 A  
HETATM   17  C   UNL     1      -6.525  18.867  68.231  1.00  0.00    -0.242 A  
HETATM   18  C   UNL     1      -7.120  19.235  65.920  1.00  0.00    -0.304 A  
HETATM   19  C   UNL     1      -6.472  20.245  68.448  1.00  0.00    -0.344 A  
HETATM   20  C   UNL     1      -6.739  21.118  67.401  1.00  0.00    -0.429 A  
HETATM   21  C   UNL     1      -7.075  20.615  66.142  1.00  0.00    -0.172 A  
ENDBRANCH  15  16
BRANCH  15  22
HETATM   22  C   UNL     1      -6.138  16.076  67.925  1.00  0.00    -0.149 A  
HETATM   23  C   UNL     1      -5.563  14.364  70.081  1.00  0.00    -0.119 A  
HETATM   24  C   UNL     1      -5.537  14.823  67.710  1.00  0.00    -0.067 A  
HETATM   25 CL   UNL     1      -5.371  13.252  71.382  1.00  0.00    -0.188 Cl 
HETATM   26  C   UNL     1      -6.071  15.636  70.329  1.00  0.00    -0.066 A  
HETATM   27  C   UNL     1      -6.321  16.504  69.260  1.00  0.00    -0.194 A  
HETATM   28  C   UNL     1      -5.256  13.970  68.782  1.00  0.00    -0.084 A  
ENDBRANCH  15  22
ENDBRANCH  12  15
ENDBRANCH   8   9
ENDBRANCH   4   8
TORSDOF 5
ENDMDL
MODEL      145
REMARK 921   NORMALIZED FREE ENERGY PREDICTED BY IDOCK:   -2.94 KCAL/MOL
REMARK 922        TOTAL FREE ENERGY PREDICTED BY IDOCK:   -4.51 KCAL/MOL
REMARK 923 INTER-LIGAND FREE ENERGY PREDICTED BY IDOCK:   -6.81 KCAL/MOL
REMARK 924 INTRA-LIGAND FREE ENERGY PREDICTED BY IDOCK:    2.30 KCAL/MOL
REMARK 927      BINDING AFFINITY PREDICTED BY RF-SCORE:    0.00 PKD
ROOT
HETATM    1  C   UNL     1      -9.686   5.341  69.768  1.00  0.00    -0.257 C  
HETATM    2  C   UNL     1     -10.071   6.502  70.637  1.00  0.00    -0.212 A  
HETATM    3  C   UNL     1     -10.795   7.582  70.110  1.00  0.00    -0.259 A  
HETATM    4  C   UNL     1     -11.006   8.743  70.868  1.00  0.00    -0.315 A  
HETATM    5  C   UNL     1     -10.561   8.763  72.201  1.00  0.00    -0.386 A  
HETATM    6  C   UNL     1      -9.917   7.660  72.758  1.00  0.00    -0.298 A  
HETATM    7  C   UNL     1      -9.656   6.540  71.973  1.00  0.00    -0.154 A  
ENDROOT
BRANCH   4   8
HETATM    8  C   UNL     1     -11.620   9.981  70.221  1.00  0.00    -0.280 C  
BRANCH   8   9
HETATM    9  N   UNL     1     -10.625  10.880  69.615  1.00  0.00    -0.181 NA 
HETATM   10  C   UNL     1      -9.366  10.206  69.221  1.00  0.00    -0.215 C  
HETATM   11  C   UNL     1      -9.176   9.718  67.742  1.00  0.00    -0.130 C  
HETATM   12  N   UNL     1      -9.939  10.400  66.664  1.00  0.00    -0.202 NA 
HETATM   13  C   UNL     1     -11.274  10.694  67.230  1.00  0.00    -0.161 C  
HETATM   14  C   UNL     1     -11.201  11.590  68.471  1.00  0.00    -0.258 C  
BRANCH  12  15
HETATM   15  C   UNL     1      -9.278  11.640  66.131  1.00  0.00    -0.219 C  
BRANCH  15  16
HETATM   16  C   UNL     1     -10.263  12.657  65.547  1.00  0.00    -0.298 A  
HETATM   17  C   UNL     1     -10.136  14.016  65.918  1.00  0.00    -0.336 A  
HETATM   18  C   UNL     1     -11.224  12.306  64.606  1.00  0.00    -0.363 A  
HETATM   19  C   UNL     1     -10.940  14.994  65.329  1.00  0.00    -0.391 A  
HETATM   20  C   UNL     1     -11.883  14.629  64.376  1.00  0.00    -0.405 A  
HETATM   21  C   UNL     1     -12.034  13.286  64.024  1.00  0.00    -0.525 A  
ENDBRANCH  15  16
BRANCH  15  22
HETATM   22  C   UNL     1      -8.294  12.259  67.147  1.00  0.00    -0.183 A  
HETATM   23  C   UNL     1      -6.427  13.840  68.535  1.00  0.00    -0.093 A  
HETATM   24  C   UNL     1      -8.717  13.327  67.959  1.00  0.00    -0.186 A  
HETATM   25 CL   UNL     1      -5.277  14.908  69.243  1.00  0.00    -0.090 Cl 
HETATM   26  C   UNL     1      -5.991  12.732  67.814  1.00  0.00    -0.133 A  
HETATM   27  C   UNL     1      -6.921  11.922  67.156  1.00  0.00    -0.142 A  
HETATM   28  C   UNL     1      -7.787  14.116  68.644  1.00  0.00    -0.137 A  
ENDBRANCH  15  22
ENDBRANCH  12  15
ENDBRANCH   8   9
ENDBRANCH   4   8
TORSDOF 5
ENDMDL
MODEL      146
REMARK 921   NORMALIZED FREE ENERGY PREDICTED BY IDOCK:   -2.82 KCAL/MOL
REMARK 922        TOTAL FREE ENERGY PREDICTED BY IDOCK:   -4.36 KCAL/MOL
REMARK 923 INTER-LIGAND FREE ENERGY PREDICTED BY IDOCK:   -3.77 KCAL/MOL
REMARK 924 INTRA-LIGAND FREE ENERGY PREDICTED BY IDOCK:   -0.58 KCAL/MOL
REMARK 927      BINDING AFFINITY PREDICTED BY RF-SCORE:    0.00 PKD
ROOT
HETATM    1  C   UNL     1     -12.674  14.831  71.467  1.00  0.00    -0.401 C  
HETATM    2  C   UNL     1     -11.768  14.798  70.272  1.00  0.00    -0.351 A  
HETATM    3  C   UNL     1     -11.803  13.719  69.376  1.00  0.00    -0.392 A  
HETATM    4  C   UNL     1     -10.844  13.599  68.359  1.00  0.00    -0.274 A  
HETATM    5  C   UNL     1      -9.907  14.633  68.196  1.00  0.00    -0.224 A  
HETATM    6  C   UNL     1      -9.921  15.751  69.028  1.00  0.00    -0.234 A  
HETATM    7  C   UNL     1     -10.837  15.824  70.075  1.00  0.00    -0.348 A  
ENDROOT
BRANCH   4   8
HETATM    8  C   UNL     1     -10.772  12.327  67.518  1.00  0.00    -0.225 C  
BRANCH   8   9
HETATM    9  N   UNL     1      -9.544  11.547  67.740  1.00  0.00    -0.171 NA 
HETATM   10  C   UNL     1      -8.987  11.677  69.107  1.00  0.00     0.354 C  
HETATM   11  C   UNL     1      -9.340  10.601  70.194  1.00  0.00     0.836 C  
HETATM   12  N   UNL     1      -9.714   9.234  69.748  1.00  0.00    -0.179 NA 
HETATM   13  C   UNL     1     -10.527   9.411  68.524  1.00  0.00    -0.208 C  
HETATM   14  C   UNL     1      -9.763  10.137  67.412  1.00  0.00    -0.161 C  
BRANCH  12  15
HETATM   15  C   UNL     1      -8.545   8.322  69.508  1.00  0.00    -0.134 C  
BRANCH  15  16
HETATM   16  C   UNL     1      -7.508   8.346  70.634  1.00  0.00    -0.065 A  
HETATM   17  C   UNL     1      -7.953   8.227  71.971  1.00  0.00    -0.176 A  
HETATM   18  C   UNL     1      -6.141   8.400  70.386  1.00  0.00    -0.031 A  
HETATM   19  C   UNL     1      -7.039   8.134  73.022  1.00  0.00    -0.137 A  
HETATM   20  C   UNL     1      -5.676   8.171  72.755  1.00  0.00    -0.051 A  
HETATM   21  C   UNL     1      -5.227   8.317  71.441  1.00  0.00    -0.033 A  
ENDBRANCH  15  16
BRANCH  15  22
HETATM   22  C   UNL     1      -8.988   6.895  69.118  1.00  0.00    -0.133 A  
HETATM   23  C   UNL     1      -9.218   4.130  68.662  1.00  0.00    -0.145 A  
HETATM   24  C   UNL     1      -9.529   6.045  70.100  1.00  0.00    -0.182 A  
HETATM   25 CL   UNL     1      -9.198   2.421  68.446  1.00  0.00    -0.232 Cl 
HETATM   26  C   UNL     1      -8.768   4.961  67.640  1.00  0.00    -0.103 A  
HETATM   27  C   UNL     1      -8.690   6.341  67.852  1.00  0.00    -0.114 A  
HETATM   28  C   UNL     1      -9.638   4.670  69.874  1.00  0.00    -0.261 A  
ENDBRANCH  15  22
ENDBRANCH  12  15
ENDBRANCH   8   9
ENDBRANCH   4   8
TORSDOF 5
ENDMDL
MODEL      147
REMARK 921   NORMALIZED FREE ENERGY PREDICTED BY IDOCK:   -2.82 KCAL/MOL
REMARK 922        TOTAL FREE ENERGY PREDICTED BY IDOCK:   -4.35 KCAL/MOL
REMARK 923 INTER-LIGAND FREE ENERGY PREDICTED BY IDOCK:   -3.42 KCAL/MOL
REMARK 924 INTRA-LIGAND FREE ENERGY PREDICTED BY IDOCK:   -0.93 KCAL/MOL
REMARK 927      BINDING AFFINITY PREDICTED BY RF-SCORE:    0.00 PKD
ROOT
HETATM    1  C   UNL     1     -10.250  16.442  65.529  1.00  0.00    -0.296 C  
HETATM    2  C   UNL     1      -9.373  16.306  66.738  1.00  0.00    -0.258 A  
HETATM    3  C   UNL     1      -8.567  15.171  66.915  1.00  0.00    -0.289 A  
HETATM    4  C   UNL     1      -7.879  14.959  68.118  1.00  0.00    -0.122 A  
HETATM    5  C   UNL     1      -7.936  15.956  69.108  1.00  0.00    -0.233 A  
HETATM    6  C   UNL     1      -8.665  17.126  68.904  1.00  0.00    -0.185 A  
HETATM    7  C   UNL     1      -9.396  17.293  67.731  1.00  0.00    -0.250 A  
ENDROOT
BRANCH   4   8
HETATM    8  C   UNL     1      -7.169  13.632  68.373  1.00  0.00    -0.109 C  
BRANCH   8   9
HETATM    9  N   UNL     1      -7.909  12.465  67.868  1.00  0.00    -0.132 NA 
HETATM   10  C   UNL     1      -7.098  11.559  67.020  1.00  0.00    -0.147 C  
HETATM   11  C   UNL     1      -6.419  10.298  67.660  1.00  0.00    -0.058 C  
HETATM   12  N   UNL     1      -7.018   9.712  68.888  1.00  0.00    -0.058 NA 
HETATM   13  C   UNL     1      -7.479  10.856  69.704  1.00  0.00    -0.022 C  
HETATM   14  C   UNL     1      -8.513  11.720  68.975  1.00  0.00     0.217 C  
BRANCH  12  15
HETATM   15  C   UNL     1      -8.129   8.736  68.625  1.00  0.00    -0.116 C  
BRANCH  15  16
HETATM   16  C   UNL     1      -7.984   7.982  67.301  1.00  0.00    -0.121 A  
HETATM   17  C   UNL     1      -8.772   8.387  66.198  1.00  0.00    -0.175 A  
HETATM   18  C   UNL     1      -7.049   6.969  67.120  1.00  0.00    -0.083 A  
HETATM   19  C   UNL     1      -8.596   7.803  64.942  1.00  0.00     0.063 A  
HETATM   20  C   UNL     1      -7.644   6.804  64.774  1.00  0.00    -0.104 A  
HETATM   21  C   UNL     1      -6.881   6.379  65.863  1.00  0.00    -0.056 A  
ENDBRANCH  15  16
BRANCH  15  22
HETATM   22  C   UNL     1      -8.385   7.806  69.831  1.00  0.00    -0.130 A  
HETATM   23  C   UNL     1      -8.560   5.667  71.649  1.00  0.00    -0.132 A  
HETATM   24  C   UNL     1      -7.341   7.542  70.736  1.00  0.00    -0.068 A  
HETATM   25 CL   UNL     1      -8.596   4.258  72.638  1.00  0.00    -0.104 Cl 
HETATM   26  C   UNL     1      -9.645   5.965  70.830  1.00  0.00    -0.203 A  
HETATM   27  C   UNL     1      -9.575   7.052  69.953  1.00  0.00    -0.159 A  
HETATM   28  C   UNL     1      -7.426   6.475  71.635  1.00  0.00    -0.089 A  
ENDBRANCH  15  22
ENDBRANCH  12  15
ENDBRANCH   8   9
ENDBRANCH   4   8
TORSDOF 5
ENDMDL
MODEL      148
REMARK 921   NORMALIZED FREE ENERGY PREDICTED BY IDOCK:   -2.76 KCAL/MOL
REMARK 922        TOTAL FREE ENERGY PREDICTED BY IDOCK:   -4.27 KCAL/MOL
REMARK 923 INTER-LIGAND FREE ENERGY PREDICTED BY IDOCK:   -7.48 KCAL/MOL
REMARK 924 INTRA-LIGAND FREE ENERGY PREDICTED BY IDOCK:    3.20 KCAL/MOL
REMARK 927      BINDING AFFINITY PREDICTED BY RF-SCORE:    0.00 PKD
ROOT
HETATM    1  C   UNL     1     -12.422  12.927  63.092  1.00  0.00    -0.166 C  
HETATM    2  C   UNL     1     -11.861  12.352  64.358  1.00  0.00    -0.461 A  
HETATM    3  C   UNL     1     -12.134  12.948  65.599  1.00  0.00    -0.511 A  
HETATM    4  C   UNL     1     -11.477  12.520  66.762  1.00  0.00    -0.422 A  
HETATM    5  C   UNL     1     -10.609  11.418  66.675  1.00  0.00    -0.302 A  
HETATM    6  C   UNL     1     -10.399  10.766  65.461  1.00  0.00    -0.308 A  
HETATM    7  C   UNL     1     -11.008  11.243  64.303  1.00  0.00    -0.358 A  
ENDROOT
BRANCH   4   8
HETATM    8  C   UNL     1     -11.634  13.301  68.064  1.00  0.00    -0.336 C  
BRANCH   8   9
HETATM    9  N   UNL     1     -10.458  14.119  68.403  1.00  0.00    -0.247 NA 
HETATM   10  C   UNL     1      -9.209  13.681  67.737  1.00  0.00    -0.214 C  
HETATM   11  C   UNL     1      -8.755  14.374  66.404  1.00  0.00     0.112 C  
HETATM   12  N   UNL     1      -9.211  15.762  66.132  1.00  0.00    -0.331 NA 
HETATM   13  C   UNL     1     -10.604  15.839  66.625  1.00  0.00    -0.307 C  
HETATM   14  C   UNL     1     -10.716  15.532  68.122  1.00  0.00    -0.282 C  
BRANCH  12  15
HETATM   15  C   UNL     1      -8.347  16.826  66.747  1.00  0.00    -0.237 C  
BRANCH  15  16
HETATM   16  C   UNL     1      -9.127  18.061  67.205  1.00  0.00    -0.256 A  
HETATM   17  C   UNL     1      -9.187  18.353  68.587  1.00  0.00    -0.328 A  
HETATM   18  C   UNL     1      -9.709  18.949  66.307  1.00  0.00    -0.374 A  
HETATM   19  C   UNL     1      -9.793  19.526  69.043  1.00  0.00    -0.491 A  
HETATM   20  C   UNL     1     -10.353  20.411  68.131  1.00  0.00    -0.255 A  
HETATM   21  C   UNL     1     -10.323  20.118  66.766  1.00  0.00    -0.505 A  
ENDBRANCH  15  16
BRANCH  15  22
HETATM   22  C   UNL     1      -7.409  16.258  67.835  1.00  0.00    -0.140 A  
HETATM   23  C   UNL     1      -5.978  14.656  69.649  1.00  0.00    -0.110 A  
HETATM   24  C   UNL     1      -6.200  15.647  67.457  1.00  0.00    -0.161 A  
HETATM   25 CL   UNL     1      -5.196  13.541  70.703  1.00  0.00    -0.113 Cl 
HETATM   26  C   UNL     1      -7.121  15.325  70.076  1.00  0.00    -0.030 A  
HETATM   27  C   UNL     1      -7.812  16.154  69.186  1.00  0.00    -0.232 A  
HETATM   28  C   UNL     1      -5.492  14.846  68.359  1.00  0.00    -0.110 A  
ENDBRANCH  15  22
ENDBRANCH  12  15
ENDBRANCH   8   9
ENDBRANCH   4   8
TORSDOF 5
ENDMDL
MODEL      149
REMARK 921   NORMALIZED FREE ENERGY PREDICTED BY IDOCK:   -2.72 KCAL/MOL
REMARK 922        TOTAL FREE ENERGY PREDICTED BY IDOCK:   -4.22 KCAL/MOL
REMARK 923 INTER-LIGAND FREE ENERGY PREDICTED BY IDOCK:   -6.21 KCAL/MOL
REMARK 924 INTRA-LIGAND FREE ENERGY PREDICTED BY IDOCK:    2.00 KCAL/MOL
REMARK 927      BINDING AFFINITY PREDICTED BY RF-SCORE:    0.00 PKD
ROOT
HETATM    1  C   UNL     1     -12.125  12.743  63.492  1.00  0.00    -0.642 C  
HETATM    2  C   UNL     1     -11.024  12.313  64.417  1.00  0.00    -0.374 A  
HETATM    3  C   UNL     1     -10.470  11.027  64.321  1.00  0.00    -0.427 A  
HETATM    4  C   UNL     1      -9.566  10.561  65.287  1.00  0.00    -0.303 A  
HETATM    5  C   UNL     1      -9.154  11.443  66.301  1.00  0.00    -0.211 A  
HETATM    6  C   UNL     1      -9.635  12.751  66.352  1.00  0.00    -0.254 A  
HETATM    7  C   UNL     1     -10.581  13.178  65.424  1.00  0.00    -0.311 A  
ENDROOT
BRANCH   4   8
HETATM    8  C   UNL     1      -9.124   9.100  65.283  1.00  0.00    -0.195 C  
BRANCH   8   9
HETATM    9  N   UNL     1      -9.167   8.471  66.613  1.00  0.00    -0.165 NA 
HETATM   10  C   UNL     1     -10.525   8.062  67.041  1.00  0.00    -0.340 C  
HETATM   11  C   UNL     1     -10.998   6.583  66.813  1.00  0.00    -0.239 C  
HETATM   12  N   UNL     1      -9.971   5.513  66.721  1.00  0.00    -0.164 NA 
HETATM   13  C   UNL     1      -8.835   6.099  65.977  1.00  0.00    -0.153 C  
HETATM   14  C   UNL     1      -8.249   7.331  66.673  1.00  0.00    -0.118 C  
BRANCH  12  15
HETATM   15  C   UNL     1      -9.537   4.960  68.049  1.00  0.00    -0.146 C  
BRANCH  15  16
HETATM   16  C   UNL     1      -8.099   4.435  68.054  1.00  0.00    -0.090 A  
HETATM   17  C   UNL     1      -7.781   3.316  67.249  1.00  0.00    -0.078 A  
HETATM   18  C   UNL     1      -7.078   5.065  68.758  1.00  0.00    -0.057 A  
HETATM   19  C   UNL     1      -6.463   2.870  67.136  1.00  0.00    -0.036 A  
HETATM   20  C   UNL     1      -5.452   3.522  67.831  1.00  0.00    -0.017 A  
HETATM   21  C   UNL     1      -5.761   4.610  68.651  1.00  0.00    -0.020 A  
ENDBRANCH  15  16
BRANCH  15  22
HETATM   22  C   UNL     1      -9.835   5.932  69.211  1.00  0.00    -0.205 A  
HETATM   23  C   UNL     1     -10.162   7.209  71.696  1.00  0.00    -0.193 A  
HETATM   24  C   UNL     1      -8.782   6.665  69.789  1.00  0.00    -0.140 A  
HETATM   25 CL   UNL     1     -10.309   7.842  73.290  1.00  0.00    -0.365 Cl 
HETATM   26  C   UNL     1     -11.246   6.570  71.102  1.00  0.00    -0.353 A  
HETATM   27  C   UNL     1     -11.096   5.968  69.848  1.00  0.00    -0.469 A  
HETATM   28  C   UNL     1      -8.944   7.295  71.026  1.00  0.00    -0.149 A  
ENDBRANCH  15  22
ENDBRANCH  12  15
ENDBRANCH   8   9
ENDBRANCH   4   8
TORSDOF 5
ENDMDL
MODEL      150
REMARK 921   NORMALIZED FREE ENERGY PREDICTED BY IDOCK:   -2.63 KCAL/MOL
REMARK 922        TOTAL FREE ENERGY PREDICTED BY IDOCK:   -4.10 KCAL/MOL
REMARK 923 INTER-LIGAND FREE ENERGY PREDICTED BY IDOCK:   -3.51 KCAL/MOL
REMARK 924 INTRA-LIGAND FREE ENERGY PREDICTED BY IDOCK:   -0.60 KCAL/MOL
REMARK 927      BINDING AFFINITY PREDICTED BY RF-SCORE:    0.00 PKD
ROOT
HETATM    1  C   UNL     1     -10.156  14.910  66.409  1.00  0.00    -0.296 C  
HETATM    2  C   UNL     1      -9.896  13.648  67.176  1.00  0.00    -0.242 A  
HETATM    3  C   UNL     1      -8.968  12.704  66.708  1.00  0.00    -0.197 A  
HETATM    4  C   UNL     1      -8.846  11.451  67.325  1.00  0.00    -0.153 A  
HETATM    5  C   UNL     1      -9.605  11.195  68.481  1.00  0.00    -0.193 A  
HETATM    6  C   UNL     1     -10.465  12.161  69.001  1.00  0.00    -0.072 A  
HETATM    7  C   UNL     1     -10.624  13.376  68.341  1.00  0.00    -0.259 A  
ENDROOT
BRANCH   4   8
HETATM    8  C   UNL     1      -7.981  10.365  66.692  1.00  0.00    -0.120 C  
BRANCH   8   9
HETATM    9  N   UNL     1      -8.735   9.158  66.317  1.00  0.00    -0.135 NA 
HETATM   10  C   UNL     1      -8.222   8.481  65.102  1.00  0.00    -0.152 C  
HETATM   11  C   UNL     1      -7.226   7.277  65.247  1.00  0.00    -0.069 C  
HETATM   12  N   UNL     1      -7.249   6.481  66.502  1.00  0.00    -0.072 NA 
HETATM   13  C   UNL     1      -7.477   7.449  67.597  1.00  0.00    -0.097 C  
HETATM   14  C   UNL     1      -8.792   8.217  67.438  1.00  0.00    -0.131 C  
BRANCH  12  15
HETATM   15  C   UNL     1      -8.272   5.380  66.515  1.00  0.00    -0.109 C  
BRANCH  15  16
HETATM   16  C   UNL     1      -8.160   4.426  65.323  1.00  0.00    -0.102 A  
HETATM   17  C   UNL     1      -7.011   3.608  65.212  1.00  0.00    -0.061 A  
HETATM   18  C   UNL     1      -9.181   4.276  64.391  1.00  0.00    -0.155 A  
HETATM   19  C   UNL     1      -6.914   2.646  64.205  1.00  0.00    -0.044 A  
HETATM   20  C   UNL     1      -7.952   2.496  63.293  1.00  0.00    -0.072 A  
HETATM   21  C   UNL     1      -9.078   3.318  63.377  1.00  0.00    -0.092 A  
ENDBRANCH  15  16
BRANCH  15  22
HETATM   22  C   UNL     1      -8.328   4.653  67.876  1.00  0.00    -0.099 A  
HETATM   23  C   UNL     1      -8.268   2.806  69.996  1.00  0.00    -0.041 A  
HETATM   24  C   UNL     1      -7.134   4.395  68.573  1.00  0.00    -0.052 A  
HETATM   25 CL   UNL     1      -8.198   1.553  71.175  1.00  0.00    -0.052 Cl 
HETATM   26  C   UNL     1      -9.480   3.113  69.384  1.00  0.00    -0.189 A  
HETATM   27  C   UNL     1      -9.518   4.060  68.356  1.00  0.00    -0.211 A  
HETATM   28  C   UNL     1      -7.104   3.473  69.624  1.00  0.00    -0.042 A  
ENDBRANCH  15  22
ENDBRANCH  12  15
ENDBRANCH   8   9
ENDBRANCH   4   8
TORSDOF 5
ENDMDL
MODEL      151
REMARK 921   NORMALIZED FREE ENERGY PREDICTED BY IDOCK:   -2.58 KCAL/MOL
REMARK 922        TOTAL FREE ENERGY PREDICTED BY IDOCK:   -4.05 KCAL/MOL
REMARK 923 INTER-LIGAND FREE ENERGY PREDICTED BY IDOCK:   -4.92 KCAL/MOL
REMARK 924 INTRA-LIGAND FREE ENERGY PREDICTED BY IDOCK:    0.87 KCAL/MOL
REMARK 927      BINDING AFFINITY PREDICTED BY RF-SCORE:    0.00 PKD
ROOT
HETATM    1  C   UNL     1     -11.599  12.808  68.678  1.00  0.00    -0.352 C  
HETATM    2  C   UNL     1     -10.948  12.190  67.477  1.00  0.00    -0.304 A  
HETATM    3  C   UNL     1      -9.609  11.770  67.524  1.00  0.00    -0.179 A  
HETATM    4  C   UNL     1      -8.947  11.352  66.361  1.00  0.00    -0.196 A  
HETATM    5  C   UNL     1      -9.679  11.272  65.164  1.00  0.00    -0.285 A  
HETATM    6  C   UNL     1     -11.032  11.605  65.128  1.00  0.00    -0.326 A  
HETATM    7  C   UNL     1     -11.659  12.081  66.276  1.00  0.00    -0.378 A  
ENDROOT
BRANCH   4   8
HETATM    8  C   UNL     1      -7.444  11.087  66.387  1.00  0.00    -0.131 C  
BRANCH   8   9
HETATM    9  N   UNL     1      -7.096   9.722  66.814  1.00  0.00    -0.088 NA 
HETATM   10  C   UNL     1      -7.537   9.392  68.190  1.00  0.00    -0.083 C  
HETATM   11  C   UNL     1      -8.897   8.640  68.410  1.00  0.00    -0.142 C  
HETATM   12  N   UNL     1      -9.426   7.790  67.312  1.00  0.00    -0.142 NA 
HETATM   13  C   UNL     1      -9.118   8.506  66.054  1.00  0.00    -0.194 C  
HETATM   14  C   UNL     1      -7.615   8.737  65.863  1.00  0.00    -0.090 C  
BRANCH  12  15
HETATM   15  C   UNL     1      -8.881   6.389  67.299  1.00  0.00    -0.108 C  
BRANCH  15  16
HETATM   16  C   UNL     1      -9.103   5.633  68.612  1.00  0.00    -0.124 A  
HETATM   17  C   UNL     1      -8.109   4.729  69.052  1.00  0.00    -0.078 A  
HETATM   18  C   UNL     1     -10.207   5.863  69.425  1.00  0.00    -0.284 A  
HETATM   19  C   UNL     1      -8.216   4.100  70.293  1.00  0.00    -0.071 A  
HETATM   20  C   UNL     1      -9.316   4.354  71.103  1.00  0.00    -0.213 A  
HETATM   21  C   UNL     1     -10.317   5.224  70.664  1.00  0.00    -0.324 A  
ENDBRANCH  15  16
BRANCH  15  22
HETATM   22  C   UNL     1      -9.337   5.598  66.054  1.00  0.00    -0.150 A  
HETATM   23  C   UNL     1     -10.176   3.653  64.205  1.00  0.00    -0.231 A  
HETATM   24  C   UNL     1     -10.704   5.316  65.875  1.00  0.00    -0.052 A  
HETATM   25 CL   UNL     1     -10.674   2.346  63.200  1.00  0.00    -0.202 Cl 
HETATM   26  C   UNL     1      -8.827   3.979  64.296  1.00  0.00    -0.130 A  
HETATM   27  C   UNL     1      -8.412   4.974  65.187  1.00  0.00    -0.143 A  
HETATM   28  C   UNL     1     -11.119   4.345  64.959  1.00  0.00     0.076 A  
ENDBRANCH  15  22
ENDBRANCH  12  15
ENDBRANCH   8   9
ENDBRANCH   4   8
TORSDOF 5
ENDMDL
MODEL      152
REMARK 921   NORMALIZED FREE ENERGY PREDICTED BY IDOCK:   -2.53 KCAL/MOL
REMARK 922        TOTAL FREE ENERGY PREDICTED BY IDOCK:   -3.98 KCAL/MOL
REMARK 923 INTER-LIGAND FREE ENERGY PREDICTED BY IDOCK:   -6.17 KCAL/MOL
REMARK 924 INTRA-LIGAND FREE ENERGY PREDICTED BY IDOCK:    2.19 KCAL/MOL
REMARK 927      BINDING AFFINITY PREDICTED BY RF-SCORE:    0.00 PKD
ROOT
HETATM    1  C   UNL     1     -10.153   3.631  63.480  1.00  0.00    -0.194 C  
HETATM    2  C   UNL     1      -9.409   4.313  64.590  1.00  0.00    -0.162 A  
HETATM    3  C   UNL     1      -9.823   4.172  65.923  1.00  0.00    -0.206 A  
HETATM    4  C   UNL     1      -9.240   4.940  66.941  1.00  0.00    -0.124 A  
HETATM    5  C   UNL     1      -8.165   5.784  66.613  1.00  0.00    -0.106 A  
HETATM    6  C   UNL     1      -7.691   5.864  65.304  1.00  0.00    -0.095 A  
HETATM    7  C   UNL     1      -8.323   5.145  64.293  1.00  0.00    -0.137 A  
ENDROOT
BRANCH   4   8
HETATM    8  C   UNL     1      -9.830   4.923  68.349  1.00  0.00    -0.136 C  
BRANCH   8   9
HETATM    9  N   UNL     1      -9.778   6.231  69.022  1.00  0.00    -0.129 NA 
HETATM   10  C   UNL     1     -11.103   6.872  69.194  1.00  0.00    -0.159 C  
HETATM   11  C   UNL     1     -11.878   6.702  70.547  1.00  0.00    -0.370 C  
HETATM   12  N   UNL     1     -11.101   6.423  71.783  1.00  0.00    -0.253 NA 
HETATM   13  C   UNL     1     -10.008   5.509  71.382  1.00  0.00    -0.186 C  
HETATM   14  C   UNL     1      -9.096   6.119  70.313  1.00  0.00    -0.153 C  
BRANCH  12  15
HETATM   15  C   UNL     1     -10.572   7.651  72.469  1.00  0.00    -0.281 C  
BRANCH  15  16
HETATM   16  C   UNL     1      -9.132   7.503  72.966  1.00  0.00    -0.222 A  
HETATM   17  C   UNL     1      -8.133   8.338  72.413  1.00  0.00    -0.204 A  
HETATM   18  C   UNL     1      -8.785   6.636  73.996  1.00  0.00    -0.167 A  
HETATM   19  C   UNL     1      -6.829   8.317  72.911  1.00  0.00    -0.117 A  
HETATM   20  C   UNL     1      -6.503   7.457  73.953  1.00  0.00    -0.076 A  
HETATM   21  C   UNL     1      -7.476   6.609  74.487  1.00  0.00    -0.104 A  
ENDBRANCH  15  16
BRANCH  15  22
HETATM   22  C   UNL     1     -10.802   8.929  71.634  1.00  0.00    -0.420 A  
HETATM   23  C   UNL     1     -11.495  10.841  69.691  1.00  0.00    -0.305 A  
HETATM   24  C   UNL     1     -12.062   9.553  71.655  1.00  0.00    -0.474 A  
HETATM   25 CL   UNL     1     -11.978  11.879  68.405  1.00  0.00    -0.333 Cl 
HETATM   26  C   UNL     1     -10.210  10.308  69.705  1.00  0.00    -0.268 A  
HETATM   27  C   UNL     1      -9.851   9.386  70.694  1.00  0.00    -0.340 A  
HETATM   28  C   UNL     1     -12.408  10.500  70.685  1.00  0.00    -0.449 A  
ENDBRANCH  15  22
ENDBRANCH  12  15
ENDBRANCH   8   9
ENDBRANCH   4   8
TORSDOF 5
ENDMDL
MODEL      153
REMARK 921   NORMALIZED FREE ENERGY PREDICTED BY IDOCK:   -2.48 KCAL/MOL
REMARK 922        TOTAL FREE ENERGY PREDICTED BY IDOCK:   -3.92 KCAL/MOL
REMARK 923 INTER-LIGAND FREE ENERGY PREDICTED BY IDOCK:   -7.46 KCAL/MOL
REMARK 924 INTRA-LIGAND FREE ENERGY PREDICTED BY IDOCK:    3.55 KCAL/MOL
REMARK 927      BINDING AFFINITY PREDICTED BY RF-SCORE:    0.00 PKD
ROOT
HETATM    1  C   UNL     1      -7.807  10.557  62.828  1.00  0.00    -0.135 C  
HETATM    2  C   UNL     1      -8.959  10.546  63.789  1.00  0.00    -0.229 A  
HETATM    3  C   UNL     1      -9.881  11.604  63.816  1.00  0.00    -0.339 A  
HETATM    4  C   UNL     1     -10.854  11.683  64.822  1.00  0.00    -0.367 A  
HETATM    5  C   UNL     1     -10.948  10.630  65.748  1.00  0.00     0.091 A  
HETATM    6  C   UNL     1     -10.091   9.533  65.676  1.00  0.00    -0.157 A  
HETATM    7  C   UNL     1      -9.088   9.500  64.711  1.00  0.00    -0.271 A  
ENDROOT
BRANCH   4   8
HETATM    8  C   UNL     1     -11.720  12.933  64.956  1.00  0.00    -0.344 C  
BRANCH   8   9
HETATM    9  N   UNL     1     -11.612  13.583  66.271  1.00  0.00    -0.331 NA 
HETATM   10  C   UNL     1     -10.563  13.004  67.145  1.00  0.00    -0.246 C  
HETATM   11  C   UNL     1      -9.141  13.665  67.193  1.00  0.00    -0.239 C  
HETATM   12  N   UNL     1      -9.015  15.107  66.856  1.00  0.00    -0.235 NA 
HETATM   13  C   UNL     1      -9.958  15.352  65.743  1.00  0.00    -0.362 C  
HETATM   14  C   UNL     1     -11.407  15.025  66.119  1.00  0.00    -0.270 C  
BRANCH  12  15
HETATM   15  C   UNL     1      -9.268  16.035  68.010  1.00  0.00    -0.193 C  
BRANCH  15  16
HETATM   16  C   UNL     1      -9.407  17.503  67.599  1.00  0.00    -0.244 A  
HETATM   17  C   UNL     1      -8.393  18.085  66.803  1.00  0.00    -0.271 A  
HETATM   18  C   UNL     1     -10.531  18.260  67.910  1.00  0.00    -0.408 A  
HETATM   19  C   UNL     1      -8.528  19.385  66.313  1.00  0.00    -0.346 A  
HETATM   20  C   UNL     1      -9.666  20.121  66.617  1.00  0.00    -0.568 A  
HETATM   21  C   UNL     1     -10.660  19.565  67.425  1.00  0.00    -0.607 A  
ENDBRANCH  15  16
BRANCH  15  22
HETATM   22  C   UNL     1     -10.421  15.542  68.911  1.00  0.00    -0.223 A  
HETATM   23  C   UNL     1     -12.558  15.276  70.720  1.00  0.00    -0.417 A  
HETATM   24  C   UNL     1     -11.752  15.703  68.483  1.00  0.00    -0.339 A  
HETATM   25 CL   UNL     1     -13.849  15.281  71.860  1.00  0.00    -0.562 Cl 
HETATM   26  C   UNL     1     -11.259  15.019  71.147  1.00  0.00    -0.267 A  
HETATM   27  C   UNL     1     -10.199  15.113  70.239  1.00  0.00    -0.027 A  
HETATM   28  C   UNL     1     -12.813  15.575  69.385  1.00  0.00     0.443 A  
ENDBRANCH  15  22
ENDBRANCH  12  15
ENDBRANCH   8   9
ENDBRANCH   4   8
TORSDOF 5
ENDMDL
MODEL      154
REMARK 921   NORMALIZED FREE ENERGY PREDICTED BY IDOCK:   -2.46 KCAL/MOL
REMARK 922        TOTAL FREE ENERGY PREDICTED BY IDOCK:   -3.89 KCAL/MOL
REMARK 923 INTER-LIGAND FREE ENERGY PREDICTED BY IDOCK:   -6.65 KCAL/MOL
REMARK 924 INTRA-LIGAND FREE ENERGY PREDICTED BY IDOCK:    2.76 KCAL/MOL
REMARK 927      BINDING AFFINITY PREDICTED BY RF-SCORE:    0.00 PKD
ROOT
HETATM    1  C   UNL     1      -6.606  18.056  65.654  1.00  0.00    -0.242 C  
HETATM    2  C   UNL     1      -7.141  17.397  66.890  1.00  0.00    -0.229 A  
HETATM    3  C   UNL     1      -6.725  16.106  67.252  1.00  0.00    -0.233 A  
HETATM    4  C   UNL     1      -7.347  15.420  68.305  1.00  0.00    -0.113 A  
HETATM    5  C   UNL     1      -8.331  16.089  69.053  1.00  0.00    -0.243 A  
HETATM    6  C   UNL     1      -8.689  17.403  68.754  1.00  0.00    -0.223 A  
HETATM    7  C   UNL     1      -8.109  18.048  67.664  1.00  0.00    -0.232 A  
ENDROOT
BRANCH   4   8
HETATM    8  C   UNL     1      -7.023  13.951  68.562  1.00  0.00    -0.101 C  
BRANCH   8   9
HETATM    9  N   UNL     1      -7.508  13.050  67.504  1.00  0.00    -0.153 NA 
HETATM   10  C   UNL     1      -7.444  11.613  67.862  1.00  0.00    -0.105 C  
HETATM   11  C   UNL     1      -8.717  10.900  68.440  1.00  0.00    -0.147 C  
HETATM   12  N   UNL     1     -10.056  11.452  68.105  1.00  0.00    -0.183 NA 
HETATM   13  C   UNL     1      -9.907  12.923  68.113  1.00  0.00    -0.227 C  
HETATM   14  C   UNL     1      -8.867  13.414  67.101  1.00  0.00    -0.222 C  
BRANCH  12  15
HETATM   15  C   UNL     1     -10.616  10.959  66.800  1.00  0.00    -0.259 C  
BRANCH  15  16
HETATM   16  C   UNL     1     -11.237  12.066  65.944  1.00  0.00    -0.385 A  
HETATM   17  C   UNL     1     -12.034  13.049  66.576  1.00  0.00    -0.457 A  
HETATM   18  C   UNL     1     -10.982  12.185  64.582  1.00  0.00    -0.359 A  
HETATM   19  C   UNL     1     -12.530  14.137  65.855  1.00  0.00    -0.479 A  
HETATM   20  C   UNL     1     -12.250  14.251  64.499  1.00  0.00    -0.476 A  
HETATM   21  C   UNL     1     -11.488  13.270  63.861  1.00  0.00    -0.409 A  
ENDBRANCH  15  16
BRANCH  15  22
HETATM   22  C   UNL     1      -9.608  10.082  66.027  1.00  0.00    -0.279 A  
HETATM   23  C   UNL     1      -7.388   8.604  65.135  1.00  0.00    -0.088 A  
HETATM   24  C   UNL     1      -9.454   8.729  66.380  1.00  0.00    -0.291 A  
HETATM   25 CL   UNL     1      -5.946   7.754  64.730  1.00  0.00    -0.041 Cl 
HETATM   26  C   UNL     1      -7.566   9.913  64.695  1.00  0.00    -0.139 A  
HETATM   27  C   UNL     1      -8.690  10.636  65.107  1.00  0.00    -0.196 A  
HETATM   28  C   UNL     1      -8.347   7.997  65.940  1.00  0.00    -0.136 A  
ENDBRANCH  15  22
ENDBRANCH  12  15
ENDBRANCH   8   9
ENDBRANCH   4   8
TORSDOF 5
ENDMDL
MODEL      155
REMARK 921   NORMALIZED FREE ENERGY PREDICTED BY IDOCK:   -2.38 KCAL/MOL
REMARK 922        TOTAL FREE ENERGY PREDICTED BY IDOCK:   -3.78 KCAL/MOL
REMARK 923 INTER-LIGAND FREE ENERGY PREDICTED BY IDOCK:   -5.74 KCAL/MOL
REMARK 924 INTRA-LIGAND FREE ENERGY PREDICTED BY IDOCK:    1.95 KCAL/MOL
REMARK 927      BINDING AFFINITY PREDICTED BY RF-SCORE:    0.00 PKD
ROOT
HETATM    1  C   UNL     1     -11.031  13.554  66.857  1.00  0.00    -0.296 C  
HETATM    2  C   UNL     1     -10.248  12.283  66.714  1.00  0.00    -0.229 A  
HETATM    3  C   UNL     1      -9.638  11.688  67.830  1.00  0.00    -0.178 A  
HETATM    4  C   UNL     1      -8.766  10.600  67.676  1.00  0.00    -0.121 A  
HETATM    5  C   UNL     1      -8.591  10.058  66.392  1.00  0.00    -0.136 A  
HETATM    6  C   UNL     1      -9.261  10.590  65.291  1.00  0.00    -0.238 A  
HETATM    7  C   UNL     1     -10.072  11.710  65.449  1.00  0.00    -0.299 A  
ENDROOT
BRANCH   4   8
HETATM    8  C   UNL     1      -7.959  10.089  68.867  1.00  0.00    -0.101 C  
BRANCH   8   9
HETATM    9  N   UNL     1      -8.456   8.815  69.408  1.00  0.00    -0.123 NA 
HETATM   10  C   UNL     1      -7.625   8.261  70.503  1.00  0.00    -0.076 C  
HETATM   11  C   UNL     1      -8.020   8.541  71.996  1.00  0.00    -0.105 C  
HETATM   12  N   UNL     1      -9.443   8.832  72.313  1.00  0.00    -0.330 NA 
HETATM   13  C   UNL     1      -9.950   9.660  71.196  1.00  0.00     0.004 C  
HETATM   14  C   UNL     1      -9.848   8.947  69.844  1.00  0.00    -0.182 C  
BRANCH  12  15
HETATM   15  C   UNL     1     -10.290   7.609  72.525  1.00  0.00    -0.255 C  
BRANCH  15  16
HETATM   16  C   UNL     1     -11.766   7.817  72.174  1.00  0.00    -0.368 A  
HETATM   17  C   UNL     1     -12.436   8.947  72.699  1.00  0.00    -0.241 A  
HETATM   18  C   UNL     1     -12.447   6.982  71.296  1.00  0.00    -0.430 A  
HETATM   19  C   UNL     1     -13.748   9.237  72.319  1.00  0.00    -0.527 A  
HETATM   20  C   UNL     1     -14.409   8.402  71.426  1.00  0.00    -0.425 A  
HETATM   21  C   UNL     1     -13.764   7.269  70.925  1.00  0.00     0.093 A  
ENDBRANCH  15  16
BRANCH  15  22
HETATM   22  C   UNL     1      -9.677   6.354  71.866  1.00  0.00    -0.162 A  
HETATM   23  C   UNL     1      -9.070   3.768  70.946  1.00  0.00    -0.111 A  
HETATM   24  C   UNL     1     -10.212   5.876  70.656  1.00  0.00    -0.268 A  
HETATM   25 CL   UNL     1      -8.834   2.128  70.473  1.00  0.00    -0.119 Cl 
HETATM   26  C   UNL     1      -8.454   4.251  72.096  1.00  0.00    -0.111 A  
HETATM   27  C   UNL     1      -8.725   5.552  72.534  1.00  0.00    -0.124 A  
HETATM   28  C   UNL     1      -9.913   4.588  70.202  1.00  0.00    -0.278 A  
ENDBRANCH  15  22
ENDBRANCH  12  15
ENDBRANCH   8   9
ENDBRANCH   4   8
TORSDOF 5
ENDMDL
MODEL      156
REMARK 921   NORMALIZED FREE ENERGY PREDICTED BY IDOCK:   -2.33 KCAL/MOL
REMARK 922        TOTAL FREE ENERGY PREDICTED BY IDOCK:   -3.72 KCAL/MOL
REMARK 923 INTER-LIGAND FREE ENERGY PREDICTED BY IDOCK:   -6.98 KCAL/MOL
REMARK 924 INTRA-LIGAND FREE ENERGY PREDICTED BY IDOCK:    3.26 KCAL/MOL
REMARK 927      BINDING AFFINITY PREDICTED BY RF-SCORE:    0.00 PKD
ROOT
HETATM    1  C   UNL     1     -13.875  13.029  72.304  1.00  0.00    -0.529 C  
HETATM    2  C   UNL     1     -13.093  14.284  72.051  1.00  0.00    -0.456 A  
HETATM    3  C   UNL     1     -12.668  14.615  70.756  1.00  0.00    -0.422 A  
HETATM    4  C   UNL     1     -11.794  15.690  70.540  1.00  0.00    -0.402 A  
HETATM    5  C   UNL     1     -11.430  16.490  71.637  1.00  0.00    -0.105 A  
HETATM    6  C   UNL     1     -11.919  16.219  72.914  1.00  0.00    -0.615 A  
HETATM    7  C   UNL     1     -12.732  15.109  73.124  1.00  0.00    -0.592 A  
ENDROOT
BRANCH   4   8
HETATM    8  C   UNL     1     -11.184  15.919  69.159  1.00  0.00    -0.334 C  
BRANCH   8   9
HETATM    9  N   UNL     1     -11.269  14.742  68.279  1.00  0.00    -0.273 NA 
HETATM   10  C   UNL     1     -10.506  14.880  67.016  1.00  0.00    -0.272 C  
HETATM   11  C   UNL     1      -9.052  14.296  66.920  1.00  0.00    -0.252 C  
HETATM   12  N   UNL     1      -8.677  13.169  67.813  1.00  0.00    -0.175 NA 
HETATM   13  C   UNL     1      -9.331  13.441  69.112  1.00  0.00     0.552 C  
HETATM   14  C   UNL     1     -10.855  13.533  68.994  1.00  0.00    -0.192 C  
BRANCH  12  15
HETATM   15  C   UNL     1      -9.044  11.813  67.281  1.00  0.00    -0.171 C  
BRANCH  15  16
HETATM   16  C   UNL     1      -9.434  10.812  68.372  1.00  0.00    -0.174 A  
HETATM   17  C   UNL     1      -8.472  10.462  69.349  1.00  0.00    -0.145 A  
HETATM   18  C   UNL     1     -10.720  10.296  68.483  1.00  0.00    -0.262 A  
HETATM   19  C   UNL     1      -8.814   9.640  70.424  1.00  0.00    -0.227 A  
HETATM   20  C   UNL     1     -10.109   9.148  70.531  1.00  0.00    -0.288 A  
HETATM   21  C   UNL     1     -11.057   9.464  69.556  1.00  0.00    -0.134 A  
ENDBRANCH  15  16
BRANCH  15  22
HETATM   22  C   UNL     1     -10.073  11.896  66.133  1.00  0.00    -0.257 A  
HETATM   23  C   UNL     1     -11.807  12.685  64.065  1.00  0.00    -0.431 A  
HETATM   24  C   UNL     1      -9.621  11.970  64.803  1.00  0.00    -0.018 A  
HETATM   25 CL   UNL     1     -12.822  13.332  62.833  1.00  0.00     0.528 Cl 
HETATM   26  C   UNL     1     -12.302  12.529  65.357  1.00  0.00    -0.426 A  
HETATM   27  C   UNL     1     -11.449  12.098  66.379  1.00  0.00    -0.430 A  
HETATM   28  C   UNL     1     -10.483  12.368  63.776  1.00  0.00    -0.475 A  
ENDBRANCH  15  22
ENDBRANCH  12  15
ENDBRANCH   8   9
ENDBRANCH   4   8
TORSDOF 5
ENDMDL
MODEL      157
REMARK 921   NORMALIZED FREE ENERGY PREDICTED BY IDOCK:   -2.31 KCAL/MOL
REMARK 922        TOTAL FREE ENERGY PREDICTED BY IDOCK:   -3.69 KCAL/MOL
REMARK 923 INTER-LIGAND FREE ENERGY PREDICTED BY IDOCK:   -6.08 KCAL/MOL
REMARK 924 INTRA-LIGAND FREE ENERGY PREDICTED BY IDOCK:    2.40 KCAL/MOL
REMARK 927      BINDING AFFINITY PREDICTED BY RF-SCORE:    0.00 PKD
ROOT
HETATM    1  C   UNL     1      -6.522   8.306  64.317  1.00  0.00    -0.066 C  
HETATM    2  C   UNL     1      -6.750   8.721  65.740  1.00  0.00    -0.068 A  
HETATM    3  C   UNL     1      -6.964  10.069  66.068  1.00  0.00    -0.110 A  
HETATM    4  C   UNL     1      -7.005  10.484  67.406  1.00  0.00    -0.085 A  
HETATM    5  C   UNL     1      -6.924   9.508  68.414  1.00  0.00    -0.066 A  
HETATM    6  C   UNL     1      -6.798   8.157  68.095  1.00  0.00    -0.076 A  
HETATM    7  C   UNL     1      -6.692   7.767  66.763  1.00  0.00    -0.067 A  
ENDROOT
BRANCH   4   8
HETATM    8  C   UNL     1      -7.041  11.971  67.748  1.00  0.00    -0.108 C  
BRANCH   8   9
HETATM    9  N   UNL     1      -8.372  12.448  68.155  1.00  0.00    -0.172 NA 
HETATM   10  C   UNL     1      -8.341  13.513  69.186  1.00  0.00     0.467 C  
HETATM   11  C   UNL     1      -8.423  15.018  68.749  1.00  0.00    -0.180 C  
HETATM   12  N   UNL     1      -9.080  15.350  67.458  1.00  0.00    -0.192 NA 
HETATM   13  C   UNL     1      -8.696  14.277  66.514  1.00  0.00     0.023 C  
HETATM   14  C   UNL     1      -9.141  12.890  66.990  1.00  0.00    -0.228 C  
BRANCH  12  15
HETATM   15  C   UNL     1     -10.573  15.500  67.547  1.00  0.00    -0.297 C  
BRANCH  15  16
HETATM   16  C   UNL     1     -11.332  14.744  66.453  1.00  0.00    -0.339 A  
HETATM   17  C   UNL     1     -11.350  15.281  65.144  1.00  0.00    -0.321 A  
HETATM   18  C   UNL     1     -11.934  13.512  66.680  1.00  0.00    -0.452 A  
HETATM   19  C   UNL     1     -11.935  14.574  64.092  1.00  0.00    -0.346 A  
HETATM   20  C   UNL     1     -12.516  13.335  64.332  1.00  0.00    -0.356 A  
HETATM   21  C   UNL     1     -12.527  12.810  65.626  1.00  0.00    -0.341 A  
ENDBRANCH  15  16
BRANCH  15  22
HETATM   22  C   UNL     1     -11.104  15.212  68.968  1.00  0.00    -0.260 A  
HETATM   23  C   UNL     1     -12.592  15.022  71.347  1.00  0.00    -0.335 A  
HETATM   24  C   UNL     1     -12.013  14.157  69.167  1.00  0.00    -0.388 A  
HETATM   25 CL   UNL     1     -13.622  15.005  72.726  1.00  0.00    -0.553 Cl 
HETATM   26  C   UNL     1     -11.631  16.020  71.213  1.00  0.00    -0.506 A  
HETATM   27  C   UNL     1     -10.863  16.093  70.047  1.00  0.00    -0.349 A  
HETATM   28  C   UNL     1     -12.756  14.067  70.348  1.00  0.00    -0.316 A  
ENDBRANCH  15  22
ENDBRANCH  12  15
ENDBRANCH   8   9
ENDBRANCH   4   8
TORSDOF 5
ENDMDL
MODEL      158
REMARK 921   NORMALIZED FREE ENERGY PREDICTED BY IDOCK:   -2.24 KCAL/MOL
REMARK 922        TOTAL FREE ENERGY PREDICTED BY IDOCK:   -3.61 KCAL/MOL
REMARK 923 INTER-LIGAND FREE ENERGY PREDICTED BY IDOCK:   -4.66 KCAL/MOL
REMARK 924 INTRA-LIGAND FREE ENERGY PREDICTED BY IDOCK:    1.06 KCAL/MOL
REMARK 927      BINDING AFFINITY PREDICTED BY RF-SCORE:    0.00 PKD
ROOT
HETATM    1  C   UNL     1     -11.678  12.823  63.134  1.00  0.00    -0.256 C  
HETATM    2  C   UNL     1     -11.280  11.797  64.153  1.00  0.00    -0.437 A  
HETATM    3  C   UNL     1     -11.792  11.850  65.459  1.00  0.00    -0.135 A  
HETATM    4  C   UNL     1     -11.296  11.002  66.460  1.00  0.00     0.047 A  
HETATM    5  C   UNL     1     -10.342  10.032  66.104  1.00  0.00    -0.225 A  
HETATM    6  C   UNL     1      -9.892   9.918  64.790  1.00  0.00    -0.239 A  
HETATM    7  C   UNL     1     -10.346  10.809  63.822  1.00  0.00    -0.294 A  
ENDROOT
BRANCH   4   8
HETATM    8  C   UNL     1     -11.717  11.200  67.913  1.00  0.00    -0.182 C  
BRANCH   8   9
HETATM    9  N   UNL     1     -10.767  12.009  68.694  1.00  0.00    -0.230 NA 
HETATM   10  C   UNL     1      -9.377  11.967  68.181  1.00  0.00    -0.199 C  
HETATM   11  C   UNL     1      -8.870  13.099  67.220  1.00  0.00    -0.208 C  
HETATM   12  N   UNL     1      -9.524  14.433  67.283  1.00  0.00    -0.209 NA 
HETATM   13  C   UNL     1     -10.964  14.173  67.501  1.00  0.00    -0.283 C  
HETATM   14  C   UNL     1     -11.231  13.394  68.793  1.00  0.00    -0.275 C  
BRANCH  12  15
HETATM   15  C   UNL     1      -8.960  15.346  68.335  1.00  0.00    -0.189 C  
BRANCH  15  16
HETATM   16  C   UNL     1      -7.605  14.889  68.881  1.00  0.00    -0.144 A  
HETATM   17  C   UNL     1      -7.567  13.789  69.769  1.00  0.00     0.703 A  
HETATM   18  C   UNL     1      -6.407  15.465  68.476  1.00  0.00    -0.097 A  
HETATM   19  C   UNL     1      -6.348  13.268  70.207  1.00  0.00     0.075 A  
HETATM   20  C   UNL     1      -5.158  13.843  69.777  1.00  0.00    -0.091 A  
HETATM   21  C   UNL     1      -5.187  14.947  68.923  1.00  0.00    -0.092 A  
ENDBRANCH  15  16
BRANCH  15  22
HETATM   22  C   UNL     1      -8.972  16.824  67.890  1.00  0.00    -0.219 A  
HETATM   23  C   UNL     1      -9.589  19.514  67.347  1.00  0.00    -0.334 A  
HETATM   24  C   UNL     1      -8.688  17.833  68.829  1.00  0.00    -0.201 A  
HETATM   25 CL   UNL     1     -10.123  21.130  67.083  1.00  0.00     0.113 Cl 
HETATM   26  C   UNL     1      -9.792  18.549  66.365  1.00  0.00    -0.376 A  
HETATM   27  C   UNL     1      -9.449  17.217  66.619  1.00  0.00    -0.278 A  
HETATM   28  C   UNL     1      -9.001  19.169  68.560  1.00  0.00    -0.406 A  
ENDBRANCH  15  22
ENDBRANCH  12  15
ENDBRANCH   8   9
ENDBRANCH   4   8
TORSDOF 5
ENDMDL
MODEL      159
REMARK 921   NORMALIZED FREE ENERGY PREDICTED BY IDOCK:   -2.08 KCAL/MOL
REMARK 922        TOTAL FREE ENERGY PREDICTED BY IDOCK:   -3.40 KCAL/MOL
REMARK 923 INTER-LIGAND FREE ENERGY PREDICTED BY IDOCK:   -5.70 KCAL/MOL
REMARK 924 INTRA-LIGAND FREE ENERGY PREDICTED BY IDOCK:    2.30 KCAL/MOL
REMARK 927      BINDING AFFINITY PREDICTED BY RF-SCORE:    0.00 PKD
ROOT
HETATM    1  C   UNL     1      -7.787  12.747  67.213  1.00  0.00    -0.148 C  
HETATM    2  C   UNL     1      -7.393  11.366  66.780  1.00  0.00    -0.135 A  
HETATM    3  C   UNL     1      -8.267  10.282  66.959  1.00  0.00    -0.122 A  
HETATM    4  C   UNL     1      -7.841   8.968  66.716  1.00  0.00    -0.104 A  
HETATM    5  C   UNL     1      -6.550   8.767  66.198  1.00  0.00    -0.065 A  
HETATM    6  C   UNL     1      -5.707   9.846  65.935  1.00  0.00    -0.057 A  
HETATM    7  C   UNL     1      -6.120  11.139  66.243  1.00  0.00    -0.117 A  
ENDROOT
BRANCH   4   8
HETATM    8  C   UNL     1      -8.730   7.789  67.101  1.00  0.00    -0.125 C  
BRANCH   8   9
HETATM    9  N   UNL     1      -9.585   8.056  68.269  1.00  0.00    -0.145 NA 
HETATM   10  C   UNL     1     -10.838   7.265  68.291  1.00  0.00    -0.058 C  
HETATM   11  C   UNL     1     -10.896   5.927  69.109  1.00  0.00    -0.336 C  
HETATM   12  N   UNL     1      -9.971   5.754  70.260  1.00  0.00    -0.187 NA 
HETATM   13  C   UNL     1      -8.690   6.371  69.851  1.00  0.00    -0.142 C  
HETATM   14  C   UNL     1      -8.836   7.858  69.512  1.00  0.00    -0.142 C  
BRANCH  12  15
HETATM   15  C   UNL     1     -10.478   6.334  71.550  1.00  0.00    -0.223 C  
BRANCH  15  16
HETATM   16  C   UNL     1      -9.395   6.483  72.622  1.00  0.00    -0.145 A  
HETATM   17  C   UNL     1      -8.399   5.485  72.726  1.00  0.00    -0.113 A  
HETATM   18  C   UNL     1      -9.309   7.603  73.442  1.00  0.00    -0.324 A  
HETATM   19  C   UNL     1      -7.331   5.632  73.613  1.00  0.00    -0.087 A  
HETATM   20  C   UNL     1      -7.250   6.765  74.412  1.00  0.00    -0.094 A  
HETATM   21  C   UNL     1      -8.244   7.743  74.336  1.00  0.00    -0.279 A  
ENDBRANCH  15  16
BRANCH  15  22
HETATM   22  C   UNL     1     -11.298   7.623  71.328  1.00  0.00    -0.286 A  
HETATM   23  C   UNL     1     -12.700  10.049  71.565  1.00  0.00    -0.429 A  
HETATM   24  C   UNL     1     -10.632   8.855  71.202  1.00  0.00    -0.335 A  
HETATM   25 CL   UNL     1     -13.528  11.526  71.880  1.00  0.00    -0.393 Cl 
HETATM   26  C   UNL     1     -13.397   8.845  71.598  1.00  0.00    -0.414 A  
HETATM   27  C   UNL     1     -12.707   7.639  71.441  1.00  0.00    -0.357 A  
HETATM   28  C   UNL     1     -11.329  10.061  71.326  1.00  0.00    -0.336 A  
ENDBRANCH  15  22
ENDBRANCH  12  15
ENDBRANCH   8   9
ENDBRANCH   4   8
TORSDOF 5
ENDMDL
MODEL      160
REMARK 921   NORMALIZED FREE ENERGY PREDICTED BY IDOCK:   -2.06 KCAL/MOL
REMARK 922        TOTAL FREE ENERGY PREDICTED BY IDOCK:   -3.37 KCAL/MOL
REMARK 923 INTER-LIGAND FREE ENERGY PREDICTED BY IDOCK:   -2.57 KCAL/MOL
REMARK 924 INTRA-LIGAND FREE ENERGY PREDICTED BY IDOCK:   -0.80 KCAL/MOL
REMARK 927      BINDING AFFINITY PREDICTED BY RF-SCORE:    0.00 PKD
ROOT
HETATM    1  C   UNL     1      -7.190  16.775  70.198  1.00  0.00     1.198 C  
HETATM    2  C   UNL     1      -6.846  15.692  69.220  1.00  0.00    -0.164 A  
HETATM    3  C   UNL     1      -7.794  14.720  68.863  1.00  0.00    -0.152 A  
HETATM    4  C   UNL     1      -7.429  13.611  68.087  1.00  0.00    -0.125 A  
HETATM    5  C   UNL     1      -6.115  13.542  67.593  1.00  0.00    -0.120 A  
HETATM    6  C   UNL     1      -5.191  14.547  67.872  1.00  0.00    -0.068 A  
HETATM    7  C   UNL     1      -5.550  15.609  68.698  1.00  0.00    -0.099 A  
ENDROOT
BRANCH   4   8
HETATM    8  C   UNL     1      -8.415  12.466  67.871  1.00  0.00    -0.166 C  
BRANCH   8   9
HETATM    9  N   UNL     1      -8.688  11.690  69.092  1.00  0.00     0.219 NA 
HETATM   10  C   UNL     1     -10.012  11.023  69.097  1.00  0.00    -0.121 C  
HETATM   11  C   UNL     1     -10.126   9.523  68.648  1.00  0.00    -0.181 C  
HETATM   12  N   UNL     1      -8.931   8.649  68.775  1.00  0.00    -0.138 NA 
HETATM   13  C   UNL     1      -7.768   9.490  68.417  1.00  0.00    -0.085 C  
HETATM   14  C   UNL     1      -7.624  10.712  69.329  1.00  0.00    -0.138 C  
BRANCH  12  15
HETATM   15  C   UNL     1      -8.766   8.024  70.131  1.00  0.00    -0.135 C  
BRANCH  15  16
HETATM   16  C   UNL     1     -10.089   7.797  70.867  1.00  0.00    -0.195 A  
HETATM   17  C   UNL     1     -10.395   8.613  71.982  1.00  0.00    -0.416 A  
HETATM   18  C   UNL     1     -11.034   6.875  70.433  1.00  0.00    -0.315 A  
HETATM   19  C   UNL     1     -11.635   8.518  72.617  1.00  0.00    -0.284 A  
HETATM   20  C   UNL     1     -12.575   7.604  72.158  1.00  0.00    -0.218 A  
HETATM   21  C   UNL     1     -12.271   6.774  71.076  1.00  0.00    -0.405 A  
ENDBRANCH  15  16
BRANCH  15  22
HETATM   22  C   UNL     1      -7.868   6.768  70.089  1.00  0.00    -0.107 A  
HETATM   23  C   UNL     1      -6.801   4.173  69.911  1.00  0.00    -0.041 A  
HETATM   24  C   UNL     1      -7.492   6.227  68.846  1.00  0.00    -0.087 A  
HETATM   25 CL   UNL     1      -6.310   2.527  69.787  1.00  0.00    -0.028 Cl 
HETATM   26  C   UNL     1      -7.077   4.719  71.161  1.00  0.00    -0.051 A  
HETATM   27  C   UNL     1      -7.571   6.025  71.254  1.00  0.00    -0.094 A  
HETATM   28  C   UNL     1      -6.966   4.935  68.758  1.00  0.00    -0.052 A  
ENDBRANCH  15  22
ENDBRANCH  12  15
ENDBRANCH   8   9
ENDBRANCH   4   8
TORSDOF 5
ENDMDL
MODEL      161
REMARK 921   NORMALIZED FREE ENERGY PREDICTED BY IDOCK:   -2.04 KCAL/MOL
REMARK 922        TOTAL FREE ENERGY PREDICTED BY IDOCK:   -3.35 KCAL/MOL
REMARK 923 INTER-LIGAND FREE ENERGY PREDICTED BY IDOCK:   -3.62 KCAL/MOL
REMARK 924 INTRA-LIGAND FREE ENERGY PREDICTED BY IDOCK:    0.27 KCAL/MOL
REMARK 927      BINDING AFFINITY PREDICTED BY RF-SCORE:    0.00 PKD
ROOT
HETATM    1  C   UNL     1      -5.340   7.512  65.437  1.00  0.00    -0.029 C  
HETATM    2  C   UNL     1      -6.474   6.542  65.286  1.00  0.00    -0.039 A  
HETATM    3  C   UNL     1      -6.552   5.399  66.097  1.00  0.00    -0.048 A  
HETATM    4  C   UNL     1      -7.509   4.405  65.846  1.00  0.00    -0.081 A  
HETATM    5  C   UNL     1      -8.451   4.623  64.826  1.00  0.00    -0.137 A  
HETATM    6  C   UNL     1      -8.433   5.796  64.073  1.00  0.00     0.032 A  
HETATM    7  C   UNL     1      -7.437   6.743  64.290  1.00  0.00    -0.100 A  
ENDROOT
BRANCH   4   8
HETATM    8  C   UNL     1      -7.458   3.082  66.606  1.00  0.00    -0.075 C  
BRANCH   8   9
HETATM    9  N   UNL     1      -8.552   2.922  67.578  1.00  0.00    -0.093 NA 
HETATM   10  C   UNL     1      -8.138   2.280  68.848  1.00  0.00    -0.051 C  
HETATM   11  C   UNL     1      -7.764   3.173  70.083  1.00  0.00    -0.043 C  
HETATM   12  N   UNL     1      -8.345   4.538  70.177  1.00  0.00    -0.069 NA 
HETATM   13  C   UNL     1      -8.363   5.071  68.797  1.00  0.00    -0.084 C  
HETATM   14  C   UNL     1      -9.197   4.208  67.845  1.00  0.00    -0.151 C  
BRANCH  12  15
HETATM   15  C   UNL     1      -9.709   4.585  70.806  1.00  0.00    -0.197 C  
BRANCH  15  16
HETATM   16  C   UNL     1      -9.822   3.756  72.088  1.00  0.00    -0.238 A  
HETATM   17  C   UNL     1      -8.712   3.704  72.963  1.00  0.00    -0.096 A  
HETATM   18  C   UNL     1     -11.000   3.119  72.461  1.00  0.00     0.255 A  
HETATM   19  C   UNL     1      -8.804   3.052  74.194  1.00  0.00    -0.082 A  
HETATM   20  C   UNL     1      -9.995   2.436  74.561  1.00  0.00    -0.155 A  
HETATM   21  C   UNL     1     -11.087   2.459  73.691  1.00  0.00    -0.312 A  
ENDBRANCH  15  16
BRANCH  15  22
HETATM   22  C   UNL     1     -10.227   6.031  70.967  1.00  0.00    -0.253 A  
HETATM   23  C   UNL     1     -11.590   8.386  71.677  1.00  0.00    -0.289 A  
HETATM   24  C   UNL     1      -9.817   6.794  72.075  1.00  0.00    -0.166 A  
HETATM   25 CL   UNL     1     -12.528   9.728  72.209  1.00  0.00    -0.294 Cl 
HETATM   26  C   UNL     1     -11.956   7.700  70.523  1.00  0.00    -0.044 A  
HETATM   27  C   UNL     1     -11.254   6.550  70.146  1.00  0.00    -0.437 A  
HETATM   28  C   UNL     1     -10.499   7.962  72.430  1.00  0.00    -0.339 A  
ENDBRANCH  15  22
ENDBRANCH  12  15
ENDBRANCH   8   9
ENDBRANCH   4   8
TORSDOF 5
ENDMDL
MODEL      162
REMARK 921   NORMALIZED FREE ENERGY PREDICTED BY IDOCK:   -2.02 KCAL/MOL
REMARK 922        TOTAL FREE ENERGY PREDICTED BY IDOCK:   -3.32 KCAL/MOL
REMARK 923 INTER-LIGAND FREE ENERGY PREDICTED BY IDOCK:   -5.63 KCAL/MOL
REMARK 924 INTRA-LIGAND FREE ENERGY PREDICTED BY IDOCK:    2.31 KCAL/MOL
REMARK 927      BINDING AFFINITY PREDICTED BY RF-SCORE:    0.00 PKD
ROOT
HETATM    1  C   UNL     1      -7.878  19.237  66.106  1.00  0.00    -0.313 C  
HETATM    2  C   UNL     1      -8.588  18.248  66.983  1.00  0.00    -0.259 A  
HETATM    3  C   UNL     1      -7.951  17.066  67.391  1.00  0.00    -0.197 A  
HETATM    4  C   UNL     1      -8.663  16.062  68.064  1.00  0.00    -0.171 A  
HETATM    5  C   UNL     1     -10.004  16.306  68.405  1.00  0.00    -0.234 A  
HETATM    6  C   UNL     1     -10.619  17.513  68.078  1.00  0.00    -0.384 A  
HETATM    7  C   UNL     1      -9.919  18.473  67.353  1.00  0.00    -0.351 A  
ENDROOT
BRANCH   4   8
HETATM    8  C   UNL     1      -8.014  14.706  68.327  1.00  0.00    -0.133 C  
BRANCH   8   9
HETATM    9  N   UNL     1      -8.791  13.572  67.803  1.00  0.00    -0.186 NA 
HETATM   10  C   UNL     1      -8.166  12.900  66.639  1.00  0.00     0.217 C  
HETATM   11  C   UNL     1      -7.285  11.621  66.863  1.00  0.00    -0.125 C  
HETATM   12  N   UNL     1      -7.533  10.787  68.068  1.00  0.00    -0.088 NA 
HETATM   13  C   UNL     1      -7.840  11.732  69.164  1.00  0.00     0.164 C  
HETATM   14  C   UNL     1      -9.065  12.601  68.864  1.00  0.00     0.324 C  
BRANCH  12  15
HETATM   15  C   UNL     1      -8.621   9.766  67.896  1.00  0.00    -0.125 C  
BRANCH  15  16
HETATM   16  C   UNL     1      -9.313   9.381  69.207  1.00  0.00    -0.167 A  
HETATM   17  C   UNL     1     -10.700   9.104  69.188  1.00  0.00    -0.190 A  
HETATM   18  C   UNL     1      -8.613   9.217  70.397  1.00  0.00    -0.250 A  
HETATM   19  C   UNL     1     -11.351   8.644  70.334  1.00  0.00    -0.203 A  
HETATM   20  C   UNL     1     -10.634   8.467  71.510  1.00  0.00    -0.333 A  
HETATM   21  C   UNL     1      -9.270   8.765  71.546  1.00  0.00    -0.332 A  
ENDBRANCH  15  16
BRANCH  15  22
HETATM   22  C   UNL     1      -9.610  10.150  66.775  1.00  0.00    -0.222 A  
HETATM   23  C   UNL     1     -10.995  11.346  64.639  1.00  0.00    -0.255 A  
HETATM   24  C   UNL     1      -9.313   9.809  65.443  1.00  0.00    -0.311 A  
HETATM   25 CL   UNL     1     -11.723  12.202  63.334  1.00  0.00    -0.540 Cl 
HETATM   26  C   UNL     1     -11.372  11.629  65.948  1.00  0.00    -0.262 A  
HETATM   27  C   UNL     1     -10.710  11.006  67.011  1.00  0.00    -0.319 A  
HETATM   28  C   UNL     1      -9.999  10.408  64.381  1.00  0.00    -0.388 A  
ENDBRANCH  15  22
ENDBRANCH  12  15
ENDBRANCH   8   9
ENDBRANCH   4   8
TORSDOF 5
ENDMDL
MODEL      163
REMARK 921   NORMALIZED FREE ENERGY PREDICTED BY IDOCK:   -2.02 KCAL/MOL
REMARK 922        TOTAL FREE ENERGY PREDICTED BY IDOCK:   -3.32 KCAL/MOL
REMARK 923 INTER-LIGAND FREE ENERGY PREDICTED BY IDOCK:   -7.83 KCAL/MOL
REMARK 924 INTRA-LIGAND FREE ENERGY PREDICTED BY IDOCK:    4.51 KCAL/MOL
REMARK 927      BINDING AFFINITY PREDICTED BY RF-SCORE:    0.00 PKD
ROOT
HETATM    1  C   UNL     1     -12.196  16.387  74.377  1.00  0.00    -0.492 C  
HETATM    2  C   UNL     1     -12.467  15.604  73.126  1.00  0.00    -0.588 A  
HETATM    3  C   UNL     1     -12.098  16.110  71.870  1.00  0.00    -0.548 A  
HETATM    4  C   UNL     1     -12.500  15.467  70.691  1.00  0.00    -0.478 A  
HETATM    5  C   UNL     1     -13.198  14.251  70.794  1.00  0.00    -0.255 A  
HETATM    6  C   UNL     1     -13.492  13.698  72.040  1.00  0.00    -0.573 A  
HETATM    7  C   UNL     1     -13.144  14.381  73.201  1.00  0.00    -0.490 A  
ENDROOT
BRANCH   4   8
HETATM    8  C   UNL     1     -12.264  16.129  69.336  1.00  0.00     0.191 C  
BRANCH   8   9
HETATM    9  N   UNL     1     -11.041  15.666  68.662  1.00  0.00    -0.297 NA 
HETATM   10  C   UNL     1     -10.252  14.689  69.451  1.00  0.00    -0.085 C  
HETATM   11  C   UNL     1     -10.444  13.152  69.198  1.00  0.00     0.099 C  
HETATM   12  N   UNL     1     -10.932  12.705  67.868  1.00  0.00    -0.221 NA 
HETATM   13  C   UNL     1     -11.938  13.703  67.443  1.00  0.00    -0.376 C  
HETATM   14  C   UNL     1     -11.356  15.117  67.342  1.00  0.00    -0.306 C  
BRANCH  12  15
HETATM   15  C   UNL     1      -9.849  12.538  66.839  1.00  0.00    -0.227 C  
BRANCH  15  16
HETATM   16  C   UNL     1     -10.366  12.067  65.477  1.00  0.00    -0.298 A  
HETATM   17  C   UNL     1     -11.591  12.587  64.998  1.00  0.00    -0.392 A  
HETATM   18  C   UNL     1      -9.636  11.211  64.659  1.00  0.00    -0.289 A  
HETATM   19  C   UNL     1     -12.047  12.272  63.716  1.00  0.00    -0.624 A  
HETATM   20  C   UNL     1     -11.297  11.430  62.905  1.00  0.00     0.431 A  
HETATM   21  C   UNL     1     -10.100  10.889  63.380  1.00  0.00    -0.398 A  
ENDBRANCH  15  16
BRANCH  15  22
HETATM   22  C   UNL     1      -8.934  13.778  66.749  1.00  0.00    -0.202 A  
HETATM   23  C   UNL     1      -7.581  16.213  67.132  1.00  0.00    -0.202 A  
HETATM   24  C   UNL     1      -7.774  13.841  67.543  1.00  0.00    -0.187 A  
HETATM   25 CL   UNL     1      -6.857  17.731  67.502  1.00  0.00    -0.183 Cl 
HETATM   26  C   UNL     1      -8.670  16.159  66.268  1.00  0.00    -0.373 A  
HETATM   27  C   UNL     1      -9.320  14.941  66.046  1.00  0.00    -0.276 A  
HETATM   28  C   UNL     1      -7.105  15.053  67.736  1.00  0.00    -0.189 A  
ENDBRANCH  15  22
ENDBRANCH  12  15
ENDBRANCH   8   9
ENDBRANCH   4   8
TORSDOF 5
ENDMDL
MODEL      164
REMARK 921   NORMALIZED FREE ENERGY PREDICTED BY IDOCK:   -2.00 KCAL/MOL
REMARK 922        TOTAL FREE ENERGY PREDICTED BY IDOCK:   -3.30 KCAL/MOL
REMARK 923 INTER-LIGAND FREE ENERGY PREDICTED BY IDOCK:   -5.42 KCAL/MOL
REMARK 924 INTRA-LIGAND FREE ENERGY PREDICTED BY IDOCK:    2.12 KCAL/MOL
REMARK 927      BINDING AFFINITY PREDICTED BY RF-SCORE:    0.00 PKD
ROOT
HETATM    1  C   UNL     1     -10.760   3.121  62.826  1.00  0.00    -0.187 C  
HETATM    2  C   UNL     1      -9.596   3.846  63.433  1.00  0.00    -0.149 A  
HETATM    3  C   UNL     1      -9.334   3.757  64.809  1.00  0.00    -0.155 A  
HETATM    4  C   UNL     1      -8.357   4.565  65.408  1.00  0.00    -0.117 A  
HETATM    5  C   UNL     1      -7.579   5.397  64.586  1.00  0.00    -0.081 A  
HETATM    6  C   UNL     1      -7.775   5.427  63.206  1.00  0.00    -0.081 A  
HETATM    7  C   UNL     1      -8.793   4.669  62.634  1.00  0.00    -0.127 A  
ENDROOT
BRANCH   4   8
HETATM    8  C   UNL     1      -8.218   4.601  66.928  1.00  0.00    -0.106 C  
BRANCH   8   9
HETATM    9  N   UNL     1      -8.496   5.924  67.511  1.00  0.00    -0.105 NA 
HETATM   10  C   UNL     1      -9.633   6.633  66.877  1.00  0.00    -0.157 C  
HETATM   11  C   UNL     1     -11.061   6.539  67.519  1.00  0.00    -0.308 C  
HETATM   12  N   UNL     1     -11.171   6.259  68.975  1.00  0.00    -0.387 NA 
HETATM   13  C   UNL     1     -10.103   5.283  69.285  1.00  0.00    -0.230 C  
HETATM   14  C   UNL     1      -8.705   5.817  68.956  1.00  0.00    -0.112 C  
BRANCH  12  15
HETATM   15  C   UNL     1     -11.075   7.479  69.846  1.00  0.00    -0.171 C  
BRANCH  15  16
HETATM   16  C   UNL     1     -10.591   7.181  71.268  1.00  0.00    -0.230 A  
HETATM   17  C   UNL     1      -9.672   8.070  71.873  1.00  0.00    -0.250 A  
HETATM   18  C   UNL     1     -11.080   6.114  72.013  1.00  0.00    -0.322 A  
HETATM   19  C   UNL     1      -9.286   7.901  73.204  1.00  0.00    -0.337 A  
HETATM   20  C   UNL     1      -9.800   6.840  73.941  1.00  0.00    -0.318 A  
HETATM   21  C   UNL     1     -10.685   5.941  73.343  1.00  0.00    -0.293 A  
ENDBRANCH  15  16
BRANCH  15  22
HETATM   22  C   UNL     1     -10.296   8.624  69.163  1.00  0.00    -0.227 A  
HETATM   23  C   UNL     1      -8.978  11.015  68.488  1.00  0.00    -0.163 A  
HETATM   24  C   UNL     1      -8.930   8.800  69.452  1.00  0.00    -0.145 A  
HETATM   25 CL   UNL     1      -8.220  12.539  68.229  1.00  0.00    -0.168 Cl 
HETATM   26  C   UNL     1     -10.304  10.828  68.108  1.00  0.00    -0.197 A  
HETATM   27  C   UNL     1     -10.949   9.624  68.408  1.00  0.00    -0.161 A  
HETATM   28  C   UNL     1      -8.278   9.991  69.120  1.00  0.00    -0.137 A  
ENDBRANCH  15  22
ENDBRANCH  12  15
ENDBRANCH   8   9
ENDBRANCH   4   8
TORSDOF 5
ENDMDL
MODEL      165
REMARK 921   NORMALIZED FREE ENERGY PREDICTED BY IDOCK:   -1.76 KCAL/MOL
REMARK 922        TOTAL FREE ENERGY PREDICTED BY IDOCK:   -2.99 KCAL/MOL
REMARK 923 INTER-LIGAND FREE ENERGY PREDICTED BY IDOCK:   -5.04 KCAL/MOL
REMARK 924 INTRA-LIGAND FREE ENERGY PREDICTED BY IDOCK:    2.05 KCAL/MOL
REMARK 927      BINDING AFFINITY PREDICTED BY RF-SCORE:    0.00 PKD
ROOT
HETATM    1  C   UNL     1      -5.127  10.574  66.045  1.00  0.00    -0.068 C  
HETATM    2  C   UNL     1      -6.076   9.765  65.212  1.00  0.00    -0.083 A  
HETATM    3  C   UNL     1      -6.779   8.686  65.770  1.00  0.00    -0.064 A  
HETATM    4  C   UNL     1      -7.533   7.824  64.960  1.00  0.00    -0.089 A  
HETATM    5  C   UNL     1      -7.647   8.120  63.591  1.00  0.00    -0.132 A  
HETATM    6  C   UNL     1      -7.022   9.239  63.045  1.00  0.00    -0.092 A  
HETATM    7  C   UNL     1      -6.224  10.049  63.849  1.00  0.00    -0.132 A  
ENDROOT
BRANCH   4   8
HETATM    8  C   UNL     1      -8.129   6.547  65.546  1.00  0.00    -0.127 C  
BRANCH   8   9
HETATM    9  N   UNL     1      -9.312   6.784  66.388  1.00  0.00    -0.158 NA 
HETATM   10  C   UNL     1      -9.072   6.575  67.836  1.00  0.00    -0.113 C  
HETATM   11  C   UNL     1      -8.723   7.801  68.750  1.00  0.00    -0.128 C  
HETATM   12  N   UNL     1      -9.178   9.153  68.332  1.00  0.00    -0.132 NA 
HETATM   13  C   UNL     1      -9.026   9.200  66.861  1.00  0.00    -0.123 C  
HETATM   14  C   UNL     1      -9.853   8.124  66.151  1.00  0.00    -0.023 C  
BRANCH  12  15
HETATM   15  C   UNL     1     -10.580   9.490  68.755  1.00  0.00    -0.214 C  
BRANCH  15  16
HETATM   16  C   UNL     1     -10.885   9.129  70.211  1.00  0.00    -0.282 A  
HETATM   17  C   UNL     1     -12.226   8.875  70.582  1.00  0.00     0.020 A  
HETATM   18  C   UNL     1      -9.884   8.963  71.162  1.00  0.00    -0.345 A  
HETATM   19  C   UNL     1     -12.540   8.437  71.869  1.00  0.00    -0.389 A  
HETATM   20  C   UNL     1     -11.526   8.258  72.802  1.00  0.00    -0.338 A  
HETATM   21  C   UNL     1     -10.202   8.532  72.453  1.00  0.00    -0.369 A  
ENDBRANCH  15  16
BRANCH  15  22
HETATM   22  C   UNL     1     -10.966  10.940  68.392  1.00  0.00    -0.288 A  
HETATM   23  C   UNL     1     -11.121  13.558  67.375  1.00  0.00    -0.281 A  
HETATM   24  C   UNL     1     -11.607  11.201  67.167  1.00  0.00    -0.034 A  
HETATM   25 CL   UNL     1     -11.064  15.130  66.676  1.00  0.00    -0.327 Cl 
HETATM   26  C   UNL     1     -10.565  13.339  68.632  1.00  0.00    -0.264 A  
HETATM   27  C   UNL     1     -10.523  12.043  69.157  1.00  0.00    -0.005 A  
HETATM   28  C   UNL     1     -11.679  12.502  66.660  1.00  0.00    -0.453 A  
ENDBRANCH  15  22
ENDBRANCH  12  15
ENDBRANCH   8   9
ENDBRANCH   4   8
TORSDOF 5
ENDMDL
MODEL      166
REMARK 921   NORMALIZED FREE ENERGY PREDICTED BY IDOCK:   -1.75 KCAL/MOL
REMARK 922        TOTAL FREE ENERGY PREDICTED BY IDOCK:   -2.97 KCAL/MOL
REMARK 923 INTER-LIGAND FREE ENERGY PREDICTED BY IDOCK:   -5.25 KCAL/MOL
REMARK 924 INTRA-LIGAND FREE ENERGY PREDICTED BY IDOCK:    2.28 KCAL/MOL
REMARK 927      BINDING AFFINITY PREDICTED BY RF-SCORE:    0.00 PKD
ROOT
HETATM    1  C   UNL     1      -6.778   9.599  62.954  1.00  0.00    -0.105 C  
HETATM    2  C   UNL     1      -8.022  10.251  63.480  1.00  0.00    -0.143 A  
HETATM    3  C   UNL     1      -8.184  10.481  64.855  1.00  0.00    -0.117 A  
HETATM    4  C   UNL     1      -9.409  10.930  65.369  1.00  0.00    -0.240 A  
HETATM    5  C   UNL     1     -10.443  11.236  64.467  1.00  0.00    -0.396 A  
HETATM    6  C   UNL     1     -10.261  11.092  63.093  1.00  0.00    -0.300 A  
HETATM    7  C   UNL     1      -9.061  10.583  62.602  1.00  0.00    -0.309 A  
ENDROOT
BRANCH   4   8
HETATM    8  C   UNL     1      -9.634  10.988  66.877  1.00  0.00    -0.182 C  
BRANCH   8   9
HETATM    9  N   UNL     1      -9.253   9.750  67.575  1.00  0.00    -0.130 NA 
HETATM   10  C   UNL     1      -7.885   9.777  68.145  1.00  0.00    -0.085 C  
HETATM   11  C   UNL     1      -7.680  10.165  69.652  1.00  0.00    -0.163 C  
HETATM   12  N   UNL     1      -8.801   9.946  70.603  1.00  0.00    -0.010 NA 
HETATM   13  C   UNL     1     -10.037  10.286  69.864  1.00  0.00    -0.171 C  
HETATM   14  C   UNL     1     -10.231   9.422  68.614  1.00  0.00    -0.201 C  
BRANCH  12  15
HETATM   15  C   UNL     1      -8.862   8.558  71.174  1.00  0.00    -0.179 C  
BRANCH  15  16
HETATM   16  C   UNL     1     -10.288   8.026  71.341  1.00  0.00    -0.243 A  
HETATM   17  C   UNL     1     -11.265   8.870  71.917  1.00  0.00    -0.447 A  
HETATM   18  C   UNL     1     -10.674   6.774  70.875  1.00  0.00    -0.269 A  
HETATM   19  C   UNL     1     -12.601   8.469  71.990  1.00  0.00    -0.414 A  
HETATM   20  C   UNL     1     -12.974   7.223  71.502  1.00  0.00    -0.434 A  
HETATM   21  C   UNL     1     -12.010   6.371  70.958  1.00  0.00    -0.265 A  
ENDBRANCH  15  16
BRANCH  15  22
HETATM   22  C   UNL     1      -7.929   7.579  70.429  1.00  0.00    -0.102 A  
HETATM   23  C   UNL     1      -6.479   5.361  69.489  1.00  0.00    -0.038 A  
HETATM   24  C   UNL     1      -8.457   6.745  69.428  1.00  0.00    -0.132 A  
HETATM   25 CL   UNL     1      -5.666   3.911  69.040  1.00  0.00    -0.021 Cl 
HETATM   26  C   UNL     1      -5.895   6.224  70.412  1.00  0.00    -0.018 A  
HETATM   27  C   UNL     1      -6.599   7.349  70.851  1.00  0.00    -0.043 A  
HETATM   28  C   UNL     1      -7.738   5.639  68.965  1.00  0.00    -0.089 A  
ENDBRANCH  15  22
ENDBRANCH  12  15
ENDBRANCH   8   9
ENDBRANCH   4   8
TORSDOF 5
ENDMDL
MODEL      167
REMARK 921   NORMALIZED FREE ENERGY PREDICTED BY IDOCK:   -1.73 KCAL/MOL
REMARK 922        TOTAL FREE ENERGY PREDICTED BY IDOCK:   -2.94 KCAL/MOL
REMARK 923 INTER-LIGAND FREE ENERGY PREDICTED BY IDOCK:   -4.37 KCAL/MOL
REMARK 924 INTRA-LIGAND FREE ENERGY PREDICTED BY IDOCK:    1.43 KCAL/MOL
REMARK 927      BINDING AFFINITY PREDICTED BY RF-SCORE:    0.00 PKD
ROOT
HETATM    1  C   UNL     1      -9.806  16.949  68.500  1.00  0.00    -0.267 C  
HETATM    2  C   UNL     1      -8.951  15.834  67.975  1.00  0.00    -0.178 A  
HETATM    3  C   UNL     1      -9.521  14.601  67.618  1.00  0.00    -0.205 A  
HETATM    4  C   UNL     1      -8.711  13.504  67.292  1.00  0.00    -0.228 A  
HETATM    5  C   UNL     1      -7.319  13.691  67.236  1.00  0.00    -0.027 A  
HETATM    6  C   UNL     1      -6.752  14.935  67.505  1.00  0.00    -0.167 A  
HETATM    7  C   UNL     1      -7.563  15.998  67.891  1.00  0.00    -0.144 A  
ENDROOT
BRANCH   4   8
HETATM    8  C   UNL     1      -9.331  12.123  67.099  1.00  0.00    -0.193 C  
BRANCH   8   9
HETATM    9  N   UNL     1      -8.607  11.051  67.801  1.00  0.00    -0.128 NA 
HETATM   10  C   UNL     1      -8.785  11.069  69.273  1.00  0.00     0.102 C  
HETATM   11  C   UNL     1      -9.879  10.157  69.933  1.00  0.00    -0.177 C  
HETATM   12  N   UNL     1     -10.306   8.926  69.218  1.00  0.00    -0.210 NA 
HETATM   13  C   UNL     1     -10.337   9.277  67.781  1.00  0.00    -0.237 C  
HETATM   14  C   UNL     1      -8.973   9.741  67.260  1.00  0.00    -0.135 C  
BRANCH  12  15
HETATM   15  C   UNL     1      -9.435   7.729  69.477  1.00  0.00    -0.160 C  
BRANCH  15  16
HETATM   16  C   UNL     1      -7.937   8.034  69.401  1.00  0.00    -0.116 A  
HETATM   17  C   UNL     1      -7.314   8.663  70.504  1.00  0.00    -0.058 A  
HETATM   18  C   UNL     1      -7.151   7.643  68.322  1.00  0.00    -0.080 A  
HETATM   19  C   UNL     1      -5.932   8.861  70.526  1.00  0.00    -0.033 A  
HETATM   20  C   UNL     1      -5.160   8.448  69.448  1.00  0.00    -0.030 A  
HETATM   21  C   UNL     1      -5.769   7.851  68.342  1.00  0.00    -0.032 A  
ENDBRANCH  15  16
BRANCH  15  22
HETATM   22  C   UNL     1      -9.841   6.980  70.764  1.00  0.00    -0.190 A  
HETATM   23  C   UNL     1     -10.663   5.113  72.700  1.00  0.00    -0.237 A  
HETATM   24  C   UNL     1      -8.905   6.149  71.407  1.00  0.00    -0.139 A  
HETATM   25 CL   UNL     1     -11.188   3.858  73.756  1.00  0.00    -0.285 Cl 
HETATM   26  C   UNL     1     -11.594   5.988  72.149  1.00  0.00    -0.348 A  
HETATM   27  C   UNL     1     -11.180   6.943  71.214  1.00  0.00    -0.306 A  
HETATM   28  C   UNL     1      -9.316   5.218  72.365  1.00  0.00    -0.157 A  
ENDBRANCH  15  22
ENDBRANCH  12  15
ENDBRANCH   8   9
ENDBRANCH   4   8
TORSDOF 5
ENDMDL
MODEL      168
REMARK 921   NORMALIZED FREE ENERGY PREDICTED BY IDOCK:   -1.60 KCAL/MOL
REMARK 922        TOTAL FREE ENERGY PREDICTED BY IDOCK:   -2.77 KCAL/MOL
REMARK 923 INTER-LIGAND FREE ENERGY PREDICTED BY IDOCK:   -4.52 KCAL/MOL
REMARK 924 INTRA-LIGAND FREE ENERGY PREDICTED BY IDOCK:    1.75 KCAL/MOL
REMARK 927      BINDING AFFINITY PREDICTED BY RF-SCORE:    0.00 PKD
ROOT
HETATM    1  C   UNL     1      -6.699  15.221  69.883  1.00  0.00    -0.149 C  
HETATM    2  C   UNL     1      -7.466  15.473  68.618  1.00  0.00    -0.131 A  
HETATM    3  C   UNL     1      -8.778  14.998  68.470  1.00  0.00    -0.175 A  
HETATM    4  C   UNL     1      -9.435  15.079  67.233  1.00  0.00    -0.212 A  
HETATM    5  C   UNL     1      -8.787  15.733  66.171  1.00  0.00    -0.346 A  
HETATM    6  C   UNL     1      -7.518  16.284  66.337  1.00  0.00    -0.062 A  
HETATM    7  C   UNL     1      -6.852  16.138  67.551  1.00  0.00    -0.194 A  
ENDROOT
BRANCH   4   8
HETATM    8  C   UNL     1     -10.780  14.386  67.031  1.00  0.00    -0.285 C  
BRANCH   8   9
HETATM    9  N   UNL     1     -10.776  12.970  67.435  1.00  0.00    -0.243 NA 
HETATM   10  C   UNL     1     -11.405  12.062  66.447  1.00  0.00    -0.354 C  
HETATM   11  C   UNL     1     -10.508  11.309  65.403  1.00  0.00    -0.268 C  
HETATM   12  N   UNL     1      -9.084  11.051  65.743  1.00  0.00    -0.198 NA 
HETATM   13  C   UNL     1      -8.611  12.252  66.465  1.00  0.00    -0.038 C  
HETATM   14  C   UNL     1      -9.415  12.525  67.740  1.00  0.00    -0.197 C  
BRANCH  12  15
HETATM   15  C   UNL     1      -8.858   9.799  66.543  1.00  0.00    -0.138 C  
BRANCH  15  16
HETATM   16  C   UNL     1      -8.599   8.560  65.683  1.00  0.00    -0.200 A  
HETATM   17  C   UNL     1      -7.942   8.720  64.441  1.00  0.00    -0.144 A  
HETATM   18  C   UNL     1      -8.914   7.276  66.113  1.00  0.00    -0.179 A  
HETATM   19  C   UNL     1      -7.586   7.609  63.673  1.00  0.00    -0.118 A  
HETATM   20  C   UNL     1      -7.891   6.332  64.126  1.00  0.00    -0.117 A  
HETATM   21  C   UNL     1      -8.566   6.166  65.338  1.00  0.00    -0.111 A  
ENDBRANCH  15  16
BRANCH  15  22
HETATM   22  C   UNL     1      -7.807  10.001  67.656  1.00  0.00    -0.095 A  
HETATM   23  C   UNL     1      -6.154  10.965  69.716  1.00  0.00    -0.087 A  
HETATM   24  C   UNL     1      -8.195   9.887  69.004  1.00  0.00    -0.124 A  
HETATM   25 CL   UNL     1      -5.222  11.709  70.959  1.00  0.00    -0.129 Cl 
HETATM   26  C   UNL     1      -5.707  11.004  68.399  1.00  0.00    -0.042 A  
HETATM   27  C   UNL     1      -6.511  10.489  67.377  1.00  0.00    -0.062 A  
HETATM   28  C   UNL     1      -7.374  10.372  70.027  1.00  0.00    -0.121 A  
ENDBRANCH  15  22
ENDBRANCH  12  15
ENDBRANCH   8   9
ENDBRANCH   4   8
TORSDOF 5
ENDMDL
MODEL      169
REMARK 921   NORMALIZED FREE ENERGY PREDICTED BY IDOCK:   -1.59 KCAL/MOL
REMARK 922        TOTAL FREE ENERGY PREDICTED BY IDOCK:   -2.77 KCAL/MOL
REMARK 923 INTER-LIGAND FREE ENERGY PREDICTED BY IDOCK:   -3.96 KCAL/MOL
REMARK 924 INTRA-LIGAND FREE ENERGY PREDICTED BY IDOCK:    1.19 KCAL/MOL
REMARK 927      BINDING AFFINITY PREDICTED BY RF-SCORE:    0.00 PKD
ROOT
HETATM    1  C   UNL     1      -9.621  10.229  62.570  1.00  0.00    -0.217 C  
HETATM    2  C   UNL     1      -8.712  10.114  63.757  1.00  0.00    -0.220 A  
HETATM    3  C   UNL     1      -9.206  10.292  65.058  1.00  0.00    -0.259 A  
HETATM    4  C   UNL     1      -8.335  10.356  66.155  1.00  0.00    -0.149 A  
HETATM    5  C   UNL     1      -6.963  10.142  65.935  1.00  0.00    -0.116 A  
HETATM    6  C   UNL     1      -6.475   9.878  64.657  1.00  0.00    -0.119 A  
HETATM    7  C   UNL     1      -7.344   9.883  63.569  1.00  0.00    -0.132 A  
ENDROOT
BRANCH   4   8
HETATM    8  C   UNL     1      -8.863  10.746  67.533  1.00  0.00    -0.128 C  
BRANCH   8   9
HETATM    9  N   UNL     1      -9.605   9.666  68.203  1.00  0.00    -0.143 NA 
HETATM   10  C   UNL     1      -9.981   8.548  67.306  1.00  0.00    -0.225 C  
HETATM   11  C   UNL     1      -9.068   7.273  67.230  1.00  0.00    -0.123 C  
HETATM   12  N   UNL     1      -8.212   6.940  68.398  1.00  0.00    -0.120 NA 
HETATM   13  C   UNL     1      -7.717   8.231  68.926  1.00  0.00    -0.102 C  
HETATM   14  C   UNL     1      -8.854   9.164  69.356  1.00  0.00    -0.146 C  
BRANCH  12  15
HETATM   15  C   UNL     1      -8.906   6.137  69.462  1.00  0.00    -0.130 C  
BRANCH  15  16
HETATM   16  C   UNL     1      -8.787   4.624  69.263  1.00  0.00    -0.124 A  
HETATM   17  C   UNL     1      -7.682   4.118  68.540  1.00  0.00    -0.066 A  
HETATM   18  C   UNL     1      -9.683   3.726  69.833  1.00  0.00    -0.200 A  
HETATM   19  C   UNL     1      -7.473   2.742  68.427  1.00  0.00    -0.048 A  
HETATM   20  C   UNL     1      -8.367   1.858  69.018  1.00  0.00    -0.072 A  
HETATM   21  C   UNL     1      -9.477   2.348  69.710  1.00  0.00    -0.122 A  
ENDBRANCH  15  16
BRANCH  15  22
HETATM   22  C   UNL     1      -8.519   6.597  70.885  1.00  0.00    -0.133 A  
HETATM   23  C   UNL     1      -7.628   7.979  73.166  1.00  0.00    -0.145 A  
HETATM   24  C   UNL     1      -9.385   7.447  71.596  1.00  0.00    -0.162 A  
HETATM   25 CL   UNL     1      -7.032   8.952  74.455  1.00  0.00    -0.106 Cl 
HETATM   26  C   UNL     1      -6.781   7.073  72.535  1.00  0.00    -0.061 A  
HETATM   27  C   UNL     1      -7.236   6.355  71.424  1.00  0.00    -0.079 A  
HETATM   28  C   UNL     1      -8.939   8.138  72.727  1.00  0.00    -0.313 A  
ENDBRANCH  15  22
ENDBRANCH  12  15
ENDBRANCH   8   9
ENDBRANCH   4   8
TORSDOF 5
ENDMDL
MODEL      170
REMARK 921   NORMALIZED FREE ENERGY PREDICTED BY IDOCK:   -1.59 KCAL/MOL
REMARK 922        TOTAL FREE ENERGY PREDICTED BY IDOCK:   -2.76 KCAL/MOL
REMARK 923 INTER-LIGAND FREE ENERGY PREDICTED BY IDOCK:   -6.02 KCAL/MOL
REMARK 924 INTRA-LIGAND FREE ENERGY PREDICTED BY IDOCK:    3.25 KCAL/MOL
REMARK 927      BINDING AFFINITY PREDICTED BY RF-SCORE:    0.00 PKD
ROOT
HETATM    1  C   UNL     1     -10.003   4.527  70.112  1.00  0.00    -0.278 C  
HETATM    2  C   UNL     1      -9.599   4.452  68.669  1.00  0.00    -0.216 A  
HETATM    3  C   UNL     1      -9.121   5.589  67.999  1.00  0.00    -0.110 A  
HETATM    4  C   UNL     1      -8.906   5.568  66.614  1.00  0.00    -0.117 A  
HETATM    5  C   UNL     1      -9.088   4.357  65.925  1.00  0.00    -0.133 A  
HETATM    6  C   UNL     1      -9.480   3.201  66.599  1.00  0.00    -0.080 A  
HETATM    7  C   UNL     1      -9.753   3.253  67.963  1.00  0.00    -0.030 A  
ENDROOT
BRANCH   4   8
HETATM    8  C   UNL     1      -8.576   6.859  65.869  1.00  0.00    -0.145 C  
BRANCH   8   9
HETATM    9  N   UNL     1      -8.617   8.056  66.724  1.00  0.00    -0.126 NA 
HETATM   10  C   UNL     1      -7.371   8.858  66.694  1.00  0.00    -0.085 C  
HETATM   11  C   UNL     1      -7.265  10.092  65.730  1.00  0.00    -0.117 C  
HETATM   12  N   UNL     1      -8.515  10.775  65.308  1.00  0.00    -0.152 NA 
HETATM   13  C   UNL     1      -9.519   9.707  65.110  1.00  0.00    -0.265 C  
HETATM   14  C   UNL     1      -9.769   8.893  66.384  1.00  0.00    -0.262 C  
BRANCH  12  15
HETATM   15  C   UNL     1      -9.002  11.821  66.271  1.00  0.00    -0.176 C  
BRANCH  15  16
HETATM   16  C   UNL     1     -10.244  12.572  65.785  1.00  0.00    -0.289 A  
HETATM   17  C   UNL     1     -11.101  13.160  66.744  1.00  0.00    -0.314 A  
HETATM   18  C   UNL     1     -10.516  12.766  64.435  1.00  0.00    -0.410 A  
HETATM   19  C   UNL     1     -12.184  13.947  66.346  1.00  0.00    -0.487 A  
HETATM   20  C   UNL     1     -12.431  14.146  64.994  1.00  0.00    -0.434 A  
HETATM   21  C   UNL     1     -11.606  13.546  64.039  1.00  0.00    -0.394 A  
ENDBRANCH  15  16
BRANCH  15  22
HETATM   22  C   UNL     1      -9.145  11.270  67.706  1.00  0.00    -0.152 A  
HETATM   23  C   UNL     1      -9.231   9.701  70.039  1.00  0.00    -0.241 A  
HETATM   24  C   UNL     1      -7.996  11.092  68.498  1.00  0.00    -0.143 A  
HETATM   25 CL   UNL     1      -9.245   8.605  71.367  1.00  0.00    -0.273 Cl 
HETATM   26  C   UNL     1     -10.402   9.938  69.325  1.00  0.00    -0.235 A  
HETATM   27  C   UNL     1     -10.368  10.750  68.187  1.00  0.00    -0.197 A  
HETATM   28  C   UNL     1      -8.038  10.308  69.655  1.00  0.00    -0.157 A  
ENDBRANCH  15  22
ENDBRANCH  12  15
ENDBRANCH   8   9
ENDBRANCH   4   8
TORSDOF 5
ENDMDL
MODEL      171
REMARK 921   NORMALIZED FREE ENERGY PREDICTED BY IDOCK:   -1.50 KCAL/MOL
REMARK 922        TOTAL FREE ENERGY PREDICTED BY IDOCK:   -2.65 KCAL/MOL
REMARK 923 INTER-LIGAND FREE ENERGY PREDICTED BY IDOCK:   -6.04 KCAL/MOL
REMARK 924 INTRA-LIGAND FREE ENERGY PREDICTED BY IDOCK:    3.39 KCAL/MOL
REMARK 927      BINDING AFFINITY PREDICTED BY RF-SCORE:    0.00 PKD
ROOT
HETATM    1  C   UNL     1      -5.846   7.613  68.763  1.00  0.00    -0.023 C  
HETATM    2  C   UNL     1      -6.739   7.519  67.561  1.00  0.00    -0.067 A  
HETATM    3  C   UNL     1      -7.003   8.651  66.774  1.00  0.00    -0.077 A  
HETATM    4  C   UNL     1      -7.967   8.608  65.757  1.00  0.00    -0.106 A  
HETATM    5  C   UNL     1      -8.595   7.382  65.478  1.00  0.00    -0.093 A  
HETATM    6  C   UNL     1      -8.274   6.233  66.199  1.00  0.00    -0.121 A  
HETATM    7  C   UNL     1      -7.363   6.305  67.249  1.00  0.00    -0.083 A  
ENDROOT
BRANCH   4   8
HETATM    8  C   UNL     1      -8.385   9.891  65.042  1.00  0.00    -0.148 C  
BRANCH   8   9
HETATM    9  N   UNL     1      -8.758  10.979  65.960  1.00  0.00    -0.186 NA 
HETATM   10  C   UNL     1      -9.581  12.040  65.332  1.00  0.00    -0.132 C  
HETATM   11  C   UNL     1     -11.144  11.989  65.463  1.00  0.00    -0.313 C  
HETATM   12  N   UNL     1     -11.739  11.274  66.622  1.00  0.00    -0.281 NA 
HETATM   13  C   UNL     1     -10.892  10.082  66.847  1.00  0.00    -0.082 C  
HETATM   14  C   UNL     1      -9.433  10.445  67.144  1.00  0.00    -0.159 C  
BRANCH  12  15
HETATM   15  C   UNL     1     -11.859  12.109  67.866  1.00  0.00    -0.269 C  
BRANCH  15  16
HETATM   16  C   UNL     1     -11.678  11.311  69.160  1.00  0.00    -0.410 A  
HETATM   17  C   UNL     1     -12.716  11.331  70.121  1.00  0.00    -0.109 A  
HETATM   18  C   UNL     1     -10.568  10.506  69.389  1.00  0.00    -0.269 A  
HETATM   19  C   UNL     1     -12.644  10.534  71.265  1.00  0.00    -0.531 A  
HETATM   20  C   UNL     1     -11.536   9.720  71.470  1.00  0.00    -0.424 A  
HETATM   21  C   UNL     1     -10.494   9.716  70.540  1.00  0.00    -0.367 A  
ENDBRANCH  15  16
BRANCH  15  22
HETATM   22  C   UNL     1     -10.981  13.377  67.803  1.00  0.00    -0.281 A  
HETATM   23  C   UNL     1      -9.658  15.815  68.268  1.00  0.00    -0.201 A  
HETATM   24  C   UNL     1      -9.766  13.414  68.511  1.00  0.00    -0.156 A  
HETATM   25 CL   UNL     1      -8.943  17.321  68.698  1.00  0.00    -0.274 Cl 
HETATM   26  C   UNL     1     -10.809  15.794  67.486  1.00  0.00    -0.315 A  
HETATM   27  C   UNL     1     -11.446  14.578  67.221  1.00  0.00    -0.381 A  
HETATM   28  C   UNL     1      -9.112  14.627  68.746  1.00  0.00    -0.178 A  
ENDBRANCH  15  22
ENDBRANCH  12  15
ENDBRANCH   8   9
ENDBRANCH   4   8
TORSDOF 5
ENDMDL
MODEL      172
REMARK 921   NORMALIZED FREE ENERGY PREDICTED BY IDOCK:   -1.43 KCAL/MOL
REMARK 922        TOTAL FREE ENERGY PREDICTED BY IDOCK:   -2.55 KCAL/MOL
REMARK 923 INTER-LIGAND FREE ENERGY PREDICTED BY IDOCK:   -3.73 KCAL/MOL
REMARK 924 INTRA-LIGAND FREE ENERGY PREDICTED BY IDOCK:    1.17 KCAL/MOL
REMARK 927      BINDING AFFINITY PREDICTED BY RF-SCORE:    0.00 PKD
ROOT
HETATM    1  C   UNL     1      -9.627   2.847  70.638  1.00  0.00    -0.184 C  
HETATM    2  C   UNL     1      -9.352   4.294  70.919  1.00  0.00    -0.220 A  
HETATM    3  C   UNL     1      -8.091   4.850  70.651  1.00  0.00    -0.086 A  
HETATM    4  C   UNL     1      -7.776   6.151  71.069  1.00  0.00    -0.102 A  
HETATM    5  C   UNL     1      -8.782   6.921  71.677  1.00  0.00    -0.124 A  
HETATM    6  C   UNL     1     -10.062   6.406  71.869  1.00  0.00    -0.204 A  
HETATM    7  C   UNL     1     -10.341   5.091  71.508  1.00  0.00    -0.252 A  
ENDROOT
BRANCH   4   8
HETATM    8  C   UNL     1      -6.346   6.671  70.947  1.00  0.00    -0.047 C  
BRANCH   8   9
HETATM    9  N   UNL     1      -5.893   6.821  69.556  1.00  0.00    -0.015 NA 
HETATM   10  C   UNL     1      -6.121   5.621  68.716  1.00  0.00    -0.025 C  
HETATM   11  C   UNL     1      -7.408   5.532  67.822  1.00  0.00    -0.076 C  
HETATM   12  N   UNL     1      -8.057   6.795  67.382  1.00  0.00    -0.117 NA 
HETATM   13  C   UNL     1      -7.957   7.727  68.526  1.00  0.00    -0.122 C  
HETATM   14  C   UNL     1      -6.507   7.998  68.938  1.00  0.00    -0.048 C  
BRANCH  12  15
HETATM   15  C   UNL     1      -7.470   7.387  66.132  1.00  0.00    -0.083 C  
BRANCH  15  16
HETATM   16  C   UNL     1      -6.952   6.340  65.142  1.00  0.00    -0.056 A  
HETATM   17  C   UNL     1      -7.887   5.516  64.473  1.00  0.00    -0.109 A  
HETATM   18  C   UNL     1      -5.605   6.224  64.819  1.00  0.00    -0.022 A  
HETATM   19  C   UNL     1      -7.471   4.624  63.483  1.00  0.00    -0.055 A  
HETATM   20  C   UNL     1      -6.124   4.533  63.158  1.00  0.00    -0.018 A  
HETATM   21  C   UNL     1      -5.190   5.323  63.833  1.00  0.00    -0.010 A  
ENDBRANCH  15  16
BRANCH  15  22
HETATM   22  C   UNL     1      -8.408   8.428  65.484  1.00  0.00    -0.161 A  
HETATM   23  C   UNL     1      -9.738  10.751  64.622  1.00  0.00    -0.289 A  
HETATM   24  C   UNL     1      -7.992   9.108  64.325  1.00  0.00    -0.139 A  
HETATM   25 CL   UNL     1     -10.444  12.263  64.195  1.00  0.00    -0.370 Cl 
HETATM   26  C   UNL     1     -10.227  10.044  65.716  1.00  0.00    -0.270 A  
HETATM   27  C   UNL     1      -9.590   8.867  66.122  1.00  0.00    -0.335 A  
HETATM   28  C   UNL     1      -8.651  10.266  63.900  1.00  0.00    -0.191 A  
ENDBRANCH  15  22
ENDBRANCH  12  15
ENDBRANCH   8   9
ENDBRANCH   4   8
TORSDOF 5
ENDMDL
MODEL      173
REMARK 921   NORMALIZED FREE ENERGY PREDICTED BY IDOCK:   -1.39 KCAL/MOL
REMARK 922        TOTAL FREE ENERGY PREDICTED BY IDOCK:   -2.51 KCAL/MOL
REMARK 923 INTER-LIGAND FREE ENERGY PREDICTED BY IDOCK:   -4.42 KCAL/MOL
REMARK 924 INTRA-LIGAND FREE ENERGY PREDICTED BY IDOCK:    1.91 KCAL/MOL
REMARK 927      BINDING AFFINITY PREDICTED BY RF-SCORE:    0.00 PKD
ROOT
HETATM    1  C   UNL     1      -9.360   3.294  70.641  1.00  0.00    -0.229 C  
HETATM    2  C   UNL     1      -9.186   3.453  69.159  1.00  0.00    -0.227 A  
HETATM    3  C   UNL     1      -8.825   4.693  68.609  1.00  0.00    -0.125 A  
HETATM    4  C   UNL     1      -8.829   4.890  67.221  1.00  0.00    -0.103 A  
HETATM    5  C   UNL     1      -9.110   3.793  66.388  1.00  0.00    -0.157 A  
HETATM    6  C   UNL     1      -9.385   2.537  66.926  1.00  0.00    -0.039 A  
HETATM    7  C   UNL     1      -9.441   2.372  68.307  1.00  0.00    -0.222 A  
ENDROOT
BRANCH   4   8
HETATM    8  C   UNL     1      -8.628   6.289  66.644  1.00  0.00    -0.119 C  
BRANCH   8   9
HETATM    9  N   UNL     1      -8.428   7.324  67.671  1.00  0.00    -0.117 NA 
HETATM   10  C   UNL     1      -8.202   8.681  67.122  1.00  0.00    -0.107 C  
HETATM   11  C   UNL     1      -9.408   9.675  66.986  1.00  0.00    -0.147 C  
HETATM   12  N   UNL     1     -10.580   9.500  67.884  1.00  0.00    -0.245 NA 
HETATM   13  C   UNL     1     -10.775   8.040  68.022  1.00  0.00    -0.047 C  
HETATM   14  C   UNL     1      -9.549   7.337  68.613  1.00  0.00    -0.141 C  
BRANCH  12  15
HETATM   15  C   UNL     1     -10.436  10.168  69.222  1.00  0.00    -0.225 C  
BRANCH  15  16
HETATM   16  C   UNL     1     -10.694  11.677  69.184  1.00  0.00    -0.188 A  
HETATM   17  C   UNL     1      -9.902  12.481  68.330  1.00  0.00    -0.202 A  
HETATM   18  C   UNL     1     -11.727  12.274  69.897  1.00  0.00    -0.346 A  
HETATM   19  C   UNL     1     -10.172  13.842  68.180  1.00  0.00    -0.249 A  
HETATM   20  C   UNL     1     -11.220  14.419  68.885  1.00  0.00    -0.284 A  
HETATM   21  C   UNL     1     -11.989  13.640  69.752  1.00  0.00    -0.404 A  
ENDBRANCH  15  16
BRANCH  15  22
HETATM   22  C   UNL     1     -11.234   9.441  70.325  1.00  0.00    -0.286 A  
HETATM   23  C   UNL     1     -12.727   7.641  71.887  1.00  0.00    -0.293 A  
HETATM   24  C   UNL     1     -10.593   8.469  71.116  1.00  0.00    -0.277 A  
HETATM   25 CL   UNL     1     -13.646   6.436  72.705  1.00  0.00     0.540 Cl 
HETATM   26  C   UNL     1     -13.380   8.652  71.188  1.00  0.00    -0.059 A  
HETATM   27  C   UNL     1     -12.636   9.572  70.442  1.00  0.00     0.178 A  
HETATM   28  C   UNL     1     -11.337   7.572  71.888  1.00  0.00    -0.298 A  
ENDBRANCH  15  22
ENDBRANCH  12  15
ENDBRANCH   8   9
ENDBRANCH   4   8
TORSDOF 5
ENDMDL
MODEL      174
REMARK 921   NORMALIZED FREE ENERGY PREDICTED BY IDOCK:   -1.39 KCAL/MOL
REMARK 922        TOTAL FREE ENERGY PREDICTED BY IDOCK:   -2.50 KCAL/MOL
REMARK 923 INTER-LIGAND FREE ENERGY PREDICTED BY IDOCK:   -3.53 KCAL/MOL
REMARK 924 INTRA-LIGAND FREE ENERGY PREDICTED BY IDOCK:    1.03 KCAL/MOL
REMARK 927      BINDING AFFINITY PREDICTED BY RF-SCORE:    0.00 PKD
ROOT
HETATM    1  C   UNL     1      -9.501  11.417  67.955  1.00  0.00    -0.181 C  
HETATM    2  C   UNL     1      -9.191  10.903  66.580  1.00  0.00    -0.184 A  
HETATM    3  C   UNL     1      -7.921  10.391  66.277  1.00  0.00    -0.138 A  
HETATM    4  C   UNL     1      -7.572  10.070  64.956  1.00  0.00    -0.139 A  
HETATM    5  C   UNL     1      -8.555  10.182  63.958  1.00  0.00    -0.197 A  
HETATM    6  C   UNL     1      -9.846  10.608  64.267  1.00  0.00    -0.391 A  
HETATM    7  C   UNL     1     -10.157  10.985  65.570  1.00  0.00    -0.316 A  
ENDROOT
BRANCH   4   8
HETATM    8  C   UNL     1      -6.132   9.703  64.610  1.00  0.00    -0.087 C  
BRANCH   8   9
HETATM    9  N   UNL     1      -5.843   8.267  64.753  1.00  0.00    -0.045 NA 
HETATM   10  C   UNL     1      -5.660   7.827  66.157  1.00  0.00    -0.032 C  
HETATM   11  C   UNL     1      -6.871   7.209  66.940  1.00  0.00    -0.072 C  
HETATM   12  N   UNL     1      -7.962   6.559  66.168  1.00  0.00    -0.105 NA 
HETATM   13  C   UNL     1      -8.149   7.381  64.952  1.00  0.00    -0.114 C  
HETATM   14  C   UNL     1      -6.879   7.465  64.099  1.00  0.00    -0.052 C  
BRANCH  12  15
HETATM   15  C   UNL     1      -7.703   5.119  65.829  1.00  0.00    -0.091 C  
BRANCH  15  16
HETATM   16  C   UNL     1      -7.553   4.217  67.056  1.00  0.00    -0.077 A  
HETATM   17  C   UNL     1      -8.363   4.469  68.188  1.00  0.00    -0.095 A  
HETATM   18  C   UNL     1      -6.709   3.112  67.070  1.00  0.00    -0.045 A  
HETATM   19  C   UNL     1      -8.341   3.609  69.288  1.00  0.00    -0.086 A  
HETATM   20  C   UNL     1      -7.505   2.500  69.278  1.00  0.00    -0.044 A  
HETATM   21  C   UNL     1      -6.681   2.258  68.177  1.00  0.00    -0.036 A  
ENDBRANCH  15  16
BRANCH  15  22
HETATM   22  C   UNL     1      -8.708   4.574  64.791  1.00  0.00    -0.146 A  
HETATM   23  C   UNL     1     -10.434   3.016  63.208  1.00  0.00    -0.208 A  
HETATM   24  C   UNL     1     -10.052   4.385  65.162  1.00  0.00    -0.193 A  
HETATM   25 CL   UNL     1     -11.437   1.925  62.331  1.00  0.00    -0.220 Cl 
HETATM   26  C   UNL     1      -9.136   3.266  62.772  1.00  0.00    -0.092 A  
HETATM   27  C   UNL     1      -8.289   4.073  63.538  1.00  0.00    -0.094 A  
HETATM   28  C   UNL     1     -10.908   3.605  64.377  1.00  0.00    -0.057 A  
ENDBRANCH  15  22
ENDBRANCH  12  15
ENDBRANCH   8   9
ENDBRANCH   4   8
TORSDOF 5
ENDMDL
MODEL      175
REMARK 921   NORMALIZED FREE ENERGY PREDICTED BY IDOCK:   -1.39 KCAL/MOL
REMARK 922        TOTAL FREE ENERGY PREDICTED BY IDOCK:   -2.50 KCAL/MOL
REMARK 923 INTER-LIGAND FREE ENERGY PREDICTED BY IDOCK:   -3.94 KCAL/MOL
REMARK 924 INTRA-LIGAND FREE ENERGY PREDICTED BY IDOCK:    1.44 KCAL/MOL
REMARK 927      BINDING AFFINITY PREDICTED BY RF-SCORE:    0.00 PKD
ROOT
HETATM    1  C   UNL     1      -9.644   2.839  70.711  1.00  0.00    -0.187 C  
HETATM    2  C   UNL     1      -9.408   4.249  71.165  1.00  0.00    -0.218 A  
HETATM    3  C   UNL     1      -8.171   4.875  70.946  1.00  0.00    -0.095 A  
HETATM    4  C   UNL     1      -7.887   6.124  71.516  1.00  0.00    -0.102 A  
HETATM    5  C   UNL     1      -8.902   6.780  72.233  1.00  0.00    -0.135 A  
HETATM    6  C   UNL     1     -10.162   6.203  72.382  1.00  0.00    -0.212 A  
HETATM    7  C   UNL     1     -10.408   4.933  71.866  1.00  0.00    -0.259 A  
ENDROOT
BRANCH   4   8
HETATM    8  C   UNL     1      -6.476   6.702  71.435  1.00  0.00    -0.046 C  
BRANCH   8   9
HETATM    9  N   UNL     1      -6.261   7.559  70.259  1.00  0.00    -0.033 NA 
HETATM   10  C   UNL     1      -6.583   6.903  68.969  1.00  0.00    -0.048 C  
HETATM   11  C   UNL     1      -7.994   7.121  68.319  1.00  0.00    -0.123 C  
HETATM   12  N   UNL     1      -8.747   8.358  68.650  1.00  0.00    -0.132 NA 
HETATM   13  C   UNL     1      -8.493   8.621  70.084  1.00  0.00    -0.135 C  
HETATM   14  C   UNL     1      -7.005   8.813  70.391  1.00  0.00    -0.047 C  
BRANCH  12  15
HETATM   15  C   UNL     1      -8.391   9.544  67.799  1.00  0.00    -0.118 C  
BRANCH  15  16
HETATM   16  C   UNL     1      -7.652   9.174  66.511  1.00  0.00    -0.093 A  
HETATM   17  C   UNL     1      -8.291   8.319  65.582  1.00  0.00    -0.154 A  
HETATM   18  C   UNL     1      -6.411   9.709  66.184  1.00  0.00    -0.071 A  
HETATM   19  C   UNL     1      -7.704   8.041  64.346  1.00  0.00    -0.130 A  
HETATM   20  C   UNL     1      -6.472   8.599  64.027  1.00  0.00    -0.072 A  
HETATM   21  C   UNL     1      -5.821   9.422  64.949  1.00  0.00    -0.065 A  
ENDBRANCH  15  16
BRANCH  15  22
HETATM   22  C   UNL     1      -9.598  10.477  67.563  1.00  0.00    -0.181 A  
HETATM   23  C   UNL     1     -11.430  12.401  66.643  1.00  0.00    -0.370 A  
HETATM   24  C   UNL     1     -10.532  10.161  66.559  1.00  0.00    -0.236 A  
HETATM   25 CL   UNL     1     -12.432  13.627  65.964  1.00  0.00    -0.489 Cl 
HETATM   26  C   UNL     1     -10.581  12.710  67.701  1.00  0.00    -0.232 A  
HETATM   27  C   UNL     1      -9.696  11.742  68.186  1.00  0.00    -0.192 A  
HETATM   28  C   UNL     1     -11.439  11.120  66.099  1.00  0.00     0.233 A  
ENDBRANCH  15  22
ENDBRANCH  12  15
ENDBRANCH   8   9
ENDBRANCH   4   8
TORSDOF 5
ENDMDL
MODEL      176
REMARK 921   NORMALIZED FREE ENERGY PREDICTED BY IDOCK:   -1.37 KCAL/MOL
REMARK 922        TOTAL FREE ENERGY PREDICTED BY IDOCK:   -2.48 KCAL/MOL
REMARK 923 INTER-LIGAND FREE ENERGY PREDICTED BY IDOCK:   -4.72 KCAL/MOL
REMARK 924 INTRA-LIGAND FREE ENERGY PREDICTED BY IDOCK:    2.24 KCAL/MOL
REMARK 927      BINDING AFFINITY PREDICTED BY RF-SCORE:    0.00 PKD
ROOT
HETATM    1  C   UNL     1     -14.351  13.225  72.452  1.00  0.00    -0.191 C  
HETATM    2  C   UNL     1     -13.334  14.066  71.740  1.00  0.00    -0.465 A  
HETATM    3  C   UNL     1     -13.028  13.831  70.391  1.00  0.00    -0.048 A  
HETATM    4  C   UNL     1     -11.961  14.497  69.770  1.00  0.00    -0.383 A  
HETATM    5  C   UNL     1     -11.265  15.475  70.500  1.00  0.00    -0.365 A  
HETATM    6  C   UNL     1     -11.619  15.775  71.815  1.00  0.00    -0.541 A  
HETATM    7  C   UNL     1     -12.638  15.060  72.438  1.00  0.00    -0.424 A  
ENDROOT
BRANCH   4   8
HETATM    8  C   UNL     1     -11.515  14.092  68.368  1.00  0.00    -0.306 C  
BRANCH   8   9
HETATM    9  N   UNL     1     -11.785  12.680  68.052  1.00  0.00    -0.341 NA 
HETATM   10  C   UNL     1     -11.726  12.365  66.605  1.00  0.00    -0.372 C  
HETATM   11  C   UNL     1     -10.401  11.791  65.989  1.00  0.00    -0.239 C  
HETATM   12  N   UNL     1      -9.464  11.054  66.876  1.00  0.00    -0.175 NA 
HETATM   13  C   UNL     1      -9.485  11.764  68.174  1.00  0.00    -0.193 C  
HETATM   14  C   UNL     1     -10.883  11.803  68.800  1.00  0.00    -0.227 C  
BRANCH  12  15
HETATM   15  C   UNL     1      -9.788   9.595  67.039  1.00  0.00    -0.195 C  
BRANCH  15  16
HETATM   16  C   UNL     1      -8.804   8.666  66.323  1.00  0.00    -0.187 A  
HETATM   17  C   UNL     1      -8.638   8.799  64.925  1.00  0.00    -0.177 A  
HETATM   18  C   UNL     1      -8.012   7.751  67.008  1.00  0.00    -0.116 A  
HETATM   19  C   UNL     1      -7.675   8.050  64.246  1.00  0.00    -0.128 A  
HETATM   20  C   UNL     1      -6.878   7.154  64.949  1.00  0.00    -0.047 A  
HETATM   21  C   UNL     1      -7.054   6.996  66.325  1.00  0.00    -0.074 A  
ENDBRANCH  15  16
BRANCH  15  22
HETATM   22  C   UNL     1     -10.026   9.212  68.515  1.00  0.00    -0.192 A  
HETATM   23  C   UNL     1     -10.744   9.102  71.232  1.00  0.00    -0.331 A  
HETATM   24  C   UNL     1     -11.283   8.719  68.909  1.00  0.00     0.341 A  
HETATM   25 CL   UNL     1     -11.243   9.196  72.878  1.00  0.00     1.033 Cl 
HETATM   26  C   UNL     1      -9.460   9.505  70.875  1.00  0.00    -0.186 A  
HETATM   27  C   UNL     1      -9.089   9.523  69.527  1.00  0.00    -0.193 A  
HETATM   28  C   UNL     1     -11.641   8.669  70.260  1.00  0.00    -0.003 A  
ENDBRANCH  15  22
ENDBRANCH  12  15
ENDBRANCH   8   9
ENDBRANCH   4   8
TORSDOF 5
ENDMDL
MODEL      177
REMARK 921   NORMALIZED FREE ENERGY PREDICTED BY IDOCK:   -1.28 KCAL/MOL
REMARK 922        TOTAL FREE ENERGY PREDICTED BY IDOCK:   -2.36 KCAL/MOL
REMARK 923 INTER-LIGAND FREE ENERGY PREDICTED BY IDOCK:   -4.49 KCAL/MOL
REMARK 924 INTRA-LIGAND FREE ENERGY PREDICTED BY IDOCK:    2.13 KCAL/MOL
REMARK 927      BINDING AFFINITY PREDICTED BY RF-SCORE:    0.00 PKD
ROOT
HETATM    1  C   UNL     1      -9.832   3.766  70.833  1.00  0.00    -0.192 C  
HETATM    2  C   UNL     1      -9.090   4.995  70.397  1.00  0.00    -0.172 A  
HETATM    3  C   UNL     1      -9.670   6.266  70.530  1.00  0.00    -0.196 A  
HETATM    4  C   UNL     1      -9.057   7.396  69.970  1.00  0.00    -0.148 A  
HETATM    5  C   UNL     1      -7.803   7.244  69.356  1.00  0.00    -0.122 A  
HETATM    6  C   UNL     1      -7.180   5.998  69.296  1.00  0.00    -0.074 A  
HETATM    7  C   UNL     1      -7.830   4.874  69.798  1.00  0.00    -0.066 A  
ENDROOT
BRANCH   4   8
HETATM    8  C   UNL     1      -9.790   8.735  69.949  1.00  0.00    -0.184 C  
BRANCH   8   9
HETATM    9  N   UNL     1      -9.473   9.559  68.772  1.00  0.00    -0.145 NA 
HETATM   10  C   UNL     1     -10.372   9.329  67.617  1.00  0.00    -0.253 C  
HETATM   11  C   UNL     1     -11.606  10.272  67.394  1.00  0.00     0.732 C  
HETATM   12  N   UNL     1     -11.556  11.653  67.943  1.00  0.00    -0.457 NA 
HETATM   13  C   UNL     1     -10.871  11.549  69.250  1.00  0.00    -0.167 C  
HETATM   14  C   UNL     1      -9.454  10.980  69.127  1.00  0.00    -0.044 C  
BRANCH  12  15
HETATM   15  C   UNL     1     -10.882  12.650  67.042  1.00  0.00    -0.253 C  
BRANCH  15  16
HETATM   16  C   UNL     1     -10.126  13.745  67.798  1.00  0.00    -0.245 A  
HETATM   17  C   UNL     1      -8.760  13.958  67.499  1.00  0.00    -0.194 A  
HETATM   18  C   UNL     1     -10.752  14.589  68.708  1.00  0.00    -0.257 A  
HETATM   19  C   UNL     1      -8.058  15.015  68.082  1.00  0.00    -0.131 A  
HETATM   20  C   UNL     1      -8.704  15.861  68.975  1.00  0.00    -0.236 A  
HETATM   21  C   UNL     1     -10.045  15.642  69.298  1.00  0.00    -0.258 A  
ENDBRANCH  15  16
BRANCH  15  22
HETATM   22  C   UNL     1     -10.034  11.966  65.948  1.00  0.00    -0.261 A  
HETATM   23  C   UNL     1      -8.685  10.174  64.253  1.00  0.00    -0.205 A  
HETATM   24  C   UNL     1     -10.669  11.431  64.812  1.00  0.00    -0.362 A  
HETATM   25 CL   UNL     1      -7.916   8.949  63.317  1.00  0.00    -0.148 Cl 
HETATM   26  C   UNL     1      -8.004  10.761  65.315  1.00  0.00     0.009 A  
HETATM   27  C   UNL     1      -8.662  11.683  66.136  1.00  0.00    -0.094 A  
HETATM   28  C   UNL     1      -9.999  10.536  63.973  1.00  0.00    -0.363 A  
ENDBRANCH  15  22
ENDBRANCH  12  15
ENDBRANCH   8   9
ENDBRANCH   4   8
TORSDOF 5
ENDMDL
MODEL      178
REMARK 921   NORMALIZED FREE ENERGY PREDICTED BY IDOCK:   -1.27 KCAL/MOL
REMARK 922        TOTAL FREE ENERGY PREDICTED BY IDOCK:   -2.35 KCAL/MOL
REMARK 923 INTER-LIGAND FREE ENERGY PREDICTED BY IDOCK:   -5.63 KCAL/MOL
REMARK 924 INTRA-LIGAND FREE ENERGY PREDICTED BY IDOCK:    3.28 KCAL/MOL
REMARK 927      BINDING AFFINITY PREDICTED BY RF-SCORE:    0.00 PKD
ROOT
HETATM    1  C   UNL     1      -9.890  10.680  62.831  1.00  0.00    -0.271 C  
HETATM    2  C   UNL     1      -9.158  10.274  64.076  1.00  0.00    -0.283 A  
HETATM    3  C   UNL     1      -9.824  10.209  65.310  1.00  0.00    -0.388 A  
HETATM    4  C   UNL     1      -9.112   9.999  66.500  1.00  0.00    -0.172 A  
HETATM    5  C   UNL     1      -7.730   9.760  66.421  1.00  0.00    -0.102 A  
HETATM    6  C   UNL     1      -7.076   9.738  65.191  1.00  0.00    -0.121 A  
HETATM    7  C   UNL     1      -7.784  10.013  64.024  1.00  0.00    -0.143 A  
ENDROOT
BRANCH   4   8
HETATM    8  C   UNL     1      -9.817  10.126  67.848  1.00  0.00    -0.151 C  
BRANCH   8   9
HETATM    9  N   UNL     1     -10.223   8.833  68.421  1.00  0.00    -0.192 NA 
HETATM   10  C   UNL     1      -9.126   7.838  68.498  1.00  0.00    -0.132 C  
HETATM   11  C   UNL     1      -8.318   7.675  69.832  1.00  0.00    -0.132 C  
HETATM   12  N   UNL     1      -8.971   8.055  71.112  1.00  0.00    -0.137 NA 
HETATM   13  C   UNL     1      -9.771   9.265  70.820  1.00  0.00    -0.282 C  
HETATM   14  C   UNL     1     -10.830   9.022  69.740  1.00  0.00    -0.205 C  
BRANCH  12  15
HETATM   15  C   UNL     1      -9.812   6.969  71.721  1.00  0.00    -0.162 C  
BRANCH  15  16
HETATM   16  C   UNL     1     -11.297   7.328  71.823  1.00  0.00    -0.285 A  
HETATM   17  C   UNL     1     -11.680   8.408  72.652  1.00  0.00    -0.364 A  
HETATM   18  C   UNL     1     -12.272   6.683  71.070  1.00  0.00    -0.344 A  
HETATM   19  C   UNL     1     -13.006   8.841  72.692  1.00  0.00    -0.305 A  
HETATM   20  C   UNL     1     -13.965   8.198  71.920  1.00  0.00    -0.451 A  
HETATM   21  C   UNL     1     -13.602   7.113  71.120  1.00  0.00    -0.207 A  
ENDBRANCH  15  16
BRANCH  15  22
HETATM   22  C   UNL     1      -9.560   5.597  71.059  1.00  0.00    -0.210 A  
HETATM   23  C   UNL     1      -8.727   3.448  69.448  1.00  0.00    -0.077 A  
HETATM   24  C   UNL     1      -8.376   4.895  71.351  1.00  0.00    -0.116 A  
HETATM   25 CL   UNL     1      -8.133   2.248  68.364  1.00  0.00    -0.065 Cl 
HETATM   26  C   UNL     1      -9.948   4.065  69.195  1.00  0.00     0.070 A  
HETATM   27  C   UNL     1     -10.383   5.108  70.019  1.00  0.00    -0.347 A  
HETATM   28  C   UNL     1      -7.960   3.830  70.546  1.00  0.00    -0.055 A  
ENDBRANCH  15  22
ENDBRANCH  12  15
ENDBRANCH   8   9
ENDBRANCH   4   8
TORSDOF 5
ENDMDL
MODEL      179
REMARK 921   NORMALIZED FREE ENERGY PREDICTED BY IDOCK:   -1.21 KCAL/MOL
REMARK 922        TOTAL FREE ENERGY PREDICTED BY IDOCK:   -2.28 KCAL/MOL
REMARK 923 INTER-LIGAND FREE ENERGY PREDICTED BY IDOCK:   -3.56 KCAL/MOL
REMARK 924 INTRA-LIGAND FREE ENERGY PREDICTED BY IDOCK:    1.29 KCAL/MOL
REMARK 927      BINDING AFFINITY PREDICTED BY RF-SCORE:    0.00 PKD
ROOT
HETATM    1  C   UNL     1      -6.606   1.689  67.818  1.00  0.00    -0.028 C  
HETATM    2  C   UNL     1      -7.264   2.425  66.688  1.00  0.00    -0.057 A  
HETATM    3  C   UNL     1      -6.934   3.762  66.416  1.00  0.00    -0.059 A  
HETATM    4  C   UNL     1      -7.665   4.505  65.478  1.00  0.00    -0.090 A  
HETATM    5  C   UNL     1      -8.673   3.855  64.746  1.00  0.00    -0.116 A  
HETATM    6  C   UNL     1      -8.948   2.504  64.950  1.00  0.00    -0.127 A  
HETATM    7  C   UNL     1      -8.259   1.796  65.931  1.00  0.00    -0.085 A  
ENDROOT
BRANCH   4   8
HETATM    8  C   UNL     1      -7.426   6.006  65.333  1.00  0.00    -0.082 C  
BRANCH   8   9
HETATM    9  N   UNL     1      -8.066   6.806  66.389  1.00  0.00    -0.106 NA 
HETATM   10  C   UNL     1      -7.149   7.753  67.066  1.00  0.00    -0.085 C  
HETATM   11  C   UNL     1      -7.084   9.246  66.588  1.00  0.00    -0.082 C  
HETATM   12  N   UNL     1      -8.270   9.828  65.908  1.00  0.00    -0.115 NA 
HETATM   13  C   UNL     1      -8.823   8.753  65.055  1.00  0.00    -0.107 C  
HETATM   14  C   UNL     1      -9.233   7.516  65.862  1.00  0.00     0.021 C  
BRANCH  12  15
HETATM   15  C   UNL     1      -9.308  10.381  66.844  1.00  0.00    -0.162 C  
BRANCH  15  16
HETATM   16  C   UNL     1      -9.582   9.483  68.053  1.00  0.00    -0.155 A  
HETATM   17  C   UNL     1      -8.816   9.671  69.227  1.00  0.00    -0.164 A  
HETATM   18  C   UNL     1     -10.609   8.545  68.067  1.00  0.00    -0.197 A  
HETATM   19  C   UNL     1      -9.103   8.952  70.389  1.00  0.00    -0.217 A  
HETATM   20  C   UNL     1     -10.144   8.033  70.392  1.00  0.00    -0.194 A  
HETATM   21  C   UNL     1     -10.888   7.820  69.229  1.00  0.00    -0.091 A  
ENDBRANCH  15  16
BRANCH  15  22
HETATM   22  C   UNL     1      -9.025  11.850  67.226  1.00  0.00    -0.176 A  
HETATM   23  C   UNL     1      -8.326  14.262  68.492  1.00  0.00    -0.156 A  
HETATM   24  C   UNL     1      -7.708  12.340  67.165  1.00  0.00    -0.134 A  
HETATM   25 CL   UNL     1      -7.865  15.645  69.408  1.00  0.00    -0.230 Cl 
HETATM   26  C   UNL     1      -9.654  13.847  68.487  1.00  0.00    -0.185 A  
HETATM   27  C   UNL     1     -10.011  12.667  67.825  1.00  0.00    -0.218 A  
HETATM   28  C   UNL     1      -7.361  13.537  67.799  1.00  0.00    -0.166 A  
ENDBRANCH  15  22
ENDBRANCH  12  15
ENDBRANCH   8   9
ENDBRANCH   4   8
TORSDOF 5
ENDMDL
MODEL      180
REMARK 921   NORMALIZED FREE ENERGY PREDICTED BY IDOCK:   -1.17 KCAL/MOL
REMARK 922        TOTAL FREE ENERGY PREDICTED BY IDOCK:   -2.22 KCAL/MOL
REMARK 923 INTER-LIGAND FREE ENERGY PREDICTED BY IDOCK:   -4.36 KCAL/MOL
REMARK 924 INTRA-LIGAND FREE ENERGY PREDICTED BY IDOCK:    2.14 KCAL/MOL
REMARK 927      BINDING AFFINITY PREDICTED BY RF-SCORE:    0.00 PKD
ROOT
HETATM    1  C   UNL     1      -9.907  10.550  62.863  1.00  0.00    -0.224 C  
HETATM    2  C   UNL     1      -8.685  10.174  63.647  1.00  0.00    -0.218 A  
HETATM    3  C   UNL     1      -8.779   9.854  65.011  1.00  0.00    -0.196 A  
HETATM    4  C   UNL     1      -7.624   9.671  65.786  1.00  0.00    -0.103 A  
HETATM    5  C   UNL     1      -6.373   9.718  65.148  1.00  0.00    -0.094 A  
HETATM    6  C   UNL     1      -6.277   9.949  63.777  1.00  0.00    -0.125 A  
HETATM    7  C   UNL     1      -7.427  10.195  63.033  1.00  0.00    -0.144 A  
ENDROOT
BRANCH   4   8
HETATM    8  C   UNL     1      -7.733   9.520  67.301  1.00  0.00    -0.091 C  
BRANCH   8   9
HETATM    9  N   UNL     1      -8.310   8.233  67.722  1.00  0.00    -0.127 NA 
HETATM   10  C   UNL     1      -7.388   7.083  67.572  1.00  0.00    -0.092 C  
HETATM   11  C   UNL     1      -6.540   6.602  68.803  1.00  0.00    -0.051 C  
HETATM   12  N   UNL     1      -7.048   6.883  70.171  1.00  0.00    -0.069 NA 
HETATM   13  C   UNL     1      -7.657   8.230  70.113  1.00  0.00    -0.075 C  
HETATM   14  C   UNL     1      -8.802   8.315  69.099  1.00  0.00    -0.143 C  
BRANCH  12  15
HETATM   15  C   UNL     1      -8.018   5.860  70.690  1.00  0.00    -0.110 C  
BRANCH  15  16
HETATM   16  C   UNL     1      -9.191   6.465  71.466  1.00  0.00    -0.145 A  
HETATM   17  C   UNL     1     -10.509   6.119  71.085  1.00  0.00    -0.281 A  
HETATM   18  C   UNL     1      -9.007   7.277  72.579  1.00  0.00    -0.152 A  
HETATM   19  C   UNL     1     -11.605   6.558  71.830  1.00  0.00    -0.359 A  
HETATM   20  C   UNL     1     -11.403   7.354  72.951  1.00  0.00    -0.322 A  
HETATM   21  C   UNL     1     -10.107   7.724  73.318  1.00  0.00    -0.374 A  
ENDBRANCH  15  16
BRANCH  15  22
HETATM   22  C   UNL     1      -8.460   4.866  69.594  1.00  0.00    -0.090 A  
HETATM   23  C   UNL     1      -8.880   3.424  67.217  1.00  0.00    -0.134 A  
HETATM   24  C   UNL     1      -7.603   3.811  69.230  1.00  0.00    -0.053 A  
HETATM   25 CL   UNL     1      -9.039   2.659  65.682  1.00  0.00    -0.139 Cl 
HETATM   26  C   UNL     1      -9.795   4.399  67.602  1.00  0.00    -0.168 A  
HETATM   27  C   UNL     1      -9.609   5.090  68.803  1.00  0.00    -0.209 A  
HETATM   28  C   UNL     1      -7.810   3.098  68.045  1.00  0.00    -0.066 A  
ENDBRANCH  15  22
ENDBRANCH  12  15
ENDBRANCH   8   9
ENDBRANCH   4   8
TORSDOF 5
ENDMDL
MODEL      181
REMARK 921   NORMALIZED FREE ENERGY PREDICTED BY IDOCK:   -1.12 KCAL/MOL
REMARK 922        TOTAL FREE ENERGY PREDICTED BY IDOCK:   -2.15 KCAL/MOL
REMARK 923 INTER-LIGAND FREE ENERGY PREDICTED BY IDOCK:   -4.89 KCAL/MOL
REMARK 924 INTRA-LIGAND FREE ENERGY PREDICTED BY IDOCK:    2.74 KCAL/MOL
REMARK 927      BINDING AFFINITY PREDICTED BY RF-SCORE:    0.00 PKD
ROOT
HETATM    1  C   UNL     1      -9.474  16.744  68.937  1.00  0.00    -0.246 C  
HETATM    2  C   UNL     1      -8.577  15.610  68.537  1.00  0.00    -0.180 A  
HETATM    3  C   UNL     1      -9.075  14.532  67.789  1.00  0.00    -0.190 A  
HETATM    4  C   UNL     1      -8.288  13.393  67.561  1.00  0.00    -0.190 A  
HETATM    5  C   UNL     1      -6.958  13.395  68.015  1.00  0.00    -0.127 A  
HETATM    6  C   UNL     1      -6.431  14.498  68.683  1.00  0.00    -0.086 A  
HETATM    7  C   UNL     1      -7.243  15.594  68.960  1.00  0.00    -0.160 A  
ENDROOT
BRANCH   4   8
HETATM    8  C   UNL     1      -8.903  12.152  66.919  1.00  0.00    -0.202 C  
BRANCH   8   9
HETATM    9  N   UNL     1      -8.580  10.904  67.628  1.00  0.00    -0.123 NA 
HETATM   10  C   UNL     1      -9.583  10.513  68.647  1.00  0.00    -0.171 C  
HETATM   11  C   UNL     1     -10.711   9.489  68.272  1.00  0.00    -0.194 C  
HETATM   12  N   UNL     1     -10.458   8.523  67.171  1.00  0.00    -0.307 NA 
HETATM   13  C   UNL     1      -9.695   9.264  66.142  1.00  0.00    -0.279 C  
HETATM   14  C   UNL     1      -8.368   9.811  66.677  1.00  0.00    -0.124 C  
BRANCH  12  15
HETATM   15  C   UNL     1      -9.741   7.274  67.600  1.00  0.00    -0.142 C  
BRANCH  15  16
HETATM   16  C   UNL     1      -8.321   7.159  67.038  1.00  0.00    -0.118 A  
HETATM   17  C   UNL     1      -7.235   7.562  67.849  1.00  0.00    -0.090 A  
HETATM   18  C   UNL     1      -8.056   6.600  65.793  1.00  0.00    -0.122 A  
HETATM   19  C   UNL     1      -5.918   7.374  67.424  1.00  0.00    -0.042 A  
HETATM   20  C   UNL     1      -5.671   6.796  66.184  1.00  0.00    -0.029 A  
HETATM   21  C   UNL     1      -6.737   6.421  65.365  1.00  0.00    -0.047 A  
ENDBRANCH  15  16
BRANCH  15  22
HETATM   22  C   UNL     1      -9.812   7.056  69.126  1.00  0.00    -0.158 A  
HETATM   23  C   UNL     1     -10.210   7.255  71.903  1.00  0.00    -0.187 A  
HETATM   24  C   UNL     1     -11.025   6.649  69.712  1.00  0.00    -0.367 A  
HETATM   25 CL   UNL     1     -10.512   7.538  73.575  1.00  0.00    -0.400 Cl 
HETATM   26  C   UNL     1      -8.969   7.575  71.361  1.00  0.00    -0.140 A  
HETATM   27  C   UNL     1      -8.757   7.439  69.985  1.00  0.00    -0.140 A  
HETATM   28  C   UNL     1     -11.224   6.754  71.092  1.00  0.00    -0.327 A  
ENDBRANCH  15  22
ENDBRANCH  12  15
ENDBRANCH   8   9
ENDBRANCH   4   8
TORSDOF 5
ENDMDL
MODEL      182
REMARK 921   NORMALIZED FREE ENERGY PREDICTED BY IDOCK:   -0.99 KCAL/MOL
REMARK 922        TOTAL FREE ENERGY PREDICTED BY IDOCK:   -1.98 KCAL/MOL
REMARK 923 INTER-LIGAND FREE ENERGY PREDICTED BY IDOCK:   -6.78 KCAL/MOL
REMARK 924 INTRA-LIGAND FREE ENERGY PREDICTED BY IDOCK:    4.80 KCAL/MOL
REMARK 927      BINDING AFFINITY PREDICTED BY RF-SCORE:    0.00 PKD
ROOT
HETATM    1  C   UNL     1      -7.525  10.123  63.699  1.00  0.00    -0.129 C  
HETATM    2  C   UNL     1      -8.818  10.311  64.437  1.00  0.00    -0.229 A  
HETATM    3  C   UNL     1      -9.708  11.333  64.074  1.00  0.00    -0.301 A  
HETATM    4  C   UNL     1     -10.830  11.622  64.864  1.00  0.00    -0.359 A  
HETATM    5  C   UNL     1     -11.097  10.802  65.974  1.00  0.00     0.095 A  
HETATM    6  C   UNL     1     -10.264   9.730  66.291  1.00  0.00    -0.282 A  
HETATM    7  C   UNL     1      -9.118   9.497  65.536  1.00  0.00    -0.262 A  
ENDROOT
BRANCH   4   8
HETATM    8  C   UNL     1     -11.678  12.856  64.571  1.00  0.00    -0.365 C  
BRANCH   8   9
HETATM    9  N   UNL     1     -11.332  14.017  65.407  1.00  0.00    -0.308 NA 
HETATM   10  C   UNL     1     -12.131  14.122  66.651  1.00  0.00    -0.451 C  
HETATM   11  C   UNL     1     -11.557  13.544  67.992  1.00  0.00    -0.337 C  
HETATM   12  N   UNL     1     -10.083  13.431  68.146  1.00  0.00    -0.238 NA 
HETATM   13  C   UNL     1      -9.564  13.015  66.825  1.00  0.00    -0.248 C  
HETATM   14  C   UNL     1      -9.902  14.020  65.719  1.00  0.00    -0.256 C  
BRANCH  12  15
HETATM   15  C   UNL     1      -9.416  14.687  68.633  1.00  0.00    -0.211 C  
BRANCH  15  16
HETATM   16  C   UNL     1      -7.909  14.534  68.855  1.00  0.00    -0.134 A  
HETATM   17  C   UNL     1      -7.305  13.285  68.582  1.00  0.00    -0.101 A  
HETATM   18  C   UNL     1      -7.101  15.600  69.236  1.00  0.00    -0.189 A  
HETATM   19  C   UNL     1      -5.920  13.129  68.664  1.00  0.00    -0.075 A  
HETATM   20  C   UNL     1      -5.125  14.208  69.029  1.00  0.00    -0.075 A  
HETATM   21  C   UNL     1      -5.715  15.438  69.327  1.00  0.00    -0.099 A  
ENDBRANCH  15  16
BRANCH  15  22
HETATM   22  C   UNL     1      -9.785  15.914  67.772  1.00  0.00    -0.220 A  
HETATM   23  C   UNL     1     -10.014  18.450  66.577  1.00  0.00    -0.379 A  
HETATM   24  C   UNL     1      -8.953  16.282  66.699  1.00  0.00    -0.283 A  
HETATM   25 CL   UNL     1     -10.040  20.058  65.964  1.00  0.00    -0.584 Cl 
HETATM   26  C   UNL     1     -10.910  18.074  67.573  1.00  0.00    -0.252 A  
HETATM   27  C   UNL     1     -10.823  16.799  68.141  1.00  0.00    -0.353 A  
HETATM   28  C   UNL     1      -9.064  17.545  66.109  1.00  0.00    -0.157 A  
ENDBRANCH  15  22
ENDBRANCH  12  15
ENDBRANCH   8   9
ENDBRANCH   4   8
TORSDOF 5
ENDMDL
MODEL      183
REMARK 921   NORMALIZED FREE ENERGY PREDICTED BY IDOCK:   -0.79 KCAL/MOL
REMARK 922        TOTAL FREE ENERGY PREDICTED BY IDOCK:   -1.73 KCAL/MOL
REMARK 923 INTER-LIGAND FREE ENERGY PREDICTED BY IDOCK:   -4.58 KCAL/MOL
REMARK 924 INTRA-LIGAND FREE ENERGY PREDICTED BY IDOCK:    2.85 KCAL/MOL
REMARK 927      BINDING AFFINITY PREDICTED BY RF-SCORE:    0.00 PKD
ROOT
HETATM    1  C   UNL     1      -7.352   8.105  66.713  1.00  0.00    -0.083 C  
HETATM    2  C   UNL     1      -8.591   8.919  66.939  1.00  0.00    -0.121 A  
HETATM    3  C   UNL     1      -8.934   9.960  66.063  1.00  0.00    -0.178 A  
HETATM    4  C   UNL     1      -9.991  10.832  66.363  1.00  0.00    -0.264 A  
HETATM    5  C   UNL     1     -10.761  10.582  67.511  1.00  0.00    -0.326 A  
HETATM    6  C   UNL     1     -10.480   9.497  68.341  1.00  0.00    -0.261 A  
HETATM    7  C   UNL     1      -9.387   8.680  68.066  1.00  0.00    -0.147 A  
ENDROOT
BRANCH   4   8
HETATM    8  C   UNL     1     -10.229  12.073  65.507  1.00  0.00    -0.258 C  
BRANCH   8   9
HETATM    9  N   UNL     1      -9.813  13.324  66.160  1.00  0.00    -0.287 NA 
HETATM   10  C   UNL     1      -9.975  14.529  65.312  1.00  0.00    -0.287 C  
HETATM   11  C   UNL     1     -11.269  15.406  65.448  1.00  0.00    -0.272 C  
HETATM   12  N   UNL     1     -12.011  15.385  66.735  1.00  0.00     0.244 NA 
HETATM   13  C   UNL     1     -11.953  13.989  67.219  1.00  0.00    -0.413 C  
HETATM   14  C   UNL     1     -10.517  13.500  67.432  1.00  0.00    -0.247 C  
BRANCH  12  15
HETATM   15  C   UNL     1     -11.489  16.349  67.763  1.00  0.00     0.068 C  
BRANCH  15  16
HETATM   16  C   UNL     1     -11.529  15.803  69.192  1.00  0.00    -0.383 A  
HETATM   17  C   UNL     1     -10.308  15.496  69.837  1.00  0.00    -0.322 A  
HETATM   18  C   UNL     1     -12.715  15.674  69.907  1.00  0.00     0.006 A  
HETATM   19  C   UNL     1     -10.288  15.100  71.176  1.00  0.00     0.635 A  
HETATM   20  C   UNL     1     -11.480  14.994  71.881  1.00  0.00    -0.368 A  
HETATM   21  C   UNL     1     -12.693  15.268  71.245  1.00  0.00    -0.469 A  
ENDBRANCH  15  16
BRANCH  15  22
HETATM   22  C   UNL     1     -10.113  16.931  67.370  1.00  0.00    -0.279 A  
HETATM   23  C   UNL     1      -7.657  17.569  66.158  1.00  0.00    -0.285 A  
HETATM   24  C   UNL     1     -10.038  17.917  66.369  1.00  0.00    -0.369 A  
HETATM   25 CL   UNL     1      -6.187  17.834  65.301  1.00  0.00     0.031 Cl 
HETATM   26  C   UNL     1      -7.690  16.658  67.210  1.00  0.00    -0.198 A  
HETATM   27  C   UNL     1      -8.905  16.369  67.840  1.00  0.00    -0.184 A  
HETATM   28  C   UNL     1      -8.817  18.229  65.764  1.00  0.00     0.434 A  
ENDBRANCH  15  22
ENDBRANCH  12  15
ENDBRANCH   8   9
ENDBRANCH   4   8
TORSDOF 5
ENDMDL
MODEL      184
REMARK 921   NORMALIZED FREE ENERGY PREDICTED BY IDOCK:   -0.46 KCAL/MOL
REMARK 922        TOTAL FREE ENERGY PREDICTED BY IDOCK:   -1.30 KCAL/MOL
REMARK 923 INTER-LIGAND FREE ENERGY PREDICTED BY IDOCK:   -3.50 KCAL/MOL
REMARK 924 INTRA-LIGAND FREE ENERGY PREDICTED BY IDOCK:    2.20 KCAL/MOL
REMARK 927      BINDING AFFINITY PREDICTED BY RF-SCORE:    0.00 PKD
ROOT
HETATM    1  C   UNL     1      -9.901  16.265  65.747  1.00  0.00    -0.332 C  
HETATM    2  C   UNL     1      -9.187  15.801  66.982  1.00  0.00    -0.233 A  
HETATM    3  C   UNL     1      -8.243  14.764  66.916  1.00  0.00    -0.144 A  
HETATM    4  C   UNL     1      -7.701  14.212  68.086  1.00  0.00    -0.140 A  
HETATM    5  C   UNL     1      -8.050  14.784  69.321  1.00  0.00    -0.088 A  
HETATM    6  C   UNL     1      -8.920  15.870  69.388  1.00  0.00    -0.209 A  
HETATM    7  C   UNL     1      -9.501  16.365  68.224  1.00  0.00    -0.217 A  
ENDROOT
BRANCH   4   8
HETATM    8  C   UNL     1      -6.830  12.961  68.012  1.00  0.00    -0.108 C  
BRANCH   8   9
HETATM    9  N   UNL     1      -7.239  12.024  66.953  1.00  0.00    -0.091 NA 
HETATM   10  C   UNL     1      -6.156  11.119  66.500  1.00  0.00    -0.144 C  
HETATM   11  C   UNL     1      -6.039   9.680  67.116  1.00  0.00    -0.063 C  
HETATM   12  N   UNL     1      -7.260   9.042  67.673  1.00  0.00    -0.083 NA 
HETATM   13  C   UNL     1      -8.020  10.123  68.338  1.00  0.00    -0.102 C  
HETATM   14  C   UNL     1      -8.407  11.248  67.374  1.00  0.00    -0.137 C  
BRANCH  12  15
HETATM   15  C   UNL     1      -8.099   8.323  66.654  1.00  0.00    -0.102 C  
BRANCH  15  16
HETATM   16  C   UNL     1      -7.352   8.012  65.354  1.00  0.00    -0.069 A  
HETATM   17  C   UNL     1      -6.626   9.049  64.723  1.00  0.00    -0.066 A  
HETATM   18  C   UNL     1      -7.296   6.732  64.815  1.00  0.00    -0.088 A  
HETATM   19  C   UNL     1      -5.841   8.789  63.598  1.00  0.00    -0.072 A  
HETATM   20  C   UNL     1      -5.781   7.500  63.083  1.00  0.00    -0.050 A  
HETATM   21  C   UNL     1      -6.517   6.475  63.683  1.00  0.00    -0.040 A  
ENDBRANCH  15  16
BRANCH  15  22
HETATM   22  C   UNL     1      -8.817   7.094  67.253  1.00  0.00    -0.120 A  
HETATM   23  C   UNL     1      -9.520   4.617  68.383  1.00  0.00    -0.145 A  
HETATM   24  C   UNL     1      -8.846   6.922  68.649  1.00  0.00    -0.124 A  
HETATM   25 CL   UNL     1      -9.782   3.058  69.066  1.00  0.00    -0.043 Cl 
HETATM   26  C   UNL     1      -9.590   4.789  67.004  1.00  0.00    -0.187 A  
HETATM   27  C   UNL     1      -9.279   6.032  66.443  1.00  0.00    -0.163 A  
HETATM   28  C   UNL     1      -9.190   5.688  69.209  1.00  0.00    -0.139 A  
ENDBRANCH  15  22
ENDBRANCH  12  15
ENDBRANCH   8   9
ENDBRANCH   4   8
TORSDOF 5
ENDMDL
MODEL      185
REMARK 921   NORMALIZED FREE ENERGY PREDICTED BY IDOCK:   -0.31 KCAL/MOL
REMARK 922        TOTAL FREE ENERGY PREDICTED BY IDOCK:   -1.11 KCAL/MOL
REMARK 923 INTER-LIGAND FREE ENERGY PREDICTED BY IDOCK:   -3.41 KCAL/MOL
REMARK 924 INTRA-LIGAND FREE ENERGY PREDICTED BY IDOCK:    2.30 KCAL/MOL
REMARK 927      BINDING AFFINITY PREDICTED BY RF-SCORE:    0.00 PKD
ROOT
HETATM    1  C   UNL     1      -9.209  10.471  62.769  1.00  0.00    -0.324 C  
HETATM    2  C   UNL     1      -7.902  10.417  63.503  1.00  0.00    -0.082 A  
HETATM    3  C   UNL     1      -7.869  10.272  64.898  1.00  0.00    -0.134 A  
HETATM    4  C   UNL     1      -6.663  10.393  65.605  1.00  0.00    -0.127 A  
HETATM    5  C   UNL     1      -5.474  10.569  64.876  1.00  0.00    -0.142 A  
HETATM    6  C   UNL     1      -5.489  10.627  63.484  1.00  0.00    -0.132 A  
HETATM    7  C   UNL     1      -6.700  10.571  62.800  1.00  0.00    -0.088 A  
ENDROOT
BRANCH   4   8
HETATM    8  C   UNL     1      -6.668  10.430  67.131  1.00  0.00    -0.078 C  
BRANCH   8   9
HETATM    9  N   UNL     1      -7.298   9.250  67.743  1.00  0.00    -0.083 NA 
HETATM   10  C   UNL     1      -6.698   7.961  67.325  1.00  0.00    -0.069 C  
HETATM   11  C   UNL     1      -5.599   7.290  68.221  1.00  0.00    -0.022 C  
HETATM   12  N   UNL     1      -5.576   7.602  69.674  1.00  0.00    -0.023 NA 
HETATM   13  C   UNL     1      -5.916   9.037  69.790  1.00  0.00    -0.035 C  
HETATM   14  C   UNL     1      -7.294   9.363  69.203  1.00  0.00    -0.071 C  
BRANCH  12  15
HETATM   15  C   UNL     1      -6.492   6.747  70.502  1.00  0.00    -0.047 C  
BRANCH  15  16
HETATM   16  C   UNL     1      -6.917   7.401  71.820  1.00  0.00    -0.062 A  
HETATM   17  C   UNL     1      -8.296   7.577  72.078  1.00  0.00    -0.121 A  
HETATM   18  C   UNL     1      -6.001   7.754  72.805  1.00  0.00    -0.045 A  
HETATM   19  C   UNL     1      -8.735   8.068  73.309  1.00  0.00    -0.308 A  
HETATM   20  C   UNL     1      -7.807   8.398  74.290  1.00  0.00    -0.243 A  
HETATM   21  C   UNL     1      -6.442   8.253  74.034  1.00  0.00    -0.144 A  
ENDBRANCH  15  16
BRANCH  15  22
HETATM   22  C   UNL     1      -7.681   6.201  69.681  1.00  0.00    -0.098 A  
HETATM   23  C   UNL     1      -9.572   5.553  67.703  1.00  0.00    -0.123 A  
HETATM   24  C   UNL     1      -7.488   5.094  68.835  1.00  0.00    -0.069 A  
HETATM   25 CL   UNL     1     -10.643   5.263  66.387  1.00  0.00    -0.356 Cl 
HETATM   26  C   UNL     1      -9.831   6.596  68.588  1.00  0.00    -0.138 A  
HETATM   27  C   UNL     1      -8.910   6.894  69.598  1.00  0.00    -0.141 A  
HETATM   28  C   UNL     1      -8.427   4.776  67.849  1.00  0.00    -0.103 A  
ENDBRANCH  15  22
ENDBRANCH  12  15
ENDBRANCH   8   9
ENDBRANCH   4   8
TORSDOF 5
ENDMDL
MODEL      186
REMARK 921   NORMALIZED FREE ENERGY PREDICTED BY IDOCK:   -0.16 KCAL/MOL
REMARK 922        TOTAL FREE ENERGY PREDICTED BY IDOCK:   -0.92 KCAL/MOL
REMARK 923 INTER-LIGAND FREE ENERGY PREDICTED BY IDOCK:   -5.28 KCAL/MOL
REMARK 924 INTRA-LIGAND FREE ENERGY PREDICTED BY IDOCK:    4.36 KCAL/MOL
REMARK 927      BINDING AFFINITY PREDICTED BY RF-SCORE:    0.00 PKD
ROOT
HETATM    1  C   UNL     1      -7.248  15.130  69.751  1.00  0.00    -0.155 C  
HETATM    2  C   UNL     1      -7.987  16.204  69.010  1.00  0.00    -0.236 A  
HETATM    3  C   UNL     1      -9.335  16.034  68.656  1.00  0.00    -0.214 A  
HETATM    4  C   UNL     1      -9.979  16.955  67.818  1.00  0.00    -0.278 A  
HETATM    5  C   UNL     1      -9.275  18.104  67.418  1.00  0.00    -0.257 A  
HETATM    6  C   UNL     1      -7.964  18.323  67.837  1.00  0.00    -0.261 A  
HETATM    7  C   UNL     1      -7.316  17.367  68.615  1.00  0.00    -0.244 A  
ENDROOT
BRANCH   4   8
HETATM    8  C   UNL     1     -11.377  16.658  67.282  1.00  0.00     0.324 C  
BRANCH   8   9
HETATM    9  N   UNL     1     -11.456  15.409  66.509  1.00  0.00    -0.109 NA 
HETATM   10  C   UNL     1     -10.328  15.213  65.567  1.00  0.00    -0.375 C  
HETATM   11  C   UNL     1      -9.094  14.347  66.003  1.00  0.00     0.098 C  
HETATM   12  N   UNL     1      -9.288  13.306  67.047  1.00  0.00    -0.235 NA 
HETATM   13  C   UNL     1     -10.231  13.883  68.030  1.00  0.00    -0.246 C  
HETATM   14  C   UNL     1     -11.578  14.256  67.403  1.00  0.00    -0.369 C  
BRANCH  12  15
HETATM   15  C   UNL     1      -9.777  11.987  66.519  1.00  0.00    -0.216 C  
BRANCH  15  16
HETATM   16  C   UNL     1      -8.696  11.174  65.802  1.00  0.00    -0.153 A  
HETATM   17  C   UNL     1      -8.910  10.795  64.457  1.00  0.00    -0.143 A  
HETATM   18  C   UNL     1      -7.479  10.865  66.400  1.00  0.00    -0.145 A  
HETATM   19  C   UNL     1      -7.908  10.149  63.729  1.00  0.00    -0.149 A  
HETATM   20  C   UNL     1      -6.691   9.864  64.335  1.00  0.00    -0.125 A  
HETATM   21  C   UNL     1      -6.481  10.210  65.672  1.00  0.00    -0.107 A  
ENDBRANCH  15  16
BRANCH  15  22
HETATM   22  C   UNL     1     -10.540  11.177  67.589  1.00  0.00    -0.250 A  
HETATM   23  C   UNL     1     -11.691  10.157  69.944  1.00  0.00    -0.179 A  
HETATM   24  C   UNL     1     -11.800  11.624  68.028  1.00  0.00    -0.295 A  
HETATM   25 CL   UNL     1     -12.312   9.658  71.471  1.00  0.00    -0.447 Cl 
HETATM   26  C   UNL     1     -10.488   9.631  69.482  1.00  0.00    -0.240 A  
HETATM   27  C   UNL     1      -9.934  10.110  68.290  1.00  0.00    -0.168 A  
HETATM   28  C   UNL     1     -12.369  11.119  69.201  1.00  0.00    -0.107 A  
ENDBRANCH  15  22
ENDBRANCH  12  15
ENDBRANCH   8   9
ENDBRANCH   4   8
TORSDOF 5
ENDMDL
MODEL      187
REMARK 921   NORMALIZED FREE ENERGY PREDICTED BY IDOCK:    0.16 KCAL/MOL
REMARK 922        TOTAL FREE ENERGY PREDICTED BY IDOCK:   -0.50 KCAL/MOL
REMARK 923 INTER-LIGAND FREE ENERGY PREDICTED BY IDOCK:   -3.41 KCAL/MOL
REMARK 924 INTRA-LIGAND FREE ENERGY PREDICTED BY IDOCK:    2.91 KCAL/MOL
REMARK 927      BINDING AFFINITY PREDICTED BY RF-SCORE:    0.00 PKD
ROOT
HETATM    1  C   UNL     1      -9.475  16.743  68.936  1.00  0.00    -0.246 C  
HETATM    2  C   UNL     1      -8.579  15.617  68.513  1.00  0.00    -0.180 A  
HETATM    3  C   UNL     1      -9.079  14.553  67.746  1.00  0.00    -0.190 A  
HETATM    4  C   UNL     1      -8.294  13.418  67.494  1.00  0.00    -0.190 A  
HETATM    5  C   UNL     1      -6.963  13.410  67.945  1.00  0.00    -0.141 A  
HETATM    6  C   UNL     1      -6.433  14.501  68.633  1.00  0.00    -0.086 A  
HETATM    7  C   UNL     1      -7.244  15.592  68.932  1.00  0.00    -0.146 A  
ENDROOT
BRANCH   4   8
HETATM    8  C   UNL     1      -8.912  12.190  66.831  1.00  0.00    -0.201 C  
BRANCH   8   9
HETATM    9  N   UNL     1      -8.016  11.023  66.810  1.00  0.00    -0.145 NA 
HETATM   10  C   UNL     1      -8.184  10.114  67.969  1.00  0.00    -0.113 C  
HETATM   11  C   UNL     1      -9.108   8.853  67.838  1.00  0.00    -0.139 C  
HETATM   12  N   UNL     1      -9.332   8.271  66.489  1.00  0.00    -0.191 NA 
HETATM   13  C   UNL     1      -9.430   9.417  65.559  1.00  0.00    -0.260 C  
HETATM   14  C   UNL     1      -8.165  10.281  65.557  1.00  0.00    -0.158 C  
BRANCH  12  15
HETATM   15  C   UNL     1      -8.274   7.295  66.055  1.00  0.00    -0.138 C  
BRANCH  15  16
HETATM   16  C   UNL     1      -7.415   7.799  64.893  1.00  0.00    -0.094 A  
HETATM   17  C   UNL     1      -6.162   8.390  65.179  1.00  0.00    -0.052 A  
HETATM   18  C   UNL     1      -7.785   7.625  63.564  1.00  0.00    -0.130 A  
HETATM   19  C   UNL     1      -5.298   8.765  64.149  1.00  0.00    -0.056 A  
HETATM   20  C   UNL     1      -5.675   8.567  62.826  1.00  0.00    -0.075 A  
HETATM   21  C   UNL     1      -6.922   8.010  62.533  1.00  0.00    -0.086 A  
ENDBRANCH  15  16
BRANCH  15  22
HETATM   22  C   UNL     1      -7.442   6.771  67.246  1.00  0.00    -0.096 A  
HETATM   23  C   UNL     1      -6.163   6.346  69.714  1.00  0.00    -0.034 A  
HETATM   24  C   UNL     1      -8.080   6.053  68.274  1.00  0.00    -0.110 A  
HETATM   25 CL   UNL     1      -5.449   6.237  71.277  1.00  0.00    -0.021 Cl 
HETATM   26  C   UNL     1      -5.475   6.977  68.682  1.00  0.00    -0.018 A  
HETATM   27  C   UNL     1      -6.096   7.154  67.441  1.00  0.00    -0.037 A  
HETATM   28  C   UNL     1      -7.445   5.847  69.502  1.00  0.00    -0.076 A  
ENDBRANCH  15  22
ENDBRANCH  12  15
ENDBRANCH   8   9
ENDBRANCH   4   8
TORSDOF 5
ENDMDL
MODEL      188
REMARK 921   NORMALIZED FREE ENERGY PREDICTED BY IDOCK:    0.17 KCAL/MOL
REMARK 922        TOTAL FREE ENERGY PREDICTED BY IDOCK:   -0.48 KCAL/MOL
REMARK 923 INTER-LIGAND FREE ENERGY PREDICTED BY IDOCK:   -4.26 KCAL/MOL
REMARK 924 INTRA-LIGAND FREE ENERGY PREDICTED BY IDOCK:    3.78 KCAL/MOL
REMARK 927      BINDING AFFINITY PREDICTED BY RF-SCORE:    0.00 PKD
ROOT
HETATM    1  C   UNL     1     -12.315  16.391  74.276  1.00  0.00    -0.561 C  
HETATM    2  C   UNL     1     -12.454  15.501  73.077  1.00  0.00    -0.553 A  
HETATM    3  C   UNL     1     -12.389  16.032  71.780  1.00  0.00    -0.496 A  
HETATM    4  C   UNL     1     -12.688  15.238  70.663  1.00  0.00    -0.470 A  
HETATM    5  C   UNL     1     -12.962  13.874  70.864  1.00  0.00    -0.316 A  
HETATM    6  C   UNL     1     -12.944  13.321  72.143  1.00  0.00    -0.395 A  
HETATM    7  C   UNL     1     -12.709  14.135  73.248  1.00  0.00    -0.098 A  
ENDROOT
BRANCH   4   8
HETATM    8  C   UNL     1     -12.806  15.872  69.280  1.00  0.00     0.996 C  
BRANCH   8   9
HETATM    9  N   UNL     1     -11.633  15.632  68.423  1.00  0.00    -0.371 NA 
HETATM   10  C   UNL     1     -11.496  16.598  67.307  1.00  0.00     0.495 C  
HETATM   11  C   UNL     1     -10.566  17.851  67.474  1.00  0.00    -0.376 C  
HETATM   12  N   UNL     1      -9.441  17.778  68.443  1.00  0.00    -0.287 NA 
HETATM   13  C   UNL     1      -9.949  17.015  69.604  1.00  0.00     0.138 C  
HETATM   14  C   UNL     1     -10.408  15.603  69.224  1.00  0.00    -0.250 C  
BRANCH  12  15
HETATM   15  C   UNL     1      -8.186  17.168  67.885  1.00  0.00    -0.202 C  
BRANCH  15  16
HETATM   16  C   UNL     1      -7.165  16.779  68.957  1.00  0.00    -0.225 A  
HETATM   17  C   UNL     1      -7.256  15.499  69.551  1.00  0.00    -0.201 A  
HETATM   18  C   UNL     1      -6.105  17.607  69.310  1.00  0.00    -0.233 A  
HETATM   19  C   UNL     1      -6.284  15.059  70.452  1.00  0.00    -0.097 A  
HETATM   20  C   UNL     1      -5.221  15.892  70.779  1.00  0.00    -0.164 A  
HETATM   21  C   UNL     1      -5.138  17.169  70.220  1.00  0.00    -0.217 A  
ENDBRANCH  15  16
BRANCH  15  22
HETATM   22  C   UNL     1      -8.486  16.028  66.887  1.00  0.00    -0.275 A  
HETATM   23  C   UNL     1      -9.635  13.994  65.321  1.00  0.00     0.151 A  
HETATM   24  C   UNL     1      -9.110  16.327  65.662  1.00  0.00     0.075 A  
HETATM   25 CL   UNL     1     -10.484  12.774  64.452  1.00  0.00    -0.385 Cl 
HETATM   26  C   UNL     1      -8.942  13.662  66.481  1.00  0.00    -0.068 A  
HETATM   27  C   UNL     1      -8.337  14.668  67.241  1.00  0.00    -0.234 A  
HETATM   28  C   UNL     1      -9.685  15.316  64.887  1.00  0.00     0.360 A  
ENDBRANCH  15  22
ENDBRANCH  12  15
ENDBRANCH   8   9
ENDBRANCH   4   8
TORSDOF 5
ENDMDL
MODEL      189
REMARK 921   NORMALIZED FREE ENERGY PREDICTED BY IDOCK:    0.47 KCAL/MOL
REMARK 922        TOTAL FREE ENERGY PREDICTED BY IDOCK:   -0.11 KCAL/MOL
REMARK 923 INTER-LIGAND FREE ENERGY PREDICTED BY IDOCK:   -3.72 KCAL/MOL
REMARK 924 INTRA-LIGAND FREE ENERGY PREDICTED BY IDOCK:    3.61 KCAL/MOL
REMARK 927      BINDING AFFINITY PREDICTED BY RF-SCORE:    0.00 PKD
ROOT
HETATM    1  C   UNL     1      -7.059  10.325  63.066  1.00  0.00    -0.119 C  
HETATM    2  C   UNL     1      -8.442  10.798  63.403  1.00  0.00    -0.042 A  
HETATM    3  C   UNL     1      -8.999  10.543  64.666  1.00  0.00    -0.229 A  
HETATM    4  C   UNL     1     -10.347  10.830  64.928  1.00  0.00    -0.369 A  
HETATM    5  C   UNL     1     -11.103  11.468  63.929  1.00  0.00    -0.458 A  
HETATM    6  C   UNL     1     -10.532  11.803  62.703  1.00  0.00     0.593 A  
HETATM    7  C   UNL     1      -9.211  11.453  62.434  1.00  0.00    -0.053 A  
ENDROOT
BRANCH   4   8
HETATM    8  C   UNL     1     -10.990  10.369  66.233  1.00  0.00     0.146 C  
BRANCH   8   9
HETATM    9  N   UNL     1     -10.584   9.014  66.640  1.00  0.00    -0.162 NA 
HETATM   10  C   UNL     1      -9.184   8.675  66.290  1.00  0.00    -0.202 C  
HETATM   11  C   UNL     1      -8.050   8.859  67.359  1.00  0.00    -0.108 C  
HETATM   12  N   UNL     1      -8.414   8.809  68.799  1.00  0.00    -0.127 NA 
HETATM   13  C   UNL     1      -9.722   9.490  68.915  1.00  0.00    -0.164 C  
HETATM   14  C   UNL     1     -10.811   8.817  68.073  1.00  0.00     0.008 C  
BRANCH  12  15
HETATM   15  C   UNL     1      -8.460   7.421  69.375  1.00  0.00    -0.133 C  
BRANCH  15  16
HETATM   16  C   UNL     1      -9.623   7.198  70.345  1.00  0.00    -0.169 A  
HETATM   17  C   UNL     1      -9.619   7.887  71.581  1.00  0.00    -0.206 A  
HETATM   18  C   UNL     1     -10.719   6.406  70.023  1.00  0.00    -0.316 A  
HETATM   19  C   UNL     1     -10.709   7.800  72.449  1.00  0.00    -0.347 A  
HETATM   20  C   UNL     1     -11.805   7.020  72.103  1.00  0.00    -0.314 A  
HETATM   21  C   UNL     1     -11.806   6.313  70.898  1.00  0.00    -0.215 A  
ENDBRANCH  15  16
BRANCH  15  22
HETATM   22  C   UNL     1      -8.358   6.334  68.284  1.00  0.00    -0.115 A  
HETATM   23  C   UNL     1      -8.192   3.946  66.808  1.00  0.00    -0.100 A  
HETATM   24  C   UNL     1      -9.521   5.665  67.861  1.00  0.00    -0.120 A  
HETATM   25 CL   UNL     1      -8.087   2.400  66.056  1.00  0.00    -0.082 Cl 
HETATM   26  C   UNL     1      -7.028   4.637  67.132  1.00  0.00    -0.060 A  
HETATM   27  C   UNL     1      -7.111   5.845  67.832  1.00  0.00    -0.071 A  
HETATM   28  C   UNL     1      -9.437   4.475  67.132  1.00  0.00    -0.182 A  
ENDBRANCH  15  22
ENDBRANCH  12  15
ENDBRANCH   8   9
ENDBRANCH   4   8
TORSDOF 5
ENDMDL
MODEL      190
REMARK 921   NORMALIZED FREE ENERGY PREDICTED BY IDOCK:    0.72 KCAL/MOL
REMARK 922        TOTAL FREE ENERGY PREDICTED BY IDOCK:    0.23 KCAL/MOL
REMARK 923 INTER-LIGAND FREE ENERGY PREDICTED BY IDOCK:   -3.33 KCAL/MOL
REMARK 924 INTRA-LIGAND FREE ENERGY PREDICTED BY IDOCK:    3.56 KCAL/MOL
REMARK 927      BINDING AFFINITY PREDICTED BY RF-SCORE:    0.00 PKD
ROOT
HETATM    1  C   UNL     1     -11.301   7.959  70.307  1.00  0.00    -0.158 C  
HETATM    2  C   UNL     1     -10.390   8.958  69.656  1.00  0.00    -0.214 A  
HETATM    3  C   UNL     1     -10.510  10.327  69.939  1.00  0.00    -0.304 A  
HETATM    4  C   UNL     1      -9.781  11.277  69.209  1.00  0.00     0.110 A  
HETATM    5  C   UNL     1      -8.855  10.823  68.254  1.00  0.00    -0.139 A  
HETATM    6  C   UNL     1      -8.668   9.460  68.029  1.00  0.00    -0.124 A  
HETATM    7  C   UNL     1      -9.446   8.531  68.714  1.00  0.00    -0.143 A  
ENDROOT
BRANCH   4   8
HETATM    8  C   UNL     1     -10.064  12.766  69.389  1.00  0.00     0.723 C  
BRANCH   8   9
HETATM    9  N   UNL     1     -10.578  13.416  68.173  1.00  0.00    -0.238 NA 
HETATM   10  C   UNL     1     -11.971  13.907  68.296  1.00  0.00    -0.357 C  
HETATM   11  C   UNL     1     -12.235  15.407  68.677  1.00  0.00     0.042 C  
HETATM   12  N   UNL     1     -11.191  16.416  68.358  1.00  0.00    -0.361 NA 
HETATM   13  C   UNL     1      -9.892  15.757  68.614  1.00  0.00    -0.210 C  
HETATM   14  C   UNL     1      -9.691  14.504  67.756  1.00  0.00    -0.216 C  
BRANCH  12  15
HETATM   15  C   UNL     1     -11.269  16.963  66.961  1.00  0.00     0.357 C  
BRANCH  15  16
HETATM   16  C   UNL     1     -10.260  18.080  66.682  1.00  0.00    -0.375 A  
HETATM   17  C   UNL     1     -10.329  19.266  67.450  1.00  0.00    -0.540 A  
HETATM   18  C   UNL     1      -9.230  17.939  65.759  1.00  0.00     0.325 A  
HETATM   19  C   UNL     1      -9.364  20.265  67.308  1.00  0.00    -0.538 A  
HETATM   20  C   UNL     1      -8.331  20.101  66.394  1.00  0.00    -0.287 A  
HETATM   21  C   UNL     1      -8.270  18.945  65.612  1.00  0.00     0.431 A  
ENDBRANCH  15  16
BRANCH  15  22
HETATM   22  C   UNL     1     -11.252  15.846  65.896  1.00  0.00     0.065 A  
HETATM   23  C   UNL     1     -11.141  13.421  64.475  1.00  0.00    -0.380 A  
HETATM   24  C   UNL     1     -12.417  15.092  65.664  1.00  0.00     0.327 A  
HETATM   25 CL   UNL     1     -11.042  11.859  63.757  1.00  0.00    -0.466 Cl 
HETATM   26  C   UNL     1      -9.991  14.194  64.609  1.00  0.00     0.143 A  
HETATM   27  C   UNL     1     -10.053  15.419  65.281  1.00  0.00    -0.354 A  
HETATM   28  C   UNL     1     -12.360  13.884  64.962  1.00  0.00    -0.452 A  
ENDBRANCH  15  22
ENDBRANCH  12  15
ENDBRANCH   8   9
ENDBRANCH   4   8
TORSDOF 5
ENDMDL
MODEL      191
REMARK 921   NORMALIZED FREE ENERGY PREDICTED BY IDOCK:    1.62 KCAL/MOL
REMARK 922        TOTAL FREE ENERGY PREDICTED BY IDOCK:    1.39 KCAL/MOL
REMARK 923 INTER-LIGAND FREE ENERGY PREDICTED BY IDOCK:   -1.40 KCAL/MOL
REMARK 924 INTRA-LIGAND FREE ENERGY PREDICTED BY IDOCK:    2.79 KCAL/MOL
REMARK 927      BINDING AFFINITY PREDICTED BY RF-SCORE:    0.00 PKD
ROOT
HETATM    1  C   UNL     1     -12.552  15.454  63.734  1.00  0.00     0.720 C  
HETATM    2  C   UNL     1     -12.309  14.004  64.033  1.00  0.00    -0.341 A  
HETATM    3  C   UNL     1     -12.439  13.510  65.340  1.00  0.00    -0.540 A  
HETATM    4  C   UNL     1     -12.047  12.201  65.655  1.00  0.00    -0.180 A  
HETATM    5  C   UNL     1     -11.611  11.363  64.615  1.00  0.00    -0.014 A  
HETATM    6  C   UNL     1     -11.561  11.820  63.300  1.00  0.00    -0.325 A  
HETATM    7  C   UNL     1     -11.890  13.142  63.012  1.00  0.00     0.122 A  
ENDROOT
BRANCH   4   8
HETATM    8  C   UNL     1     -12.009  11.741  67.110  1.00  0.00     0.107 C  
BRANCH   8   9
HETATM    9  N   UNL     1     -12.368  12.798  68.069  1.00  0.00    -0.047 NA 
HETATM   10  C   UNL     1     -11.608  12.739  69.341  1.00  0.00    -0.298 C  
HETATM   11  C   UNL     1     -10.325  13.625  69.520  1.00  0.00     0.439 C  
HETATM   12  N   UNL     1     -10.204  14.872  68.720  1.00  0.00    -0.236 NA 
HETATM   13  C   UNL     1     -10.764  14.560  67.387  1.00  0.00    -0.282 C  
HETATM   14  C   UNL     1     -12.230  14.119  67.455  1.00  0.00    -0.243 C  
BRANCH  12  15
HETATM   15  C   UNL     1     -10.874  16.067  69.337  1.00  0.00    -0.300 C  
BRANCH  15  16
HETATM   16  C   UNL     1     -11.522  15.775  70.692  1.00  0.00    -0.415 A  
HETATM   17  C   UNL     1     -10.710  15.289  71.744  1.00  0.00     0.399 A  
HETATM   18  C   UNL     1     -12.862  16.045  70.951  1.00  0.00     0.146 A  
HETATM   19  C   UNL     1     -11.233  15.113  73.026  1.00  0.00     0.368 A  
HETATM   20  C   UNL     1     -12.569  15.405  73.272  1.00  0.00    -0.618 A  
HETATM   21  C   UNL     1     -13.386  15.858  72.233  1.00  0.00    -0.410 A  
ENDBRANCH  15  16
BRANCH  15  22
HETATM   22  C   UNL     1      -9.954  17.307  69.355  1.00  0.00    -0.036 A  
HETATM   23  C   UNL     1      -8.547  19.679  68.804  1.00  0.00    -0.236 A  
HETATM   24  C   UNL     1     -10.486  18.559  69.712  1.00  0.00     0.992 A  
HETATM   25 CL   UNL     1      -7.765  21.133  68.313  1.00  0.00     0.541 Cl 
HETATM   26  C   UNL     1      -7.958  18.449  68.527  1.00  0.00    -0.333 A  
HETATM   27  C   UNL     1      -8.640  17.267  68.836  1.00  0.00    -0.170 A  
HETATM   28  C   UNL     1      -9.788  19.738  69.433  1.00  0.00    -0.209 A  
ENDBRANCH  15  22
ENDBRANCH  12  15
ENDBRANCH   8   9
ENDBRANCH   4   8
TORSDOF 5
ENDMDL
MODEL      192
REMARK 921   NORMALIZED FREE ENERGY PREDICTED BY IDOCK:    3.25 KCAL/MOL
REMARK 922        TOTAL FREE ENERGY PREDICTED BY IDOCK:    3.49 KCAL/MOL
REMARK 923 INTER-LIGAND FREE ENERGY PREDICTED BY IDOCK:   -1.09 KCAL/MOL
REMARK 924 INTRA-LIGAND FREE ENERGY PREDICTED BY IDOCK:    4.58 KCAL/MOL
REMARK 927      BINDING AFFINITY PREDICTED BY RF-SCORE:    0.00 PKD
ROOT
HETATM    1  C   UNL     1     -10.636  11.792  63.163  1.00  0.00    -0.341 C  
HETATM    2  C   UNL     1     -10.312  11.539  64.606  1.00  0.00    -0.349 A  
HETATM    3  C   UNL     1      -9.730  10.327  65.007  1.00  0.00    -0.370 A  
HETATM    4  C   UNL     1      -9.584  10.016  66.367  1.00  0.00    -0.248 A  
HETATM    5  C   UNL     1      -9.945  10.985  67.319  1.00  0.00    -0.210 A  
HETATM    6  C   UNL     1     -10.444  12.225  66.925  1.00  0.00    -0.240 A  
HETATM    7  C   UNL     1     -10.644  12.494  65.574  1.00  0.00    -0.304 A  
ENDROOT
BRANCH   4   8
HETATM    8  C   UNL     1      -9.134   8.621  66.791  1.00  0.00    -0.149 C  
BRANCH   8   9
HETATM    9  N   UNL     1      -9.842   8.111  67.976  1.00  0.00    -0.162 NA 
HETATM   10  C   UNL     1     -11.069   7.341  67.659  1.00  0.00    -0.001 C  
HETATM   11  C   UNL     1     -11.002   5.776  67.572  1.00  0.00    -0.044 C  
HETATM   12  N   UNL     1      -9.939   5.065  68.330  1.00  0.00    -0.148 NA 
HETATM   13  C   UNL     1      -8.729   5.911  68.229  1.00  0.00    -0.112 C  
HETATM   14  C   UNL     1      -8.942   7.312  68.810  1.00  0.00    -0.129 C  
BRANCH  12  15
HETATM   15  C   UNL     1     -10.293   4.773  69.761  1.00  0.00    -0.026 C  
BRANCH  15  16
HETATM   16  C   UNL     1      -9.543   3.573  70.345  1.00  0.00    -0.241 A  
HETATM   17  C   UNL     1      -8.825   2.727  69.468  1.00  0.00    -0.151 A  
HETATM   18  C   UNL     1      -9.477   3.331  71.712  1.00  0.00    -0.215 A  
HETATM   19  C   UNL     1      -8.038   1.687  69.965  1.00  0.00    -0.055 A  
HETATM   20  C   UNL     1      -7.968   1.470  71.335  1.00  0.00    -0.040 A  
HETATM   21  C   UNL     1      -8.696   2.282  72.207  1.00  0.00    -0.087 A  
ENDBRANCH  15  16
BRANCH  15  22
HETATM   22  C   UNL     1     -10.215   6.034  70.649  1.00  0.00    -0.260 A  
HETATM   23  C   UNL     1     -10.165   8.641  71.701  1.00  0.00    -0.295 A  
HETATM   24  C   UNL     1     -11.402   6.670  71.055  1.00  0.00    -0.366 A  
HETATM   25 CL   UNL     1     -10.150  10.295  72.182  1.00  0.00     4.074 Cl 
HETATM   26  C   UNL     1      -8.968   7.999  71.395  1.00  0.00    -0.173 A  
HETATM   27  C   UNL     1      -8.989   6.688  70.909  1.00  0.00    -0.147 A  
HETATM   28  C   UNL     1     -11.376   7.968  71.573  1.00  0.00    -0.299 A  
ENDBRANCH  15  22
ENDBRANCH  12  15
ENDBRANCH   8   9
ENDBRANCH   4   8
TORSDOF 5
ENDMDL
MODEL      193
REMARK 921   NORMALIZED FREE ENERGY PREDICTED BY IDOCK:    3.87 KCAL/MOL
REMARK 922        TOTAL FREE ENERGY PREDICTED BY IDOCK:    4.29 KCAL/MOL
REMARK 923 INTER-LIGAND FREE ENERGY PREDICTED BY IDOCK:   -2.18 KCAL/MOL
REMARK 924 INTRA-LIGAND FREE ENERGY PREDICTED BY IDOCK:    6.48 KCAL/MOL
REMARK 927      BINDING AFFINITY PREDICTED BY RF-SCORE:    0.00 PKD
ROOT
HETATM    1  C   UNL     1     -12.396  16.899  73.853  1.00  0.00    -0.124 C  
HETATM    2  C   UNL     1     -12.810  15.913  72.801  1.00  0.00    -0.572 A  
HETATM    3  C   UNL     1     -12.625  16.199  71.440  1.00  0.00    -0.037 A  
HETATM    4  C   UNL     1     -13.164  15.363  70.451  1.00  0.00    -0.139 A  
HETATM    5  C   UNL     1     -13.811  14.181  70.852  1.00  0.00     0.128 A  
HETATM    6  C   UNL     1     -13.923  13.848  72.201  1.00  0.00    -0.639 A  
HETATM    7  C   UNL     1     -13.441  14.720  73.172  1.00  0.00    -0.350 A  
ENDROOT
BRANCH   4   8
HETATM    8  C   UNL     1     -13.126  15.785  68.985  1.00  0.00     1.808 C  
BRANCH   8   9
HETATM    9  N   UNL     1     -11.855  15.466  68.315  1.00  0.00    -0.290 NA 
HETATM   10  C   UNL     1     -10.668  16.082  68.955  1.00  0.00    -0.275 C  
HETATM   11  C   UNL     1      -9.824  15.252  69.985  1.00  0.00    -0.054 C  
HETATM   12  N   UNL     1      -9.845  13.769  69.892  1.00  0.00     1.217 NA 
HETATM   13  C   UNL     1     -11.232  13.400  69.534  1.00  0.00    -0.117 C  
HETATM   14  C   UNL     1     -11.679  14.017  68.205  1.00  0.00    -0.357 C  
BRANCH  12  15
HETATM   15  C   UNL     1      -8.852  13.198  68.919  1.00  0.00     0.310 C  
BRANCH  15  16
HETATM   16  C   UNL     1      -9.261  11.835  68.354  1.00  0.00    -0.175 A  
HETATM   17  C   UNL     1     -10.539  11.322  68.676  1.00  0.00    -0.231 A  
HETATM   18  C   UNL     1      -8.456  11.123  67.473  1.00  0.00    -0.126 A  
HETATM   19  C   UNL     1     -10.999  10.138  68.097  1.00  0.00    -0.313 A  
HETATM   20  C   UNL     1     -10.189   9.447  67.204  1.00  0.00    -0.319 A  
HETATM   21  C   UNL     1      -8.915   9.932  66.902  1.00  0.00    -0.154 A  
ENDBRANCH  15  16
BRANCH  15  22
HETATM   22  C   UNL     1      -8.453  14.216  67.829  1.00  0.00    -0.178 A  
HETATM   23  C   UNL     1      -7.914  16.508  66.291  1.00  0.00    -0.272 A  
HETATM   24  C   UNL     1      -7.203  14.856  67.904  1.00  0.00    -0.166 A  
HETATM   25 CL   UNL     1      -7.649  18.005  65.481  1.00  0.00     0.117 Cl 
HETATM   26  C   UNL     1      -9.124  15.839  66.129  1.00  0.00    -0.377 A  
HETATM   27  C   UNL     1      -9.378  14.677  66.864  1.00  0.00    -0.258 A  
HETATM   28  C   UNL     1      -6.938  15.999  67.143  1.00  0.00    -0.242 A  
ENDBRANCH  15  22
ENDBRANCH  12  15
ENDBRANCH   8   9
ENDBRANCH   4   8
TORSDOF 5
ENDMDL
MODEL      194
REMARK 921   NORMALIZED FREE ENERGY PREDICTED BY IDOCK:    4.11 KCAL/MOL
REMARK 922        TOTAL FREE ENERGY PREDICTED BY IDOCK:    4.60 KCAL/MOL
REMARK 923 INTER-LIGAND FREE ENERGY PREDICTED BY IDOCK:    1.62 KCAL/MOL
REMARK 924 INTRA-LIGAND FREE ENERGY PREDICTED BY IDOCK:    2.98 KCAL/MOL
REMARK 927      BINDING AFFINITY PREDICTED BY RF-SCORE:    0.00 PKD
ROOT
HETATM    1  C   UNL     1      -6.501   2.453  68.107  1.00  0.00    -0.029 C  
HETATM    2  C   UNL     1      -7.840   2.736  67.492  1.00  0.00    -0.068 A  
HETATM    3  C   UNL     1      -8.262   4.056  67.271  1.00  0.00    -0.099 A  
HETATM    4  C   UNL     1      -9.575   4.330  66.859  1.00  0.00    -0.225 A  
HETATM    5  C   UNL     1     -10.429   3.250  66.579  1.00  0.00     1.955 A  
HETATM    6  C   UNL     1      -9.989   1.935  66.713  1.00  0.00     1.132 A  
HETATM    7  C   UNL     1      -8.705   1.679  67.186  1.00  0.00    -0.124 A  
ENDROOT
BRANCH   4   8
HETATM    8  C   UNL     1     -10.079   5.770  66.813  1.00  0.00    -0.196 C  
BRANCH   8   9
HETATM    9  N   UNL     1      -9.254   6.706  67.592  1.00  0.00    -0.112 NA 
HETATM   10  C   UNL     1      -8.816   7.900  66.830  1.00  0.00    -0.138 C  
HETATM   11  C   UNL     1      -9.640   9.232  66.934  1.00  0.00    -0.174 C  
HETATM   12  N   UNL     1     -10.451   9.473  68.156  1.00  0.00    -0.213 NA 
HETATM   13  C   UNL     1     -11.025   8.163  68.533  1.00  0.00     0.227 C  
HETATM   14  C   UNL     1      -9.948   7.110  68.816  1.00  0.00    -0.163 C  
BRANCH  12  15
HETATM   15  C   UNL     1      -9.686  10.090  69.292  1.00  0.00    -0.215 C  
BRANCH  15  16
HETATM   16  C   UNL     1      -8.474   9.266  69.734  1.00  0.00    -0.152 A  
HETATM   17  C   UNL     1      -7.185   9.678  69.321  1.00  0.00    -0.069 A  
HETATM   18  C   UNL     1      -8.586   8.176  70.589  1.00  0.00    -0.130 A  
HETATM   19  C   UNL     1      -6.043   9.023  69.787  1.00  0.00    -0.038 A  
HETATM   20  C   UNL     1      -6.172   7.947  70.657  1.00  0.00    -0.037 A  
HETATM   21  C   UNL     1      -7.442   7.516  71.047  1.00  0.00    -0.072 A  
ENDBRANCH  15  16
BRANCH  15  22
HETATM   22  C   UNL     1      -9.352  11.575  69.032  1.00  0.00     0.090 A  
HETATM   23  C   UNL     1      -8.437  14.040  68.033  1.00  0.00    -0.171 A  
HETATM   24  C   UNL     1     -10.116  12.304  68.102  1.00  0.00    -0.211 A  
HETATM   25 CL   UNL     1      -7.796  15.459  67.298  1.00  0.00    -0.216 Cl 
HETATM   26  C   UNL     1      -7.709  13.384  69.022  1.00  0.00     0.146 A  
HETATM   27  C   UNL     1      -8.182  12.178  69.548  1.00  0.00     1.142 A  
HETATM   28  C   UNL     1      -9.657  13.527  67.603  1.00  0.00    -0.222 A  
ENDBRANCH  15  22
ENDBRANCH  12  15
ENDBRANCH   8   9
ENDBRANCH   4   8
TORSDOF 5
ENDMDL
MODEL      195
REMARK 921   NORMALIZED FREE ENERGY PREDICTED BY IDOCK:    4.23 KCAL/MOL
REMARK 922        TOTAL FREE ENERGY PREDICTED BY IDOCK:    4.76 KCAL/MOL
REMARK 923 INTER-LIGAND FREE ENERGY PREDICTED BY IDOCK:   -3.91 KCAL/MOL
REMARK 924 INTRA-LIGAND FREE ENERGY PREDICTED BY IDOCK:    8.67 KCAL/MOL
REMARK 927      BINDING AFFINITY PREDICTED BY RF-SCORE:    0.00 PKD
ROOT
HETATM    1  C   UNL     1     -12.561  15.645  64.166  1.00  0.00     0.448 C  
HETATM    2  C   UNL     1     -12.350  14.162  64.233  1.00  0.00    -0.398 A  
HETATM    3  C   UNL     1     -12.200  13.514  65.469  1.00  0.00    -0.490 A  
HETATM    4  C   UNL     1     -11.833  12.162  65.531  1.00  0.00    -0.350 A  
HETATM    5  C   UNL     1     -11.712  11.444  64.329  1.00  0.00    -0.015 A  
HETATM    6  C   UNL     1     -11.944  12.060  63.100  1.00  0.00    -0.323 A  
HETATM    7  C   UNL     1     -12.244  13.418  63.051  1.00  0.00     0.123 A  
ENDROOT
BRANCH   4   8
HETATM    8  C   UNL     1     -11.482  11.523  66.872  1.00  0.00    -0.184 C  
BRANCH   8   9
HETATM    9  N   UNL     1     -11.480  12.476  67.993  1.00  0.00    -0.294 NA 
HETATM   10  C   UNL     1     -10.487  12.162  69.047  1.00  0.00    -0.038 C  
HETATM   11  C   UNL     1      -9.084  12.865  69.025  1.00  0.00     0.514 C  
HETATM   12  N   UNL     1      -8.960  14.186  68.355  1.00  0.00    -0.188 NA 
HETATM   13  C   UNL     1      -9.825  14.120  67.157  1.00  0.00    -0.253 C  
HETATM   14  C   UNL     1     -11.291  13.844  67.506  1.00  0.00    -0.318 C  
BRANCH  12  15
HETATM   15  C   UNL     1      -9.312  15.356  69.229  1.00  0.00    -0.254 C  
BRANCH  15  16
HETATM   16  C   UNL     1      -9.275  16.701  68.498  1.00  0.00    -0.234 A  
HETATM   17  C   UNL     1      -9.846  17.832  69.126  1.00  0.00    -0.143 A  
HETATM   18  C   UNL     1      -8.633  16.866  67.276  1.00  0.00    -0.212 A  
HETATM   19  C   UNL     1      -9.740  19.099  68.549  1.00  0.00    -0.467 A  
HETATM   20  C   UNL     1      -9.078  19.250  67.337  1.00  0.00    -0.345 A  
HETATM   21  C   UNL     1      -8.536  18.134  66.695  1.00  0.00    -0.284 A  
ENDBRANCH  15  16
BRANCH  15  22
HETATM   22  C   UNL     1     -10.621  15.124  70.014  1.00  0.00    -0.237 A  
HETATM   23  C   UNL     1     -12.628  14.830  71.963  1.00  0.00    -0.328 A  
HETATM   24  C   UNL     1     -11.378  16.230  70.442  1.00  0.00    -0.313 A  
HETATM   25 CL   UNL     1     -13.733  14.679  73.274  1.00  0.00     0.029 Cl 
HETATM   26  C   UNL     1     -11.958  13.706  71.489  1.00  0.00     0.296 A  
HETATM   27  C   UNL     1     -10.987  13.845  70.492  1.00  0.00     0.741 A  
HETATM   28  C   UNL     1     -12.372  16.084  71.414  1.00  0.00    -0.393 A  
ENDBRANCH  15  22
ENDBRANCH  12  15
ENDBRANCH   8   9
ENDBRANCH   4   8
TORSDOF 5
ENDMDL
MODEL      196
REMARK 921   NORMALIZED FREE ENERGY PREDICTED BY IDOCK:    4.66 KCAL/MOL
REMARK 922        TOTAL FREE ENERGY PREDICTED BY IDOCK:    5.31 KCAL/MOL
REMARK 923 INTER-LIGAND FREE ENERGY PREDICTED BY IDOCK:   -2.04 KCAL/MOL
REMARK 924 INTRA-LIGAND FREE ENERGY PREDICTED BY IDOCK:    7.36 KCAL/MOL
REMARK 927      BINDING AFFINITY PREDICTED BY RF-SCORE:    0.00 PKD
ROOT
HETATM    1  C   UNL     1      -9.810  14.730  66.625  1.00  0.00    -0.270 C  
HETATM    2  C   UNL     1      -9.282  13.396  67.065  1.00  0.00    -0.242 A  
HETATM    3  C   UNL     1      -8.353  12.699  66.278  1.00  0.00     0.471 A  
HETATM    4  C   UNL     1      -7.988  11.382  66.596  1.00  0.00    -0.148 A  
HETATM    5  C   UNL     1      -8.499  10.811  67.774  1.00  0.00    -0.120 A  
HETATM    6  C   UNL     1      -9.355  11.529  68.607  1.00  0.00    -0.142 A  
HETATM    7  C   UNL     1      -9.760  12.811  68.244  1.00  0.00    -0.216 A  
ENDROOT
BRANCH   4   8
HETATM    8  C   UNL     1      -7.133  10.568  65.629  1.00  0.00    -0.119 C  
BRANCH   8   9
HETATM    9  N   UNL     1      -7.840   9.416  65.048  1.00  0.00    -0.111 NA 
HETATM   10  C   UNL     1      -7.374   9.045  63.691  1.00  0.00    -0.100 C  
HETATM   11  C   UNL     1      -6.303   7.911  63.521  1.00  0.00    -0.063 C  
HETATM   12  N   UNL     1      -6.193   6.871  64.577  1.00  0.00    -0.036 NA 
HETATM   13  C   UNL     1      -6.400   7.571  65.864  1.00  0.00    -0.042 C  
HETATM   14  C   UNL     1      -7.766   8.260  65.944  1.00  0.00    -0.087 C  
BRANCH  12  15
HETATM   15  C   UNL     1      -7.147   5.722  64.412  1.00  0.00    -0.053 C  
BRANCH  15  16
HETATM   16  C   UNL     1      -6.461   4.354  64.389  1.00  0.00    -0.038 A  
HETATM   17  C   UNL     1      -6.036   3.787  65.613  1.00  0.00    -0.023 A  
HETATM   18  C   UNL     1      -6.313   3.615  63.221  1.00  0.00    -0.022 A  
HETATM   19  C   UNL     1      -5.505   2.496  65.655  1.00  0.00    -0.016 A  
HETATM   20  C   UNL     1      -5.381   1.763  64.481  1.00  0.00    -0.005 A  
HETATM   21  C   UNL     1      -5.772   2.326  63.264  1.00  0.00    -0.009 A  
ENDBRANCH  15  16
BRANCH  15  22
HETATM   22  C   UNL     1      -8.327   5.797  65.405  1.00  0.00    -0.142 A  
HETATM   23  C   UNL     1     -10.084   5.568  67.589  1.00  0.00    -0.178 A  
HETATM   24  C   UNL     1      -8.281   6.719  66.467  1.00  0.00    -0.117 A  
HETATM   25 CL   UNL     1     -11.041   5.324  68.999  1.00  0.00     0.333 Cl 
HETATM   26  C   UNL     1     -10.212   4.701  66.508  1.00  0.00    -0.273 A  
HETATM   27  C   UNL     1      -9.365   4.838  65.403  1.00  0.00    -0.161 A  
HETATM   28  C   UNL     1      -9.151   6.600  67.555  1.00  0.00    -0.116 A  
ENDBRANCH  15  22
ENDBRANCH  12  15
ENDBRANCH   8   9
ENDBRANCH   4   8
TORSDOF 5
ENDMDL
MODEL      197
REMARK 921   NORMALIZED FREE ENERGY PREDICTED BY IDOCK:    5.02 KCAL/MOL
REMARK 922        TOTAL FREE ENERGY PREDICTED BY IDOCK:    5.78 KCAL/MOL
REMARK 923 INTER-LIGAND FREE ENERGY PREDICTED BY IDOCK:   -2.71 KCAL/MOL
REMARK 924 INTRA-LIGAND FREE ENERGY PREDICTED BY IDOCK:    8.49 KCAL/MOL
REMARK 927      BINDING AFFINITY PREDICTED BY RF-SCORE:    0.00 PKD
ROOT
HETATM    1  C   UNL     1     -10.419  10.764  69.546  1.00  0.00    -0.205 C  
HETATM    2  C   UNL     1      -9.407   9.753  69.096  1.00  0.00    -0.185 A  
HETATM    3  C   UNL     1      -8.511  10.050  68.057  1.00  0.00    -0.117 A  
HETATM    4  C   UNL     1      -7.681   9.056  67.518  1.00  0.00    -0.096 A  
HETATM    5  C   UNL     1      -7.698   7.778  68.103  1.00  0.00    -0.119 A  
HETATM    6  C   UNL     1      -8.523   7.500  69.192  1.00  0.00    -0.136 A  
HETATM    7  C   UNL     1      -9.388   8.478  69.674  1.00  0.00    -0.157 A  
ENDROOT
BRANCH   4   8
HETATM    8  C   UNL     1      -6.858   9.340  66.265  1.00  0.00    -0.082 C  
BRANCH   8   9
HETATM    9  N   UNL     1      -7.278  10.556  65.550  1.00  0.00    -0.134 NA 
HETATM   10  C   UNL     1      -8.639  10.473  64.970  1.00  0.00    -0.176 C  
HETATM   11  C   UNL     1      -9.859  11.053  65.767  1.00  0.00    -0.235 C  
HETATM   12  N   UNL     1      -9.615  12.135  66.756  1.00  0.00    -0.206 NA 
HETATM   13  C   UNL     1      -8.330  11.808  67.413  1.00  0.00    -0.159 C  
HETATM   14  C   UNL     1      -7.166  11.729  66.419  1.00  0.00     0.216 C  
BRANCH  12  15
HETATM   15  C   UNL     1      -9.598  13.517  66.165  1.00  0.00    -0.204 C  
BRANCH  15  16
HETATM   16  C   UNL     1     -10.699  13.755  65.129  1.00  0.00    -0.365 A  
HETATM   17  C   UNL     1     -11.360  15.005  65.114  1.00  0.00    -0.372 A  
HETATM   18  C   UNL     1     -11.019  12.817  64.154  1.00  0.00    -0.435 A  
HETATM   19  C   UNL     1     -12.293  15.308  64.121  1.00  0.00    -0.065 A  
HETATM   20  C   UNL     1     -12.587  14.366  63.142  1.00  0.00     1.370 A  
HETATM   21  C   UNL     1     -11.961  13.118  63.166  1.00  0.00    -0.246 A  
ENDBRANCH  15  16
BRANCH  15  22
HETATM   22  C   UNL     1      -9.533  14.614  67.250  1.00  0.00    -0.221 A  
HETATM   23  C   UNL     1     -10.039  16.710  69.056  1.00  0.00    -0.293 A  
HETATM   24  C   UNL     1     -10.050  14.352  68.532  1.00  0.00    -0.244 A  
HETATM   25 CL   UNL     1     -10.506  18.004  70.091  1.00  0.00     0.915 Cl 
HETATM   26  C   UNL     1      -9.440  16.986  67.830  1.00  0.00    -0.245 A  
HETATM   27  C   UNL     1      -9.151  15.941  66.947  1.00  0.00    -0.255 A  
HETATM   28  C   UNL     1     -10.306  15.395  69.427  1.00  0.00    -0.258 A  
ENDBRANCH  15  22
ENDBRANCH  12  15
ENDBRANCH   8   9
ENDBRANCH   4   8
TORSDOF 5
ENDMDL
MODEL      198
REMARK 921   NORMALIZED FREE ENERGY PREDICTED BY IDOCK:    6.51 KCAL/MOL
REMARK 922        TOTAL FREE ENERGY PREDICTED BY IDOCK:    7.71 KCAL/MOL
REMARK 923 INTER-LIGAND FREE ENERGY PREDICTED BY IDOCK:    4.11 KCAL/MOL
REMARK 924 INTRA-LIGAND FREE ENERGY PREDICTED BY IDOCK:    3.60 KCAL/MOL
REMARK 927      BINDING AFFINITY PREDICTED BY RF-SCORE:    0.00 PKD
ROOT
HETATM    1  C   UNL     1     -10.957  14.708  63.190  1.00  0.00     4.018 C  
HETATM    2  C   UNL     1     -11.381  13.508  63.984  1.00  0.00    -0.306 A  
HETATM    3  C   UNL     1     -12.065  13.659  65.201  1.00  0.00    -0.426 A  
HETATM    4  C   UNL     1     -12.310  12.554  66.028  1.00  0.00    -0.083 A  
HETATM    5  C   UNL     1     -11.942  11.278  65.569  1.00  0.00     1.022 A  
HETATM    6  C   UNL     1     -11.340  11.110  64.323  1.00  0.00     0.058 A  
HETATM    7  C   UNL     1     -11.044  12.224  63.542  1.00  0.00    -0.533 A  
ENDROOT
BRANCH   4   8
HETATM    8  C   UNL     1     -12.876  12.756  67.431  1.00  0.00     2.137 C  
BRANCH   8   9
HETATM    9  N   UNL     1     -11.843  12.803  68.479  1.00  0.00    -0.320 NA 
HETATM   10  C   UNL     1     -11.595  11.498  69.137  1.00  0.00    -0.316 C  
HETATM   11  C   UNL     1     -10.418  10.588  68.636  1.00  0.00    -0.191 C  
HETATM   12  N   UNL     1      -9.264  11.228  67.954  1.00  0.00    -0.153 NA 
HETATM   13  C   UNL     1      -9.830  12.311  67.120  1.00  0.00    -0.203 C  
HETATM   14  C   UNL     1     -10.594  13.350  67.947  1.00  0.00    -0.245 C  
BRANCH  12  15
HETATM   15  C   UNL     1      -8.205  11.744  68.887  1.00  0.00     0.057 C  
BRANCH  15  16
HETATM   16  C   UNL     1      -7.101  10.725  69.184  1.00  0.00    -0.101 A  
HETATM   17  C   UNL     1      -7.086  10.088  70.446  1.00  0.00    -0.131 A  
HETATM   18  C   UNL     1      -6.162  10.347  68.231  1.00  0.00    -0.051 A  
HETATM   19  C   UNL     1      -6.166   9.074  70.723  1.00  0.00    -0.048 A  
HETATM   20  C   UNL     1      -5.247   8.695  69.754  1.00  0.00    -0.030 A  
HETATM   21  C   UNL     1      -5.235   9.338  68.514  1.00  0.00    -0.034 A  
ENDBRANCH  15  16
BRANCH  15  22
HETATM   22  C   UNL     1      -7.662  13.121  68.449  1.00  0.00    -0.138 A  
HETATM   23  C   UNL     1      -7.293  15.819  67.747  1.00  0.00    -0.148 A  
HETATM   24  C   UNL     1      -7.346  14.083  69.425  1.00  0.00     0.077 A  
HETATM   25 CL   UNL     1      -7.238  17.492  67.340  1.00  0.00    -0.182 Cl 
HETATM   26  C   UNL     1      -7.513  14.872  66.751  1.00  0.00     0.488 A  
HETATM   27  C   UNL     1      -7.657  13.524  67.094  1.00  0.00     0.041 A  
HETATM   28  C   UNL     1      -7.168  15.425  69.076  1.00  0.00    -0.153 A  
ENDBRANCH  15  22
ENDBRANCH  12  15
ENDBRANCH   8   9
ENDBRANCH   4   8
TORSDOF 5
ENDMDL
MODEL      199
REMARK 921   NORMALIZED FREE ENERGY PREDICTED BY IDOCK:    8.29 KCAL/MOL
REMARK 922        TOTAL FREE ENERGY PREDICTED BY IDOCK:   10.00 KCAL/MOL
REMARK 923 INTER-LIGAND FREE ENERGY PREDICTED BY IDOCK:    3.43 KCAL/MOL
REMARK 924 INTRA-LIGAND FREE ENERGY PREDICTED BY IDOCK:    6.57 KCAL/MOL
REMARK 927      BINDING AFFINITY PREDICTED BY RF-SCORE:    0.00 PKD
ROOT
HETATM    1  C   UNL     1     -11.513  18.020  73.714  1.00  0.00     1.183 C  
HETATM    2  C   UNL     1     -11.330  17.457  72.335  1.00  0.00     1.545 A  
HETATM    3  C   UNL     1     -10.879  18.270  71.284  1.00  0.00     2.938 A  
HETATM    4  C   UNL     1     -10.870  17.797  69.963  1.00  0.00     1.281 A  
HETATM    5  C   UNL     1     -11.233  16.459  69.728  1.00  0.00    -0.252 A  
HETATM    6  C   UNL     1     -11.600  15.621  70.780  1.00  0.00    -0.412 A  
HETATM    7  C   UNL     1     -11.666  16.123  72.076  1.00  0.00    -0.574 A  
ENDROOT
BRANCH   4   8
HETATM    8  C   UNL     1     -10.566  18.748  68.809  1.00  0.00     0.219 C  
BRANCH   8   9
HETATM    9  N   UNL     1      -9.326  18.419  68.090  1.00  0.00    -0.306 NA 
HETATM   10  C   UNL     1      -8.134  19.150  68.581  1.00  0.00    -0.370 C  
HETATM   11  C   UNL     1      -7.184  18.471  69.629  1.00  0.00     0.236 C  
HETATM   12  N   UNL     1      -7.134  16.987  69.688  1.00  0.00     0.014 NA 
HETATM   13  C   UNL     1      -8.520  16.521  69.465  1.00  0.00     0.272 C  
HETATM   14  C   UNL     1      -9.082  16.975  68.114  1.00  0.00    -0.237 C  
BRANCH  12  15
HETATM   15  C   UNL     1      -6.177  16.363  68.712  1.00  0.00    -0.132 C  
BRANCH  15  16
HETATM   16  C   UNL     1      -6.614  14.979  68.224  1.00  0.00    -0.115 A  
HETATM   17  C   UNL     1      -5.655  13.940  68.180  1.00  0.00    -0.118 A  
HETATM   18  C   UNL     1      -7.934  14.687  67.899  1.00  0.00    -0.149 A  
HETATM   19  C   UNL     1      -6.030  12.637  67.847  1.00  0.00    -0.108 A  
HETATM   20  C   UNL     1      -7.357  12.358  67.543  1.00  0.00    -0.146 A  
HETATM   21  C   UNL     1      -8.305  13.383  67.557  1.00  0.00    -0.190 A  
ENDBRANCH  15  16
BRANCH  15  22
HETATM   22  C   UNL     1      -5.806  17.326  67.563  1.00  0.00    -0.155 A  
HETATM   23  C   UNL     1      -5.689  19.375  65.640  1.00  0.00    -0.162 A  
HETATM   24  C   UNL     1      -5.204  18.562  67.863  1.00  0.00    -0.166 A  
HETATM   25 CL   UNL     1      -5.771  20.681  64.521  1.00  0.00    -0.256 Cl 
HETATM   26  C   UNL     1      -6.204  18.130  65.290  1.00  0.00    -0.131 A  
HETATM   27  C   UNL     1      -6.227  17.098  66.234  1.00  0.00    -0.122 A  
HETATM   28  C   UNL     1      -5.151  19.582  66.908  1.00  0.00    -0.158 A  
ENDBRANCH  15  22
ENDBRANCH  12  15
ENDBRANCH   8   9
ENDBRANCH   4   8
TORSDOF 5
ENDMDL
MODEL      200
REMARK 921   NORMALIZED FREE ENERGY PREDICTED BY IDOCK:    8.30 KCAL/MOL
REMARK 922        TOTAL FREE ENERGY PREDICTED BY IDOCK:   10.01 KCAL/MOL
REMARK 923 INTER-LIGAND FREE ENERGY PREDICTED BY IDOCK:    7.15 KCAL/MOL
REMARK 924 INTRA-LIGAND FREE ENERGY PREDICTED BY IDOCK:    2.87 KCAL/MOL
REMARK 927      BINDING AFFINITY PREDICTED BY RF-SCORE:    0.00 PKD
ROOT
HETATM    1  C   UNL     1      -8.115  13.068  62.730  1.00  0.00     8.440 C  
HETATM    2  C   UNL     1      -8.992  12.003  63.318  1.00  0.00     0.710 A  
HETATM    3  C   UNL     1     -10.106  12.343  64.101  1.00  0.00    -0.322 A  
HETATM    4  C   UNL     1     -10.825  11.358  64.793  1.00  0.00    -0.339 A  
HETATM    5  C   UNL     1     -10.466  10.012  64.608  1.00  0.00     0.616 A  
HETATM    6  C   UNL     1      -9.415   9.660  63.763  1.00  0.00     0.080 A  
HETATM    7  C   UNL     1      -8.669  10.653  63.135  1.00  0.00    -0.190 A  
ENDROOT
BRANCH   4   8
HETATM    8  C   UNL     1     -11.907  11.757  65.793  1.00  0.00     0.115 C  
BRANCH   8   9
HETATM    9  N   UNL     1     -11.396  11.966  67.157  1.00  0.00    -0.329 NA 
HETATM   10  C   UNL     1     -11.338  10.731  67.973  1.00  0.00    -0.307 C  
HETATM   11  C   UNL     1      -9.993   9.927  68.068  1.00  0.00    -0.152 C  
HETATM   12  N   UNL     1      -8.714  10.650  67.850  1.00  0.00    -0.126 NA 
HETATM   13  C   UNL     1      -8.973  11.623  66.766  1.00  0.00    -0.189 C  
HETATM   14  C   UNL     1     -10.084  12.616  67.122  1.00  0.00    -0.223 C  
BRANCH  12  15
HETATM   15  C   UNL     1      -8.168  11.322  69.078  1.00  0.00    -0.021 C  
BRANCH  15  16
HETATM   16  C   UNL     1      -7.198  10.447  69.876  1.00  0.00    -0.157 A  
HETATM   17  C   UNL     1      -6.009  11.029  70.374  1.00  0.00    -0.141 A  
HETATM   18  C   UNL     1      -7.481   9.124  70.197  1.00  0.00    -0.082 A  
HETATM   19  C   UNL     1      -5.149  10.301  71.198  1.00  0.00    -0.072 A  
HETATM   20  C   UNL     1      -5.455   8.986  71.525  1.00  0.00    -0.050 A  
HETATM   21  C   UNL     1      -6.613   8.394  71.015  1.00  0.00    -0.043 A  
ENDBRANCH  15  16
BRANCH  15  22
HETATM   22  C   UNL     1      -7.611  12.729  68.774  1.00  0.00    -0.025 A  
HETATM   23  C   UNL     1      -6.137  15.121  68.653  1.00  0.00    -0.086 A  
HETATM   24  C   UNL     1      -6.537  12.870  67.876  1.00  0.00    -0.125 A  
HETATM   25 CL   UNL     1      -5.134  16.520  68.703  1.00  0.00    -0.114 Cl 
HETATM   26  C   UNL     1      -7.252  15.041  69.482  1.00  0.00    -0.199 A  
HETATM   27  C   UNL     1      -8.010  13.865  69.514  1.00  0.00     0.572 A  
HETATM   28  C   UNL     1      -5.802  14.058  67.821  1.00  0.00    -0.091 A  
ENDBRANCH  15  22
ENDBRANCH  12  15
ENDBRANCH   8   9
ENDBRANCH   4   8
TORSDOF 5
ENDMDL
MODEL      201
REMARK 921   NORMALIZED FREE ENERGY PREDICTED BY IDOCK:   10.10 KCAL/MOL
REMARK 922        TOTAL FREE ENERGY PREDICTED BY IDOCK:   12.35 KCAL/MOL
REMARK 923 INTER-LIGAND FREE ENERGY PREDICTED BY IDOCK:    2.01 KCAL/MOL
REMARK 924 INTRA-LIGAND FREE ENERGY PREDICTED BY IDOCK:   10.34 KCAL/MOL
REMARK 927      BINDING AFFINITY PREDICTED BY RF-SCORE:    0.00 PKD
ROOT
HETATM    1  C   UNL     1      -8.908  14.319  67.365  1.00  0.00    -0.211 C  
HETATM    2  C   UNL     1      -8.339  13.119  68.061  1.00  0.00    -0.162 A  
HETATM    3  C   UNL     1      -7.388  12.306  67.425  1.00  0.00    -0.151 A  
HETATM    4  C   UNL     1      -6.983  11.092  68.000  1.00  0.00    -0.068 A  
HETATM    5  C   UNL     1      -7.475  10.754  69.272  1.00  0.00    -0.135 A  
HETATM    6  C   UNL     1      -8.354  11.600  69.948  1.00  0.00     1.841 A  
HETATM    7  C   UNL     1      -8.799  12.769  69.337  1.00  0.00     1.269 A  
ENDROOT
BRANCH   4   8
HETATM    8  C   UNL     1      -6.102  10.126  67.211  1.00  0.00    -0.058 C  
BRANCH   8   9
HETATM    9  N   UNL     1      -6.829   8.952  66.703  1.00  0.00    -0.075 NA 
HETATM   10  C   UNL     1      -6.149   8.261  65.582  1.00  0.00    -0.045 C  
HETATM   11  C   UNL     1      -5.237   7.018  65.875  1.00  0.00    -0.023 C  
HETATM   12  N   UNL     1      -5.497   6.218  67.100  1.00  0.00    -0.009 NA 
HETATM   13  C   UNL     1      -5.865   7.188  68.154  1.00  0.00    -0.022 C  
HETATM   14  C   UNL     1      -7.107   8.009  67.788  1.00  0.00    -0.086 C  
BRANCH  12  15
HETATM   15  C   UNL     1      -6.548   5.157  66.932  1.00  0.00    -0.053 C  
BRANCH  15  16
HETATM   16  C   UNL     1      -6.303   3.910  67.784  1.00  0.00    -0.037 A  
HETATM   17  C   UNL     1      -5.916   2.711  67.139  1.00  0.00    -0.023 A  
HETATM   18  C   UNL     1      -6.369   3.932  69.172  1.00  0.00    -0.029 A  
HETATM   19  C   UNL     1      -5.575   1.579  67.882  1.00  0.00    -0.018 A  
HETATM   20  C   UNL     1      -5.628   1.624  69.269  1.00  0.00    -0.014 A  
HETATM   21  C   UNL     1      -6.036   2.794  69.914  1.00  0.00    -0.024 A  
ENDBRANCH  15  16
BRANCH  15  22
HETATM   22  C   UNL     1      -7.977   5.725  67.078  1.00  0.00    -0.102 A  
HETATM   23  C   UNL     1     -10.494   6.603  67.974  1.00  0.00    -0.216 A  
HETATM   24  C   UNL     1      -8.155   7.037  67.554  1.00  0.00    -0.113 A  
HETATM   25 CL   UNL     1     -11.990   7.080  68.679  1.00  0.00     1.067 Cl 
HETATM   26  C   UNL     1     -10.364   5.332  67.421  1.00  0.00    -0.237 A  
HETATM   27  C   UNL     1      -9.122   4.909  66.939  1.00  0.00    -0.118 A  
HETATM   28  C   UNL     1      -9.406   7.470  68.004  1.00  0.00    -0.142 A  
ENDBRANCH  15  22
ENDBRANCH  12  15
ENDBRANCH   8   9
ENDBRANCH   4   8
TORSDOF 5
ENDMDL
MODEL      202
REMARK 921   NORMALIZED FREE ENERGY PREDICTED BY IDOCK:   15.42 KCAL/MOL
REMARK 922        TOTAL FREE ENERGY PREDICTED BY IDOCK:   19.22 KCAL/MOL
REMARK 923 INTER-LIGAND FREE ENERGY PREDICTED BY IDOCK:   11.45 KCAL/MOL
REMARK 924 INTRA-LIGAND FREE ENERGY PREDICTED BY IDOCK:    7.77 KCAL/MOL
REMARK 927      BINDING AFFINITY PREDICTED BY RF-SCORE:    0.00 PKD
ROOT
HETATM    1  C   UNL     1      -8.421  21.159  72.195  1.00  0.00     3.927 C  
HETATM    2  C   UNL     1      -7.429  20.189  71.626  1.00  0.00     1.458 A  
HETATM    3  C   UNL     1      -7.845  18.939  71.141  1.00  0.00     4.511 A  
HETATM    4  C   UNL     1      -6.908  17.965  70.769  1.00  0.00     2.397 A  
HETATM    5  C   UNL     1      -5.543  18.300  70.801  1.00  0.00    -0.113 A  
HETATM    6  C   UNL     1      -5.126  19.569  71.199  1.00  0.00    -0.278 A  
HETATM    7  C   UNL     1      -6.065  20.504  71.628  1.00  0.00    -0.058 A  
ENDROOT
BRANCH   4   8
HETATM    8  C   UNL     1      -7.366  16.548  70.432  1.00  0.00     1.844 C  
BRANCH   8   9
HETATM    9  N   UNL     1      -8.335  16.493  69.326  1.00  0.00    -0.149 NA 
HETATM   10  C   UNL     1      -7.821  17.037  68.047  1.00  0.00    -0.182 C  
HETATM   11  C   UNL     1      -7.213  16.062  66.978  1.00  0.00    -0.213 C  
HETATM   12  N   UNL     1      -7.654  14.642  66.976  1.00  0.00    -0.024 NA 
HETATM   13  C   UNL     1      -7.801  14.258  68.397  1.00  0.00    -0.140 C  
HETATM   14  C   UNL     1      -8.824  15.126  69.138  1.00  0.00    -0.221 C  
BRANCH  12  15
HETATM   15  C   UNL     1      -8.916  14.390  66.201  1.00  0.00     0.115 C  
BRANCH  15  16
HETATM   16  C   UNL     1      -9.692  13.159  66.677  1.00  0.00    -0.261 A  
HETATM   17  C   UNL     1     -10.215  12.269  65.709  1.00  0.00    -0.281 A  
HETATM   18  C   UNL     1      -9.831  12.841  68.023  1.00  0.00    -0.226 A  
HETATM   19  C   UNL     1     -10.834  11.079  66.095  1.00  0.00    -0.212 A  
HETATM   20  C   UNL     1     -10.949  10.767  67.444  1.00  0.00    -0.361 A  
HETATM   21  C   UNL     1     -10.460  11.653  68.407  1.00  0.00    -0.230 A  
ENDBRANCH  15  16
BRANCH  15  22
HETATM   22  C   UNL     1      -9.792  15.656  66.085  1.00  0.00    -0.340 A  
HETATM   23  C   UNL     1     -10.869  18.199  65.553  1.00  0.00     0.165 A  
HETATM   24  C   UNL     1     -10.492  15.906  64.891  1.00  0.00    -0.176 A  
HETATM   25 CL   UNL     1     -11.376  19.796  65.157  1.00  0.00     0.535 Cl 
HETATM   26  C   UNL     1     -10.264  17.950  66.782  1.00  0.00    -0.360 A  
HETATM   27  C   UNL     1      -9.762  16.675  67.063  1.00  0.00    -0.253 A  
HETATM   28  C   UNL     1     -11.023  17.172  64.626  1.00  0.00     0.579 A  
ENDBRANCH  15  22
ENDBRANCH  12  15
ENDBRANCH   8   9
ENDBRANCH   4   8
TORSDOF 5
ENDMDL
MODEL      203
REMARK 921   NORMALIZED FREE ENERGY PREDICTED BY IDOCK:   22.91 KCAL/MOL
REMARK 922        TOTAL FREE ENERGY PREDICTED BY IDOCK:   28.91 KCAL/MOL
REMARK 923 INTER-LIGAND FREE ENERGY PREDICTED BY IDOCK:   14.92 KCAL/MOL
REMARK 924 INTRA-LIGAND FREE ENERGY PREDICTED BY IDOCK:   13.98 KCAL/MOL
REMARK 927      BINDING AFFINITY PREDICTED BY RF-SCORE:    0.00 PKD
ROOT
HETATM    1  C   UNL     1      -9.851  19.914  68.329  1.00  0.00    -0.514 C  
HETATM    2  C   UNL     1      -9.413  18.481  68.397  1.00  0.00    -0.368 A  
HETATM    3  C   UNL     1      -8.939  17.822  67.252  1.00  0.00    -0.246 A  
HETATM    4  C   UNL     1      -8.692  16.441  67.269  1.00  0.00    -0.198 A  
HETATM    5  C   UNL     1      -8.837  15.749  68.484  1.00  0.00    -0.193 A  
HETATM    6  C   UNL     1      -9.224  16.414  69.646  1.00  0.00     0.246 A  
HETATM    7  C   UNL     1      -9.529  17.772  69.599  1.00  0.00     0.673 A  
ENDROOT
BRANCH   4   8
HETATM    8  C   UNL     1      -8.368  15.703  65.973  1.00  0.00     0.394 C  
BRANCH   8   9
HETATM    9  N   UNL     1      -8.763  14.286  65.990  1.00  0.00     0.457 NA 
HETATM   10  C   UNL     1      -7.835  13.393  65.257  1.00  0.00     5.903 C  
HETATM   11  C   UNL     1      -6.709  12.632  66.041  1.00  0.00     3.041 C  
HETATM   12  N   UNL     1      -6.914  12.349  67.486  1.00  0.00    -0.129 NA 
HETATM   13  C   UNL     1      -7.594  13.538  68.044  1.00  0.00    -0.143 C  
HETATM   14  C   UNL     1      -8.940  13.817  67.366  1.00  0.00    -0.224 C  
BRANCH  12  15
HETATM   15  C   UNL     1      -7.684  11.089  67.764  1.00  0.00    -0.108 C  
BRANCH  15  16
HETATM   16  C   UNL     1      -7.421  10.503  69.153  1.00  0.00    -0.114 A  
HETATM   17  C   UNL     1      -6.524  11.176  70.016  1.00  0.00    -0.133 A  
HETATM   18  C   UNL     1      -8.091   9.381  69.627  1.00  0.00    -0.123 A  
HETATM   19  C   UNL     1      -6.337  10.742  71.329  1.00  0.00     0.767 A  
HETATM   20  C   UNL     1      -7.028   9.630  71.793  1.00  0.00     0.643 A  
HETATM   21  C   UNL     1      -7.894   8.942  70.940  1.00  0.00    -0.154 A  
ENDBRANCH  15  16
BRANCH  15  22
HETATM   22  C   UNL     1      -9.186  11.242  67.440  1.00  0.00    -0.164 A  
HETATM   23  C   UNL     1     -11.749  11.245  66.282  1.00  0.00     0.564 A  
HETATM   24  C   UNL     1     -10.040  10.132  67.576  1.00  0.00    -0.244 A  
HETATM   25 CL   UNL     1     -13.245  11.183  65.431  1.00  0.00     5.456 Cl 
HETATM   26  C   UNL     1     -10.961  12.390  66.213  1.00  0.00    -0.323 A  
HETATM   27  C   UNL     1      -9.702  12.404  66.822  1.00  0.00    -0.226 A  
HETATM   28  C   UNL     1     -11.312  10.133  66.996  1.00  0.00     0.379 A  
ENDBRANCH  15  22
ENDBRANCH  12  15
ENDBRANCH   8   9
ENDBRANCH   4   8
TORSDOF 5
ENDMDL
MODEL      204
REMARK 921   NORMALIZED FREE ENERGY PREDICTED BY IDOCK:   38.72 KCAL/MOL
REMARK 922        TOTAL FREE ENERGY PREDICTED BY IDOCK:   49.33 KCAL/MOL
REMARK 923 INTER-LIGAND FREE ENERGY PREDICTED BY IDOCK:   44.70 KCAL/MOL
REMARK 924 INTRA-LIGAND FREE ENERGY PREDICTED BY IDOCK:    4.63 KCAL/MOL
REMARK 927      BINDING AFFINITY PREDICTED BY RF-SCORE:    0.00 PKD
ROOT
HETATM    1  C   UNL     1     -12.758  13.269  74.301  1.00  0.00     7.269 C  
HETATM    2  C   UNL     1     -11.916  14.152  73.429  1.00  0.00     0.656 A  
HETATM    3  C   UNL     1     -11.051  13.598  72.472  1.00  0.00     4.810 A  
HETATM    4  C   UNL     1     -10.139  14.405  71.776  1.00  0.00     4.153 A  
HETATM    5  C   UNL     1     -10.176  15.794  71.987  1.00  0.00     2.631 A  
HETATM    6  C   UNL     1     -11.091  16.360  72.873  1.00  0.00     1.502 A  
HETATM    7  C   UNL     1     -11.945  15.541  73.605  1.00  0.00    -0.536 A  
ENDROOT
BRANCH   4   8
HETATM    8  C   UNL     1      -9.075  13.769  70.886  1.00  0.00     6.127 C  
BRANCH   8   9
HETATM    9  N   UNL     1      -9.553  12.584  70.156  1.00  0.00     3.266 NA 
HETATM   10  C   UNL     1      -8.876  12.366  68.855  1.00  0.00     0.304 C  
HETATM   11  C   UNL     1      -7.658  11.380  68.770  1.00  0.00    -0.132 C  
HETATM   12  N   UNL     1      -7.553  10.290  69.775  1.00  0.00    -0.164 NA 
HETATM   13  C   UNL     1      -8.007  10.870  71.058  1.00  0.00     4.060 C  
HETATM   14  C   UNL     1      -9.448  11.387  70.991  1.00  0.00     6.952 C  
BRANCH  12  15
HETATM   15  C   UNL     1      -8.326   9.051  69.423  1.00  0.00    -0.119 C  
BRANCH  15  16
HETATM   16  C   UNL     1      -8.487   8.076  70.592  1.00  0.00    -0.125 A  
HETATM   17  C   UNL     1      -9.716   8.052  71.293  1.00  0.00    -0.199 A  
HETATM   18  C   UNL     1      -7.501   7.159  70.938  1.00  0.00    -0.080 A  
HETATM   19  C   UNL     1      -9.948   7.106  72.294  1.00  0.00    -0.193 A  
HETATM   20  C   UNL     1      -8.959   6.185  72.614  1.00  0.00    -0.130 A  
HETATM   21  C   UNL     1      -7.733   6.219  71.947  1.00  0.00    -0.097 A  
ENDBRANCH  15  16
BRANCH  15  22
HETATM   22  C   UNL     1      -9.658   9.377  68.713  1.00  0.00    -0.156 A  
HETATM   23  C   UNL     1     -11.765  10.513  67.236  1.00  0.00     0.871 A  
HETATM   24  C   UNL     1      -9.785   9.132  67.333  1.00  0.00    -0.211 A  
HETATM   25 CL   UNL     1     -12.952  11.345  66.307  1.00  0.00     4.733 Cl 
HETATM   26  C   UNL     1     -11.715  10.693  68.615  1.00  0.00    -0.228 A  
HETATM   27  C   UNL     1     -10.690  10.097  69.357  1.00  0.00    -0.266 A  
HETATM   28  C   UNL     1     -10.830   9.701  66.599  1.00  0.00     0.001 A  
ENDBRANCH  15  22
ENDBRANCH  12  15
ENDBRANCH   8   9
ENDBRANCH   4   8
TORSDOF 5
ENDMDL
MODEL      205
REMARK 921   NORMALIZED FREE ENERGY PREDICTED BY IDOCK:   58.72 KCAL/MOL
REMARK 922        TOTAL FREE ENERGY PREDICTED BY IDOCK:   75.17 KCAL/MOL
REMARK 923 INTER-LIGAND FREE ENERGY PREDICTED BY IDOCK:   72.57 KCAL/MOL
REMARK 924 INTRA-LIGAND FREE ENERGY PREDICTED BY IDOCK:    2.61 KCAL/MOL
REMARK 927      BINDING AFFINITY PREDICTED BY RF-SCORE:    0.00 PKD
ROOT
HETATM    1  C   UNL     1      -5.951  14.126  68.845  1.00  0.00    -0.087 C  
HETATM    2  C   UNL     1      -6.890  14.937  68.003  1.00  0.00    -0.147 A  
HETATM    3  C   UNL     1      -8.236  15.088  68.374  1.00  0.00    -0.151 A  
HETATM    4  C   UNL     1      -9.155  15.698  67.507  1.00  0.00    -0.198 A  
HETATM    5  C   UNL     1      -8.680  16.241  66.301  1.00  0.00    -0.370 A  
HETATM    6  C   UNL     1      -7.329  16.171  65.966  1.00  0.00     1.107 A  
HETATM    7  C   UNL     1      -6.441  15.505  66.805  1.00  0.00     0.802 A  
ENDROOT
BRANCH   4   8
HETATM    8  C   UNL     1     -10.646  15.680  67.833  1.00  0.00    -0.278 C  
BRANCH   8   9
HETATM    9  N   UNL     1     -11.180  14.328  68.060  1.00  0.00    -0.269 NA 
HETATM   10  C   UNL     1     -12.415  14.033  67.295  1.00  0.00     0.010 C  
HETATM   11  C   UNL     1     -12.315  13.284  65.920  1.00  0.00    -0.418 C  
HETATM   12  N   UNL     1     -11.144  12.404  65.672  1.00  0.00    -0.295 NA 
HETATM   13  C   UNL     1      -9.982  13.087  66.281  1.00  0.00    -0.283 C  
HETATM   14  C   UNL     1     -10.158  13.317  67.786  1.00  0.00    -0.229 C  
BRANCH  12  15
HETATM   15  C   UNL     1     -11.301  11.005  66.198  1.00  0.00     0.246 C  
BRANCH  15  16
HETATM   16  C   UNL     1     -11.711   9.990  65.128  1.00  0.00     4.481 A  
HETATM   17  C   UNL     1     -11.823  10.424  63.786  1.00  0.00     3.919 A  
HETATM   18  C   UNL     1     -11.898   8.642  65.413  1.00  0.00    10.510 A  
HETATM   19  C   UNL     1     -12.085   9.514  62.761  1.00  0.00    11.226 A  
HETATM   20  C   UNL     1     -12.251   8.168  63.060  1.00  0.00    23.158 A  
HETATM   21  C   UNL     1     -12.171   7.734  64.385  1.00  0.00    20.848 A  
ENDBRANCH  15  16
BRANCH  15  22
HETATM   22  C   UNL     1     -10.082  10.555  67.031  1.00  0.00    -0.259 A  
HETATM   23  C   UNL     1      -7.735  10.377  68.571  1.00  0.00    -0.101 A  
HETATM   24  C   UNL     1     -10.132  10.640  68.435  1.00  0.00    -0.181 A  
HETATM   25 CL   UNL     1      -6.284  10.439  69.495  1.00  0.00    -0.048 Cl 
HETATM   26  C   UNL     1      -7.670  10.195  67.193  1.00  0.00    -0.092 A  
HETATM   27  C   UNL     1      -8.841  10.244  66.430  1.00  0.00    -0.158 A  
HETATM   28  C   UNL     1      -8.964  10.557  69.199  1.00  0.00    -0.171 A  
ENDBRANCH  15  22
ENDBRANCH  12  15
ENDBRANCH   8   9
ENDBRANCH   4   8
TORSDOF 5
ENDMDL
MODEL      206
REMARK 921   NORMALIZED FREE ENERGY PREDICTED BY IDOCK:   62.38 KCAL/MOL
REMARK 922        TOTAL FREE ENERGY PREDICTED BY IDOCK:   79.90 KCAL/MOL
REMARK 923 INTER-LIGAND FREE ENERGY PREDICTED BY IDOCK:   73.70 KCAL/MOL
REMARK 924 INTRA-LIGAND FREE ENERGY PREDICTED BY IDOCK:    6.20 KCAL/MOL
REMARK 927      BINDING AFFINITY PREDICTED BY RF-SCORE:    0.00 PKD
ROOT
HETATM    1  C   UNL     1     -12.104  19.403  74.155  1.00  0.00     7.754 C  
HETATM    2  C   UNL     1     -11.918  19.038  72.712  1.00  0.00     8.828 A  
HETATM    3  C   UNL     1     -11.046  19.773  71.894  1.00  0.00     6.572 A  
HETATM    4  C   UNL     1     -10.998  19.547  70.510  1.00  0.00     3.148 A  
HETATM    5  C   UNL     1     -11.771  18.504  69.974  1.00  0.00     6.597 A  
HETATM    6  C   UNL     1     -12.574  17.713  70.794  1.00  0.00     9.698 A  
HETATM    7  C   UNL     1     -12.662  17.991  72.155  1.00  0.00     9.953 A  
ENDROOT
BRANCH   4   8
HETATM    8  C   UNL     1     -10.196  20.481  69.607  1.00  0.00     0.494 C  
BRANCH   8   9
HETATM    9  N   UNL     1      -8.808  20.042  69.395  1.00  0.00     0.295 NA 
HETATM   10  C   UNL     1      -7.847  20.583  70.385  1.00  0.00     1.811 C  
HETATM   11  C   UNL     1      -7.460  19.724  71.640  1.00  0.00     1.970 C  
HETATM   12  N   UNL     1      -7.576  18.245  71.553  1.00  0.00     6.397 NA 
HETATM   13  C   UNL     1      -8.796  17.975  70.762  1.00  0.00     5.420 C  
HETATM   14  C   UNL     1      -8.730  18.581  69.356  1.00  0.00     0.414 C  
BRANCH  12  15
HETATM   15  C   UNL     1      -6.372  17.566  70.963  1.00  0.00     1.790 C  
BRANCH  15  16
HETATM   16  C   UNL     1      -6.385  16.044  71.128  1.00  0.00     1.330 A  
HETATM   17  C   UNL     1      -6.584  15.238  69.982  1.00  0.00    -0.125 A  
HETATM   18  C   UNL     1      -6.129  15.424  72.345  1.00  0.00     1.436 A  
HETATM   19  C   UNL     1      -6.494  13.847  70.063  1.00  0.00    -0.054 A  
HETATM   20  C   UNL     1      -6.219  13.245  71.284  1.00  0.00     0.798 A  
HETATM   21  C   UNL     1      -6.049  14.031  72.427  1.00  0.00     0.607 A  
ENDBRANCH  15  16
BRANCH  15  22
HETATM   22  C   UNL     1      -6.099  18.021  69.514  1.00  0.00    -0.247 A  
HETATM   23  C   UNL     1      -6.015  19.332  67.027  1.00  0.00    -0.177 A  
HETATM   24  C   UNL     1      -5.175  19.055  69.275  1.00  0.00    -0.197 A  
HETATM   25 CL   UNL     1      -6.082  20.244  65.568  1.00  0.00    -0.227 Cl 
HETATM   26  C   UNL     1      -6.872  18.250  67.207  1.00  0.00    -0.209 A  
HETATM   27  C   UNL     1      -6.887  17.572  68.430  1.00  0.00    -0.197 A  
HETATM   28  C   UNL     1      -5.138  19.710  68.040  1.00  0.00    -0.176 A  
ENDBRANCH  15  22
ENDBRANCH  12  15
ENDBRANCH   8   9
ENDBRANCH   4   8
TORSDOF 5
ENDMDL
