MODEL        1
REMARK 921   NORMALIZED FREE ENERGY PREDICTED BY IDOCK:   -5.94 KCAL/MOL
REMARK 922        TOTAL FREE ENERGY PREDICTED BY IDOCK:   -8.88 KCAL/MOL
REMARK 923 INTER-LIGAND FREE ENERGY PREDICTED BY IDOCK:   -8.03 KCAL/MOL
REMARK 924 INTRA-LIGAND FREE ENERGY PREDICTED BY IDOCK:   -0.85 KCAL/MOL
REMARK 927      BINDING AFFINITY PREDICTED BY RF-SCORE:    0.00 PKD
ROOT
HETATM    1  C   UNL     1     -11.429  12.418  66.115  1.00  0.00    -0.379 C  
HETATM    2  N   UNL     1     -11.379  13.885  66.019  1.00  0.00    -0.318 NA 
HETATM    3  C   UNL     1     -11.925  14.311  64.728  1.00  0.00    -0.440 C  
ENDROOT
BRANCH   2   4
HETATM    4  C   UNL     1     -12.150  14.458  67.150  1.00  0.00    -0.333 C  
BRANCH   4   5
HETATM    5  C   UNL     1     -11.430  15.270  68.277  1.00  0.00    -0.347 C  
BRANCH   5   6
HETATM    6  O   UNL     1     -11.031  14.408  69.366  1.00  0.00    -0.251 OA 
BRANCH   6   7
HETATM    7  C   UNL     1     -11.720  14.602  70.540  1.00  0.00    -0.285 A  
HETATM    8  C   UNL     1     -12.639  13.703  71.088  1.00  0.00    -0.452 A  
HETATM    9  C   UNL     1     -11.501  15.817  71.195  1.00  0.00    -0.466 A  
HETATM   10  C   UNL     1     -13.268  13.970  72.306  1.00  0.00    -0.558 A  
HETATM   11  C   UNL     1     -13.006  15.159  72.977  1.00  0.00    -0.597 A  
HETATM   12  C   UNL     1     -12.136  16.089  72.414  1.00  0.00    -0.629 A  
ENDBRANCH   6   7
ENDBRANCH   5   6
BRANCH   5  13
HETATM   13  O   UNL     1     -10.255  15.813  67.642  1.00  0.00    -0.256 OA 
BRANCH  13  14
HETATM   14  C   UNL     1     -10.225  17.150  67.367  1.00  0.00    -0.321 A  
HETATM   15  C   UNL     1     -10.383  19.109  65.967  1.00  0.00    -0.538 A  
HETATM   16  C   UNL     1     -10.363  17.720  66.102  1.00  0.00    -0.340 A  
HETATM   17  C   UNL     1     -10.159  19.354  68.356  1.00  0.00    -0.538 A  
HETATM   18  C   UNL     1     -10.143  17.970  68.490  1.00  0.00    -0.399 A  
HETATM   19  C   UNL     1     -10.274  19.925  67.092  1.00  0.00    -0.579 A  
ENDBRANCH  13  14
ENDBRANCH   5  13
ENDBRANCH   4   5
ENDBRANCH   2   4
TORSDOF 6
ENDMDL
MODEL        2
REMARK 921   NORMALIZED FREE ENERGY PREDICTED BY IDOCK:   -5.90 KCAL/MOL
REMARK 922        TOTAL FREE ENERGY PREDICTED BY IDOCK:   -8.82 KCAL/MOL
REMARK 923 INTER-LIGAND FREE ENERGY PREDICTED BY IDOCK:   -8.07 KCAL/MOL
REMARK 924 INTRA-LIGAND FREE ENERGY PREDICTED BY IDOCK:   -0.75 KCAL/MOL
REMARK 927      BINDING AFFINITY PREDICTED BY RF-SCORE:    0.00 PKD
ROOT
HETATM    1  C   UNL     1     -11.305  12.459  65.893  1.00  0.00    -0.356 C  
HETATM    2  N   UNL     1     -11.287  13.918  66.084  1.00  0.00    -0.314 NA 
HETATM    3  C   UNL     1     -11.880  14.574  64.916  1.00  0.00    -0.416 C  
ENDROOT
BRANCH   2   4
HETATM    4  C   UNL     1     -12.033  14.240  67.326  1.00  0.00    -0.405 C  
BRANCH   4   5
HETATM    5  C   UNL     1     -11.471  15.281  68.349  1.00  0.00    -0.345 C  
BRANCH   5   6
HETATM    6  O   UNL     1     -10.924  14.623  69.513  1.00  0.00    -0.250 OA 
BRANCH   6   7
HETATM    7  C   UNL     1     -11.695  14.721  70.648  1.00  0.00    -0.297 A  
HETATM    8  C   UNL     1     -12.544  13.721  71.129  1.00  0.00    -0.452 A  
HETATM    9  C   UNL     1     -11.641  15.938  71.333  1.00  0.00    -0.529 A  
HETATM   10  C   UNL     1     -13.265  13.897  72.313  1.00  0.00    -0.568 A  
HETATM   11  C   UNL     1     -13.166  15.092  73.015  1.00  0.00    -0.604 A  
HETATM   12  C   UNL     1     -12.367  16.119  72.516  1.00  0.00    -0.564 A  
ENDBRANCH   6   7
ENDBRANCH   5   6
BRANCH   5  13
HETATM   13  O   UNL     1     -10.412  15.955  67.639  1.00  0.00    -0.275 OA 
BRANCH  13  14
HETATM   14  C   UNL     1     -10.342  17.316  67.718  1.00  0.00    -0.356 A  
HETATM   15  C   UNL     1      -9.924  19.436  68.792  1.00  0.00    -0.522 A  
HETATM   16  C   UNL     1     -10.030  18.046  68.864  1.00  0.00    -0.347 A  
HETATM   17  C   UNL     1     -10.412  19.360  66.431  1.00  0.00    -0.581 A  
HETATM   18  C   UNL     1     -10.513  17.975  66.502  1.00  0.00    -0.341 A  
HETATM   19  C   UNL     1     -10.122  20.093  67.578  1.00  0.00    -0.549 A  
ENDBRANCH  13  14
ENDBRANCH   5  13
ENDBRANCH   4   5
ENDBRANCH   2   4
TORSDOF 6
ENDMDL
MODEL        3
REMARK 921   NORMALIZED FREE ENERGY PREDICTED BY IDOCK:   -5.89 KCAL/MOL
REMARK 922        TOTAL FREE ENERGY PREDICTED BY IDOCK:   -8.81 KCAL/MOL
REMARK 923 INTER-LIGAND FREE ENERGY PREDICTED BY IDOCK:   -8.06 KCAL/MOL
REMARK 924 INTRA-LIGAND FREE ENERGY PREDICTED BY IDOCK:   -0.74 KCAL/MOL
REMARK 927      BINDING AFFINITY PREDICTED BY RF-SCORE:    0.00 PKD
ROOT
HETATM    1  C   UNL     1     -11.228  12.458  66.959  1.00  0.00    -0.303 C  
HETATM    2  N   UNL     1     -11.553  13.117  68.233  1.00  0.00    -0.312 NA 
HETATM    3  C   UNL     1     -11.636  12.114  69.298  1.00  0.00    -0.318 C  
ENDROOT
BRANCH   2   4
HETATM    4  C   UNL     1     -10.507  14.129  68.520  1.00  0.00    -0.252 C  
BRANCH   4   5
HETATM    5  C   UNL     1     -10.876  15.642  68.665  1.00  0.00    -0.273 C  
BRANCH   5   6
HETATM    6  O   UNL     1     -10.813  16.318  67.390  1.00  0.00    -0.313 OA 
BRANCH   6   7
HETATM    7  C   UNL     1     -10.463  17.646  67.457  1.00  0.00    -0.365 A  
HETATM    8  C   UNL     1     -10.243  18.358  68.640  1.00  0.00    -0.370 A  
HETATM    9  C   UNL     1     -10.367  18.326  66.240  1.00  0.00    -0.422 A  
HETATM   10  C   UNL     1      -9.856  19.700  68.610  1.00  0.00    -0.519 A  
HETATM   11  C   UNL     1      -9.714  20.355  67.393  1.00  0.00    -0.597 A  
HETATM   12  C   UNL     1      -9.985  19.673  66.208  1.00  0.00    -0.563 A  
ENDBRANCH   6   7
ENDBRANCH   5   6
BRANCH   5  13
HETATM   13  O   UNL     1     -12.239  15.640  69.139  1.00  0.00    -0.298 OA 
BRANCH  13  14
HETATM   14  C   UNL     1     -12.458  15.590  70.486  1.00  0.00    -0.427 A  
HETATM   15  C   UNL     1     -11.991  16.059  72.806  1.00  0.00    -0.623 A  
HETATM   16  C   UNL     1     -11.615  16.118  71.463  1.00  0.00    -0.502 A  
HETATM   17  C   UNL     1     -14.057  14.977  72.190  1.00  0.00    -0.629 A  
HETATM   18  C   UNL     1     -13.684  15.039  70.852  1.00  0.00    -0.319 A  
HETATM   19  C   UNL     1     -13.207  15.483  73.170  1.00  0.00    -0.657 A  
ENDBRANCH  13  14
ENDBRANCH   5  13
ENDBRANCH   4   5
ENDBRANCH   2   4
TORSDOF 6
ENDMDL
MODEL        4
REMARK 921   NORMALIZED FREE ENERGY PREDICTED BY IDOCK:   -5.86 KCAL/MOL
REMARK 922        TOTAL FREE ENERGY PREDICTED BY IDOCK:   -8.76 KCAL/MOL
REMARK 923 INTER-LIGAND FREE ENERGY PREDICTED BY IDOCK:   -8.04 KCAL/MOL
REMARK 924 INTRA-LIGAND FREE ENERGY PREDICTED BY IDOCK:   -0.72 KCAL/MOL
REMARK 927      BINDING AFFINITY PREDICTED BY RF-SCORE:    0.00 PKD
ROOT
HETATM    1  C   UNL     1     -11.408  12.629  66.870  1.00  0.00    -0.320 C  
HETATM    2  N   UNL     1     -11.572  13.018  68.279  1.00  0.00    -0.317 NA 
HETATM    3  C   UNL     1     -11.446  11.835  69.134  1.00  0.00    -0.297 C  
ENDROOT
BRANCH   2   4
HETATM    4  C   UNL     1     -10.547  14.039  68.608  1.00  0.00    -0.257 C  
BRANCH   4   5
HETATM    5  C   UNL     1     -10.935  15.548  68.742  1.00  0.00    -0.270 C  
BRANCH   5   6
HETATM    6  O   UNL     1     -10.947  16.199  67.452  1.00  0.00    -0.302 OA 
BRANCH   6   7
HETATM    7  C   UNL     1     -10.560  17.519  67.467  1.00  0.00    -0.333 A  
HETATM    8  C   UNL     1     -10.502  18.349  66.344  1.00  0.00    -0.412 A  
HETATM    9  C   UNL     1     -10.158  18.035  68.701  1.00  0.00    -0.401 A  
HETATM   10  C   UNL     1     -10.128  19.690  66.460  1.00  0.00    -0.568 A  
HETATM   11  C   UNL     1      -9.778  20.209  67.700  1.00  0.00    -0.551 A  
HETATM   12  C   UNL     1      -9.776  19.377  68.819  1.00  0.00    -0.516 A  
ENDBRANCH   6   7
ENDBRANCH   5   6
BRANCH   5  13
HETATM   13  O   UNL     1     -12.272  15.534  69.283  1.00  0.00    -0.301 OA 
BRANCH  13  14
HETATM   14  C   UNL     1     -12.425  15.376  70.630  1.00  0.00    -0.428 A  
HETATM   15  C   UNL     1     -12.049  15.885  72.959  1.00  0.00    -0.615 A  
HETATM   16  C   UNL     1     -11.748  16.097  71.612  1.00  0.00    -0.558 A  
HETATM   17  C   UNL     1     -13.717  14.257  72.339  1.00  0.00    -0.616 A  
HETATM   18  C   UNL     1     -13.420  14.472  70.998  1.00  0.00    -0.345 A  
HETATM   19  C   UNL     1     -13.027  14.960  73.322  1.00  0.00    -0.635 A  
ENDBRANCH  13  14
ENDBRANCH   5  13
ENDBRANCH   4   5
ENDBRANCH   2   4
TORSDOF 6
ENDMDL
MODEL        5
REMARK 921   NORMALIZED FREE ENERGY PREDICTED BY IDOCK:   -5.85 KCAL/MOL
REMARK 922        TOTAL FREE ENERGY PREDICTED BY IDOCK:   -8.76 KCAL/MOL
REMARK 923 INTER-LIGAND FREE ENERGY PREDICTED BY IDOCK:   -7.96 KCAL/MOL
REMARK 924 INTRA-LIGAND FREE ENERGY PREDICTED BY IDOCK:   -0.80 KCAL/MOL
REMARK 927      BINDING AFFINITY PREDICTED BY RF-SCORE:    0.00 PKD
ROOT
HETATM    1  C   UNL     1     -10.468  19.706  67.927  1.00  0.00    -0.423 C  
HETATM    2  N   UNL     1     -10.798  18.313  67.586  1.00  0.00    -0.339 NA 
HETATM    3  C   UNL     1     -10.365  18.027  66.216  1.00  0.00    -0.382 C  
ENDROOT
BRANCH   2   4
HETATM    4  C   UNL     1     -10.132  17.418  68.564  1.00  0.00    -0.352 C  
BRANCH   4   5
HETATM    5  C   UNL     1     -10.754  16.031  68.931  1.00  0.00    -0.275 C  
BRANCH   5   6
HETATM    6  O   UNL     1     -10.079  14.958  68.239  1.00  0.00    -0.215 OA 
BRANCH   6   7
HETATM    7  C   UNL     1     -10.704  14.527  67.092  1.00  0.00    -0.286 A  
HETATM    8  C   UNL     1     -12.079  14.312  66.962  1.00  0.00    -0.424 A  
HETATM    9  C   UNL     1      -9.878  14.247  66.001  1.00  0.00    -0.336 A  
HETATM   10  C   UNL     1     -12.632  13.905  65.745  1.00  0.00    -0.533 A  
HETATM   11  C   UNL     1     -11.808  13.678  64.650  1.00  0.00    -0.427 A  
HETATM   12  C   UNL     1     -10.430  13.833  64.782  1.00  0.00    -0.448 A  
ENDBRANCH   6   7
ENDBRANCH   5   6
BRANCH   5  13
HETATM   13  O   UNL     1     -10.533  15.897  70.351  1.00  0.00    -0.257 OA 
BRANCH  13  14
HETATM   14  C   UNL     1     -11.618  15.744  71.164  1.00  0.00    -0.419 A  
HETATM   15  C   UNL     1     -12.861  15.917  73.226  1.00  0.00    -0.664 A  
HETATM   16  C   UNL     1     -11.663  16.056  72.522  1.00  0.00    -0.547 A  
HETATM   17  C   UNL     1     -13.969  15.186  71.213  1.00  0.00    -0.548 A  
HETATM   18  C   UNL     1     -12.777  15.328  70.511  1.00  0.00    -0.440 A  
HETATM   19  C   UNL     1     -14.010  15.475  72.574  1.00  0.00    -0.646 A  
ENDBRANCH  13  14
ENDBRANCH   5  13
ENDBRANCH   4   5
ENDBRANCH   2   4
TORSDOF 6
ENDMDL
MODEL        6
REMARK 921   NORMALIZED FREE ENERGY PREDICTED BY IDOCK:   -5.73 KCAL/MOL
REMARK 922        TOTAL FREE ENERGY PREDICTED BY IDOCK:   -8.59 KCAL/MOL
REMARK 923 INTER-LIGAND FREE ENERGY PREDICTED BY IDOCK:   -7.69 KCAL/MOL
REMARK 924 INTRA-LIGAND FREE ENERGY PREDICTED BY IDOCK:   -0.90 KCAL/MOL
REMARK 927      BINDING AFFINITY PREDICTED BY RF-SCORE:    0.00 PKD
ROOT
HETATM    1  C   UNL     1     -10.451  14.785  65.765  1.00  0.00    -0.334 C  
HETATM    2  N   UNL     1     -10.717  13.683  66.703  1.00  0.00    -0.279 NA 
HETATM    3  C   UNL     1     -10.048  12.467  66.235  1.00  0.00    -0.240 C  
ENDROOT
BRANCH   2   4
HETATM    4  C   UNL     1     -10.238  14.084  68.049  1.00  0.00    -0.238 C  
BRANCH   4   5
HETATM    5  C   UNL     1     -11.183  13.999  69.292  1.00  0.00    -0.261 C  
BRANCH   5   6
HETATM    6  O   UNL     1     -11.954  15.211  69.443  1.00  0.00    -0.313 OA 
BRANCH   6   7
HETATM    7  C   UNL     1     -12.444  15.430  70.710  1.00  0.00    -0.423 A  
HETATM    8  C   UNL     1     -13.757  15.175  71.116  1.00  0.00    -0.510 A  
HETATM    9  C   UNL     1     -11.556  15.991  71.631  1.00  0.00    -0.538 A  
HETATM   10  C   UNL     1     -14.157  15.397  72.436  1.00  0.00    -0.645 A  
HETATM   11  C   UNL     1     -13.254  15.908  73.359  1.00  0.00    -0.668 A  
HETATM   12  C   UNL     1     -11.958  16.221  72.953  1.00  0.00    -0.615 A  
ENDBRANCH   6   7
ENDBRANCH   5   6
BRANCH   5  13
HETATM   13  O   UNL     1     -12.071  12.900  69.001  1.00  0.00    -0.267 OA 
BRANCH  13  14
HETATM   14  C   UNL     1     -11.941  11.751  69.726  1.00  0.00    -0.322 A  
HETATM   15  C   UNL     1     -10.929   9.654  70.358  1.00  0.00    -0.356 A  
HETATM   16  C   UNL     1     -10.999  10.750  69.496  1.00  0.00    -0.317 A  
HETATM   17  C   UNL     1     -12.717  10.574  71.689  1.00  0.00    -0.550 A  
HETATM   18  C   UNL     1     -12.784  11.668  70.833  1.00  0.00    -0.351 A  
HETATM   19  C   UNL     1     -11.792   9.563  71.449  1.00  0.00    -0.464 A  
ENDBRANCH  13  14
ENDBRANCH   5  13
ENDBRANCH   4   5
ENDBRANCH   2   4
TORSDOF 6
ENDMDL
MODEL        7
REMARK 921   NORMALIZED FREE ENERGY PREDICTED BY IDOCK:   -5.70 KCAL/MOL
REMARK 922        TOTAL FREE ENERGY PREDICTED BY IDOCK:   -8.55 KCAL/MOL
REMARK 923 INTER-LIGAND FREE ENERGY PREDICTED BY IDOCK:   -7.77 KCAL/MOL
REMARK 924 INTRA-LIGAND FREE ENERGY PREDICTED BY IDOCK:   -0.78 KCAL/MOL
REMARK 927      BINDING AFFINITY PREDICTED BY RF-SCORE:    0.00 PKD
ROOT
HETATM    1  C   UNL     1      -9.181  12.830  67.307  1.00  0.00    -0.203 C  
HETATM    2  N   UNL     1     -10.492  13.454  67.543  1.00  0.00    -0.235 NA 
HETATM    3  C   UNL     1     -11.525  12.418  67.608  1.00  0.00    -0.337 C  
ENDROOT
BRANCH   2   4
HETATM    4  C   UNL     1     -10.422  14.231  68.806  1.00  0.00    -0.249 C  
BRANCH   4   5
HETATM    5  C   UNL     1     -11.043  15.664  68.898  1.00  0.00    -0.290 C  
BRANCH   5   6
HETATM    6  O   UNL     1     -11.072  16.303  67.603  1.00  0.00    -0.287 OA 
BRANCH   6   7
HETATM    7  C   UNL     1     -10.586  17.589  67.581  1.00  0.00    -0.355 A  
HETATM    8  C   UNL     1     -10.522  18.403  66.446  1.00  0.00    -0.412 A  
HETATM    9  C   UNL     1     -10.084  18.084  68.787  1.00  0.00    -0.388 A  
HETATM   10  C   UNL     1     -10.043  19.712  66.526  1.00  0.00    -0.568 A  
HETATM   11  C   UNL     1      -9.592  20.214  67.741  1.00  0.00    -0.508 A  
HETATM   12  C   UNL     1      -9.597  19.395  68.868  1.00  0.00    -0.477 A  
ENDBRANCH   6   7
ENDBRANCH   5   6
BRANCH   5  13
HETATM   13  O   UNL     1     -12.394  15.447  69.355  1.00  0.00    -0.246 OA 
BRANCH  13  14
HETATM   14  C   UNL     1     -12.604  15.259  70.691  1.00  0.00    -0.417 A  
HETATM   15  C   UNL     1     -13.374  14.077  72.649  1.00  0.00    -0.643 A  
HETATM   16  C   UNL     1     -13.289  14.187  71.259  1.00  0.00    -0.370 A  
HETATM   17  C   UNL     1     -12.068  16.089  72.896  1.00  0.00    -0.626 A  
HETATM   18  C   UNL     1     -11.980  16.196  71.512  1.00  0.00    -0.490 A  
HETATM   19  C   UNL     1     -12.771  15.032  73.466  1.00  0.00    -0.667 A  
ENDBRANCH  13  14
ENDBRANCH   5  13
ENDBRANCH   4   5
ENDBRANCH   2   4
TORSDOF 6
ENDMDL
MODEL        8
REMARK 921   NORMALIZED FREE ENERGY PREDICTED BY IDOCK:   -5.68 KCAL/MOL
REMARK 922        TOTAL FREE ENERGY PREDICTED BY IDOCK:   -8.52 KCAL/MOL
REMARK 923 INTER-LIGAND FREE ENERGY PREDICTED BY IDOCK:   -7.70 KCAL/MOL
REMARK 924 INTRA-LIGAND FREE ENERGY PREDICTED BY IDOCK:   -0.82 KCAL/MOL
REMARK 927      BINDING AFFINITY PREDICTED BY RF-SCORE:    0.00 PKD
ROOT
HETATM    1  C   UNL     1     -11.880  12.472  65.413  1.00  0.00    -0.428 C  
HETATM    2  N   UNL     1     -11.098  12.825  66.608  1.00  0.00    -0.267 NA 
HETATM    3  C   UNL     1      -9.927  13.613  66.215  1.00  0.00    -0.300 C  
ENDROOT
BRANCH   2   4
HETATM    4  C   UNL     1     -11.974  13.580  67.538  1.00  0.00    -0.346 C  
BRANCH   4   5
HETATM    5  C   UNL     1     -11.981  13.257  69.069  1.00  0.00    -0.293 C  
BRANCH   5   6
HETATM    6  O   UNL     1     -11.037  12.210  69.385  1.00  0.00    -0.207 OA 
BRANCH   6   7
HETATM    7  C   UNL     1     -11.537  11.199  70.172  1.00  0.00    -0.323 A  
HETATM    8  C   UNL     1     -12.570  11.345  71.102  1.00  0.00    -0.490 A  
HETATM    9  C   UNL     1     -10.921   9.952  70.047  1.00  0.00    -0.338 A  
HETATM   10  C   UNL     1     -13.037  10.251  71.835  1.00  0.00    -0.568 A  
HETATM   11  C   UNL     1     -12.452   9.002  71.667  1.00  0.00    -0.418 A  
HETATM   12  C   UNL     1     -11.383   8.855  70.786  1.00  0.00    -0.325 A  
ENDBRANCH   6   7
ENDBRANCH   5   6
BRANCH   5  13
HETATM   13  O   UNL     1     -11.564  14.484  69.702  1.00  0.00    -0.268 OA 
BRANCH  13  14
HETATM   14  C   UNL     1     -12.256  14.916  70.797  1.00  0.00    -0.325 A  
HETATM   15  C   UNL     1     -14.205  15.218  72.187  1.00  0.00    -0.667 A  
HETATM   16  C   UNL     1     -13.631  14.795  70.986  1.00  0.00    -0.364 A  
HETATM   17  C   UNL     1     -12.031  15.852  73.014  1.00  0.00    -0.596 A  
HETATM   18  C   UNL     1     -11.459  15.427  71.820  1.00  0.00    -0.497 A  
HETATM   19  C   UNL     1     -13.407  15.753  73.196  1.00  0.00    -0.685 A  
ENDBRANCH  13  14
ENDBRANCH   5  13
ENDBRANCH   4   5
ENDBRANCH   2   4
TORSDOF 6
ENDMDL
MODEL        9
REMARK 921   NORMALIZED FREE ENERGY PREDICTED BY IDOCK:   -5.67 KCAL/MOL
REMARK 922        TOTAL FREE ENERGY PREDICTED BY IDOCK:   -8.51 KCAL/MOL
REMARK 923 INTER-LIGAND FREE ENERGY PREDICTED BY IDOCK:   -7.72 KCAL/MOL
REMARK 924 INTRA-LIGAND FREE ENERGY PREDICTED BY IDOCK:   -0.79 KCAL/MOL
REMARK 927      BINDING AFFINITY PREDICTED BY RF-SCORE:    0.00 PKD
ROOT
HETATM    1  C   UNL     1     -14.011  15.175  71.385  1.00  0.00    -0.506 C  
HETATM    2  N   UNL     1     -12.764  15.919  71.155  1.00  0.00    -0.414 NA 
HETATM    3  C   UNL     1     -11.985  15.969  72.395  1.00  0.00    -0.544 C  
ENDROOT
BRANCH   2   4
HETATM    4  C   UNL     1     -12.010  15.250  70.067  1.00  0.00    -0.343 C  
BRANCH   4   5
HETATM    5  C   UNL     1     -11.366  16.083  68.910  1.00  0.00    -0.370 C  
BRANCH   5   6
HETATM    6  O   UNL     1     -10.444  17.068  69.428  1.00  0.00    -0.321 OA 
BRANCH   6   7
HETATM    7  C   UNL     1     -10.062  18.033  68.526  1.00  0.00    -0.393 A  
HETATM    8  C   UNL     1     -10.897  18.604  67.562  1.00  0.00    -0.373 A  
HETATM    9  C   UNL     1      -8.722  18.426  68.567  1.00  0.00    -0.336 A  
HETATM   10  C   UNL     1     -10.429  19.606  66.708  1.00  0.00    -0.605 A  
HETATM   11  C   UNL     1      -9.108  20.026  66.789  1.00  0.00    -0.467 A  
HETATM   12  C   UNL     1      -8.249  19.425  67.707  1.00  0.00    -0.324 A  
ENDBRANCH   6   7
ENDBRANCH   5   6
BRANCH   5  13
HETATM   13  O   UNL     1     -10.640  15.116  68.124  1.00  0.00    -0.238 OA 
BRANCH  13  14
HETATM   14  C   UNL     1     -11.143  14.760  66.906  1.00  0.00    -0.339 A  
HETATM   15  C   UNL     1     -12.565  13.534  65.389  1.00  0.00    -0.531 A  
HETATM   16  C   UNL     1     -12.079  13.752  66.680  1.00  0.00    -0.471 A  
HETATM   17  C   UNL     1     -11.205  15.346  64.563  1.00  0.00    -0.310 A  
HETATM   18  C   UNL     1     -10.725  15.565  65.849  1.00  0.00    -0.346 A  
HETATM   19  C   UNL     1     -12.123  14.326  64.331  1.00  0.00    -0.490 A  
ENDBRANCH  13  14
ENDBRANCH   5  13
ENDBRANCH   4   5
ENDBRANCH   2   4
TORSDOF 6
ENDMDL
MODEL       10
REMARK 921   NORMALIZED FREE ENERGY PREDICTED BY IDOCK:   -5.64 KCAL/MOL
REMARK 922        TOTAL FREE ENERGY PREDICTED BY IDOCK:   -8.47 KCAL/MOL
REMARK 923 INTER-LIGAND FREE ENERGY PREDICTED BY IDOCK:   -7.69 KCAL/MOL
REMARK 924 INTRA-LIGAND FREE ENERGY PREDICTED BY IDOCK:   -0.78 KCAL/MOL
REMARK 927      BINDING AFFINITY PREDICTED BY RF-SCORE:    0.00 PKD
ROOT
HETATM    1  C   UNL     1      -7.636  14.689  67.655  1.00  0.00    -0.180 C  
HETATM    2  N   UNL     1      -8.987  14.153  67.424  1.00  0.00    -0.192 NA 
HETATM    3  C   UNL     1      -8.901  12.726  67.103  1.00  0.00    -0.202 C  
ENDROOT
BRANCH   2   4
HETATM    4  C   UNL     1      -9.802  14.388  68.641  1.00  0.00    -0.231 C  
BRANCH   4   5
HETATM    5  C   UNL     1     -10.708  15.657  68.764  1.00  0.00    -0.250 C  
BRANCH   5   6
HETATM    6  O   UNL     1     -10.888  16.294  67.480  1.00  0.00    -0.321 OA 
BRANCH   6   7
HETATM    7  C   UNL     1     -10.514  17.617  67.434  1.00  0.00    -0.356 A  
HETATM    8  C   UNL     1     -10.428  18.385  66.270  1.00  0.00    -0.421 A  
HETATM    9  C   UNL     1     -10.156  18.205  68.650  1.00  0.00    -0.406 A  
HETATM   10  C   UNL     1     -10.071  19.735  66.323  1.00  0.00    -0.601 A  
HETATM   11  C   UNL     1      -9.765  20.324  67.543  1.00  0.00    -0.575 A  
HETATM   12  C   UNL     1      -9.791  19.556  68.705  1.00  0.00    -0.532 A  
ENDBRANCH   6   7
ENDBRANCH   5   6
BRANCH   5  13
HETATM   13  O   UNL     1     -11.977  15.154  69.230  1.00  0.00    -0.312 OA 
BRANCH  13  14
HETATM   14  C   UNL     1     -12.241  15.200  70.569  1.00  0.00    -0.341 A  
HETATM   15  C   UNL     1     -12.114  16.101  72.804  1.00  0.00    -0.653 A  
HETATM   16  C   UNL     1     -11.707  16.121  71.468  1.00  0.00    -0.533 A  
HETATM   17  C   UNL     1     -13.605  14.265  72.332  1.00  0.00    -0.599 A  
HETATM   18  C   UNL     1     -13.202  14.288  71.001  1.00  0.00    -0.367 A  
HETATM   19  C   UNL     1     -13.056  15.169  73.236  1.00  0.00    -0.622 A  
ENDBRANCH  13  14
ENDBRANCH   5  13
ENDBRANCH   4   5
ENDBRANCH   2   4
TORSDOF 6
ENDMDL
MODEL       11
REMARK 921   NORMALIZED FREE ENERGY PREDICTED BY IDOCK:   -5.62 KCAL/MOL
REMARK 922        TOTAL FREE ENERGY PREDICTED BY IDOCK:   -8.45 KCAL/MOL
REMARK 923 INTER-LIGAND FREE ENERGY PREDICTED BY IDOCK:   -7.63 KCAL/MOL
REMARK 924 INTRA-LIGAND FREE ENERGY PREDICTED BY IDOCK:   -0.82 KCAL/MOL
REMARK 927      BINDING AFFINITY PREDICTED BY RF-SCORE:    0.00 PKD
ROOT
HETATM    1  C   UNL     1     -10.351  15.907  66.000  1.00  0.00    -0.348 C  
HETATM    2  N   UNL     1     -11.065  14.749  66.558  1.00  0.00    -0.330 NA 
HETATM    3  C   UNL     1     -11.042  13.645  65.594  1.00  0.00    -0.294 C  
ENDROOT
BRANCH   2   4
HETATM    4  C   UNL     1     -10.417  14.366  67.837  1.00  0.00    -0.239 C  
BRANCH   4   5
HETATM    5  C   UNL     1     -11.266  14.170  69.136  1.00  0.00    -0.272 C  
BRANCH   5   6
HETATM    6  O   UNL     1     -12.139  15.299  69.363  1.00  0.00    -0.313 OA 
BRANCH   6   7
HETATM    7  C   UNL     1     -12.526  15.476  70.671  1.00  0.00    -0.435 A  
HETATM    8  C   UNL     1     -13.802  15.205  71.172  1.00  0.00    -0.495 A  
HETATM    9  C   UNL     1     -11.567  16.009  71.536  1.00  0.00    -0.529 A  
HETATM   10  C   UNL     1     -14.096  15.385  72.526  1.00  0.00    -0.593 A  
HETATM   11  C   UNL     1     -13.121  15.868  73.390  1.00  0.00    -0.694 A  
HETATM   12  C   UNL     1     -11.862  16.196  72.892  1.00  0.00    -0.551 A  
ENDBRANCH   6   7
ENDBRANCH   5   6
BRANCH   5  13
HETATM   13  O   UNL     1     -12.061  12.995  68.878  1.00  0.00    -0.286 OA 
BRANCH  13  14
HETATM   14  C   UNL     1     -11.935  11.928  69.720  1.00  0.00    -0.307 A  
HETATM   15  C   UNL     1     -12.583  10.469  71.530  1.00  0.00    -0.529 A  
HETATM   16  C   UNL     1     -12.784  11.633  70.786  1.00  0.00    -0.291 A  
HETATM   17  C   UNL     1     -10.711   9.885  70.127  1.00  0.00    -0.361 A  
HETATM   18  C   UNL     1     -10.914  11.042  69.384  1.00  0.00    -0.301 A  
HETATM   19  C   UNL     1     -11.543   9.600  71.206  1.00  0.00    -0.466 A  
ENDBRANCH  13  14
ENDBRANCH   5  13
ENDBRANCH   4   5
ENDBRANCH   2   4
TORSDOF 6
ENDMDL
MODEL       12
REMARK 921   NORMALIZED FREE ENERGY PREDICTED BY IDOCK:   -5.61 KCAL/MOL
REMARK 922        TOTAL FREE ENERGY PREDICTED BY IDOCK:   -8.43 KCAL/MOL
REMARK 923 INTER-LIGAND FREE ENERGY PREDICTED BY IDOCK:   -7.58 KCAL/MOL
REMARK 924 INTRA-LIGAND FREE ENERGY PREDICTED BY IDOCK:   -0.85 KCAL/MOL
REMARK 927      BINDING AFFINITY PREDICTED BY RF-SCORE:    0.00 PKD
ROOT
HETATM    1  C   UNL     1     -10.057  15.923  66.140  1.00  0.00    -0.315 C  
HETATM    2  N   UNL     1     -10.898  14.802  66.589  1.00  0.00    -0.313 NA 
HETATM    3  C   UNL     1     -10.954  13.780  65.541  1.00  0.00    -0.299 C  
ENDROOT
BRANCH   2   4
HETATM    4  C   UNL     1     -10.327  14.260  67.847  1.00  0.00    -0.233 C  
BRANCH   4   5
HETATM    5  C   UNL     1     -11.234  14.025  69.100  1.00  0.00    -0.269 C  
BRANCH   5   6
HETATM    6  O   UNL     1     -12.113  15.149  69.323  1.00  0.00    -0.298 OA 
BRANCH   6   7
HETATM    7  C   UNL     1     -12.462  15.359  70.637  1.00  0.00    -0.428 A  
HETATM    8  C   UNL     1     -11.577  15.744  71.649  1.00  0.00    -0.537 A  
HETATM    9  C   UNL     1     -13.797  15.120  70.972  1.00  0.00    -0.423 A  
HETATM   10  C   UNL     1     -12.028  15.967  72.952  1.00  0.00    -0.609 A  
HETATM   11  C   UNL     1     -13.368  15.776  73.265  1.00  0.00    -0.649 A  
HETATM   12  C   UNL     1     -14.250  15.337  72.280  1.00  0.00    -0.642 A  
ENDBRANCH   6   7
ENDBRANCH   5   6
BRANCH   5  13
HETATM   13  O   UNL     1     -12.019  12.862  68.769  1.00  0.00    -0.311 OA 
BRANCH  13  14
HETATM   14  C   UNL     1     -11.857  11.734  69.521  1.00  0.00    -0.337 A  
HETATM   15  C   UNL     1     -10.815   9.656  70.169  1.00  0.00    -0.325 A  
HETATM   16  C   UNL     1     -10.924  10.727  69.280  1.00  0.00    -0.292 A  
HETATM   17  C   UNL     1     -12.545  10.615  71.549  1.00  0.00    -0.517 A  
HETATM   18  C   UNL     1     -12.651  11.683  70.665  1.00  0.00    -0.319 A  
HETATM   19  C   UNL     1     -11.630   9.597  71.298  1.00  0.00    -0.466 A  
ENDBRANCH  13  14
ENDBRANCH   5  13
ENDBRANCH   4   5
ENDBRANCH   2   4
TORSDOF 6
ENDMDL
MODEL       13
REMARK 921   NORMALIZED FREE ENERGY PREDICTED BY IDOCK:   -5.57 KCAL/MOL
REMARK 922        TOTAL FREE ENERGY PREDICTED BY IDOCK:   -8.38 KCAL/MOL
REMARK 923 INTER-LIGAND FREE ENERGY PREDICTED BY IDOCK:   -7.59 KCAL/MOL
REMARK 924 INTRA-LIGAND FREE ENERGY PREDICTED BY IDOCK:   -0.79 KCAL/MOL
REMARK 927      BINDING AFFINITY PREDICTED BY RF-SCORE:    0.00 PKD
ROOT
HETATM    1  C   UNL     1     -10.417  19.694  67.813  1.00  0.00    -0.439 C  
HETATM    2  N   UNL     1     -10.653  18.275  67.507  1.00  0.00    -0.419 NA 
HETATM    3  C   UNL     1     -10.033  17.940  66.222  1.00  0.00    -0.331 C  
ENDROOT
BRANCH   2   4
HETATM    4  C   UNL     1     -10.094  17.455  68.610  1.00  0.00    -0.355 C  
BRANCH   4   5
HETATM    5  C   UNL     1     -10.698  16.052  68.948  1.00  0.00    -0.275 C  
BRANCH   5   6
HETATM    6  O   UNL     1      -9.877  14.990  68.416  1.00  0.00    -0.212 OA 
BRANCH   6   7
HETATM    7  C   UNL     1     -10.462  14.254  67.412  1.00  0.00    -0.264 A  
HETATM    8  C   UNL     1      -9.778  13.404  66.539  1.00  0.00    -0.284 A  
HETATM    9  C   UNL     1     -11.839  14.417  67.244  1.00  0.00    -0.434 A  
HETATM   10  C   UNL     1     -10.463  12.668  65.568  1.00  0.00    -0.304 A  
HETATM   11  C   UNL     1     -11.840  12.799  65.441  1.00  0.00    -0.456 A  
HETATM   12  C   UNL     1     -12.527  13.686  66.268  1.00  0.00    -0.420 A  
ENDBRANCH   6   7
ENDBRANCH   5   6
BRANCH   5  13
HETATM   13  O   UNL     1     -10.687  15.989  70.389  1.00  0.00    -0.295 OA 
BRANCH  13  14
HETATM   14  C   UNL     1     -11.875  15.823  71.041  1.00  0.00    -0.420 A  
HETATM   15  C   UNL     1     -14.192  15.184  71.256  1.00  0.00    -0.527 A  
HETATM   16  C   UNL     1     -13.061  15.377  70.461  1.00  0.00    -0.318 A  
HETATM   17  C   UNL     1     -12.944  15.854  73.208  1.00  0.00    -0.677 A  
HETATM   18  C   UNL     1     -11.817  16.042  72.416  1.00  0.00    -0.639 A  
HETATM   19  C   UNL     1     -14.135  15.430  72.627  1.00  0.00    -0.519 A  
ENDBRANCH  13  14
ENDBRANCH   5  13
ENDBRANCH   4   5
ENDBRANCH   2   4
TORSDOF 6
ENDMDL
MODEL       14
REMARK 921   NORMALIZED FREE ENERGY PREDICTED BY IDOCK:   -5.55 KCAL/MOL
REMARK 922        TOTAL FREE ENERGY PREDICTED BY IDOCK:   -8.34 KCAL/MOL
REMARK 923 INTER-LIGAND FREE ENERGY PREDICTED BY IDOCK:   -7.61 KCAL/MOL
REMARK 924 INTRA-LIGAND FREE ENERGY PREDICTED BY IDOCK:   -0.73 KCAL/MOL
REMARK 927      BINDING AFFINITY PREDICTED BY RF-SCORE:    0.00 PKD
ROOT
HETATM    1  C   UNL     1      -9.183  17.965  68.363  1.00  0.00    -0.286 C  
HETATM    2  N   UNL     1     -10.345  17.379  67.678  1.00  0.00    -0.342 NA 
HETATM    3  C   UNL     1     -10.418  17.891  66.308  1.00  0.00    -0.320 C  
ENDROOT
BRANCH   2   4
HETATM    4  C   UNL     1     -10.208  15.902  67.699  1.00  0.00    -0.263 C  
BRANCH   4   5
HETATM    5  C   UNL     1     -11.384  14.996  68.194  1.00  0.00    -0.330 C  
BRANCH   5   6
HETATM    6  O   UNL     1     -12.156  15.661  69.218  1.00  0.00    -0.347 OA 
BRANCH   6   7
HETATM    7  C   UNL     1     -12.630  14.835  70.212  1.00  0.00    -0.315 A  
HETATM    8  C   UNL     1     -13.528  15.219  71.212  1.00  0.00    -0.591 A  
HETATM    9  C   UNL     1     -12.129  13.531  70.228  1.00  0.00    -0.425 A  
HETATM   10  C   UNL     1     -13.981  14.301  72.162  1.00  0.00    -0.618 A  
HETATM   11  C   UNL     1     -13.516  12.992  72.140  1.00  0.00    -0.638 A  
HETATM   12  C   UNL     1     -12.577  12.611  71.184  1.00  0.00    -0.354 A  
ENDBRANCH   6   7
ENDBRANCH   5   6
BRANCH   5  13
HETATM   13  O   UNL     1     -12.208  14.799  67.027  1.00  0.00    -0.231 OA 
BRANCH  13  14
HETATM   14  C   UNL     1     -11.827  13.857  66.115  1.00  0.00    -0.400 A  
HETATM   15  C   UNL     1     -11.023  11.700  65.391  1.00  0.00    -0.328 A  
HETATM   16  C   UNL     1     -11.310  12.599  66.420  1.00  0.00    -0.381 A  
HETATM   17  C   UNL     1     -11.796  13.303  63.763  1.00  0.00    -0.522 A  
HETATM   18  C   UNL     1     -12.085  14.196  64.789  1.00  0.00    -0.454 A  
HETATM   19  C   UNL     1     -11.259  12.055  64.063  1.00  0.00    -0.468 A  
ENDBRANCH  13  14
ENDBRANCH   5  13
ENDBRANCH   4   5
ENDBRANCH   2   4
TORSDOF 6
ENDMDL
MODEL       15
REMARK 921   NORMALIZED FREE ENERGY PREDICTED BY IDOCK:   -5.54 KCAL/MOL
REMARK 922        TOTAL FREE ENERGY PREDICTED BY IDOCK:   -8.33 KCAL/MOL
REMARK 923 INTER-LIGAND FREE ENERGY PREDICTED BY IDOCK:   -7.92 KCAL/MOL
REMARK 924 INTRA-LIGAND FREE ENERGY PREDICTED BY IDOCK:   -0.42 KCAL/MOL
REMARK 927      BINDING AFFINITY PREDICTED BY RF-SCORE:    0.00 PKD
ROOT
HETATM    1  C   UNL     1      -9.973  16.493  68.118  1.00  0.00    -0.248 C  
HETATM    2  N   UNL     1     -10.740  15.687  67.156  1.00  0.00    -0.313 NA 
HETATM    3  C   UNL     1     -10.251  15.945  65.799  1.00  0.00    -0.365 C  
ENDROOT
BRANCH   2   4
HETATM    4  C   UNL     1     -10.597  14.255  67.521  1.00  0.00    -0.261 C  
BRANCH   4   5
HETATM    5  C   UNL     1     -11.826  13.436  68.038  1.00  0.00    -0.357 C  
BRANCH   5   6
HETATM    6  O   UNL     1     -11.963  12.193  67.315  1.00  0.00    -0.573 OA 
BRANCH   6   7
HETATM    7  C   UNL     1     -11.765  12.289  65.957  1.00  0.00    -0.388 A  
HETATM    8  C   UNL     1     -12.505  13.103  65.095  1.00  0.00    -0.539 A  
HETATM    9  C   UNL     1     -10.772  11.470  65.415  1.00  0.00    -0.335 A  
HETATM   10  C   UNL     1     -12.209  13.163  63.731  1.00  0.00    -0.528 A  
HETATM   11  C   UNL     1     -11.185  12.381  63.208  1.00  0.00    -0.377 A  
HETATM   12  C   UNL     1     -10.478  11.523  64.046  1.00  0.00    -0.424 A  
ENDBRANCH   6   7
ENDBRANCH   5   6
BRANCH   5  13
HETATM   13  O   UNL     1     -11.520  13.154  69.419  1.00  0.00    -0.269 OA 
BRANCH  13  14
HETATM   14  C   UNL     1     -12.302  13.721  70.385  1.00  0.00    -0.353 A  
HETATM   15  C   UNL     1     -13.501  15.511  71.470  1.00  0.00    -0.582 A  
HETATM   16  C   UNL     1     -12.634  15.072  70.468  1.00  0.00    -0.420 A  
HETATM   17  C   UNL     1     -13.724  13.251  72.281  1.00  0.00    -0.686 A  
HETATM   18  C   UNL     1     -12.863  12.813  71.281  1.00  0.00    -0.355 A  
HETATM   19  C   UNL     1     -14.040  14.603  72.380  1.00  0.00    -0.542 A  
ENDBRANCH  13  14
ENDBRANCH   5  13
ENDBRANCH   4   5
ENDBRANCH   2   4
TORSDOF 6
ENDMDL
MODEL       16
REMARK 921   NORMALIZED FREE ENERGY PREDICTED BY IDOCK:   -5.50 KCAL/MOL
REMARK 922        TOTAL FREE ENERGY PREDICTED BY IDOCK:   -8.28 KCAL/MOL
REMARK 923 INTER-LIGAND FREE ENERGY PREDICTED BY IDOCK:   -7.92 KCAL/MOL
REMARK 924 INTRA-LIGAND FREE ENERGY PREDICTED BY IDOCK:   -0.36 KCAL/MOL
REMARK 927      BINDING AFFINITY PREDICTED BY RF-SCORE:    0.00 PKD
ROOT
HETATM    1  C   UNL     1      -9.948  16.683  68.265  1.00  0.00    -0.261 C  
HETATM    2  N   UNL     1     -10.770  15.961  67.282  1.00  0.00    -0.315 NA 
HETATM    3  C   UNL     1     -10.344  16.318  65.927  1.00  0.00    -0.365 C  
ENDROOT
BRANCH   2   4
HETATM    4  C   UNL     1     -10.629  14.504  67.529  1.00  0.00    -0.262 C  
BRANCH   4   5
HETATM    5  C   UNL     1     -11.817  13.675  68.119  1.00  0.00    -0.372 C  
BRANCH   5   6
HETATM    6  O   UNL     1     -11.944  12.400  67.450  1.00  0.00    -0.498 OA 
BRANCH   6   7
HETATM    7  C   UNL     1     -11.733  12.437  66.091  1.00  0.00    -0.400 A  
HETATM    8  C   UNL     1     -12.475  13.202  65.186  1.00  0.00    -0.539 A  
HETATM    9  C   UNL     1     -10.725  11.607  65.596  1.00  0.00    -0.330 A  
HETATM   10  C   UNL     1     -12.166  13.203  63.824  1.00  0.00    -0.528 A  
HETATM   11  C   UNL     1     -11.129  12.412  63.346  1.00  0.00    -0.465 A  
HETATM   12  C   UNL     1     -10.418  11.601  64.229  1.00  0.00    -0.383 A  
ENDBRANCH   6   7
ENDBRANCH   5   6
BRANCH   5  13
HETATM   13  O   UNL     1     -11.459  13.457  69.499  1.00  0.00    -0.271 OA 
BRANCH  13  14
HETATM   14  C   UNL     1     -12.358  13.808  70.465  1.00  0.00    -0.359 A  
HETATM   15  C   UNL     1     -13.840  13.427  72.330  1.00  0.00    -0.665 A  
HETATM   16  C   UNL     1     -12.993  12.928  71.339  1.00  0.00    -0.362 A  
HETATM   17  C   UNL     1     -13.394  15.678  71.591  1.00  0.00    -0.543 A  
HETATM   18  C   UNL     1     -12.546  15.182  70.607  1.00  0.00    -0.450 A  
HETATM   19  C   UNL     1     -14.046  14.800  72.451  1.00  0.00    -0.548 A  
ENDBRANCH  13  14
ENDBRANCH   5  13
ENDBRANCH   4   5
ENDBRANCH   2   4
TORSDOF 6
ENDMDL
MODEL       17
REMARK 921   NORMALIZED FREE ENERGY PREDICTED BY IDOCK:   -5.48 KCAL/MOL
REMARK 922        TOTAL FREE ENERGY PREDICTED BY IDOCK:   -8.26 KCAL/MOL
REMARK 923 INTER-LIGAND FREE ENERGY PREDICTED BY IDOCK:   -7.54 KCAL/MOL
REMARK 924 INTRA-LIGAND FREE ENERGY PREDICTED BY IDOCK:   -0.72 KCAL/MOL
REMARK 927      BINDING AFFINITY PREDICTED BY RF-SCORE:    0.00 PKD
ROOT
HETATM    1  C   UNL     1      -8.867  17.270  68.539  1.00  0.00    -0.269 C  
HETATM    2  N   UNL     1     -10.207  16.905  68.055  1.00  0.00    -0.295 NA 
HETATM    3  C   UNL     1     -10.619  17.835  67.000  1.00  0.00    -0.262 C  
ENDROOT
BRANCH   2   4
HETATM    4  C   UNL     1     -10.165  15.507  67.560  1.00  0.00    -0.254 C  
BRANCH   4   5
HETATM    5  C   UNL     1     -11.211  14.453  68.052  1.00  0.00    -0.280 C  
BRANCH   5   6
HETATM    6  O   UNL     1     -11.781  14.839  69.322  1.00  0.00    -0.284 OA 
BRANCH   6   7
HETATM    7  C   UNL     1     -12.192  13.791  70.113  1.00  0.00    -0.356 A  
HETATM    8  C   UNL     1     -11.899  12.445  69.876  1.00  0.00    -0.376 A  
HETATM    9  C   UNL     1     -13.000  14.116  71.205  1.00  0.00    -0.426 A  
HETATM   10  C   UNL     1     -12.332  11.449  70.754  1.00  0.00    -0.483 A  
HETATM   11  C   UNL     1     -13.093  11.787  71.867  1.00  0.00    -0.482 A  
HETATM   12  C   UNL     1     -13.441  13.119  72.084  1.00  0.00    -0.653 A  
ENDBRANCH   6   7
ENDBRANCH   5   6
BRANCH   5  13
HETATM   13  O   UNL     1     -12.242  14.465  67.042  1.00  0.00    -0.400 OA 
BRANCH  13  14
HETATM   14  C   UNL     1     -12.068  13.694  65.929  1.00  0.00    -0.439 A  
HETATM   15  C   UNL     1     -12.106  13.208  63.566  1.00  0.00    -0.585 A  
HETATM   16  C   UNL     1     -12.400  14.065  64.627  1.00  0.00    -0.425 A  
HETATM   17  C   UNL     1     -11.125  11.629  65.102  1.00  0.00    -0.300 A  
HETATM   18  C   UNL     1     -11.414  12.485  66.158  1.00  0.00    -0.426 A  
HETATM   19  C   UNL     1     -11.476  11.987  63.804  1.00  0.00    -0.547 A  
ENDBRANCH  13  14
ENDBRANCH   5  13
ENDBRANCH   4   5
ENDBRANCH   2   4
TORSDOF 6
ENDMDL
MODEL       18
REMARK 921   NORMALIZED FREE ENERGY PREDICTED BY IDOCK:   -5.41 KCAL/MOL
REMARK 922        TOTAL FREE ENERGY PREDICTED BY IDOCK:   -8.16 KCAL/MOL
REMARK 923 INTER-LIGAND FREE ENERGY PREDICTED BY IDOCK:   -7.30 KCAL/MOL
REMARK 924 INTRA-LIGAND FREE ENERGY PREDICTED BY IDOCK:   -0.87 KCAL/MOL
REMARK 927      BINDING AFFINITY PREDICTED BY RF-SCORE:    0.00 PKD
ROOT
HETATM    1  C   UNL     1     -11.852  15.593  72.352  1.00  0.00    -0.483 C  
HETATM    2  N   UNL     1     -11.840  14.827  71.097  1.00  0.00    -0.328 NA 
HETATM    3  C   UNL     1     -12.684  13.638  71.238  1.00  0.00    -0.361 C  
ENDROOT
BRANCH   2   4
HETATM    4  C   UNL     1     -12.321  15.707  70.003  1.00  0.00    -0.276 C  
BRANCH   4   5
HETATM    5  C   UNL     1     -11.363  16.142  68.846  1.00  0.00    -0.350 C  
BRANCH   5   6
HETATM    6  O   UNL     1     -10.344  17.047  69.326  1.00  0.00    -0.308 OA 
BRANCH   6   7
HETATM    7  C   UNL     1     -10.035  18.076  68.468  1.00  0.00    -0.390 A  
HETATM    8  C   UNL     1      -8.969  18.964  68.634  1.00  0.00    -0.386 A  
HETATM    9  C   UNL     1     -10.890  18.255  67.378  1.00  0.00    -0.281 A  
HETATM   10  C   UNL     1      -8.710  19.961  67.690  1.00  0.00    -0.395 A  
HETATM   11  C   UNL     1      -9.537  20.101  66.582  1.00  0.00    -0.547 A  
HETATM   12  C   UNL     1     -10.637  19.259  66.434  1.00  0.00    -0.542 A  
ENDBRANCH   6   7
ENDBRANCH   5   6
BRANCH   5  13
HETATM   13  O   UNL     1     -10.744  14.915  68.406  1.00  0.00    -0.235 OA 
BRANCH  13  14
HETATM   14  C   UNL     1     -11.080  14.424  67.177  1.00  0.00    -0.312 A  
HETATM   15  C   UNL     1     -12.494  13.318  65.565  1.00  0.00    -0.531 A  
HETATM   16  C   UNL     1     -12.237  13.705  66.881  1.00  0.00    -0.398 A  
HETATM   17  C   UNL     1     -10.459  14.391  64.842  1.00  0.00    -0.448 A  
HETATM   18  C   UNL     1     -10.205  14.780  66.153  1.00  0.00    -0.310 A  
HETATM   19  C   UNL     1     -11.602  13.654  64.548  1.00  0.00    -0.415 A  
ENDBRANCH  13  14
ENDBRANCH   5  13
ENDBRANCH   4   5
ENDBRANCH   2   4
TORSDOF 6
ENDMDL
MODEL       19
REMARK 921   NORMALIZED FREE ENERGY PREDICTED BY IDOCK:   -5.40 KCAL/MOL
REMARK 922        TOTAL FREE ENERGY PREDICTED BY IDOCK:   -8.14 KCAL/MOL
REMARK 923 INTER-LIGAND FREE ENERGY PREDICTED BY IDOCK:   -7.38 KCAL/MOL
REMARK 924 INTRA-LIGAND FREE ENERGY PREDICTED BY IDOCK:   -0.76 KCAL/MOL
REMARK 927      BINDING AFFINITY PREDICTED BY RF-SCORE:    0.00 PKD
ROOT
HETATM    1  C   UNL     1     -13.976  15.056  71.392  1.00  0.00    -0.479 C  
HETATM    2  N   UNL     1     -12.715  15.758  71.107  1.00  0.00    -0.475 NA 
HETATM    3  C   UNL     1     -11.837  15.685  72.277  1.00  0.00    -0.481 C  
ENDROOT
BRANCH   2   4
HETATM    4  C   UNL     1     -12.087  15.134  69.917  1.00  0.00    -0.336 C  
BRANCH   4   5
HETATM    5  C   UNL     1     -11.420  16.015  68.810  1.00  0.00    -0.375 C  
BRANCH   5   6
HETATM    6  O   UNL     1     -10.515  16.981  69.388  1.00  0.00    -0.321 OA 
BRANCH   6   7
HETATM    7  C   UNL     1     -10.023  17.914  68.505  1.00  0.00    -0.379 A  
HETATM    8  C   UNL     1     -10.791  18.617  67.573  1.00  0.00    -0.373 A  
HETATM    9  C   UNL     1      -8.643  18.127  68.530  1.00  0.00    -0.307 A  
HETATM   10  C   UNL     1     -10.210  19.574  66.737  1.00  0.00    -0.543 A  
HETATM   11  C   UNL     1      -8.843  19.815  66.804  1.00  0.00    -0.410 A  
HETATM   12  C   UNL     1      -8.057  19.080  67.688  1.00  0.00    -0.296 A  
ENDBRANCH   6   7
ENDBRANCH   5   6
BRANCH   5  13
HETATM   13  O   UNL     1     -10.672  15.082  68.003  1.00  0.00    -0.252 OA 
BRANCH  13  14
HETATM   14  C   UNL     1     -11.132  14.795  66.750  1.00  0.00    -0.338 A  
HETATM   15  C   UNL     1     -11.333  15.085  64.363  1.00  0.00    -0.207 A  
HETATM   16  C   UNL     1     -10.855  15.528  65.597  1.00  0.00    -0.354 A  
HETATM   17  C   UNL     1     -12.336  13.168  65.429  1.00  0.00    -0.532 A  
HETATM   18  C   UNL     1     -11.856  13.607  66.657  1.00  0.00    -0.447 A  
HETATM   19  C   UNL     1     -12.079  13.910  64.280  1.00  0.00    -0.477 A  
ENDBRANCH  13  14
ENDBRANCH   5  13
ENDBRANCH   4   5
ENDBRANCH   2   4
TORSDOF 6
ENDMDL
MODEL       20
REMARK 921   NORMALIZED FREE ENERGY PREDICTED BY IDOCK:   -5.37 KCAL/MOL
REMARK 922        TOTAL FREE ENERGY PREDICTED BY IDOCK:   -8.11 KCAL/MOL
REMARK 923 INTER-LIGAND FREE ENERGY PREDICTED BY IDOCK:   -7.40 KCAL/MOL
REMARK 924 INTRA-LIGAND FREE ENERGY PREDICTED BY IDOCK:   -0.71 KCAL/MOL
REMARK 927      BINDING AFFINITY PREDICTED BY RF-SCORE:    0.00 PKD
ROOT
HETATM    1  C   UNL     1     -10.382   8.733  68.300  1.00  0.00    -0.207 C  
HETATM    2  N   UNL     1     -10.709   9.669  69.387  1.00  0.00    -0.223 NA 
HETATM    3  C   UNL     1     -10.057   9.232  70.624  1.00  0.00    -0.276 C  
ENDROOT
BRANCH   2   4
HETATM    4  C   UNL     1     -10.264  11.027  68.990  1.00  0.00    -0.200 C  
BRANCH   4   5
HETATM    5  C   UNL     1     -11.292  12.200  68.862  1.00  0.00    -0.283 C  
BRANCH   5   6
HETATM    6  O   UNL     1     -12.112  12.046  67.682  1.00  0.00    -0.547 OA 
BRANCH   6   7
HETATM    7  C   UNL     1     -11.883  12.975  66.694  1.00  0.00    -0.393 A  
HETATM    8  C   UNL     1     -12.345  12.876  65.379  1.00  0.00    -0.538 A  
HETATM    9  C   UNL     1     -11.090  14.071  67.043  1.00  0.00    -0.312 A  
HETATM   10  C   UNL     1     -12.092  13.887  64.449  1.00  0.00    -0.477 A  
HETATM   11  C   UNL     1     -11.344  14.998  64.819  1.00  0.00    -0.409 A  
HETATM   12  C   UNL     1     -10.829  15.083  66.110  1.00  0.00    -0.329 A  
ENDBRANCH   6   7
ENDBRANCH   5   6
BRANCH   5  13
HETATM   13  O   UNL     1     -12.120  12.088  70.038  1.00  0.00    -0.310 OA 
BRANCH  13  14
HETATM   14  C   UNL     1     -12.457  13.231  70.704  1.00  0.00    -0.298 A  
HETATM   15  C   UNL     1     -12.624  15.616  71.030  1.00  0.00    -0.515 A  
HETATM   16  C   UNL     1     -12.160  14.528  70.289  1.00  0.00    -0.386 A  
HETATM   17  C   UNL     1     -13.703  14.113  72.578  1.00  0.00    -0.626 A  
HETATM   18  C   UNL     1     -13.243  13.030  71.837  1.00  0.00    -0.527 A  
HETATM   19  C   UNL     1     -13.388  15.409  72.177  1.00  0.00    -0.541 A  
ENDBRANCH  13  14
ENDBRANCH   5  13
ENDBRANCH   4   5
ENDBRANCH   2   4
TORSDOF 6
ENDMDL
MODEL       21
REMARK 921   NORMALIZED FREE ENERGY PREDICTED BY IDOCK:   -5.37 KCAL/MOL
REMARK 922        TOTAL FREE ENERGY PREDICTED BY IDOCK:   -8.11 KCAL/MOL
REMARK 923 INTER-LIGAND FREE ENERGY PREDICTED BY IDOCK:   -7.30 KCAL/MOL
REMARK 924 INTRA-LIGAND FREE ENERGY PREDICTED BY IDOCK:   -0.80 KCAL/MOL
REMARK 927      BINDING AFFINITY PREDICTED BY RF-SCORE:    0.00 PKD
ROOT
HETATM    1  C   UNL     1      -8.183  16.848  68.409  1.00  0.00    -0.232 C  
HETATM    2  N   UNL     1      -9.578  17.072  68.817  1.00  0.00    -0.267 NA 
HETATM    3  C   UNL     1      -9.938  18.474  68.591  1.00  0.00    -0.383 C  
ENDROOT
BRANCH   2   4
HETATM    4  C   UNL     1     -10.449  16.156  68.039  1.00  0.00    -0.281 C  
BRANCH   4   5
HETATM    5  C   UNL     1     -11.416  15.163  68.765  1.00  0.00    -0.319 C  
BRANCH   5   6
HETATM    6  O   UNL     1     -12.421  15.874  69.521  1.00  0.00    -0.150 OA 
BRANCH   6   7
HETATM    7  C   UNL     1     -12.563  15.460  70.825  1.00  0.00    -0.442 A  
HETATM    8  C   UNL     1     -13.365  14.394  71.244  1.00  0.00    -0.409 A  
HETATM    9  C   UNL     1     -11.880  16.202  71.791  1.00  0.00    -0.581 A  
HETATM   10  C   UNL     1     -13.422  14.023  72.589  1.00  0.00    -0.650 A  
HETATM   11  C   UNL     1     -12.700  14.736  73.538  1.00  0.00    -0.566 A  
HETATM   12  C   UNL     1     -11.941  15.836  73.142  1.00  0.00    -0.574 A  
ENDBRANCH   6   7
ENDBRANCH   5   6
BRANCH   5  13
HETATM   13  O   UNL     1     -12.051  14.429  67.699  1.00  0.00    -0.363 OA 
BRANCH  13  14
HETATM   14  C   UNL     1     -11.683  13.129  67.498  1.00  0.00    -0.366 A  
HETATM   15  C   UNL     1     -10.658  11.294  66.313  1.00  0.00    -0.315 A  
HETATM   16  C   UNL     1     -11.043  12.635  66.363  1.00  0.00    -0.325 A  
HETATM   17  C   UNL     1     -11.526  10.953  68.537  1.00  0.00    -0.380 A  
HETATM   18  C   UNL     1     -11.905  12.290  68.588  1.00  0.00    -0.354 A  
HETATM   19  C   UNL     1     -10.907  10.452  67.396  1.00  0.00    -0.344 A  
ENDBRANCH  13  14
ENDBRANCH   5  13
ENDBRANCH   4   5
ENDBRANCH   2   4
TORSDOF 6
ENDMDL
MODEL       22
REMARK 921   NORMALIZED FREE ENERGY PREDICTED BY IDOCK:   -5.37 KCAL/MOL
REMARK 922        TOTAL FREE ENERGY PREDICTED BY IDOCK:   -8.11 KCAL/MOL
REMARK 923 INTER-LIGAND FREE ENERGY PREDICTED BY IDOCK:   -7.13 KCAL/MOL
REMARK 924 INTRA-LIGAND FREE ENERGY PREDICTED BY IDOCK:   -0.98 KCAL/MOL
REMARK 927      BINDING AFFINITY PREDICTED BY RF-SCORE:    0.00 PKD
ROOT
HETATM    1  C   UNL     1      -9.029  16.195  66.054  1.00  0.00    -0.298 C  
HETATM    2  N   UNL     1      -9.656  15.013  66.665  1.00  0.00    -0.249 NA 
HETATM    3  C   UNL     1      -8.769  14.463  67.693  1.00  0.00    -0.189 C  
ENDROOT
BRANCH   2   4
HETATM    4  C   UNL     1     -10.965  15.416  67.236  1.00  0.00    -0.317 C  
BRANCH   4   5
HETATM    5  C   UNL     1     -11.424  14.886  68.635  1.00  0.00    -0.306 C  
BRANCH   5   6
HETATM    6  O   UNL     1     -12.238  15.863  69.320  1.00  0.00    -0.273 OA 
BRANCH   6   7
HETATM    7  C   UNL     1     -12.535  15.554  70.627  1.00  0.00    -0.435 A  
HETATM    8  C   UNL     1     -13.795  15.167  71.091  1.00  0.00    -0.495 A  
HETATM    9  C   UNL     1     -11.494  15.685  71.549  1.00  0.00    -0.494 A  
HETATM   10  C   UNL     1     -13.997  14.838  72.434  1.00  0.00    -0.575 A  
HETATM   11  C   UNL     1     -12.943  14.923  73.335  1.00  0.00    -0.597 A  
HETATM   12  C   UNL     1     -11.696  15.362  72.897  1.00  0.00    -0.508 A  
ENDBRANCH   6   7
ENDBRANCH   5   6
BRANCH   5  13
HETATM   13  O   UNL     1     -12.223  13.722  68.339  1.00  0.00    -0.340 OA 
BRANCH  13  14
HETATM   14  C   UNL     1     -11.808  12.512  68.817  1.00  0.00    -0.303 A  
HETATM   15  C   UNL     1     -11.512  10.793  70.484  1.00  0.00    -0.367 A  
HETATM   16  C   UNL     1     -11.914  12.085  70.139  1.00  0.00    -0.401 A  
HETATM   17  C   UNL     1     -10.930  10.351  68.186  1.00  0.00    -0.334 A  
HETATM   18  C   UNL     1     -11.333  11.636  67.842  1.00  0.00    -0.369 A  
HETATM   19  C   UNL     1     -11.014   9.930  69.510  1.00  0.00    -0.274 A  
ENDBRANCH  13  14
ENDBRANCH   5  13
ENDBRANCH   4   5
ENDBRANCH   2   4
TORSDOF 6
ENDMDL
MODEL       23
REMARK 921   NORMALIZED FREE ENERGY PREDICTED BY IDOCK:   -5.36 KCAL/MOL
REMARK 922        TOTAL FREE ENERGY PREDICTED BY IDOCK:   -8.09 KCAL/MOL
REMARK 923 INTER-LIGAND FREE ENERGY PREDICTED BY IDOCK:   -7.80 KCAL/MOL
REMARK 924 INTRA-LIGAND FREE ENERGY PREDICTED BY IDOCK:   -0.29 KCAL/MOL
REMARK 927      BINDING AFFINITY PREDICTED BY RF-SCORE:    0.00 PKD
ROOT
HETATM    1  C   UNL     1     -11.306  10.628  69.347  1.00  0.00    -0.284 C  
HETATM    2  N   UNL     1     -12.297  11.604  69.827  1.00  0.00    -0.186 NA 
HETATM    3  C   UNL     1     -12.726  11.244  71.180  1.00  0.00    -0.390 C  
ENDROOT
BRANCH   2   4
HETATM    4  C   UNL     1     -11.681  12.954  69.794  1.00  0.00    -0.281 C  
BRANCH   4   5
HETATM    5  C   UNL     1     -12.028  13.963  68.649  1.00  0.00    -0.366 C  
BRANCH   5   6
HETATM    6  O   UNL     1     -12.030  15.323  69.137  1.00  0.00    -0.315 OA 
BRANCH   6   7
HETATM    7  C   UNL     1     -12.480  15.473  70.428  1.00  0.00    -0.402 A  
HETATM    8  C   UNL     1     -13.754  15.115  70.878  1.00  0.00    -0.352 A  
HETATM    9  C   UNL     1     -11.596  16.070  71.329  1.00  0.00    -0.506 A  
HETATM   10  C   UNL     1     -14.113  15.273  72.219  1.00  0.00    -0.651 A  
HETATM   11  C   UNL     1     -13.209  15.822  73.120  1.00  0.00    -0.694 A  
HETATM   12  C   UNL     1     -11.956  16.236  72.672  1.00  0.00    -0.644 A  
ENDBRANCH   6   7
ENDBRANCH   5   6
BRANCH   5  13
HETATM   13  O   UNL     1     -10.965  13.801  67.688  1.00  0.00    -0.257 OA 
BRANCH  13  14
HETATM   14  C   UNL     1     -11.296  13.475  66.404  1.00  0.00    -0.316 A  
HETATM   15  C   UNL     1     -11.746  11.981  64.563  1.00  0.00    -0.380 A  
HETATM   16  C   UNL     1     -11.322  12.185  65.877  1.00  0.00    -0.407 A  
HETATM   17  C   UNL     1     -12.144  14.347  64.316  1.00  0.00    -0.461 A  
HETATM   18  C   UNL     1     -11.725  14.549  65.626  1.00  0.00    -0.335 A  
HETATM   19  C   UNL     1     -12.150  13.063  63.781  1.00  0.00    -0.574 A  
ENDBRANCH  13  14
ENDBRANCH   5  13
ENDBRANCH   4   5
ENDBRANCH   2   4
TORSDOF 6
ENDMDL
MODEL       24
REMARK 921   NORMALIZED FREE ENERGY PREDICTED BY IDOCK:   -5.33 KCAL/MOL
REMARK 922        TOTAL FREE ENERGY PREDICTED BY IDOCK:   -8.06 KCAL/MOL
REMARK 923 INTER-LIGAND FREE ENERGY PREDICTED BY IDOCK:   -7.18 KCAL/MOL
REMARK 924 INTRA-LIGAND FREE ENERGY PREDICTED BY IDOCK:   -0.88 KCAL/MOL
REMARK 927      BINDING AFFINITY PREDICTED BY RF-SCORE:    0.00 PKD
ROOT
HETATM    1  C   UNL     1     -11.918  13.069  63.496  1.00  0.00    -0.545 C  
HETATM    2  N   UNL     1     -12.004  14.224  64.403  1.00  0.00    -0.456 NA 
HETATM    3  C   UNL     1     -12.857  13.890  65.546  1.00  0.00    -0.431 C  
ENDROOT
BRANCH   2   4
HETATM    4  C   UNL     1     -10.631  14.585  64.837  1.00  0.00    -0.427 C  
BRANCH   4   5
HETATM    5  C   UNL     1     -10.403  15.521  66.070  1.00  0.00    -0.326 C  
BRANCH   5   6
HETATM    6  O   UNL     1      -9.862  14.784  67.189  1.00  0.00    -0.228 OA 
BRANCH   6   7
HETATM    7  C   UNL     1     -10.570  14.911  68.361  1.00  0.00    -0.244 A  
HETATM    8  C   UNL     1     -10.597  16.056  69.162  1.00  0.00    -0.260 A  
HETATM    9  C   UNL     1     -11.274  13.782  68.787  1.00  0.00    -0.303 A  
HETATM   10  C   UNL     1     -11.374  16.106  70.321  1.00  0.00    -0.363 A  
HETATM   11  C   UNL     1     -12.112  14.994  70.711  1.00  0.00    -0.377 A  
HETATM   12  C   UNL     1     -12.049  13.827  69.953  1.00  0.00    -0.412 A  
ENDBRANCH   6   7
ENDBRANCH   5   6
BRANCH   5  13
HETATM   13  O   UNL     1      -9.432  16.487  65.619  1.00  0.00    -0.497 OA 
BRANCH  13  14
HETATM   14  C   UNL     1      -9.422  17.719  66.208  1.00  0.00    -0.217 A  
HETATM   15  C   UNL     1      -8.413  19.654  67.239  1.00  0.00    -0.348 A  
HETATM   16  C   UNL     1      -8.298  18.361  66.724  1.00  0.00    -0.271 A  
HETATM   17  C   UNL     1     -10.762  19.671  66.693  1.00  0.00    -0.552 A  
HETATM   18  C   UNL     1     -10.646  18.385  66.177  1.00  0.00    -0.346 A  
HETATM   19  C   UNL     1      -9.646  20.305  67.230  1.00  0.00    -0.581 A  
ENDBRANCH  13  14
ENDBRANCH   5  13
ENDBRANCH   4   5
ENDBRANCH   2   4
TORSDOF 6
ENDMDL
MODEL       25
REMARK 921   NORMALIZED FREE ENERGY PREDICTED BY IDOCK:   -5.32 KCAL/MOL
REMARK 922        TOTAL FREE ENERGY PREDICTED BY IDOCK:   -8.04 KCAL/MOL
REMARK 923 INTER-LIGAND FREE ENERGY PREDICTED BY IDOCK:   -7.22 KCAL/MOL
REMARK 924 INTRA-LIGAND FREE ENERGY PREDICTED BY IDOCK:   -0.82 KCAL/MOL
REMARK 927      BINDING AFFINITY PREDICTED BY RF-SCORE:    0.00 PKD
ROOT
HETATM    1  C   UNL     1      -7.558  12.882  67.381  1.00  0.00    -0.148 C  
HETATM    2  N   UNL     1      -8.649  13.340  68.254  1.00  0.00    -0.177 NA 
HETATM    3  C   UNL     1      -9.212  14.585  67.725  1.00  0.00    -0.194 C  
ENDROOT
BRANCH   2   4
HETATM    4  C   UNL     1      -9.674  12.269  68.327  1.00  0.00    -0.219 C  
BRANCH   4   5
HETATM    5  C   UNL     1     -11.197  12.622  68.385  1.00  0.00    -0.279 C  
BRANCH   5   6
HETATM    6  O   UNL     1     -11.942  11.878  67.397  1.00  0.00    -0.603 OA 
BRANCH   6   7
HETATM    7  C   UNL     1     -11.930  12.422  66.134  1.00  0.00    -0.327 A  
HETATM    8  C   UNL     1     -11.407  11.797  64.998  1.00  0.00    -0.288 A  
HETATM    9  C   UNL     1     -12.446  13.714  66.008  1.00  0.00    -0.477 A  
HETATM   10  C   UNL     1     -11.469  12.413  63.745  1.00  0.00    -0.544 A  
HETATM   11  C   UNL     1     -12.030  13.679  63.621  1.00  0.00    -0.371 A  
HETATM   12  C   UNL     1     -12.503  14.336  64.755  1.00  0.00    -0.390 A  
ENDBRANCH   6   7
ENDBRANCH   5   6
BRANCH   5  13
HETATM   13  O   UNL     1     -11.615  12.216  69.705  1.00  0.00    -0.298 OA 
BRANCH  13  14
HETATM   14  C   UNL     1     -12.337  13.098  70.457  1.00  0.00    -0.304 A  
HETATM   15  C   UNL     1     -13.680  13.798  72.335  1.00  0.00    -0.692 A  
HETATM   16  C   UNL     1     -13.037  12.786  71.621  1.00  0.00    -0.428 A  
HETATM   17  C   UNL     1     -12.898  15.431  70.741  1.00  0.00    -0.524 A  
HETATM   18  C   UNL     1     -12.255  14.423  70.032  1.00  0.00    -0.408 A  
HETATM   19  C   UNL     1     -13.617  15.118  71.891  1.00  0.00    -0.545 A  
ENDBRANCH  13  14
ENDBRANCH   5  13
ENDBRANCH   4   5
ENDBRANCH   2   4
TORSDOF 6
ENDMDL
MODEL       26
REMARK 921   NORMALIZED FREE ENERGY PREDICTED BY IDOCK:   -5.29 KCAL/MOL
REMARK 922        TOTAL FREE ENERGY PREDICTED BY IDOCK:   -8.00 KCAL/MOL
REMARK 923 INTER-LIGAND FREE ENERGY PREDICTED BY IDOCK:   -7.32 KCAL/MOL
REMARK 924 INTRA-LIGAND FREE ENERGY PREDICTED BY IDOCK:   -0.68 KCAL/MOL
REMARK 927      BINDING AFFINITY PREDICTED BY RF-SCORE:    0.00 PKD
ROOT
HETATM    1  C   UNL     1      -8.627  16.897  68.639  1.00  0.00    -0.267 C  
HETATM    2  N   UNL     1      -8.964  15.778  67.746  1.00  0.00    -0.176 NA 
HETATM    3  C   UNL     1      -8.578  14.513  68.377  1.00  0.00    -0.172 C  
ENDROOT
BRANCH   2   4
HETATM    4  C   UNL     1     -10.421  15.822  67.465  1.00  0.00    -0.288 C  
BRANCH   4   5
HETATM    5  C   UNL     1     -11.412  14.890  68.237  1.00  0.00    -0.324 C  
BRANCH   5   6
HETATM    6  O   UNL     1     -12.132  15.623  69.253  1.00  0.00    -0.347 OA 
BRANCH   6   7
HETATM    7  C   UNL     1     -12.637  14.851  70.274  1.00  0.00    -0.313 A  
HETATM    8  C   UNL     1     -13.569  15.286  71.220  1.00  0.00    -0.584 A  
HETATM    9  C   UNL     1     -12.133  13.553  70.379  1.00  0.00    -0.415 A  
HETATM   10  C   UNL     1     -14.052  14.420  72.204  1.00  0.00    -0.627 A  
HETATM   11  C   UNL     1     -13.583  13.113  72.271  1.00  0.00    -0.677 A  
HETATM   12  C   UNL     1     -12.611  12.684  71.369  1.00  0.00    -0.304 A  
ENDBRANCH   6   7
ENDBRANCH   5   6
BRANCH   5  13
HETATM   13  O   UNL     1     -12.339  14.432  67.231  1.00  0.00    -0.322 OA 
BRANCH  13  14
HETATM   14  C   UNL     1     -11.891  13.551  66.289  1.00  0.00    -0.392 A  
HETATM   15  C   UNL     1     -10.865  11.516  65.496  1.00  0.00    -0.313 A  
HETATM   16  C   UNL     1     -11.208  12.364  66.551  1.00  0.00    -0.368 A  
HETATM   17  C   UNL     1     -11.910  13.023  63.931  1.00  0.00    -0.542 A  
HETATM   18  C   UNL     1     -12.255  13.866  64.982  1.00  0.00    -0.444 A  
HETATM   19  C   UNL     1     -11.209  11.849  64.187  1.00  0.00    -0.446 A  
ENDBRANCH  13  14
ENDBRANCH   5  13
ENDBRANCH   4   5
ENDBRANCH   2   4
TORSDOF 6
ENDMDL
MODEL       27
REMARK 921   NORMALIZED FREE ENERGY PREDICTED BY IDOCK:   -5.28 KCAL/MOL
REMARK 922        TOTAL FREE ENERGY PREDICTED BY IDOCK:   -7.99 KCAL/MOL
REMARK 923 INTER-LIGAND FREE ENERGY PREDICTED BY IDOCK:   -8.03 KCAL/MOL
REMARK 924 INTRA-LIGAND FREE ENERGY PREDICTED BY IDOCK:    0.05 KCAL/MOL
REMARK 927      BINDING AFFINITY PREDICTED BY RF-SCORE:    0.00 PKD
ROOT
HETATM    1  C   UNL     1      -8.598  18.353  68.431  1.00  0.00    -0.325 C  
HETATM    2  N   UNL     1     -10.063  18.475  68.452  1.00  0.00    -0.376 NA 
HETATM    3  C   UNL     1     -10.478  19.578  67.581  1.00  0.00    -0.467 C  
ENDROOT
BRANCH   2   4
HETATM    4  C   UNL     1     -10.650  17.185  68.012  1.00  0.00    -0.374 C  
BRANCH   4   5
HETATM    5  C   UNL     1     -10.718  15.964  68.987  1.00  0.00    -0.251 C  
BRANCH   5   6
HETATM    6  O   UNL     1     -12.087  15.607  69.279  1.00  0.00    -0.347 OA 
BRANCH   6   7
HETATM    7  C   UNL     1     -12.418  15.629  70.614  1.00  0.00    -0.417 A  
HETATM    8  C   UNL     1     -11.605  16.134  71.632  1.00  0.00    -0.503 A  
HETATM    9  C   UNL     1     -13.646  15.060  70.960  1.00  0.00    -0.442 A  
HETATM   10  C   UNL     1     -12.040  16.147  72.960  1.00  0.00    -0.636 A  
HETATM   11  C   UNL     1     -13.284  15.624  73.288  1.00  0.00    -0.666 A  
HETATM   12  C   UNL     1     -14.081  15.065  72.291  1.00  0.00    -0.612 A  
ENDBRANCH   6   7
ENDBRANCH   5   6
BRANCH   5  13
HETATM   13  O   UNL     1     -10.087  14.886  68.265  1.00  0.00    -0.215 OA 
BRANCH  13  14
HETATM   14  C   UNL     1     -10.665  14.456  67.106  1.00  0.00    -0.283 A  
HETATM   15  C   UNL     1     -12.472  13.683  65.706  1.00  0.00    -0.524 A  
HETATM   16  C   UNL     1     -11.985  14.033  66.967  1.00  0.00    -0.472 A  
HETATM   17  C   UNL     1     -10.332  14.205  64.725  1.00  0.00    -0.387 A  
HETATM   18  C   UNL     1      -9.849  14.558  65.980  1.00  0.00    -0.342 A  
HETATM   19  C   UNL     1     -11.644  13.762  64.588  1.00  0.00    -0.396 A  
ENDBRANCH  13  14
ENDBRANCH   5  13
ENDBRANCH   4   5
ENDBRANCH   2   4
TORSDOF 6
ENDMDL
MODEL       28
REMARK 921   NORMALIZED FREE ENERGY PREDICTED BY IDOCK:   -5.25 KCAL/MOL
REMARK 922        TOTAL FREE ENERGY PREDICTED BY IDOCK:   -7.95 KCAL/MOL
REMARK 923 INTER-LIGAND FREE ENERGY PREDICTED BY IDOCK:   -7.33 KCAL/MOL
REMARK 924 INTRA-LIGAND FREE ENERGY PREDICTED BY IDOCK:   -0.61 KCAL/MOL
REMARK 927      BINDING AFFINITY PREDICTED BY RF-SCORE:    0.00 PKD
ROOT
HETATM    1  C   UNL     1     -12.723  14.186  70.797  1.00  0.00    -0.344 C  
HETATM    2  N   UNL     1     -12.253  14.390  69.418  1.00  0.00    -0.300 NA 
HETATM    3  C   UNL     1     -11.764  15.762  69.263  1.00  0.00    -0.374 C  
ENDROOT
BRANCH   2   4
HETATM    4  C   UNL     1     -11.188  13.397  69.132  1.00  0.00    -0.248 C  
BRANCH   4   5
HETATM    5  C   UNL     1     -11.484  12.137  68.254  1.00  0.00    -0.305 C  
BRANCH   5   6
HETATM    6  O   UNL     1     -12.338  11.204  68.952  1.00  0.00    -0.512 OA 
BRANCH   6   7
HETATM    7  C   UNL     1     -11.693  10.402  69.864  1.00  0.00    -0.264 A  
HETATM    8  C   UNL     1     -10.358   9.999  69.774  1.00  0.00    -0.290 A  
HETATM    9  C   UNL     1     -12.462   9.931  70.931  1.00  0.00    -0.401 A  
HETATM   10  C   UNL     1      -9.776   9.209  70.768  1.00  0.00    -0.337 A  
HETATM   11  C   UNL     1     -10.535   8.786  71.852  1.00  0.00    -0.423 A  
HETATM   12  C   UNL     1     -11.882   9.133  71.926  1.00  0.00    -0.439 A  
ENDBRANCH   6   7
ENDBRANCH   5   6
BRANCH   5  13
HETATM   13  O   UNL     1     -12.181  12.652  67.101  1.00  0.00    -0.445 OA 
BRANCH  13  14
HETATM   14  C   UNL     1     -11.675  12.381  65.862  1.00  0.00    -0.419 A  
HETATM   15  C   UNL     1     -10.048  11.545  64.288  1.00  0.00    -0.338 A  
HETATM   16  C   UNL     1     -10.417  11.839  65.602  1.00  0.00    -0.308 A  
HETATM   17  C   UNL     1     -12.199  12.304  63.504  1.00  0.00    -0.669 A  
HETATM   18  C   UNL     1     -12.568  12.593  64.813  1.00  0.00    -0.530 A  
HETATM   19  C   UNL     1     -10.935  11.785  63.240  1.00  0.00    -0.387 A  
ENDBRANCH  13  14
ENDBRANCH   5  13
ENDBRANCH   4   5
ENDBRANCH   2   4
TORSDOF 6
ENDMDL
MODEL       29
REMARK 921   NORMALIZED FREE ENERGY PREDICTED BY IDOCK:   -5.25 KCAL/MOL
REMARK 922        TOTAL FREE ENERGY PREDICTED BY IDOCK:   -7.94 KCAL/MOL
REMARK 923 INTER-LIGAND FREE ENERGY PREDICTED BY IDOCK:   -7.37 KCAL/MOL
REMARK 924 INTRA-LIGAND FREE ENERGY PREDICTED BY IDOCK:   -0.58 KCAL/MOL
REMARK 927      BINDING AFFINITY PREDICTED BY RF-SCORE:    0.00 PKD
ROOT
HETATM    1  C   UNL     1     -12.639  14.003  65.821  1.00  0.00    -0.479 C  
HETATM    2  N   UNL     1     -12.266  12.581  65.864  1.00  0.00    -0.624 NA 
HETATM    3  C   UNL     1     -11.579  12.215  64.623  1.00  0.00    -0.328 C  
ENDROOT
BRANCH   2   4
HETATM    4  C   UNL     1     -11.403  12.355  67.050  1.00  0.00    -0.327 C  
BRANCH   4   5
HETATM    5  C   UNL     1     -11.301  13.432  68.180  1.00  0.00    -0.287 C  
BRANCH   5   6
HETATM    6  O   UNL     1     -11.412  12.827  69.487  1.00  0.00    -0.267 OA 
BRANCH   6   7
HETATM    7  C   UNL     1     -12.235  13.494  70.365  1.00  0.00    -0.356 A  
HETATM    8  C   UNL     1     -12.516  14.862  70.317  1.00  0.00    -0.386 A  
HETATM    9  C   UNL     1     -12.787  12.734  71.399  1.00  0.00    -0.371 A  
HETATM   10  C   UNL     1     -13.394  15.449  71.232  1.00  0.00    -0.598 A  
HETATM   11  C   UNL     1     -13.978  14.675  72.228  1.00  0.00    -0.589 A  
HETATM   12  C   UNL     1     -13.662  13.322  72.322  1.00  0.00    -0.686 A  
ENDBRANCH   6   7
ENDBRANCH   5   6
BRANCH   5  13
HETATM   13  O   UNL     1      -9.983  13.997  68.026  1.00  0.00    -0.223 OA 
BRANCH  13  14
HETATM   14  C   UNL     1      -9.876  15.279  67.567  1.00  0.00    -0.213 A  
HETATM   15  C   UNL     1     -10.422  17.627  67.461  1.00  0.00    -0.365 A  
HETATM   16  C   UNL     1     -10.682  16.347  67.956  1.00  0.00    -0.334 A  
HETATM   17  C   UNL     1      -8.540  16.774  66.218  1.00  0.00    -0.340 A  
HETATM   18  C   UNL     1      -8.796  15.500  66.715  1.00  0.00    -0.297 A  
HETATM   19  C   UNL     1      -9.357  17.838  66.587  1.00  0.00    -0.296 A  
ENDBRANCH  13  14
ENDBRANCH   5  13
ENDBRANCH   4   5
ENDBRANCH   2   4
TORSDOF 6
ENDMDL
MODEL       30
REMARK 921   NORMALIZED FREE ENERGY PREDICTED BY IDOCK:   -5.22 KCAL/MOL
REMARK 922        TOTAL FREE ENERGY PREDICTED BY IDOCK:   -7.91 KCAL/MOL
REMARK 923 INTER-LIGAND FREE ENERGY PREDICTED BY IDOCK:   -7.02 KCAL/MOL
REMARK 924 INTRA-LIGAND FREE ENERGY PREDICTED BY IDOCK:   -0.89 KCAL/MOL
REMARK 927      BINDING AFFINITY PREDICTED BY RF-SCORE:    0.00 PKD
ROOT
HETATM    1  C   UNL     1      -8.847  14.103  67.578  1.00  0.00    -0.201 C  
HETATM    2  N   UNL     1      -9.793  15.171  67.219  1.00  0.00    -0.227 NA 
HETATM    3  C   UNL     1      -9.799  15.354  65.765  1.00  0.00    -0.364 C  
ENDROOT
BRANCH   2   4
HETATM    4  C   UNL     1     -11.138  14.798  67.725  1.00  0.00    -0.299 C  
BRANCH   4   5
HETATM    5  C   UNL     1     -11.461  13.320  68.124  1.00  0.00    -0.312 C  
BRANCH   5   6
HETATM    6  O   UNL     1     -12.023  13.251  69.452  1.00  0.00    -0.306 OA 
BRANCH   6   7
HETATM    7  C   UNL     1     -11.925  12.020  70.058  1.00  0.00    -0.324 A  
HETATM    8  C   UNL     1     -12.686  11.604  71.154  1.00  0.00    -0.426 A  
HETATM    9  C   UNL     1     -10.955  11.152  69.550  1.00  0.00    -0.276 A  
HETATM   10  C   UNL     1     -12.542  10.319  71.683  1.00  0.00    -0.534 A  
HETATM   11  C   UNL     1     -11.609   9.444  71.139  1.00  0.00    -0.415 A  
HETATM   12  C   UNL     1     -10.804   9.866  70.083  1.00  0.00    -0.356 A  
ENDBRANCH   6   7
ENDBRANCH   5   6
BRANCH   5  13
HETATM   13  O   UNL     1     -12.447  12.891  67.163  1.00  0.00    -0.248 OA 
BRANCH  13  14
HETATM   14  C   UNL     1     -12.025  12.530  65.916  1.00  0.00    -0.409 A  
HETATM   15  C   UNL     1     -11.948  12.634  63.506  1.00  0.00    -0.630 A  
HETATM   16  C   UNL     1     -12.517  13.038  64.715  1.00  0.00    -0.485 A  
HETATM   17  C   UNL     1     -10.381  11.242  64.699  1.00  0.00    -0.373 A  
HETATM   18  C   UNL     1     -10.945  11.648  65.903  1.00  0.00    -0.334 A  
HETATM   19  C   UNL     1     -10.886  11.731  63.498  1.00  0.00    -0.496 A  
ENDBRANCH  13  14
ENDBRANCH   5  13
ENDBRANCH   4   5
ENDBRANCH   2   4
TORSDOF 6
ENDMDL
MODEL       31
REMARK 921   NORMALIZED FREE ENERGY PREDICTED BY IDOCK:   -5.21 KCAL/MOL
REMARK 922        TOTAL FREE ENERGY PREDICTED BY IDOCK:   -7.89 KCAL/MOL
REMARK 923 INTER-LIGAND FREE ENERGY PREDICTED BY IDOCK:   -7.10 KCAL/MOL
REMARK 924 INTRA-LIGAND FREE ENERGY PREDICTED BY IDOCK:   -0.79 KCAL/MOL
REMARK 927      BINDING AFFINITY PREDICTED BY RF-SCORE:    0.00 PKD
ROOT
HETATM    1  C   UNL     1     -11.649   7.875  70.939  1.00  0.00    -0.273 C  
HETATM    2  N   UNL     1     -12.519   9.043  71.145  1.00  0.00    -0.272 NA 
HETATM    3  C   UNL     1     -13.265   8.886  72.397  1.00  0.00    -0.430 C  
ENDROOT
BRANCH   2   4
HETATM    4  C   UNL     1     -11.674  10.262  71.165  1.00  0.00    -0.341 C  
BRANCH   4   5
HETATM    5  C   UNL     1     -12.046  11.507  70.295  1.00  0.00    -0.359 C  
BRANCH   5   6
HETATM    6  O   UNL     1     -12.515  11.108  68.988  1.00  0.00    -0.439 OA 
BRANCH   6   7
HETATM    7  C   UNL     1     -11.638  11.356  67.958  1.00  0.00    -0.286 A  
HETATM    8  C   UNL     1     -10.633  10.482  67.534  1.00  0.00    -0.306 A  
HETATM    9  C   UNL     1     -11.750  12.599  67.332  1.00  0.00    -0.432 A  
HETATM   10  C   UNL     1      -9.808  10.804  66.454  1.00  0.00    -0.254 A  
HETATM   11  C   UNL     1      -9.959  12.023  65.804  1.00  0.00    -0.266 A  
HETATM   12  C   UNL     1     -10.919  12.927  66.253  1.00  0.00    -0.305 A  
ENDBRANCH   6   7
ENDBRANCH   5   6
BRANCH   5  13
HETATM   13  O   UNL     1     -13.121  12.146  71.014  1.00  0.00    -0.143 OA 
BRANCH  13  14
HETATM   14  C   UNL     1     -12.938  13.426  71.453  1.00  0.00    -0.328 A  
HETATM   15  C   UNL     1     -13.204  15.290  72.961  1.00  0.00    -0.617 A  
HETATM   16  C   UNL     1     -13.532  13.987  72.582  1.00  0.00    -0.650 A  
HETATM   17  C   UNL     1     -11.673  15.455  71.105  1.00  0.00    -0.418 A  
HETATM   18  C   UNL     1     -11.996  14.156  70.731  1.00  0.00    -0.377 A  
HETATM   19  C   UNL     1     -12.282  16.026  72.219  1.00  0.00    -0.604 A  
ENDBRANCH  13  14
ENDBRANCH   5  13
ENDBRANCH   4   5
ENDBRANCH   2   4
TORSDOF 6
ENDMDL
MODEL       32
REMARK 921   NORMALIZED FREE ENERGY PREDICTED BY IDOCK:   -5.21 KCAL/MOL
REMARK 922        TOTAL FREE ENERGY PREDICTED BY IDOCK:   -7.89 KCAL/MOL
REMARK 923 INTER-LIGAND FREE ENERGY PREDICTED BY IDOCK:   -7.14 KCAL/MOL
REMARK 924 INTRA-LIGAND FREE ENERGY PREDICTED BY IDOCK:   -0.74 KCAL/MOL
REMARK 927      BINDING AFFINITY PREDICTED BY RF-SCORE:    0.00 PKD
ROOT
HETATM    1  C   UNL     1      -8.259  17.652  68.429  1.00  0.00    -0.289 C  
HETATM    2  N   UNL     1      -8.774  16.305  68.136  1.00  0.00    -0.178 NA 
HETATM    3  C   UNL     1      -8.430  15.398  69.233  1.00  0.00    -0.258 C  
ENDROOT
BRANCH   2   4
HETATM    4  C   UNL     1     -10.243  16.394  67.945  1.00  0.00    -0.268 C  
BRANCH   4   5
HETATM    5  C   UNL     1     -11.187  15.265  68.475  1.00  0.00    -0.303 C  
BRANCH   5   6
HETATM    6  O   UNL     1     -11.986  15.732  69.584  1.00  0.00    -0.356 OA 
BRANCH   6   7
HETATM    7  C   UNL     1     -12.460  14.742  70.413  1.00  0.00    -0.349 A  
HETATM    8  C   UNL     1     -12.081  13.398  70.352  1.00  0.00    -0.405 A  
HETATM    9  C   UNL     1     -13.423  15.123  71.350  1.00  0.00    -0.561 A  
HETATM   10  C   UNL     1     -12.590  12.466  71.260  1.00  0.00    -0.332 A  
HETATM   11  C   UNL     1     -13.511  12.864  72.221  1.00  0.00    -0.631 A  
HETATM   12  C   UNL     1     -13.940  14.189  72.256  1.00  0.00    -0.646 A  
ENDBRANCH   6   7
ENDBRANCH   5   6
BRANCH   5  13
HETATM   13  O   UNL     1     -12.050  14.959  67.360  1.00  0.00    -0.246 OA 
BRANCH  13  14
HETATM   14  C   UNL     1     -11.704  13.927  66.536  1.00  0.00    -0.393 A  
HETATM   15  C   UNL     1     -10.538  11.907  65.916  1.00  0.00    -0.306 A  
HETATM   16  C   UNL     1     -10.748  12.952  66.817  1.00  0.00    -0.276 A  
HETATM   17  C   UNL     1     -12.256  12.794  64.474  1.00  0.00    -0.500 A  
HETATM   18  C   UNL     1     -12.468  13.832  65.374  1.00  0.00    -0.532 A  
HETATM   19  C   UNL     1     -11.287  11.832  64.742  1.00  0.00    -0.313 A  
ENDBRANCH  13  14
ENDBRANCH   5  13
ENDBRANCH   4   5
ENDBRANCH   2   4
TORSDOF 6
ENDMDL
MODEL       33
REMARK 921   NORMALIZED FREE ENERGY PREDICTED BY IDOCK:   -5.18 KCAL/MOL
REMARK 922        TOTAL FREE ENERGY PREDICTED BY IDOCK:   -7.85 KCAL/MOL
REMARK 923 INTER-LIGAND FREE ENERGY PREDICTED BY IDOCK:   -7.02 KCAL/MOL
REMARK 924 INTRA-LIGAND FREE ENERGY PREDICTED BY IDOCK:   -0.83 KCAL/MOL
REMARK 927      BINDING AFFINITY PREDICTED BY RF-SCORE:    0.00 PKD
ROOT
HETATM    1  C   UNL     1     -10.856  10.290  69.602  1.00  0.00    -0.271 C  
HETATM    2  N   UNL     1     -12.068  11.107  69.771  1.00  0.00    -0.337 NA 
HETATM    3  C   UNL     1     -12.649  10.856  71.092  1.00  0.00    -0.428 C  
ENDROOT
BRANCH   2   4
HETATM    4  C   UNL     1     -11.700  12.534  69.602  1.00  0.00    -0.302 C  
BRANCH   4   5
HETATM    5  C   UNL     1     -11.464  13.136  68.177  1.00  0.00    -0.314 C  
BRANCH   5   6
HETATM    6  O   UNL     1     -12.268  12.459  67.186  1.00  0.00    -0.492 OA 
BRANCH   6   7
HETATM    7  C   UNL     1     -11.608  12.146  66.021  1.00  0.00    -0.358 A  
HETATM    8  C   UNL     1     -10.395  11.454  65.948  1.00  0.00    -0.299 A  
HETATM    9  C   UNL     1     -12.189  12.601  64.835  1.00  0.00    -0.531 A  
HETATM   10  C   UNL     1      -9.814  11.150  64.715  1.00  0.00    -0.326 A  
HETATM   11  C   UNL     1     -10.425  11.564  63.538  1.00  0.00    -0.486 A  
HETATM   12  C   UNL     1     -11.604  12.304  63.598  1.00  0.00    -0.581 A  
ENDBRANCH   6   7
ENDBRANCH   5   6
BRANCH   5  13
HETATM   13  O   UNL     1     -11.893  14.508  68.285  1.00  0.00    -0.323 OA 
BRANCH  13  14
HETATM   14  C   UNL     1     -11.108  15.479  67.733  1.00  0.00    -0.315 A  
HETATM   15  C   UNL     1      -9.905  16.586  65.958  1.00  0.00    -0.348 A  
HETATM   16  C   UNL     1     -10.645  15.496  66.418  1.00  0.00    -0.312 A  
HETATM   17  C   UNL     1     -10.116  17.650  68.112  1.00  0.00    -0.347 A  
HETATM   18  C   UNL     1     -10.858  16.566  68.569  1.00  0.00    -0.349 A  
HETATM   19  C   UNL     1      -9.634  17.659  66.807  1.00  0.00    -0.297 A  
ENDBRANCH  13  14
ENDBRANCH   5  13
ENDBRANCH   4   5
ENDBRANCH   2   4
TORSDOF 6
ENDMDL
MODEL       34
REMARK 921   NORMALIZED FREE ENERGY PREDICTED BY IDOCK:   -5.15 KCAL/MOL
REMARK 922        TOTAL FREE ENERGY PREDICTED BY IDOCK:   -7.82 KCAL/MOL
REMARK 923 INTER-LIGAND FREE ENERGY PREDICTED BY IDOCK:   -6.84 KCAL/MOL
REMARK 924 INTRA-LIGAND FREE ENERGY PREDICTED BY IDOCK:   -0.98 KCAL/MOL
REMARK 927      BINDING AFFINITY PREDICTED BY RF-SCORE:    0.00 PKD
ROOT
HETATM    1  C   UNL     1     -13.813  14.836  71.221  1.00  0.00    -0.390 C  
HETATM    2  N   UNL     1     -12.605  15.392  70.592  1.00  0.00    -0.416 NA 
HETATM    3  C   UNL     1     -11.752  15.999  71.618  1.00  0.00    -0.506 C  
ENDROOT
BRANCH   2   4
HETATM    4  C   UNL     1     -11.900  14.299  69.878  1.00  0.00    -0.322 C  
BRANCH   4   5
HETATM    5  C   UNL     1     -11.571  14.422  68.353  1.00  0.00    -0.319 C  
BRANCH   5   6
HETATM    6  O   UNL     1     -12.496  13.651  67.557  1.00  0.00    -0.171 OA 
BRANCH   6   7
HETATM    7  C   UNL     1     -12.013  13.255  66.331  1.00  0.00    -0.410 A  
HETATM    8  C   UNL     1     -10.920  12.406  66.137  1.00  0.00    -0.321 A  
HETATM    9  C   UNL     1     -12.653  13.787  65.209  1.00  0.00    -0.510 A  
HETATM   10  C   UNL     1     -10.521  12.030  64.853  1.00  0.00    -0.325 A  
HETATM   11  C   UNL     1     -11.194  12.525  63.743  1.00  0.00    -0.524 A  
HETATM   12  C   UNL     1     -12.250  13.417  63.920  1.00  0.00    -0.478 A  
ENDBRANCH   6   7
ENDBRANCH   5   6
BRANCH   5  13
HETATM   13  O   UNL     1     -11.738  15.824  68.057  1.00  0.00    -0.279 OA 
BRANCH  13  14
HETATM   14  C   UNL     1     -10.625  16.568  67.791  1.00  0.00    -0.332 A  
HETATM   15  C   UNL     1      -8.940  18.237  68.235  1.00  0.00    -0.318 A  
HETATM   16  C   UNL     1     -10.131  17.600  68.588  1.00  0.00    -0.377 A  
HETATM   17  C   UNL     1      -8.725  16.795  66.314  1.00  0.00    -0.342 A  
HETATM   18  C   UNL     1      -9.910  16.158  66.668  1.00  0.00    -0.262 A  
HETATM   19  C   UNL     1      -8.242  17.840  67.096  1.00  0.00    -0.233 A  
ENDBRANCH  13  14
ENDBRANCH   5  13
ENDBRANCH   4   5
ENDBRANCH   2   4
TORSDOF 6
ENDMDL
MODEL       35
REMARK 921   NORMALIZED FREE ENERGY PREDICTED BY IDOCK:   -5.14 KCAL/MOL
REMARK 922        TOTAL FREE ENERGY PREDICTED BY IDOCK:   -7.80 KCAL/MOL
REMARK 923 INTER-LIGAND FREE ENERGY PREDICTED BY IDOCK:   -6.94 KCAL/MOL
REMARK 924 INTRA-LIGAND FREE ENERGY PREDICTED BY IDOCK:   -0.87 KCAL/MOL
REMARK 927      BINDING AFFINITY PREDICTED BY RF-SCORE:    0.00 PKD
ROOT
HETATM    1  C   UNL     1     -12.442  13.399  70.909  1.00  0.00    -0.359 C  
HETATM    2  N   UNL     1     -12.544  14.832  70.590  1.00  0.00    -0.335 NA 
HETATM    3  C   UNL     1     -13.177  15.540  71.706  1.00  0.00    -0.481 C  
ENDROOT
BRANCH   2   4
HETATM    4  C   UNL     1     -11.181  15.352  70.321  1.00  0.00    -0.309 C  
BRANCH   4   5
HETATM    5  C   UNL     1     -10.808  15.929  68.915  1.00  0.00    -0.274 C  
BRANCH   5   6
HETATM    6  O   UNL     1     -11.812  15.592  67.932  1.00  0.00    -0.240 OA 
BRANCH   6   7
HETATM    7  C   UNL     1     -11.424  14.649  67.009  1.00  0.00    -0.368 A  
HETATM    8  C   UNL     1     -10.681  14.916  65.856  1.00  0.00    -0.329 A  
HETATM    9  C   UNL     1     -11.852  13.340  67.240  1.00  0.00    -0.421 A  
HETATM   10  C   UNL     1     -10.301  13.887  64.990  1.00  0.00    -0.418 A  
HETATM   11  C   UNL     1     -10.689  12.580  65.254  1.00  0.00    -0.318 A  
HETATM   12  C   UNL     1     -11.478  12.307  66.370  1.00  0.00    -0.434 A  
ENDBRANCH   6   7
ENDBRANCH   5   6
BRANCH   5  13
HETATM   13  O   UNL     1     -10.784  17.359  69.103  1.00  0.00    -0.247 OA 
BRANCH  13  14
HETATM   14  C   UNL     1     -10.081  18.118  68.212  1.00  0.00    -0.386 A  
HETATM   15  C   UNL     1      -8.134  18.790  66.954  1.00  0.00    -0.267 A  
HETATM   16  C   UNL     1      -8.719  17.995  67.941  1.00  0.00    -0.258 A  
HETATM   17  C   UNL     1     -10.274  19.803  66.491  1.00  0.00    -0.606 A  
HETATM   18  C   UNL     1     -10.856  19.008  67.472  1.00  0.00    -0.478 A  
HETATM   19  C   UNL     1      -8.910  19.699  66.235  1.00  0.00    -0.410 A  
ENDBRANCH  13  14
ENDBRANCH   5  13
ENDBRANCH   4   5
ENDBRANCH   2   4
TORSDOF 6
ENDMDL
MODEL       36
REMARK 921   NORMALIZED FREE ENERGY PREDICTED BY IDOCK:   -5.14 KCAL/MOL
REMARK 922        TOTAL FREE ENERGY PREDICTED BY IDOCK:   -7.79 KCAL/MOL
REMARK 923 INTER-LIGAND FREE ENERGY PREDICTED BY IDOCK:   -6.94 KCAL/MOL
REMARK 924 INTRA-LIGAND FREE ENERGY PREDICTED BY IDOCK:   -0.85 KCAL/MOL
REMARK 927      BINDING AFFINITY PREDICTED BY RF-SCORE:    0.00 PKD
ROOT
HETATM    1  C   UNL     1     -14.075  14.634  71.621  1.00  0.00    -0.488 C  
HETATM    2  N   UNL     1     -13.024  15.234  70.785  1.00  0.00    -0.436 NA 
HETATM    3  C   UNL     1     -12.095  15.989  71.630  1.00  0.00    -0.472 C  
ENDROOT
BRANCH   2   4
HETATM    4  C   UNL     1     -12.329  14.148  70.051  1.00  0.00    -0.344 C  
BRANCH   4   5
HETATM    5  C   UNL     1     -11.929  14.327  68.549  1.00  0.00    -0.317 C  
BRANCH   5   6
HETATM    6  O   UNL     1     -10.512  14.569  68.413  1.00  0.00    -0.234 OA 
BRANCH   6   7
HETATM    7  C   UNL     1     -10.185  15.714  67.724  1.00  0.00    -0.252 A  
HETATM    8  C   UNL     1      -9.317  15.770  66.630  1.00  0.00    -0.284 A  
HETATM    9  C   UNL     1     -10.739  16.905  68.199  1.00  0.00    -0.375 A  
HETATM   10  C   UNL     1      -9.070  16.976  65.969  1.00  0.00    -0.172 A  
HETATM   11  C   UNL     1      -9.665  18.148  66.418  1.00  0.00    -0.329 A  
HETATM   12  C   UNL     1     -10.487  18.116  67.543  1.00  0.00    -0.425 A  
ENDBRANCH   6   7
ENDBRANCH   5   6
BRANCH   5  13
HETATM   13  O   UNL     1     -12.260  13.066  67.931  1.00  0.00    -0.249 OA 
BRANCH  13  14
HETATM   14  C   UNL     1     -11.912  12.872  66.625  1.00  0.00    -0.366 A  
HETATM   15  C   UNL     1     -10.910  11.700  64.769  1.00  0.00    -0.367 A  
HETATM   16  C   UNL     1     -11.136  11.820  66.142  1.00  0.00    -0.358 A  
HETATM   17  C   UNL     1     -12.257  13.660  64.367  1.00  0.00    -0.436 A  
HETATM   18  C   UNL     1     -12.485  13.777  65.734  1.00  0.00    -0.527 A  
HETATM   19  C   UNL     1     -11.464  12.623  63.884  1.00  0.00    -0.509 A  
ENDBRANCH  13  14
ENDBRANCH   5  13
ENDBRANCH   4   5
ENDBRANCH   2   4
TORSDOF 6
ENDMDL
MODEL       37
REMARK 921   NORMALIZED FREE ENERGY PREDICTED BY IDOCK:   -5.10 KCAL/MOL
REMARK 922        TOTAL FREE ENERGY PREDICTED BY IDOCK:   -7.74 KCAL/MOL
REMARK 923 INTER-LIGAND FREE ENERGY PREDICTED BY IDOCK:   -7.15 KCAL/MOL
REMARK 924 INTRA-LIGAND FREE ENERGY PREDICTED BY IDOCK:   -0.59 KCAL/MOL
REMARK 927      BINDING AFFINITY PREDICTED BY RF-SCORE:    0.00 PKD
ROOT
HETATM    1  C   UNL     1      -8.964  10.535  68.953  1.00  0.00    -0.172 C  
HETATM    2  N   UNL     1      -9.893  11.240  68.056  1.00  0.00    -0.173 NA 
HETATM    3  C   UNL     1     -11.255  10.744  68.269  1.00  0.00    -0.297 C  
ENDROOT
BRANCH   2   4
HETATM    4  C   UNL     1      -9.796  12.696  68.328  1.00  0.00    -0.227 C  
BRANCH   4   5
HETATM    5  C   UNL     1     -11.068  13.605  68.273  1.00  0.00    -0.256 C  
BRANCH   5   6
HETATM    6  O   UNL     1     -11.103  14.518  69.392  1.00  0.00    -0.256 OA 
BRANCH   6   7
HETATM    7  C   UNL     1     -12.056  14.232  70.342  1.00  0.00    -0.339 A  
HETATM    8  C   UNL     1     -12.313  12.959  70.860  1.00  0.00    -0.365 A  
HETATM    9  C   UNL     1     -12.843  15.301  70.775  1.00  0.00    -0.494 A  
HETATM   10  C   UNL     1     -13.280  12.768  71.850  1.00  0.00    -0.511 A  
HETATM   11  C   UNL     1     -14.024  13.847  72.312  1.00  0.00    -0.663 A  
HETATM   12  C   UNL     1     -13.818  15.111  71.763  1.00  0.00    -0.605 A  
ENDBRANCH   6   7
ENDBRANCH   5   6
BRANCH   5  13
HETATM   13  O   UNL     1     -10.927  14.354  67.049  1.00  0.00    -0.292 OA 
BRANCH  13  14
HETATM   14  C   UNL     1     -11.157  13.713  65.866  1.00  0.00    -0.284 A  
HETATM   15  C   UNL     1     -10.552  12.713  63.755  1.00  0.00    -0.432 A  
HETATM   16  C   UNL     1     -10.198  13.439  64.893  1.00  0.00    -0.339 A  
HETATM   17  C   UNL     1     -12.811  12.510  64.577  1.00  0.00    -0.352 A  
HETATM   18  C   UNL     1     -12.456  13.231  65.712  1.00  0.00    -0.480 A  
HETATM   19  C   UNL     1     -11.859  12.255  63.593  1.00  0.00    -0.610 A  
ENDBRANCH  13  14
ENDBRANCH   5  13
ENDBRANCH   4   5
ENDBRANCH   2   4
TORSDOF 6
ENDMDL
MODEL       38
REMARK 921   NORMALIZED FREE ENERGY PREDICTED BY IDOCK:   -5.06 KCAL/MOL
REMARK 922        TOTAL FREE ENERGY PREDICTED BY IDOCK:   -7.69 KCAL/MOL
REMARK 923 INTER-LIGAND FREE ENERGY PREDICTED BY IDOCK:   -6.81 KCAL/MOL
REMARK 924 INTRA-LIGAND FREE ENERGY PREDICTED BY IDOCK:   -0.88 KCAL/MOL
REMARK 927      BINDING AFFINITY PREDICTED BY RF-SCORE:    0.00 PKD
ROOT
HETATM    1  C   UNL     1     -10.716  10.270  69.769  1.00  0.00    -0.285 C  
HETATM    2  N   UNL     1     -11.991  11.003  69.747  1.00  0.00    -0.328 NA 
HETATM    3  C   UNL     1     -12.682  10.826  71.027  1.00  0.00    -0.415 C  
ENDROOT
BRANCH   2   4
HETATM    4  C   UNL     1     -11.708  12.434  69.476  1.00  0.00    -0.322 C  
BRANCH   4   5
HETATM    5  C   UNL     1     -11.496  12.945  68.013  1.00  0.00    -0.319 C  
BRANCH   5   6
HETATM    6  O   UNL     1     -12.283  12.178  67.075  1.00  0.00    -0.522 OA 
BRANCH   6   7
HETATM    7  C   UNL     1     -11.758  12.101  65.806  1.00  0.00    -0.327 A  
HETATM    8  C   UNL     1     -12.410  12.518  64.643  1.00  0.00    -0.547 A  
HETATM    9  C   UNL     1     -10.493  11.518  65.692  1.00  0.00    -0.317 A  
HETATM   10  C   UNL     1     -11.783  12.433  63.397  1.00  0.00    -0.554 A  
HETATM   11  C   UNL     1     -10.504  11.897  63.299  1.00  0.00    -0.427 A  
HETATM   12  C   UNL     1      -9.866  11.425  64.443  1.00  0.00    -0.303 A  
ENDBRANCH   6   7
ENDBRANCH   5   6
BRANCH   5  13
HETATM   13  O   UNL     1     -11.967  14.308  68.031  1.00  0.00    -0.347 OA 
BRANCH  13  14
HETATM   14  C   UNL     1     -11.087  15.303  67.717  1.00  0.00    -0.318 A  
HETATM   15  C   UNL     1      -9.592  17.140  68.178  1.00  0.00    -0.270 A  
HETATM   16  C   UNL     1     -10.537  16.212  68.619  1.00  0.00    -0.283 A  
HETATM   17  C   UNL     1      -9.725  16.230  65.949  1.00  0.00    -0.354 A  
HETATM   18  C   UNL     1     -10.664  15.304  66.389  1.00  0.00    -0.318 A  
HETATM   19  C   UNL     1      -9.192  17.154  66.843  1.00  0.00    -0.255 A  
ENDBRANCH  13  14
ENDBRANCH   5  13
ENDBRANCH   4   5
ENDBRANCH   2   4
TORSDOF 6
ENDMDL
MODEL       39
REMARK 921   NORMALIZED FREE ENERGY PREDICTED BY IDOCK:   -5.05 KCAL/MOL
REMARK 922        TOTAL FREE ENERGY PREDICTED BY IDOCK:   -7.68 KCAL/MOL
REMARK 923 INTER-LIGAND FREE ENERGY PREDICTED BY IDOCK:   -6.73 KCAL/MOL
REMARK 924 INTRA-LIGAND FREE ENERGY PREDICTED BY IDOCK:   -0.95 KCAL/MOL
REMARK 927      BINDING AFFINITY PREDICTED BY RF-SCORE:    0.00 PKD
ROOT
HETATM    1  C   UNL     1     -10.381  12.382  63.813  1.00  0.00    -0.425 C  
HETATM    2  N   UNL     1     -11.703  12.830  63.348  1.00  0.00    -0.522 NA 
HETATM    3  C   UNL     1     -12.677  11.750  63.522  1.00  0.00    -0.306 C  
ENDROOT
BRANCH   2   4
HETATM    4  C   UNL     1     -12.088  14.038  64.119  1.00  0.00    -0.422 C  
BRANCH   4   5
HETATM    5  C   UNL     1     -11.299  14.451  65.405  1.00  0.00    -0.339 C  
BRANCH   5   6
HETATM    6  O   UNL     1     -10.772  15.791  65.284  1.00  0.00    -0.385 OA 
BRANCH   6   7
HETATM    7  C   UNL     1     -10.067  16.236  66.377  1.00  0.00    -0.305 A  
HETATM    8  C   UNL     1     -10.394  17.362  67.138  1.00  0.00    -0.325 A  
HETATM    9  C   UNL     1      -8.915  15.518  66.709  1.00  0.00    -0.295 A  
HETATM   10  C   UNL     1      -9.637  17.719  68.256  1.00  0.00    -0.312 A  
HETATM   11  C   UNL     1      -8.521  16.970  68.608  1.00  0.00    -0.262 A  
HETATM   12  C   UNL     1      -8.151  15.879  67.825  1.00  0.00    -0.155 A  
ENDBRANCH   6   7
ENDBRANCH   5   6
BRANCH   5  13
HETATM   13  O   UNL     1     -12.280  14.417  66.462  1.00  0.00    -0.424 OA 
BRANCH  13  14
HETATM   14  C   UNL     1     -12.029  13.639  67.555  1.00  0.00    -0.358 A  
HETATM   15  C   UNL     1     -11.899  13.136  69.912  1.00  0.00    -0.378 A  
HETATM   16  C   UNL     1     -12.116  14.054  68.882  1.00  0.00    -0.351 A  
HETATM   17  C   UNL     1     -11.539  11.389  68.289  1.00  0.00    -0.376 A  
HETATM   18  C   UNL     1     -11.759  12.303  67.264  1.00  0.00    -0.394 A  
HETATM   19  C   UNL     1     -11.604  11.807  69.615  1.00  0.00    -0.393 A  
ENDBRANCH  13  14
ENDBRANCH   5  13
ENDBRANCH   4   5
ENDBRANCH   2   4
TORSDOF 6
ENDMDL
MODEL       40
REMARK 921   NORMALIZED FREE ENERGY PREDICTED BY IDOCK:   -5.04 KCAL/MOL
REMARK 922        TOTAL FREE ENERGY PREDICTED BY IDOCK:   -7.65 KCAL/MOL
REMARK 923 INTER-LIGAND FREE ENERGY PREDICTED BY IDOCK:   -6.78 KCAL/MOL
REMARK 924 INTRA-LIGAND FREE ENERGY PREDICTED BY IDOCK:   -0.87 KCAL/MOL
REMARK 927      BINDING AFFINITY PREDICTED BY RF-SCORE:    0.00 PKD
ROOT
HETATM    1  C   UNL     1     -12.409  13.262  66.061  1.00  0.00    -0.386 C  
HETATM    2  N   UNL     1     -11.329  14.254  65.945  1.00  0.00    -0.322 NA 
HETATM    3  C   UNL     1     -11.468  14.988  64.684  1.00  0.00    -0.381 C  
ENDROOT
BRANCH   2   4
HETATM    4  C   UNL     1     -11.399  15.165  67.114  1.00  0.00    -0.290 C  
BRANCH   4   5
HETATM    5  C   UNL     1     -11.723  14.612  68.541  1.00  0.00    -0.316 C  
BRANCH   5   6
HETATM    6  O   UNL     1     -10.594  13.895  69.089  1.00  0.00    -0.201 OA 
BRANCH   6   7
HETATM    7  C   UNL     1     -10.707  12.524  69.050  1.00  0.00    -0.097 A  
HETATM    8  C   UNL     1      -9.798  11.664  68.428  1.00  0.00    -0.202 A  
HETATM    9  C   UNL     1     -11.845  11.977  69.648  1.00  0.00    -0.401 A  
HETATM   10  C   UNL     1      -9.976  10.279  68.469  1.00  0.00    -0.177 A  
HETATM   11  C   UNL     1     -11.085   9.740  69.109  1.00  0.00    -0.158 A  
HETATM   12  C   UNL     1     -12.028  10.589  69.685  1.00  0.00    -0.279 A  
ENDBRANCH   6   7
ENDBRANCH   5   6
BRANCH   5  13
HETATM   13  O   UNL     1     -11.975  15.787  69.338  1.00  0.00    -0.370 OA 
BRANCH  13  14
HETATM   14  C   UNL     1     -12.452  15.619  70.607  1.00  0.00    -0.417 A  
HETATM   15  C   UNL     1     -13.907  14.713  72.305  1.00  0.00    -0.583 A  
HETATM   16  C   UNL     1     -13.566  14.858  70.959  1.00  0.00    -0.402 A  
HETATM   17  C   UNL     1     -12.011  16.060  72.941  1.00  0.00    -0.611 A  
HETATM   18  C   UNL     1     -11.669  16.202  71.601  1.00  0.00    -0.558 A  
HETATM   19  C   UNL     1     -13.135  15.320  73.295  1.00  0.00    -0.630 A  
ENDBRANCH  13  14
ENDBRANCH   5  13
ENDBRANCH   4   5
ENDBRANCH   2   4
TORSDOF 6
ENDMDL
MODEL       41
REMARK 921   NORMALIZED FREE ENERGY PREDICTED BY IDOCK:   -5.03 KCAL/MOL
REMARK 922        TOTAL FREE ENERGY PREDICTED BY IDOCK:   -7.64 KCAL/MOL
REMARK 923 INTER-LIGAND FREE ENERGY PREDICTED BY IDOCK:   -6.75 KCAL/MOL
REMARK 924 INTRA-LIGAND FREE ENERGY PREDICTED BY IDOCK:   -0.89 KCAL/MOL
REMARK 927      BINDING AFFINITY PREDICTED BY RF-SCORE:    0.00 PKD
ROOT
HETATM    1  C   UNL     1     -10.670  10.178  70.215  1.00  0.00    -0.293 C  
HETATM    2  N   UNL     1     -11.985  10.744  69.879  1.00  0.00    -0.321 NA 
HETATM    3  C   UNL     1     -12.943  10.426  70.941  1.00  0.00    -0.387 C  
ENDROOT
BRANCH   2   4
HETATM    4  C   UNL     1     -11.836  12.210  69.703  1.00  0.00    -0.322 C  
BRANCH   4   5
HETATM    5  C   UNL     1     -11.728  12.836  68.274  1.00  0.00    -0.344 C  
BRANCH   5   6
HETATM    6  O   UNL     1     -10.400  13.348  68.029  1.00  0.00    -0.229 OA 
BRANCH   6   7
HETATM    7  C   UNL     1     -10.348  14.677  67.676  1.00  0.00    -0.233 A  
HETATM    8  C   UNL     1     -10.908  15.724  68.414  1.00  0.00    -0.297 A  
HETATM    9  C   UNL     1      -9.721  14.974  66.464  1.00  0.00    -0.285 A  
HETATM   10  C   UNL     1     -10.776  17.050  67.994  1.00  0.00    -0.365 A  
HETATM   11  C   UNL     1     -10.107  17.341  66.811  1.00  0.00    -0.302 A  
HETATM   12  C   UNL     1      -9.594  16.302  66.038  1.00  0.00    -0.371 A  
ENDBRANCH   6   7
ENDBRANCH   5   6
BRANCH   5  13
HETATM   13  O   UNL     1     -11.992  11.740  67.375  1.00  0.00    -0.617 OA 
BRANCH  13  14
HETATM   14  C   UNL     1     -11.784  11.932  66.039  1.00  0.00    -0.135 A  
HETATM   15  C   UNL     1     -12.153  12.950  63.882  1.00  0.00    -0.553 A  
HETATM   16  C   UNL     1     -12.513  12.795  65.222  1.00  0.00    -0.528 A  
HETATM   17  C   UNL     1     -10.323  11.409  64.187  1.00  0.00    -0.400 A  
HETATM   18  C   UNL     1     -10.680  11.258  65.522  1.00  0.00    -0.283 A  
HETATM   19  C   UNL     1     -11.063  12.253  63.364  1.00  0.00    -0.487 A  
ENDBRANCH  13  14
ENDBRANCH   5  13
ENDBRANCH   4   5
ENDBRANCH   2   4
TORSDOF 6
ENDMDL
MODEL       42
REMARK 921   NORMALIZED FREE ENERGY PREDICTED BY IDOCK:   -4.98 KCAL/MOL
REMARK 922        TOTAL FREE ENERGY PREDICTED BY IDOCK:   -7.57 KCAL/MOL
REMARK 923 INTER-LIGAND FREE ENERGY PREDICTED BY IDOCK:   -6.75 KCAL/MOL
REMARK 924 INTRA-LIGAND FREE ENERGY PREDICTED BY IDOCK:   -0.82 KCAL/MOL
REMARK 927      BINDING AFFINITY PREDICTED BY RF-SCORE:    0.00 PKD
ROOT
HETATM    1  C   UNL     1     -11.007  15.647  70.088  1.00  0.00    -0.339 C  
HETATM    2  N   UNL     1     -10.833  14.394  69.337  1.00  0.00    -0.233 NA 
HETATM    3  C   UNL     1     -12.034  14.127  68.542  1.00  0.00    -0.332 C  
ENDROOT
BRANCH   2   4
HETATM    4  C   UNL     1      -9.630  14.522  68.478  1.00  0.00    -0.220 C  
BRANCH   4   5
HETATM    5  C   UNL     1      -9.742  15.094  67.026  1.00  0.00    -0.231 C  
BRANCH   5   6
HETATM    6  O   UNL     1      -8.808  16.177  66.820  1.00  0.00    -0.203 OA 
BRANCH   6   7
HETATM    7  C   UNL     1      -9.257  17.412  67.226  1.00  0.00    -0.234 A  
HETATM    8  C   UNL     1      -8.835  18.078  68.380  1.00  0.00    -0.300 A  
HETATM    9  C   UNL     1     -10.241  18.008  66.433  1.00  0.00    -0.393 A  
HETATM   10  C   UNL     1      -9.322  19.349  68.696  1.00  0.00    -0.448 A  
HETATM   11  C   UNL     1     -10.263  19.956  67.874  1.00  0.00    -0.571 A  
HETATM   12  C   UNL     1     -10.736  19.279  66.752  1.00  0.00    -0.526 A  
ENDBRANCH   6   7
ENDBRANCH   5   6
BRANCH   5  13
HETATM   13  O   UNL     1      -9.387  13.988  66.171  1.00  0.00    -0.225 OA 
BRANCH  13  14
HETATM   14  C   UNL     1     -10.270  13.609  65.201  1.00  0.00    -0.328 A  
HETATM   15  C   UNL     1     -11.299  12.082  63.641  1.00  0.00    -0.536 A  
HETATM   16  C   UNL     1     -10.297  12.366  64.571  1.00  0.00    -0.351 A  
HETATM   17  C   UNL     1     -12.257  14.267  63.994  1.00  0.00    -0.336 A  
HETATM   18  C   UNL     1     -11.262  14.548  64.923  1.00  0.00    -0.395 A  
HETATM   19  C   UNL     1     -12.273  13.035  63.347  1.00  0.00    -0.552 A  
ENDBRANCH  13  14
ENDBRANCH   5  13
ENDBRANCH   4   5
ENDBRANCH   2   4
TORSDOF 6
ENDMDL
MODEL       43
REMARK 921   NORMALIZED FREE ENERGY PREDICTED BY IDOCK:   -4.93 KCAL/MOL
REMARK 922        TOTAL FREE ENERGY PREDICTED BY IDOCK:   -7.52 KCAL/MOL
REMARK 923 INTER-LIGAND FREE ENERGY PREDICTED BY IDOCK:   -7.25 KCAL/MOL
REMARK 924 INTRA-LIGAND FREE ENERGY PREDICTED BY IDOCK:   -0.27 KCAL/MOL
REMARK 927      BINDING AFFINITY PREDICTED BY RF-SCORE:    0.00 PKD
ROOT
HETATM    1  C   UNL     1      -9.529   8.666  69.185  1.00  0.00    -0.157 C  
HETATM    2  N   UNL     1     -10.760   9.414  69.479  1.00  0.00    -0.223 NA 
HETATM    3  C   UNL     1     -11.084   9.289  70.902  1.00  0.00    -0.306 C  
ENDROOT
BRANCH   2   4
HETATM    4  C   UNL     1     -10.554  10.832  69.092  1.00  0.00    -0.222 C  
BRANCH   4   5
HETATM    5  C   UNL     1     -11.774  11.778  68.842  1.00  0.00    -0.323 C  
BRANCH   5   6
HETATM    6  O   UNL     1     -11.478  13.130  69.257  1.00  0.00    -0.273 OA 
BRANCH   6   7
HETATM    7  C   UNL     1     -12.279  13.613  70.266  1.00  0.00    -0.353 A  
HETATM    8  C   UNL     1     -12.831  12.839  71.291  1.00  0.00    -0.355 A  
HETATM    9  C   UNL     1     -12.585  14.975  70.218  1.00  0.00    -0.363 A  
HETATM   10  C   UNL     1     -13.606  13.423  72.295  1.00  0.00    -0.703 A  
HETATM   11  C   UNL     1     -13.865  14.788  72.267  1.00  0.00    -0.590 A  
HETATM   12  C   UNL     1     -13.368  15.562  71.220  1.00  0.00    -0.588 A  
ENDBRANCH   6   7
ENDBRANCH   5   6
BRANCH   5  13
HETATM   13  O   UNL     1     -11.970  11.750  67.413  1.00  0.00    -0.617 OA 
BRANCH  13  14
HETATM   14  C   UNL     1     -11.567  12.829  66.681  1.00  0.00    -0.370 A  
HETATM   15  C   UNL     1      -9.968  14.371  65.738  1.00  0.00    -0.354 A  
HETATM   16  C   UNL     1     -10.257  13.294  66.578  1.00  0.00    -0.283 A  
HETATM   17  C   UNL     1     -12.286  14.496  65.086  1.00  0.00    -0.324 A  
HETATM   18  C   UNL     1     -12.573  13.421  65.919  1.00  0.00    -0.412 A  
HETATM   19  C   UNL     1     -10.983  14.976  64.998  1.00  0.00    -0.436 A  
ENDBRANCH  13  14
ENDBRANCH   5  13
ENDBRANCH   4   5
ENDBRANCH   2   4
TORSDOF 6
ENDMDL
MODEL       44
REMARK 921   NORMALIZED FREE ENERGY PREDICTED BY IDOCK:   -4.92 KCAL/MOL
REMARK 922        TOTAL FREE ENERGY PREDICTED BY IDOCK:   -7.49 KCAL/MOL
REMARK 923 INTER-LIGAND FREE ENERGY PREDICTED BY IDOCK:   -6.74 KCAL/MOL
REMARK 924 INTRA-LIGAND FREE ENERGY PREDICTED BY IDOCK:   -0.76 KCAL/MOL
REMARK 927      BINDING AFFINITY PREDICTED BY RF-SCORE:    0.00 PKD
ROOT
HETATM    1  C   UNL     1     -11.014   6.414  67.562  1.00  0.00    -0.364 C  
HETATM    2  N   UNL     1      -9.868   7.337  67.564  1.00  0.00    -0.146 NA 
HETATM    3  C   UNL     1      -8.688   6.656  67.024  1.00  0.00    -0.113 C  
ENDROOT
BRANCH   2   4
HETATM    4  C   UNL     1     -10.223   8.530  66.757  1.00  0.00    -0.300 C  
BRANCH   4   5
HETATM    5  C   UNL     1     -10.632   9.872  67.451  1.00  0.00    -0.277 C  
BRANCH   5   6
HETATM    6  O   UNL     1     -10.122   9.936  68.801  1.00  0.00    -0.161 OA 
BRANCH   6   7
HETATM    7  C   UNL     1     -11.073  10.166  69.768  1.00  0.00    -0.279 A  
HETATM    8  C   UNL     1     -11.712  11.390  69.987  1.00  0.00    -0.416 A  
HETATM    9  C   UNL     1     -11.376   9.094  70.611  1.00  0.00    -0.323 A  
HETATM   10  C   UNL     1     -12.693  11.523  70.973  1.00  0.00    -0.426 A  
HETATM   11  C   UNL     1     -13.024  10.437  71.774  1.00  0.00    -0.580 A  
HETATM   12  C   UNL     1     -12.354   9.227  71.604  1.00  0.00    -0.450 A  
ENDBRANCH   6   7
ENDBRANCH   5   6
BRANCH   5  13
HETATM   13  O   UNL     1     -10.008  10.899  66.655  1.00  0.00    -0.195 OA 
BRANCH  13  14
HETATM   14  C   UNL     1     -10.789  11.621  65.799  1.00  0.00    -0.281 A  
HETATM   15  C   UNL     1     -12.491  13.222  65.198  1.00  0.00    -0.525 A  
HETATM   16  C   UNL     1     -11.812  12.490  66.173  1.00  0.00    -0.459 A  
HETATM   17  C   UNL     1     -11.107  12.239  63.484  1.00  0.00    -0.533 A  
HETATM   18  C   UNL     1     -10.428  11.514  64.457  1.00  0.00    -0.369 A  
HETATM   19  C   UNL     1     -12.144  13.091  63.854  1.00  0.00    -0.541 A  
ENDBRANCH  13  14
ENDBRANCH   5  13
ENDBRANCH   4   5
ENDBRANCH   2   4
TORSDOF 6
ENDMDL
MODEL       45
REMARK 921   NORMALIZED FREE ENERGY PREDICTED BY IDOCK:   -4.91 KCAL/MOL
REMARK 922        TOTAL FREE ENERGY PREDICTED BY IDOCK:   -7.49 KCAL/MOL
REMARK 923 INTER-LIGAND FREE ENERGY PREDICTED BY IDOCK:   -7.36 KCAL/MOL
REMARK 924 INTRA-LIGAND FREE ENERGY PREDICTED BY IDOCK:   -0.13 KCAL/MOL
REMARK 927      BINDING AFFINITY PREDICTED BY RF-SCORE:    0.00 PKD
ROOT
HETATM    1  C   UNL     1     -10.613  17.026  68.213  1.00  0.00    -0.372 C  
HETATM    2  N   UNL     1     -10.425  16.437  66.878  1.00  0.00    -0.303 NA 
HETATM    3  C   UNL     1      -9.113  16.823  66.351  1.00  0.00    -0.289 C  
ENDROOT
BRANCH   2   4
HETATM    4  C   UNL     1     -10.552  14.963  66.991  1.00  0.00    -0.289 C  
BRANCH   4   5
HETATM    5  C   UNL     1     -11.750  14.321  67.767  1.00  0.00    -0.374 C  
BRANCH   5   6
HETATM    6  O   UNL     1     -12.625  13.602  66.870  1.00  0.00    -0.233 OA 
BRANCH   6   7
HETATM    7  C   UNL     1     -11.985  12.919  65.862  1.00  0.00    -0.448 A  
HETATM    8  C   UNL     1     -11.228  11.757  66.036  1.00  0.00    -0.352 A  
HETATM    9  C   UNL     1     -12.076  13.471  64.582  1.00  0.00    -0.450 A  
HETATM   10  C   UNL     1     -10.641  11.111  64.946  1.00  0.00    -0.356 A  
HETATM   11  C   UNL     1     -10.779  11.640  63.669  1.00  0.00    -0.500 A  
HETATM   12  C   UNL     1     -11.483  12.829  63.488  1.00  0.00    -0.521 A  
ENDBRANCH   6   7
ENDBRANCH   5   6
BRANCH   5  13
HETATM   13  O   UNL     1     -11.135  13.392  68.682  1.00  0.00    -0.242 OA 
BRANCH  13  14
HETATM   14  C   UNL     1     -11.872  12.936  69.737  1.00  0.00    -0.310 A  
HETATM   15  C   UNL     1     -12.745  11.273  71.252  1.00  0.00    -0.510 A  
HETATM   16  C   UNL     1     -12.015  11.600  70.108  1.00  0.00    -0.441 A  
HETATM   17  C   UNL     1     -13.160  13.612  71.667  1.00  0.00    -0.455 A  
HETATM   18  C   UNL     1     -12.430  13.937  70.529  1.00  0.00    -0.422 A  
HETATM   19  C   UNL     1     -13.323  12.277  72.027  1.00  0.00    -0.491 A  
ENDBRANCH  13  14
ENDBRANCH   5  13
ENDBRANCH   4   5
ENDBRANCH   2   4
TORSDOF 6
ENDMDL
MODEL       46
REMARK 921   NORMALIZED FREE ENERGY PREDICTED BY IDOCK:   -4.91 KCAL/MOL
REMARK 922        TOTAL FREE ENERGY PREDICTED BY IDOCK:   -7.48 KCAL/MOL
REMARK 923 INTER-LIGAND FREE ENERGY PREDICTED BY IDOCK:   -6.92 KCAL/MOL
REMARK 924 INTRA-LIGAND FREE ENERGY PREDICTED BY IDOCK:   -0.56 KCAL/MOL
REMARK 927      BINDING AFFINITY PREDICTED BY RF-SCORE:    0.00 PKD
ROOT
HETATM    1  C   UNL     1     -12.292  12.523  63.601  1.00  0.00    -0.522 C  
HETATM    2  N   UNL     1     -12.360  13.903  64.106  1.00  0.00    -0.668 NA 
HETATM    3  C   UNL     1     -13.153  13.937  65.337  1.00  0.00    -0.189 C  
ENDROOT
BRANCH   2   4
HETATM    4  C   UNL     1     -10.977  14.388  64.337  1.00  0.00    -0.153 C  
BRANCH   4   5
HETATM    5  C   UNL     1     -10.550  14.953  65.732  1.00  0.00    -0.331 C  
BRANCH   5   6
HETATM    6  O   UNL     1      -9.551  14.113  66.350  1.00  0.00    -0.282 OA 
BRANCH   6   7
HETATM    7  C   UNL     1      -9.992  12.862  66.713  1.00  0.00    -0.243 A  
HETATM    8  C   UNL     1      -9.598  11.666  66.106  1.00  0.00    -0.252 A  
HETATM    9  C   UNL     1     -10.937  12.810  67.741  1.00  0.00    -0.266 A  
HETATM   10  C   UNL     1     -10.074  10.436  66.565  1.00  0.00    -0.285 A  
HETATM   11  C   UNL     1     -10.976  10.390  67.621  1.00  0.00    -0.374 A  
HETATM   12  C   UNL     1     -11.420  11.578  68.199  1.00  0.00    -0.385 A  
ENDBRANCH   6   7
ENDBRANCH   5   6
BRANCH   5  13
HETATM   13  O   UNL     1      -9.976  16.244  65.442  1.00  0.00    -0.514 OA 
BRANCH  13  14
HETATM   14  C   UNL     1     -10.164  17.254  66.341  1.00  0.00    -0.331 A  
HETATM   15  C   UNL     1     -10.133  18.289  68.521  1.00  0.00    -0.419 A  
HETATM   16  C   UNL     1      -9.973  17.158  67.719  1.00  0.00    -0.290 A  
HETATM   17  C   UNL     1     -10.645  19.611  66.570  1.00  0.00    -0.591 A  
HETATM   18  C   UNL     1     -10.481  18.486  65.771  1.00  0.00    -0.277 A  
HETATM   19  C   UNL     1     -10.477  19.513  67.948  1.00  0.00    -0.552 A  
ENDBRANCH  13  14
ENDBRANCH   5  13
ENDBRANCH   4   5
ENDBRANCH   2   4
TORSDOF 6
ENDMDL
MODEL       47
REMARK 921   NORMALIZED FREE ENERGY PREDICTED BY IDOCK:   -4.90 KCAL/MOL
REMARK 922        TOTAL FREE ENERGY PREDICTED BY IDOCK:   -7.47 KCAL/MOL
REMARK 923 INTER-LIGAND FREE ENERGY PREDICTED BY IDOCK:   -6.69 KCAL/MOL
REMARK 924 INTRA-LIGAND FREE ENERGY PREDICTED BY IDOCK:   -0.78 KCAL/MOL
REMARK 927      BINDING AFFINITY PREDICTED BY RF-SCORE:    0.00 PKD
ROOT
HETATM    1  C   UNL     1     -12.447  12.054  63.424  1.00  0.00    -0.509 C  
HETATM    2  N   UNL     1     -11.281  11.679  64.237  1.00  0.00    -0.338 NA 
HETATM    3  C   UNL     1     -10.198  11.222  63.362  1.00  0.00    -0.403 C  
ENDROOT
BRANCH   2   4
HETATM    4  C   UNL     1     -10.869  12.856  65.042  1.00  0.00    -0.299 C  
BRANCH   4   5
HETATM    5  C   UNL     1     -11.221  12.946  66.564  1.00  0.00    -0.302 C  
BRANCH   5   6
HETATM    6  O   UNL     1     -12.131  14.037  66.824  1.00  0.00    -0.428 OA 
BRANCH   6   7
HETATM    7  C   UNL     1     -11.594  15.080  67.543  1.00  0.00    -0.301 A  
HETATM    8  C   UNL     1     -10.771  16.078  67.013  1.00  0.00    -0.277 A  
HETATM    9  C   UNL     1     -11.869  15.097  68.912  1.00  0.00    -0.337 A  
HETATM   10  C   UNL     1     -10.298  17.120  67.814  1.00  0.00    -0.347 A  
HETATM   11  C   UNL     1     -10.618  17.157  69.166  1.00  0.00    -0.259 A  
HETATM   12  C   UNL     1     -11.390  16.137  69.719  1.00  0.00    -0.323 A  
ENDBRANCH   6   7
ENDBRANCH   5   6
BRANCH   5  13
HETATM   13  O   UNL     1     -11.876  11.696  66.861  1.00  0.00    -0.577 OA 
BRANCH  13  14
HETATM   14  C   UNL     1     -11.494  11.014  67.981  1.00  0.00    -0.290 A  
HETATM   15  C   UNL     1     -11.482  10.488  70.336  1.00  0.00    -0.427 A  
HETATM   16  C   UNL     1     -11.891  11.310  69.284  1.00  0.00    -0.423 A  
HETATM   17  C   UNL     1     -10.309   9.066  68.781  1.00  0.00    -0.236 A  
HETATM   18  C   UNL     1     -10.720   9.882  67.733  1.00  0.00    -0.332 A  
HETATM   19  C   UNL     1     -10.685   9.372  70.085  1.00  0.00    -0.282 A  
ENDBRANCH  13  14
ENDBRANCH   5  13
ENDBRANCH   4   5
ENDBRANCH   2   4
TORSDOF 6
ENDMDL
MODEL       48
REMARK 921   NORMALIZED FREE ENERGY PREDICTED BY IDOCK:   -4.89 KCAL/MOL
REMARK 922        TOTAL FREE ENERGY PREDICTED BY IDOCK:   -7.46 KCAL/MOL
REMARK 923 INTER-LIGAND FREE ENERGY PREDICTED BY IDOCK:   -6.89 KCAL/MOL
REMARK 924 INTRA-LIGAND FREE ENERGY PREDICTED BY IDOCK:   -0.57 KCAL/MOL
REMARK 927      BINDING AFFINITY PREDICTED BY RF-SCORE:    0.00 PKD
ROOT
HETATM    1  C   UNL     1     -12.407  13.998  66.216  1.00  0.00    -0.448 C  
HETATM    2  N   UNL     1     -12.342  12.576  65.845  1.00  0.00    -0.603 NA 
HETATM    3  C   UNL     1     -12.469  12.440  64.392  1.00  0.00    -0.433 C  
ENDROOT
BRANCH   2   4
HETATM    4  C   UNL     1     -11.054  12.021  66.332  1.00  0.00    -0.318 C  
BRANCH   4   5
HETATM    5  C   UNL     1     -11.019  11.011  67.526  1.00  0.00    -0.281 C  
BRANCH   5   6
HETATM    6  O   UNL     1     -10.013   9.995  67.319  1.00  0.00    -0.179 OA 
BRANCH   6   7
HETATM    7  C   UNL     1     -10.308   8.770  67.870  1.00  0.00    -0.224 A  
HETATM    8  C   UNL     1     -10.221   8.462  69.231  1.00  0.00    -0.211 A  
HETATM    9  C   UNL     1     -10.679   7.760  66.979  1.00  0.00    -0.316 A  
HETATM   10  C   UNL     1     -10.574   7.197  69.706  1.00  0.00    -0.250 A  
HETATM   11  C   UNL     1     -10.990   6.213  68.818  1.00  0.00    -0.421 A  
HETATM   12  C   UNL     1     -11.027   6.488  67.453  1.00  0.00    -0.458 A  
ENDBRANCH   6   7
ENDBRANCH   5   6
BRANCH   5  13
HETATM   13  O   UNL     1     -10.660  11.813  68.670  1.00  0.00    -0.211 OA 
BRANCH  13  14
HETATM   14  C   UNL     1     -11.547  11.903  69.704  1.00  0.00    -0.317 A  
HETATM   15  C   UNL     1     -12.911  11.061  71.508  1.00  0.00    -0.553 A  
HETATM   16  C   UNL     1     -12.061  10.827  70.425  1.00  0.00    -0.443 A  
HETATM   17  C   UNL     1     -12.707  13.440  71.164  1.00  0.00    -0.411 A  
HETATM   18  C   UNL     1     -11.858  13.206  70.088  1.00  0.00    -0.328 A  
HETATM   19  C   UNL     1     -13.240  12.366  71.872  1.00  0.00    -0.486 A  
ENDBRANCH  13  14
ENDBRANCH   5  13
ENDBRANCH   4   5
ENDBRANCH   2   4
TORSDOF 6
ENDMDL
MODEL       49
REMARK 921   NORMALIZED FREE ENERGY PREDICTED BY IDOCK:   -4.88 KCAL/MOL
REMARK 922        TOTAL FREE ENERGY PREDICTED BY IDOCK:   -7.45 KCAL/MOL
REMARK 923 INTER-LIGAND FREE ENERGY PREDICTED BY IDOCK:   -7.12 KCAL/MOL
REMARK 924 INTRA-LIGAND FREE ENERGY PREDICTED BY IDOCK:   -0.33 KCAL/MOL
REMARK 927      BINDING AFFINITY PREDICTED BY RF-SCORE:    0.00 PKD
ROOT
HETATM    1  C   UNL     1     -10.681  16.803  68.029  1.00  0.00    -0.355 C  
HETATM    2  N   UNL     1     -11.125  15.671  67.202  1.00  0.00    -0.270 NA 
HETATM    3  C   UNL     1     -10.444  15.712  65.905  1.00  0.00    -0.344 C  
ENDROOT
BRANCH   2   4
HETATM    4  C   UNL     1     -10.831  14.412  67.930  1.00  0.00    -0.251 C  
BRANCH   4   5
HETATM    5  C   UNL     1     -11.943  13.688  68.758  1.00  0.00    -0.359 C  
BRANCH   5   6
HETATM    6  O   UNL     1     -12.144  12.336  68.289  1.00  0.00    -0.363 OA 
BRANCH   6   7
HETATM    7  C   UNL     1     -11.546  11.364  69.056  1.00  0.00    -0.317 A  
HETATM    8  C   UNL     1     -12.117  10.772  70.187  1.00  0.00    -0.427 A  
HETATM    9  C   UNL     1     -10.254  10.985  68.684  1.00  0.00    -0.211 A  
HETATM   10  C   UNL     1     -11.447   9.765  70.886  1.00  0.00    -0.447 A  
HETATM   11  C   UNL     1     -10.183   9.359  70.479  1.00  0.00    -0.332 A  
HETATM   12  C   UNL     1      -9.579   9.980  69.388  1.00  0.00    -0.237 A  
ENDBRANCH   6   7
ENDBRANCH   5   6
BRANCH   5  13
HETATM   13  O   UNL     1     -11.431  13.656  70.106  1.00  0.00    -0.179 OA 
BRANCH  13  14
HETATM   14  C   UNL     1     -12.073  14.391  71.061  1.00  0.00    -0.349 A  
HETATM   15  C   UNL     1     -12.296  16.152  72.696  1.00  0.00    -0.574 A  
HETATM   16  C   UNL     1     -11.508  15.433  71.795  1.00  0.00    -0.497 A  
HETATM   17  C   UNL     1     -14.211  14.810  72.105  1.00  0.00    -0.608 A  
HETATM   18  C   UNL     1     -13.427  14.097  71.205  1.00  0.00    -0.341 A  
HETATM   19  C   UNL     1     -13.644  15.836  72.856  1.00  0.00    -0.660 A  
ENDBRANCH  13  14
ENDBRANCH   5  13
ENDBRANCH   4   5
ENDBRANCH   2   4
TORSDOF 6
ENDMDL
MODEL       50
REMARK 921   NORMALIZED FREE ENERGY PREDICTED BY IDOCK:   -4.86 KCAL/MOL
REMARK 922        TOTAL FREE ENERGY PREDICTED BY IDOCK:   -7.42 KCAL/MOL
REMARK 923 INTER-LIGAND FREE ENERGY PREDICTED BY IDOCK:   -7.11 KCAL/MOL
REMARK 924 INTRA-LIGAND FREE ENERGY PREDICTED BY IDOCK:   -0.31 KCAL/MOL
REMARK 927      BINDING AFFINITY PREDICTED BY RF-SCORE:    0.00 PKD
ROOT
HETATM    1  C   UNL     1     -10.873  15.526  67.050  1.00  0.00    -0.314 C  
HETATM    2  N   UNL     1     -11.456  14.333  66.417  1.00  0.00    -0.344 NA 
HETATM    3  C   UNL     1     -10.989  14.233  65.031  1.00  0.00    -0.387 C  
ENDROOT
BRANCH   2   4
HETATM    4  C   UNL     1     -11.063  13.140  67.208  1.00  0.00    -0.279 C  
BRANCH   4   5
HETATM    5  C   UNL     1     -12.012  12.566  68.312  1.00  0.00    -0.221 C  
BRANCH   5   6
HETATM    6  O   UNL     1     -12.009  11.122  68.301  1.00  0.00    -0.592 OA 
BRANCH   6   7
HETATM    7  C   UNL     1     -11.044  10.540  69.089  1.00  0.00    -0.250 A  
HETATM    8  C   UNL     1      -9.674  10.545  68.813  1.00  0.00    -0.187 A  
HETATM    9  C   UNL     1     -11.495   9.860  70.224  1.00  0.00    -0.349 A  
HETATM   10  C   UNL     1      -8.761   9.956  69.691  1.00  0.00    -0.218 A  
HETATM   11  C   UNL     1      -9.214   9.325  70.844  1.00  0.00    -0.300 A  
HETATM   12  C   UNL     1     -10.582   9.262  71.102  1.00  0.00    -0.402 A  
ENDBRANCH   6   7
ENDBRANCH   5   6
BRANCH   5  13
HETATM   13  O   UNL     1     -11.450  13.036  69.555  1.00  0.00    -0.264 OA 
BRANCH  13  14
HETATM   14  C   UNL     1     -12.296  13.545  70.498  1.00  0.00    -0.342 A  
HETATM   15  C   UNL     1     -13.748  13.457  72.424  1.00  0.00    -0.698 A  
HETATM   16  C   UNL     1     -12.962  12.803  71.472  1.00  0.00    -0.388 A  
HETATM   17  C   UNL     1     -13.176  15.586  71.446  1.00  0.00    -0.587 A  
HETATM   18  C   UNL     1     -12.391  14.935  70.501  1.00  0.00    -0.400 A  
HETATM   19  C   UNL     1     -13.860  14.846  72.406  1.00  0.00    -0.587 A  
ENDBRANCH  13  14
ENDBRANCH   5  13
ENDBRANCH   4   5
ENDBRANCH   2   4
TORSDOF 6
ENDMDL
MODEL       51
REMARK 921   NORMALIZED FREE ENERGY PREDICTED BY IDOCK:   -4.85 KCAL/MOL
REMARK 922        TOTAL FREE ENERGY PREDICTED BY IDOCK:   -7.41 KCAL/MOL
REMARK 923 INTER-LIGAND FREE ENERGY PREDICTED BY IDOCK:   -6.82 KCAL/MOL
REMARK 924 INTRA-LIGAND FREE ENERGY PREDICTED BY IDOCK:   -0.58 KCAL/MOL
REMARK 927      BINDING AFFINITY PREDICTED BY RF-SCORE:    0.00 PKD
ROOT
HETATM    1  C   UNL     1     -11.390  15.406  70.966  1.00  0.00    -0.367 C  
HETATM    2  N   UNL     1     -10.707  15.898  69.759  1.00  0.00    -0.296 NA 
HETATM    3  C   UNL     1      -9.451  15.166  69.573  1.00  0.00    -0.145 C  
ENDROOT
BRANCH   2   4
HETATM    4  C   UNL     1     -11.615  15.722  68.599  1.00  0.00    -0.386 C  
BRANCH   4   5
HETATM    5  C   UNL     1     -11.171  14.881  67.357  1.00  0.00    -0.338 C  
BRANCH   5   6
HETATM    6  O   UNL     1     -12.180  13.911  66.997  1.00  0.00    -0.421 OA 
BRANCH   6   7
HETATM    7  C   UNL     1     -11.874  13.139  65.900  1.00  0.00    -0.406 A  
HETATM    8  C   UNL     1     -12.757  12.843  64.858  1.00  0.00    -0.474 A  
HETATM    9  C   UNL     1     -10.592  12.584  65.868  1.00  0.00    -0.292 A  
HETATM   10  C   UNL     1     -12.347  12.076  63.765  1.00  0.00    -0.602 A  
HETATM   11  C   UNL     1     -11.054  11.570  63.717  1.00  0.00    -0.471 A  
HETATM   12  C   UNL     1     -10.182  11.810  64.776  1.00  0.00    -0.324 A  
ENDBRANCH   6   7
ENDBRANCH   5   6
BRANCH   5  13
HETATM   13  O   UNL     1     -11.034  15.846  66.294  1.00  0.00    -0.244 OA 
BRANCH  13  14
HETATM   14  C   UNL     1      -9.976  16.708  66.333  1.00  0.00    -0.302 A  
HETATM   15  C   UNL     1      -7.649  17.337  66.220  1.00  0.00    -0.360 A  
HETATM   16  C   UNL     1      -8.633  16.347  66.235  1.00  0.00    -0.375 A  
HETATM   17  C   UNL     1      -9.349  19.042  66.368  1.00  0.00    -0.358 A  
HETATM   18  C   UNL     1     -10.329  18.055  66.379  1.00  0.00    -0.382 A  
HETATM   19  C   UNL     1      -8.006  18.683  66.294  1.00  0.00    -0.276 A  
ENDBRANCH  13  14
ENDBRANCH   5  13
ENDBRANCH   4   5
ENDBRANCH   2   4
TORSDOF 6
ENDMDL
MODEL       52
REMARK 921   NORMALIZED FREE ENERGY PREDICTED BY IDOCK:   -4.84 KCAL/MOL
REMARK 922        TOTAL FREE ENERGY PREDICTED BY IDOCK:   -7.40 KCAL/MOL
REMARK 923 INTER-LIGAND FREE ENERGY PREDICTED BY IDOCK:   -7.41 KCAL/MOL
REMARK 924 INTRA-LIGAND FREE ENERGY PREDICTED BY IDOCK:    0.01 KCAL/MOL
REMARK 927      BINDING AFFINITY PREDICTED BY RF-SCORE:    0.00 PKD
ROOT
HETATM    1  C   UNL     1     -12.375  10.659  70.282  1.00  0.00    -0.325 C  
HETATM    2  N   UNL     1     -11.262  11.167  69.465  1.00  0.00    -0.262 NA 
HETATM    3  C   UNL     1     -10.702  10.075  68.664  1.00  0.00    -0.226 C  
ENDROOT
BRANCH   2   4
HETATM    4  C   UNL     1     -11.770  12.265  68.606  1.00  0.00    -0.328 C  
BRANCH   4   5
HETATM    5  C   UNL     1     -11.253  13.730  68.792  1.00  0.00    -0.271 C  
BRANCH   5   6
HETATM    6  O   UNL     1     -10.822  14.292  67.534  1.00  0.00    -0.273 OA 
BRANCH   6   7
HETATM    7  C   UNL     1     -11.125  13.534  66.427  1.00  0.00    -0.302 A  
HETATM    8  C   UNL     1     -12.384  13.462  65.826  1.00  0.00    -0.513 A  
HETATM    9  C   UNL     1     -10.091  12.751  65.908  1.00  0.00    -0.286 A  
HETATM   10  C   UNL     1     -12.592  12.689  64.681  1.00  0.00    -0.517 A  
HETATM   11  C   UNL     1     -11.544  11.953  64.141  1.00  0.00    -0.434 A  
HETATM   12  C   UNL     1     -10.298  11.970  64.763  1.00  0.00    -0.318 A  
ENDBRANCH   6   7
ENDBRANCH   5   6
BRANCH   5  13
HETATM   13  O   UNL     1     -12.399  14.461  69.275  1.00  0.00    -0.273 OA 
BRANCH  13  14
HETATM   14  C   UNL     1     -12.440  14.802  70.597  1.00  0.00    -0.345 A  
HETATM   15  C   UNL     1     -11.868  16.098  72.550  1.00  0.00    -0.630 A  
HETATM   16  C   UNL     1     -11.679  15.803  71.199  1.00  0.00    -0.476 A  
HETATM   17  C   UNL     1     -13.594  14.419  72.685  1.00  0.00    -0.589 A  
HETATM   18  C   UNL     1     -13.408  14.128  71.338  1.00  0.00    -0.402 A  
HETATM   19  C   UNL     1     -12.820  15.402  73.294  1.00  0.00    -0.636 A  
ENDBRANCH  13  14
ENDBRANCH   5  13
ENDBRANCH   4   5
ENDBRANCH   2   4
TORSDOF 6
ENDMDL
MODEL       53
REMARK 921   NORMALIZED FREE ENERGY PREDICTED BY IDOCK:   -4.83 KCAL/MOL
REMARK 922        TOTAL FREE ENERGY PREDICTED BY IDOCK:   -7.38 KCAL/MOL
REMARK 923 INTER-LIGAND FREE ENERGY PREDICTED BY IDOCK:   -7.25 KCAL/MOL
REMARK 924 INTRA-LIGAND FREE ENERGY PREDICTED BY IDOCK:   -0.13 KCAL/MOL
REMARK 927      BINDING AFFINITY PREDICTED BY RF-SCORE:    0.00 PKD
ROOT
HETATM    1  C   UNL     1     -12.586  12.775  65.097  1.00  0.00    -0.444 C  
HETATM    2  N   UNL     1     -12.134  12.523  66.474  1.00  0.00    -0.585 NA 
HETATM    3  C   UNL     1     -10.916  11.710  66.451  1.00  0.00    -0.295 C  
ENDROOT
BRANCH   2   4
HETATM    4  C   UNL     1     -11.903  13.829  67.140  1.00  0.00    -0.406 C  
BRANCH   4   5
HETATM    5  C   UNL     1     -11.449  13.894  68.636  1.00  0.00    -0.298 C  
BRANCH   5   6
HETATM    6  O   UNL     1     -10.031  14.152  68.739  1.00  0.00    -0.228 OA 
BRANCH   6   7
HETATM    7  C   UNL     1      -9.588  15.240  68.023  1.00  0.00    -0.203 A  
HETATM    8  C   UNL     1      -9.236  15.220  66.671  1.00  0.00    -0.302 A  
HETATM    9  C   UNL     1      -9.447  16.435  68.733  1.00  0.00    -0.247 A  
HETATM   10  C   UNL     1      -8.828  16.385  66.017  1.00  0.00    -0.296 A  
HETATM   11  C   UNL     1      -8.738  17.581  66.719  1.00  0.00    -0.278 A  
HETATM   12  C   UNL     1      -9.032  17.603  68.081  1.00  0.00    -0.269 A  
ENDBRANCH   6   7
ENDBRANCH   5   6
BRANCH   5  13
HETATM   13  O   UNL     1     -12.178  15.008  69.190  1.00  0.00    -0.244 OA 
BRANCH  13  14
HETATM   14  C   UNL     1     -12.364  15.055  70.542  1.00  0.00    -0.356 A  
HETATM   15  C   UNL     1     -12.149  15.983  72.758  1.00  0.00    -0.635 A  
HETATM   16  C   UNL     1     -11.824  16.010  71.401  1.00  0.00    -0.531 A  
HETATM   17  C   UNL     1     -13.572  14.072  72.390  1.00  0.00    -0.658 A  
HETATM   18  C   UNL     1     -13.251  14.101  71.037  1.00  0.00    -0.337 A  
HETATM   19  C   UNL     1     -13.016  15.011  73.253  1.00  0.00    -0.642 A  
ENDBRANCH  13  14
ENDBRANCH   5  13
ENDBRANCH   4   5
ENDBRANCH   2   4
TORSDOF 6
ENDMDL
MODEL       54
REMARK 921   NORMALIZED FREE ENERGY PREDICTED BY IDOCK:   -4.83 KCAL/MOL
REMARK 922        TOTAL FREE ENERGY PREDICTED BY IDOCK:   -7.37 KCAL/MOL
REMARK 923 INTER-LIGAND FREE ENERGY PREDICTED BY IDOCK:   -6.61 KCAL/MOL
REMARK 924 INTRA-LIGAND FREE ENERGY PREDICTED BY IDOCK:   -0.76 KCAL/MOL
REMARK 927      BINDING AFFINITY PREDICTED BY RF-SCORE:    0.00 PKD
ROOT
HETATM    1  C   UNL     1      -8.222  13.247  67.853  1.00  0.00    -0.163 C  
HETATM    2  N   UNL     1      -8.515  14.661  68.133  1.00  0.00    -0.149 NA 
HETATM    3  C   UNL     1      -8.176  15.474  66.962  1.00  0.00    -0.240 C  
ENDROOT
BRANCH   2   4
HETATM    4  C   UNL     1      -9.952  14.784  68.482  1.00  0.00    -0.228 C  
BRANCH   4   5
HETATM    5  C   UNL     1     -10.959  15.463  67.496  1.00  0.00    -0.315 C  
BRANCH   5   6
HETATM    6  O   UNL     1     -12.119  14.629  67.282  1.00  0.00    -0.358 OA 
BRANCH   6   7
HETATM    7  C   UNL     1     -12.055  13.825  66.167  1.00  0.00    -0.441 A  
HETATM    8  C   UNL     1     -11.728  12.466  66.178  1.00  0.00    -0.460 A  
HETATM    9  C   UNL     1     -12.297  14.444  64.939  1.00  0.00    -0.414 A  
HETATM   10  C   UNL     1     -11.721  11.719  64.998  1.00  0.00    -0.174 A  
HETATM   11  C   UNL     1     -12.012  12.332  63.786  1.00  0.00    -0.609 A  
HETATM   12  C   UNL     1     -12.284  13.699  63.754  1.00  0.00    -0.413 A  
ENDBRANCH   6   7
ENDBRANCH   5   6
BRANCH   5  13
HETATM   13  O   UNL     1     -11.360  16.677  68.163  1.00  0.00    -0.289 OA 
BRANCH  13  14
HETATM   14  C   UNL     1     -10.665  17.822  67.898  1.00  0.00    -0.319 A  
HETATM   15  C   UNL     1      -9.117  19.612  68.369  1.00  0.00    -0.386 A  
HETATM   16  C   UNL     1      -9.825  18.485  68.791  1.00  0.00    -0.411 A  
HETATM   17  C   UNL     1     -10.067  19.395  66.163  1.00  0.00    -0.533 A  
HETATM   18  C   UNL     1     -10.768  18.269  66.582  1.00  0.00    -0.220 A  
HETATM   19  C   UNL     1      -9.244  20.071  67.059  1.00  0.00    -0.491 A  
ENDBRANCH  13  14
ENDBRANCH   5  13
ENDBRANCH   4   5
ENDBRANCH   2   4
TORSDOF 6
ENDMDL
MODEL       55
REMARK 921   NORMALIZED FREE ENERGY PREDICTED BY IDOCK:   -4.80 KCAL/MOL
REMARK 922        TOTAL FREE ENERGY PREDICTED BY IDOCK:   -7.34 KCAL/MOL
REMARK 923 INTER-LIGAND FREE ENERGY PREDICTED BY IDOCK:   -6.62 KCAL/MOL
REMARK 924 INTRA-LIGAND FREE ENERGY PREDICTED BY IDOCK:   -0.72 KCAL/MOL
REMARK 927      BINDING AFFINITY PREDICTED BY RF-SCORE:    0.00 PKD
ROOT
HETATM    1  C   UNL     1      -8.149   8.580  68.423  1.00  0.00    -0.122 C  
HETATM    2  N   UNL     1      -9.316   9.158  69.108  1.00  0.00    -0.150 NA 
HETATM    3  C   UNL     1      -9.263   8.825  70.534  1.00  0.00    -0.188 C  
ENDROOT
BRANCH   2   4
HETATM    4  C   UNL     1      -9.308  10.626  68.892  1.00  0.00    -0.184 C  
BRANCH   4   5
HETATM    5  C   UNL     1     -10.471  11.326  68.113  1.00  0.00    -0.189 C  
BRANCH   5   6
HETATM    6  O   UNL     1     -10.495  10.907  66.730  1.00  0.00    -0.231 OA 
BRANCH   6   7
HETATM    7  C   UNL     1     -11.076  11.805  65.865  1.00  0.00    -0.302 A  
HETATM    8  C   UNL     1     -11.808  12.931  66.252  1.00  0.00    -0.477 A  
HETATM    9  C   UNL     1     -10.948  11.527  64.502  1.00  0.00    -0.367 A  
HETATM   10  C   UNL     1     -12.334  13.809  65.300  1.00  0.00    -0.491 A  
HETATM   11  C   UNL     1     -12.159  13.551  63.946  1.00  0.00    -0.493 A  
HETATM   12  C   UNL     1     -11.480  12.401  63.546  1.00  0.00    -0.561 A  
ENDBRANCH   6   7
ENDBRANCH   5   6
BRANCH   5  13
HETATM   13  O   UNL     1     -11.673  10.875  68.770  1.00  0.00    -0.298 OA 
BRANCH  13  14
HETATM   14  C   UNL     1     -12.126  11.581  69.848  1.00  0.00    -0.316 A  
HETATM   15  C   UNL     1     -12.680  13.570  71.096  1.00  0.00    -0.425 A  
HETATM   16  C   UNL     1     -12.121  12.970  69.966  1.00  0.00    -0.367 A  
HETATM   17  C   UNL     1     -13.269  11.401  71.969  1.00  0.00    -0.432 A  
HETATM   18  C   UNL     1     -12.717  10.803  70.841  1.00  0.00    -0.478 A  
HETATM   19  C   UNL     1     -13.246  12.786  72.100  1.00  0.00    -0.546 A  
ENDBRANCH  13  14
ENDBRANCH   5  13
ENDBRANCH   4   5
ENDBRANCH   2   4
TORSDOF 6
ENDMDL
MODEL       56
REMARK 921   NORMALIZED FREE ENERGY PREDICTED BY IDOCK:   -4.80 KCAL/MOL
REMARK 922        TOTAL FREE ENERGY PREDICTED BY IDOCK:   -7.34 KCAL/MOL
REMARK 923 INTER-LIGAND FREE ENERGY PREDICTED BY IDOCK:   -6.56 KCAL/MOL
REMARK 924 INTRA-LIGAND FREE ENERGY PREDICTED BY IDOCK:   -0.77 KCAL/MOL
REMARK 927      BINDING AFFINITY PREDICTED BY RF-SCORE:    0.00 PKD
ROOT
HETATM    1  C   UNL     1     -12.563  10.915  70.361  1.00  0.00    -0.294 C  
HETATM    2  N   UNL     1     -11.404  11.531  69.697  1.00  0.00    -0.269 NA 
HETATM    3  C   UNL     1     -10.729  10.535  68.861  1.00  0.00    -0.220 C  
ENDROOT
BRANCH   2   4
HETATM    4  C   UNL     1     -11.879  12.683  68.892  1.00  0.00    -0.302 C  
BRANCH   4   5
HETATM    5  C   UNL     1     -11.239  14.100  69.067  1.00  0.00    -0.271 C  
BRANCH   5   6
HETATM    6  O   UNL     1     -10.573  14.523  67.857  1.00  0.00    -0.240 OA 
BRANCH   6   7
HETATM    7  C   UNL     1      -9.937  15.739  67.942  1.00  0.00    -0.227 A  
HETATM    8  C   UNL     1      -8.837  16.012  68.761  1.00  0.00    -0.227 A  
HETATM    9  C   UNL     1     -10.474  16.777  67.176  1.00  0.00    -0.299 A  
HETATM   10  C   UNL     1      -8.233  17.272  68.757  1.00  0.00    -0.231 A  
HETATM   11  C   UNL     1      -8.743  18.284  67.954  1.00  0.00    -0.274 A  
HETATM   12  C   UNL     1      -9.873  18.043  67.176  1.00  0.00    -0.316 A  
ENDBRANCH   6   7
ENDBRANCH   5   6
BRANCH   5  13
HETATM   13  O   UNL     1     -12.355  14.974  69.330  1.00  0.00    -0.206 OA 
BRANCH  13  14
HETATM   14  C   UNL     1     -12.686  15.230  70.629  1.00  0.00    -0.416 A  
HETATM   15  C   UNL     1     -14.138  15.291  72.556  1.00  0.00    -0.567 A  
HETATM   16  C   UNL     1     -13.949  15.057  71.192  1.00  0.00    -0.451 A  
HETATM   17  C   UNL     1     -11.802  15.841  72.794  1.00  0.00    -0.584 A  
HETATM   18  C   UNL     1     -11.614  15.604  71.437  1.00  0.00    -0.499 A  
HETATM   19  C   UNL     1     -13.067  15.690  73.354  1.00  0.00    -0.670 A  
ENDBRANCH  13  14
ENDBRANCH   5  13
ENDBRANCH   4   5
ENDBRANCH   2   4
TORSDOF 6
ENDMDL
MODEL       57
REMARK 921   NORMALIZED FREE ENERGY PREDICTED BY IDOCK:   -4.77 KCAL/MOL
REMARK 922        TOTAL FREE ENERGY PREDICTED BY IDOCK:   -7.29 KCAL/MOL
REMARK 923 INTER-LIGAND FREE ENERGY PREDICTED BY IDOCK:   -6.65 KCAL/MOL
REMARK 924 INTRA-LIGAND FREE ENERGY PREDICTED BY IDOCK:   -0.64 KCAL/MOL
REMARK 927      BINDING AFFINITY PREDICTED BY RF-SCORE:    0.00 PKD
ROOT
HETATM    1  C   UNL     1      -8.379   9.127  68.513  1.00  0.00    -0.123 C  
HETATM    2  N   UNL     1      -8.647  10.053  67.402  1.00  0.00    -0.125 NA 
HETATM    3  C   UNL     1      -7.940   9.599  66.202  1.00  0.00    -0.108 C  
ENDROOT
BRANCH   2   4
HETATM    4  C   UNL     1     -10.113  10.110  67.179  1.00  0.00    -0.209 C  
BRANCH   4   5
HETATM    5  C   UNL     1     -10.973  11.254  67.810  1.00  0.00    -0.252 C  
BRANCH   5   6
HETATM    6  O   UNL     1     -11.975  11.724  66.881  1.00  0.00    -0.605 OA 
BRANCH   6   7
HETATM    7  C   UNL     1     -11.653  12.890  66.225  1.00  0.00    -0.372 A  
HETATM    8  C   UNL     1     -10.584  13.727  66.557  1.00  0.00    -0.279 A  
HETATM    9  C   UNL     1     -12.498  13.268  65.179  1.00  0.00    -0.525 A  
HETATM   10  C   UNL     1     -10.312  14.876  65.811  1.00  0.00    -0.351 A  
HETATM   11  C   UNL     1     -11.129  15.218  64.740  1.00  0.00    -0.407 A  
HETATM   12  C   UNL     1     -12.231  14.424  64.434  1.00  0.00    -0.481 A  
ENDBRANCH   6   7
ENDBRANCH   5   6
BRANCH   5  13
HETATM   13  O   UNL     1     -11.622  10.640  68.942  1.00  0.00    -0.274 OA 
BRANCH  13  14
HETATM   14  C   UNL     1     -12.079  11.447  69.944  1.00  0.00    -0.330 A  
HETATM   15  C   UNL     1     -12.510  13.548  71.049  1.00  0.00    -0.451 A  
HETATM   16  C   UNL     1     -11.934  12.832  69.998  1.00  0.00    -0.371 A  
HETATM   17  C   UNL     1     -13.396  11.503  71.970  1.00  0.00    -0.397 A  
HETATM   18  C   UNL     1     -12.826  10.790  70.921  1.00  0.00    -0.443 A  
HETATM   19  C   UNL     1     -13.234  12.884  72.037  1.00  0.00    -0.549 A  
ENDBRANCH  13  14
ENDBRANCH   5  13
ENDBRANCH   4   5
ENDBRANCH   2   4
TORSDOF 6
ENDMDL
MODEL       58
REMARK 921   NORMALIZED FREE ENERGY PREDICTED BY IDOCK:   -4.72 KCAL/MOL
REMARK 922        TOTAL FREE ENERGY PREDICTED BY IDOCK:   -7.23 KCAL/MOL
REMARK 923 INTER-LIGAND FREE ENERGY PREDICTED BY IDOCK:   -6.50 KCAL/MOL
REMARK 924 INTRA-LIGAND FREE ENERGY PREDICTED BY IDOCK:   -0.73 KCAL/MOL
REMARK 927      BINDING AFFINITY PREDICTED BY RF-SCORE:    0.00 PKD
ROOT
HETATM    1  C   UNL     1     -12.085  14.285  64.886  1.00  0.00    -0.435 C  
HETATM    2  N   UNL     1     -12.385  12.852  65.027  1.00  0.00    -0.462 NA 
HETATM    3  C   UNL     1     -12.475  12.236  63.701  1.00  0.00    -0.541 C  
ENDROOT
BRANCH   2   4
HETATM    4  C   UNL     1     -11.318  12.225  65.845  1.00  0.00    -0.360 C  
BRANCH   4   5
HETATM    5  C   UNL     1     -11.538  11.948  67.369  1.00  0.00    -0.297 C  
BRANCH   5   6
HETATM    6  O   UNL     1     -11.427  10.538  67.663  1.00  0.00    -0.444 OA 
BRANCH   6   7
HETATM    7  C   UNL     1     -11.439  10.224  69.002  1.00  0.00    -0.137 A  
HETATM    8  C   UNL     1     -12.407  10.651  69.916  1.00  0.00    -0.304 A  
HETATM    9  C   UNL     1     -10.371   9.455  69.471  1.00  0.00    -0.223 A  
HETATM   10  C   UNL     1     -12.358  10.253  71.254  1.00  0.00    -0.506 A  
HETATM   11  C   UNL     1     -11.319   9.446  71.701  1.00  0.00    -0.452 A  
HETATM   12  C   UNL     1     -10.316   9.060  70.813  1.00  0.00    -0.305 A  
ENDBRANCH   6   7
ENDBRANCH   5   6
BRANCH   5  13
HETATM   13  O   UNL     1     -10.468  12.659  68.026  1.00  0.00    -0.212 OA 
BRANCH  13  14
HETATM   14  C   UNL     1     -10.753  13.857  68.617  1.00  0.00    -0.260 A  
HETATM   15  C   UNL     1     -12.010  15.378  70.005  1.00  0.00    -0.383 A  
HETATM   16  C   UNL     1     -11.873  14.127  69.401  1.00  0.00    -0.378 A  
HETATM   17  C   UNL     1      -9.899  16.072  69.068  1.00  0.00    -0.239 A  
HETATM   18  C   UNL     1      -9.761  14.824  68.470  1.00  0.00    -0.218 A  
HETATM   19  C   UNL     1     -11.027  16.352  69.833  1.00  0.00    -0.339 A  
ENDBRANCH  13  14
ENDBRANCH   5  13
ENDBRANCH   4   5
ENDBRANCH   2   4
TORSDOF 6
ENDMDL
MODEL       59
REMARK 921   NORMALIZED FREE ENERGY PREDICTED BY IDOCK:   -4.72 KCAL/MOL
REMARK 922        TOTAL FREE ENERGY PREDICTED BY IDOCK:   -7.23 KCAL/MOL
REMARK 923 INTER-LIGAND FREE ENERGY PREDICTED BY IDOCK:   -6.45 KCAL/MOL
REMARK 924 INTRA-LIGAND FREE ENERGY PREDICTED BY IDOCK:   -0.77 KCAL/MOL
REMARK 927      BINDING AFFINITY PREDICTED BY RF-SCORE:    0.00 PKD
ROOT
HETATM    1  C   UNL     1     -12.146  12.179  63.754  1.00  0.00    -0.525 C  
HETATM    2  N   UNL     1     -11.805  13.254  64.699  1.00  0.00    -0.360 NA 
HETATM    3  C   UNL     1     -12.522  14.477  64.332  1.00  0.00    -0.309 C  
ENDROOT
BRANCH   2   4
HETATM    4  C   UNL     1     -12.160  12.807  66.069  1.00  0.00    -0.395 C  
BRANCH   4   5
HETATM    5  C   UNL     1     -11.544  13.510  67.324  1.00  0.00    -0.362 C  
BRANCH   5   6
HETATM    6  O   UNL     1     -11.051  12.540  68.274  1.00  0.00    -0.227 OA 
BRANCH   6   7
HETATM    7  C   UNL     1     -11.772  12.457  69.442  1.00  0.00    -0.322 A  
HETATM    8  C   UNL     1     -12.204  11.267  70.035  1.00  0.00    -0.389 A  
HETATM    9  C   UNL     1     -12.126  13.668  70.041  1.00  0.00    -0.417 A  
HETATM   10  C   UNL     1     -12.904  11.278  71.243  1.00  0.00    -0.491 A  
HETATM   11  C   UNL     1     -13.208  12.486  71.859  1.00  0.00    -0.495 A  
HETATM   12  C   UNL     1     -12.834  13.682  71.250  1.00  0.00    -0.424 A  
ENDBRANCH   6   7
ENDBRANCH   5   6
BRANCH   5  13
HETATM   13  O   UNL     1     -10.437  14.276  66.805  1.00  0.00    -0.270 OA 
BRANCH  13  14
HETATM   14  C   UNL     1     -10.083  15.424  67.453  1.00  0.00    -0.233 A  
HETATM   15  C   UNL     1      -8.726  16.806  68.892  1.00  0.00    -0.224 A  
HETATM   16  C   UNL     1      -9.024  15.555  68.350  1.00  0.00    -0.189 A  
HETATM   17  C   UNL     1     -10.522  17.795  67.622  1.00  0.00    -0.393 A  
HETATM   18  C   UNL     1     -10.816  16.549  67.079  1.00  0.00    -0.113 A  
HETATM   19  C   UNL     1      -9.479  17.923  68.535  1.00  0.00    -0.316 A  
ENDBRANCH  13  14
ENDBRANCH   5  13
ENDBRANCH   4   5
ENDBRANCH   2   4
TORSDOF 6
ENDMDL
MODEL       60
REMARK 921   NORMALIZED FREE ENERGY PREDICTED BY IDOCK:   -4.70 KCAL/MOL
REMARK 922        TOTAL FREE ENERGY PREDICTED BY IDOCK:   -7.21 KCAL/MOL
REMARK 923 INTER-LIGAND FREE ENERGY PREDICTED BY IDOCK:   -7.11 KCAL/MOL
REMARK 924 INTRA-LIGAND FREE ENERGY PREDICTED BY IDOCK:   -0.10 KCAL/MOL
REMARK 927      BINDING AFFINITY PREDICTED BY RF-SCORE:    0.00 PKD
ROOT
HETATM    1  C   UNL     1     -11.712  15.747  68.936  1.00  0.00    -0.394 C  
HETATM    2  N   UNL     1     -10.935  15.635  67.692  1.00  0.00    -0.317 NA 
HETATM    3  C   UNL     1      -9.579  16.145  67.912  1.00  0.00    -0.223 C  
ENDROOT
BRANCH   2   4
HETATM    4  C   UNL     1     -10.918  14.212  67.272  1.00  0.00    -0.297 C  
BRANCH   4   5
HETATM    5  C   UNL     1     -11.787  13.148  68.021  1.00  0.00    -0.358 C  
BRANCH   5   6
HETATM    6  O   UNL     1     -12.408  12.234  67.090  1.00  0.00    -0.379 OA 
BRANCH   6   7
HETATM    7  C   UNL     1     -11.779  12.136  65.871  1.00  0.00    -0.328 A  
HETATM    8  C   UNL     1     -12.177  12.802  64.708  1.00  0.00    -0.517 A  
HETATM    9  C   UNL     1     -10.688  11.267  65.802  1.00  0.00    -0.284 A  
HETATM   10  C   UNL     1     -11.456  12.668  63.520  1.00  0.00    -0.557 A  
HETATM   11  C   UNL     1     -10.341  11.839  63.474  1.00  0.00    -0.490 A  
HETATM   12  C   UNL     1      -9.966  11.126  64.610  1.00  0.00    -0.345 A  
ENDBRANCH   6   7
ENDBRANCH   5   6
BRANCH   5  13
HETATM   13  O   UNL     1     -10.849  12.426  68.845  1.00  0.00    -0.230 OA 
BRANCH  13  14
HETATM   14  C   UNL     1     -11.335  11.500  69.723  1.00  0.00    -0.226 A  
HETATM   15  C   UNL     1     -11.356   9.402  70.914  1.00  0.00    -0.386 A  
HETATM   16  C   UNL     1     -10.803  10.229  69.935  1.00  0.00    -0.355 A  
HETATM   17  C   UNL     1     -12.945  11.124  71.485  1.00  0.00    -0.542 A  
HETATM   18  C   UNL     1     -12.391  11.949  70.512  1.00  0.00    -0.372 A  
HETATM   19  C   UNL     1     -12.430   9.846  71.683  1.00  0.00    -0.507 A  
ENDBRANCH  13  14
ENDBRANCH   5  13
ENDBRANCH   4   5
ENDBRANCH   2   4
TORSDOF 6
ENDMDL
MODEL       61
REMARK 921   NORMALIZED FREE ENERGY PREDICTED BY IDOCK:   -4.70 KCAL/MOL
REMARK 922        TOTAL FREE ENERGY PREDICTED BY IDOCK:   -7.20 KCAL/MOL
REMARK 923 INTER-LIGAND FREE ENERGY PREDICTED BY IDOCK:   -6.87 KCAL/MOL
REMARK 924 INTRA-LIGAND FREE ENERGY PREDICTED BY IDOCK:   -0.33 KCAL/MOL
REMARK 927      BINDING AFFINITY PREDICTED BY RF-SCORE:    0.00 PKD
ROOT
HETATM    1  C   UNL     1     -11.186   9.606  70.828  1.00  0.00    -0.336 C  
HETATM    2  N   UNL     1     -12.432  10.296  70.462  1.00  0.00    -0.287 NA 
HETATM    3  C   UNL     1     -13.552   9.720  71.211  1.00  0.00    -0.216 C  
ENDROOT
BRANCH   2   4
HETATM    4  C   UNL     1     -12.272  11.743  70.753  1.00  0.00    -0.326 C  
BRANCH   4   5
HETATM    5  C   UNL     1     -11.932  12.755  69.610  1.00  0.00    -0.288 C  
BRANCH   5   6
HETATM    6  O   UNL     1     -12.023  12.125  68.313  1.00  0.00    -0.384 OA 
BRANCH   6   7
HETATM    7  C   UNL     1     -11.661  12.926  67.255  1.00  0.00    -0.360 A  
HETATM    8  C   UNL     1     -12.522  13.349  66.238  1.00  0.00    -0.338 A  
HETATM    9  C   UNL     1     -10.316  13.297  67.188  1.00  0.00    -0.248 A  
HETATM   10  C   UNL     1     -12.073  14.191  65.219  1.00  0.00    -0.407 A  
HETATM   11  C   UNL     1     -10.744  14.597  65.188  1.00  0.00    -0.430 A  
HETATM   12  C   UNL     1      -9.861  14.137  66.163  1.00  0.00    -0.326 A  
ENDBRANCH   6   7
ENDBRANCH   5   6
BRANCH   5  13
HETATM   13  O   UNL     1     -12.943  13.778  69.716  1.00  0.00     0.131 OA 
BRANCH  13  14
HETATM   14  C   UNL     1     -12.968  14.550  70.842  1.00  0.00    -0.361 A  
HETATM   15  C   UNL     1     -14.003  15.725  72.678  1.00  0.00    -0.557 A  
HETATM   16  C   UNL     1     -14.117  14.997  71.492  1.00  0.00    -0.613 A  
HETATM   17  C   UNL     1     -11.602  15.532  72.577  1.00  0.00    -0.531 A  
HETATM   18  C   UNL     1     -11.716  14.804  71.398  1.00  0.00    -0.352 A  
HETATM   19  C   UNL     1     -12.747  15.998  73.216  1.00  0.00    -0.644 A  
ENDBRANCH  13  14
ENDBRANCH   5  13
ENDBRANCH   4   5
ENDBRANCH   2   4
TORSDOF 6
ENDMDL
MODEL       62
REMARK 921   NORMALIZED FREE ENERGY PREDICTED BY IDOCK:   -4.67 KCAL/MOL
REMARK 922        TOTAL FREE ENERGY PREDICTED BY IDOCK:   -7.16 KCAL/MOL
REMARK 923 INTER-LIGAND FREE ENERGY PREDICTED BY IDOCK:   -7.06 KCAL/MOL
REMARK 924 INTRA-LIGAND FREE ENERGY PREDICTED BY IDOCK:   -0.10 KCAL/MOL
REMARK 927      BINDING AFFINITY PREDICTED BY RF-SCORE:    0.00 PKD
ROOT
HETATM    1  C   UNL     1      -8.251  13.698  68.358  1.00  0.00    -0.146 C  
HETATM    2  N   UNL     1      -8.389  15.043  68.935  1.00  0.00    -0.173 NA 
HETATM    3  C   UNL     1      -8.216  16.049  67.884  1.00  0.00    -0.148 C  
ENDROOT
BRANCH   2   4
HETATM    4  C   UNL     1      -9.725  15.148  69.572  1.00  0.00    -0.165 C  
BRANCH   4   5
HETATM    5  C   UNL     1     -11.001  15.431  68.712  1.00  0.00    -0.264 C  
BRANCH   5   6
HETATM    6  O   UNL     1     -11.665  14.201  68.347  1.00  0.00    -0.306 OA 
BRANCH   6   7
HETATM    7  C   UNL     1     -11.679  13.930  66.998  1.00  0.00    -0.397 A  
HETATM    8  C   UNL     1     -12.030  12.702  66.432  1.00  0.00    -0.425 A  
HETATM    9  C   UNL     1     -11.267  14.963  66.152  1.00  0.00    -0.325 A  
HETATM   10  C   UNL     1     -12.048  12.528  65.046  1.00  0.00    -0.504 A  
HETATM   11  C   UNL     1     -11.685  13.577  64.210  1.00  0.00    -0.455 A  
HETATM   12  C   UNL     1     -11.278  14.789  64.763  1.00  0.00    -0.392 A  
ENDBRANCH   6   7
ENDBRANCH   5   6
BRANCH   5  13
HETATM   13  O   UNL     1     -11.861  16.200  69.578  1.00  0.00    -0.272 OA 
BRANCH  13  14
HETATM   14  C   UNL     1     -12.267  15.637  70.754  1.00  0.00    -0.418 A  
HETATM   15  C   UNL     1     -13.324  13.970  72.142  1.00  0.00    -0.545 A  
HETATM   16  C   UNL     1     -13.034  14.479  70.875  1.00  0.00    -0.424 A  
HETATM   17  C   UNL     1     -12.060  15.755  73.159  1.00  0.00    -0.603 A  
HETATM   18  C   UNL     1     -11.768  16.259  71.896  1.00  0.00    -0.518 A  
HETATM   19  C   UNL     1     -12.844  14.612  73.283  1.00  0.00    -0.580 A  
ENDBRANCH  13  14
ENDBRANCH   5  13
ENDBRANCH   4   5
ENDBRANCH   2   4
TORSDOF 6
ENDMDL
MODEL       63
REMARK 921   NORMALIZED FREE ENERGY PREDICTED BY IDOCK:   -4.66 KCAL/MOL
REMARK 922        TOTAL FREE ENERGY PREDICTED BY IDOCK:   -7.15 KCAL/MOL
REMARK 923 INTER-LIGAND FREE ENERGY PREDICTED BY IDOCK:   -6.56 KCAL/MOL
REMARK 924 INTRA-LIGAND FREE ENERGY PREDICTED BY IDOCK:   -0.59 KCAL/MOL
REMARK 927      BINDING AFFINITY PREDICTED BY RF-SCORE:    0.00 PKD
ROOT
HETATM    1  C   UNL     1      -8.251  14.625  68.920  1.00  0.00    -0.145 C  
HETATM    2  N   UNL     1      -9.280  14.037  68.048  1.00  0.00    -0.194 NA 
HETATM    3  C   UNL     1      -9.102  14.528  66.679  1.00  0.00    -0.251 C  
ENDROOT
BRANCH   2   4
HETATM    4  C   UNL     1      -9.166  12.559  68.115  1.00  0.00    -0.209 C  
BRANCH   4   5
HETATM    5  C   UNL     1     -10.432  11.669  68.338  1.00  0.00    -0.213 C  
BRANCH   5   6
HETATM    6  O   UNL     1     -10.709  10.856  67.177  1.00  0.00    -0.240 OA 
BRANCH   6   7
HETATM    7  C   UNL     1     -11.070  11.560  66.051  1.00  0.00    -0.230 A  
HETATM    8  C   UNL     1     -10.518  11.377  64.781  1.00  0.00    -0.366 A  
HETATM    9  C   UNL     1     -12.033  12.556  66.224  1.00  0.00    -0.410 A  
HETATM   10  C   UNL     1     -10.973  12.116  63.686  1.00  0.00    -0.527 A  
HETATM   11  C   UNL     1     -11.967  13.071  63.858  1.00  0.00    -0.551 A  
HETATM   12  C   UNL     1     -12.486  13.303  65.129  1.00  0.00    -0.525 A  
ENDBRANCH   6   7
ENDBRANCH   5   6
BRANCH   5  13
HETATM   13  O   UNL     1     -10.086  10.815  69.448  1.00  0.00    -0.212 OA 
BRANCH  13  14
HETATM   14  C   UNL     1     -11.095  10.302  70.211  1.00  0.00    -0.319 A  
HETATM   15  C   UNL     1     -12.271   8.584  71.432  1.00  0.00    -0.343 A  
HETATM   16  C   UNL     1     -11.226   8.967  70.589  1.00  0.00    -0.308 A  
HETATM   17  C   UNL     1     -13.033  10.870  71.538  1.00  0.00    -0.556 A  
HETATM   18  C   UNL     1     -11.989  11.251  70.703  1.00  0.00    -0.435 A  
HETATM   19  C   UNL     1     -13.179   9.534  71.899  1.00  0.00    -0.524 A  
ENDBRANCH  13  14
ENDBRANCH   5  13
ENDBRANCH   4   5
ENDBRANCH   2   4
TORSDOF 6
ENDMDL
MODEL       64
REMARK 921   NORMALIZED FREE ENERGY PREDICTED BY IDOCK:   -4.66 KCAL/MOL
REMARK 922        TOTAL FREE ENERGY PREDICTED BY IDOCK:   -7.15 KCAL/MOL
REMARK 923 INTER-LIGAND FREE ENERGY PREDICTED BY IDOCK:   -6.49 KCAL/MOL
REMARK 924 INTRA-LIGAND FREE ENERGY PREDICTED BY IDOCK:   -0.66 KCAL/MOL
REMARK 927      BINDING AFFINITY PREDICTED BY RF-SCORE:    0.00 PKD
ROOT
HETATM    1  C   UNL     1     -11.491  12.587  63.466  1.00  0.00    -0.496 C  
HETATM    2  N   UNL     1     -11.569  13.523  64.597  1.00  0.00    -0.353 NA 
HETATM    3  C   UNL     1     -12.278  14.737  64.184  1.00  0.00    -0.295 C  
ENDROOT
BRANCH   2   4
HETATM    4  C   UNL     1     -12.260  12.847  65.722  1.00  0.00    -0.439 C  
BRANCH   4   5
HETATM    5  C   UNL     1     -11.666  12.891  67.169  1.00  0.00    -0.377 C  
BRANCH   5   6
HETATM    6  O   UNL     1     -10.310  12.395  67.189  1.00  0.00    -0.218 OA 
BRANCH   6   7
HETATM    7  C   UNL     1     -10.190  11.033  67.041  1.00  0.00    -0.211 A  
HETATM    8  C   UNL     1      -9.736  10.390  65.886  1.00  0.00    -0.272 A  
HETATM    9  C   UNL     1     -10.598  10.251  68.124  1.00  0.00    -0.258 A  
HETATM   10  C   UNL     1      -9.614   8.999  65.838  1.00  0.00    -0.317 A  
HETATM   11  C   UNL     1      -9.976   8.232  66.938  1.00  0.00    -0.343 A  
HETATM   12  C   UNL     1     -10.483   8.856  68.076  1.00  0.00    -0.263 A  
ENDBRANCH   6   7
ENDBRANCH   5   6
BRANCH   5  13
HETATM   13  O   UNL     1     -11.670  14.289  67.521  1.00  0.00    -0.345 OA 
BRANCH  13  14
HETATM   14  C   UNL     1     -11.706  14.624  68.844  1.00  0.00    -0.309 A  
HETATM   15  C   UNL     1     -11.470  16.089  70.747  1.00  0.00    -0.444 A  
HETATM   16  C   UNL     1     -11.317  15.851  69.380  1.00  0.00    -0.349 A  
HETATM   17  C   UNL     1     -12.424  13.893  71.033  1.00  0.00    -0.452 A  
HETATM   18  C   UNL     1     -12.276  13.657  69.671  1.00  0.00    -0.326 A  
HETATM   19  C   UNL     1     -12.016  15.109  71.574  1.00  0.00    -0.421 A  
ENDBRANCH  13  14
ENDBRANCH   5  13
ENDBRANCH   4   5
ENDBRANCH   2   4
TORSDOF 6
ENDMDL
MODEL       65
REMARK 921   NORMALIZED FREE ENERGY PREDICTED BY IDOCK:   -4.65 KCAL/MOL
REMARK 922        TOTAL FREE ENERGY PREDICTED BY IDOCK:   -7.14 KCAL/MOL
REMARK 923 INTER-LIGAND FREE ENERGY PREDICTED BY IDOCK:   -6.51 KCAL/MOL
REMARK 924 INTRA-LIGAND FREE ENERGY PREDICTED BY IDOCK:   -0.63 KCAL/MOL
REMARK 927      BINDING AFFINITY PREDICTED BY RF-SCORE:    0.00 PKD
ROOT
HETATM    1  C   UNL     1      -9.954   9.507  66.082  1.00  0.00    -0.272 C  
HETATM    2  N   UNL     1      -9.833  10.344  67.286  1.00  0.00    -0.173 NA 
HETATM    3  C   UNL     1      -8.868  11.418  67.043  1.00  0.00    -0.168 C  
ENDROOT
BRANCH   2   4
HETATM    4  C   UNL     1     -11.174  10.884  67.621  1.00  0.00    -0.309 C  
BRANCH   4   5
HETATM    5  C   UNL     1     -11.565  11.191  69.104  1.00  0.00    -0.324 C  
BRANCH   5   6
HETATM    6  O   UNL     1     -10.756  10.427  70.025  1.00  0.00    -0.277 OA 
BRANCH   6   7
HETATM    7  C   UNL     1     -11.388   9.343  70.588  1.00  0.00    -0.292 A  
HETATM    8  C   UNL     1     -12.250   9.400  71.686  1.00  0.00    -0.467 A  
HETATM    9  C   UNL     1     -11.099   8.095  70.030  1.00  0.00    -0.146 A  
HETATM   10  C   UNL     1     -12.876   8.249  72.170  1.00  0.00    -0.348 A  
HETATM   11  C   UNL     1     -12.621   7.018  71.577  1.00  0.00    -0.426 A  
HETATM   12  C   UNL     1     -11.720   6.938  70.517  1.00  0.00    -0.401 A  
ENDBRANCH   6   7
ENDBRANCH   5   6
BRANCH   5  13
HETATM   13  O   UNL     1     -11.283  12.596  69.272  1.00  0.00    -0.243 OA 
BRANCH  13  14
HETATM   14  C   UNL     1     -12.069  13.318  70.122  1.00  0.00    -0.333 A  
HETATM   15  C   UNL     1     -13.493  13.663  72.039  1.00  0.00    -0.573 A  
HETATM   16  C   UNL     1     -12.780  12.802  71.204  1.00  0.00    -0.355 A  
HETATM   17  C   UNL     1     -12.762  15.552  70.731  1.00  0.00    -0.511 A  
HETATM   18  C   UNL     1     -12.048  14.694  69.901  1.00  0.00    -0.385 A  
HETATM   19  C   UNL     1     -13.490  15.036  71.798  1.00  0.00    -0.504 A  
ENDBRANCH  13  14
ENDBRANCH   5  13
ENDBRANCH   4   5
ENDBRANCH   2   4
TORSDOF 6
ENDMDL
MODEL       66
REMARK 921   NORMALIZED FREE ENERGY PREDICTED BY IDOCK:   -4.64 KCAL/MOL
REMARK 922        TOTAL FREE ENERGY PREDICTED BY IDOCK:   -7.12 KCAL/MOL
REMARK 923 INTER-LIGAND FREE ENERGY PREDICTED BY IDOCK:   -7.38 KCAL/MOL
REMARK 924 INTRA-LIGAND FREE ENERGY PREDICTED BY IDOCK:    0.25 KCAL/MOL
REMARK 927      BINDING AFFINITY PREDICTED BY RF-SCORE:    0.00 PKD
ROOT
HETATM    1  C   UNL     1      -8.890  13.623  68.245  1.00  0.00    -0.179 C  
HETATM    2  N   UNL     1      -8.048  14.807  68.477  1.00  0.00    -0.139 NA 
HETATM    3  C   UNL     1      -7.462  15.250  67.210  1.00  0.00    -0.202 C  
ENDROOT
BRANCH   2   4
HETATM    4  C   UNL     1      -8.885  15.868  69.089  1.00  0.00    -0.253 C  
BRANCH   4   5
HETATM    5  C   UNL     1     -10.444  15.742  69.113  1.00  0.00    -0.240 C  
BRANCH   5   6
HETATM    6  O   UNL     1     -11.007  16.461  70.233  1.00  0.00    -0.343 OA 
BRANCH   6   7
HETATM    7  C   UNL     1     -11.789  15.703  71.072  1.00  0.00    -0.400 A  
HETATM    8  C   UNL     1     -12.128  16.050  72.383  1.00  0.00    -0.629 A  
HETATM    9  C   UNL     1     -12.232  14.477  70.570  1.00  0.00    -0.399 A  
HETATM   10  C   UNL     1     -12.958  15.232  73.152  1.00  0.00    -0.625 A  
HETATM   11  C   UNL     1     -13.436  14.037  72.627  1.00  0.00    -0.650 A  
HETATM   12  C   UNL     1     -13.060  13.651  71.342  1.00  0.00    -0.396 A  
ENDBRANCH   6   7
ENDBRANCH   5   6
BRANCH   5  13
HETATM   13  O   UNL     1     -10.878  16.358  67.883  1.00  0.00    -0.333 OA 
BRANCH  13  14
HETATM   14  C   UNL     1     -10.596  17.679  67.684  1.00  0.00    -0.362 A  
HETATM   15  C   UNL     1     -10.034  19.930  68.348  1.00  0.00    -0.531 A  
HETATM   16  C   UNL     1     -10.384  18.622  68.688  1.00  0.00    -0.256 A  
HETATM   17  C   UNL     1     -10.080  19.343  66.009  1.00  0.00    -0.488 A  
HETATM   18  C   UNL     1     -10.424  18.039  66.349  1.00  0.00    -0.345 A  
HETATM   19  C   UNL     1      -9.890  20.292  67.009  1.00  0.00    -0.607 A  
ENDBRANCH  13  14
ENDBRANCH   5  13
ENDBRANCH   4   5
ENDBRANCH   2   4
TORSDOF 6
ENDMDL
MODEL       67
REMARK 921   NORMALIZED FREE ENERGY PREDICTED BY IDOCK:   -4.64 KCAL/MOL
REMARK 922        TOTAL FREE ENERGY PREDICTED BY IDOCK:   -7.12 KCAL/MOL
REMARK 923 INTER-LIGAND FREE ENERGY PREDICTED BY IDOCK:   -6.40 KCAL/MOL
REMARK 924 INTRA-LIGAND FREE ENERGY PREDICTED BY IDOCK:   -0.72 KCAL/MOL
REMARK 927      BINDING AFFINITY PREDICTED BY RF-SCORE:    0.00 PKD
ROOT
HETATM    1  C   UNL     1      -6.983  11.540  67.063  1.00  0.00    -0.145 C  
HETATM    2  N   UNL     1      -8.011  10.546  67.409  1.00  0.00    -0.110 NA 
HETATM    3  C   UNL     1      -7.368   9.322  67.892  1.00  0.00    -0.080 C  
ENDROOT
BRANCH   2   4
HETATM    4  C   UNL     1      -8.906  11.132  68.438  1.00  0.00    -0.157 C  
BRANCH   4   5
HETATM    5  C   UNL     1     -10.419  11.386  68.131  1.00  0.00    -0.187 C  
BRANCH   5   6
HETATM    6  O   UNL     1     -10.784  10.856  66.838  1.00  0.00    -0.253 OA 
BRANCH   6   7
HETATM    7  C   UNL     1     -11.208  11.795  65.926  1.00  0.00    -0.290 A  
HETATM    8  C   UNL     1     -11.024  11.709  64.543  1.00  0.00    -0.376 A  
HETATM    9  C   UNL     1     -11.829  12.932  66.449  1.00  0.00    -0.478 A  
HETATM   10  C   UNL     1     -11.521  12.697  63.689  1.00  0.00    -0.563 A  
HETATM   11  C   UNL     1     -12.181  13.800  64.214  1.00  0.00    -0.444 A  
HETATM   12  C   UNL     1     -12.321  13.927  65.595  1.00  0.00    -0.511 A  
ENDBRANCH   6   7
ENDBRANCH   5   6
BRANCH   5  13
HETATM   13  O   UNL     1     -11.125  10.664  69.160  1.00  0.00    -0.220 OA 
BRANCH  13  14
HETATM   14  C   UNL     1     -11.887  11.374  70.044  1.00  0.00    -0.359 A  
HETATM   15  C   UNL     1     -13.307  11.679  71.971  1.00  0.00    -0.405 A  
HETATM   16  C   UNL     1     -12.623  10.832  71.096  1.00  0.00    -0.532 A  
HETATM   17  C   UNL     1     -12.495  13.600  70.761  1.00  0.00    -0.432 A  
HETATM   18  C   UNL     1     -11.810  12.757  69.893  1.00  0.00    -0.371 A  
HETATM   19  C   UNL     1     -13.249  13.061  71.799  1.00  0.00    -0.486 A  
ENDBRANCH  13  14
ENDBRANCH   5  13
ENDBRANCH   4   5
ENDBRANCH   2   4
TORSDOF 6
ENDMDL
MODEL       68
REMARK 921   NORMALIZED FREE ENERGY PREDICTED BY IDOCK:   -4.64 KCAL/MOL
REMARK 922        TOTAL FREE ENERGY PREDICTED BY IDOCK:   -7.12 KCAL/MOL
REMARK 923 INTER-LIGAND FREE ENERGY PREDICTED BY IDOCK:   -6.37 KCAL/MOL
REMARK 924 INTRA-LIGAND FREE ENERGY PREDICTED BY IDOCK:   -0.75 KCAL/MOL
REMARK 927      BINDING AFFINITY PREDICTED BY RF-SCORE:    0.00 PKD
ROOT
HETATM    1  C   UNL     1      -6.811  11.512  66.983  1.00  0.00    -0.147 C  
HETATM    2  N   UNL     1      -7.414  11.623  68.320  1.00  0.00    -0.091 NA 
HETATM    3  C   UNL     1      -6.474  12.283  69.230  1.00  0.00    -0.109 C  
ENDROOT
BRANCH   2   4
HETATM    4  C   UNL     1      -8.682  12.385  68.204  1.00  0.00    -0.190 C  
BRANCH   4   5
HETATM    5  C   UNL     1     -10.063  11.651  68.248  1.00  0.00    -0.202 C  
BRANCH   5   6
HETATM    6  O   UNL     1     -10.423  11.141  66.945  1.00  0.00    -0.224 OA 
BRANCH   6   7
HETATM    7  C   UNL     1     -11.065  12.044  66.129  1.00  0.00    -0.322 A  
HETATM    8  C   UNL     1     -11.958  13.025  66.567  1.00  0.00    -0.457 A  
HETATM    9  C   UNL     1     -10.823  11.923  64.759  1.00  0.00    -0.359 A  
HETATM   10  C   UNL     1     -12.537  13.923  65.667  1.00  0.00    -0.553 A  
HETATM   11  C   UNL     1     -12.252  13.828  64.311  1.00  0.00    -0.444 A  
HETATM   12  C   UNL     1     -11.408  12.818  63.854  1.00  0.00    -0.498 A  
ENDBRANCH   6   7
ENDBRANCH   5   6
BRANCH   5  13
HETATM   13  O   UNL     1      -9.859  10.547  69.154  1.00  0.00    -0.205 OA 
BRANCH  13  14
HETATM   14  C   UNL     1     -10.850  10.246  70.044  1.00  0.00    -0.307 A  
HETATM   15  C   UNL     1     -11.933   8.961  71.775  1.00  0.00    -0.429 A  
HETATM   16  C   UNL     1     -10.894   9.114  70.855  1.00  0.00    -0.345 A  
HETATM   17  C   UNL     1     -12.862  11.079  71.092  1.00  0.00    -0.491 A  
HETATM   18  C   UNL     1     -11.825  11.233  70.179  1.00  0.00    -0.449 A  
HETATM   19  C   UNL     1     -12.920   9.939  71.888  1.00  0.00    -0.545 A  
ENDBRANCH  13  14
ENDBRANCH   5  13
ENDBRANCH   4   5
ENDBRANCH   2   4
TORSDOF 6
ENDMDL
MODEL       69
REMARK 921   NORMALIZED FREE ENERGY PREDICTED BY IDOCK:   -4.63 KCAL/MOL
REMARK 922        TOTAL FREE ENERGY PREDICTED BY IDOCK:   -7.10 KCAL/MOL
REMARK 923 INTER-LIGAND FREE ENERGY PREDICTED BY IDOCK:   -6.48 KCAL/MOL
REMARK 924 INTRA-LIGAND FREE ENERGY PREDICTED BY IDOCK:   -0.63 KCAL/MOL
REMARK 927      BINDING AFFINITY PREDICTED BY RF-SCORE:    0.00 PKD
ROOT
HETATM    1  C   UNL     1     -12.629  13.690  65.806  1.00  0.00    -0.461 C  
HETATM    2  N   UNL     1     -11.724  13.753  66.963  1.00  0.00    -0.367 NA 
HETATM    3  C   UNL     1     -10.511  12.981  66.681  1.00  0.00    -0.264 C  
ENDROOT
BRANCH   2   4
HETATM    4  C   UNL     1     -11.409  15.177  67.238  1.00  0.00    -0.303 C  
BRANCH   4   5
HETATM    5  C   UNL     1     -11.057  15.653  68.686  1.00  0.00    -0.317 C  
BRANCH   5   6
HETATM    6  O   UNL     1     -10.255  16.854  68.659  1.00  0.00    -0.262 OA 
BRANCH   6   7
HETATM    7  C   UNL     1      -8.905  16.652  68.824  1.00  0.00    -0.264 A  
HETATM    8  C   UNL     1      -7.913  17.597  68.548  1.00  0.00    -0.283 A  
HETATM    9  C   UNL     1      -8.515  15.384  69.263  1.00  0.00    -0.258 A  
HETATM   10  C   UNL     1      -6.565  17.314  68.780  1.00  0.00    -0.197 A  
HETATM   11  C   UNL     1      -6.190  16.067  69.264  1.00  0.00    -0.151 A  
HETATM   12  C   UNL     1      -7.163  15.096  69.490  1.00  0.00    -0.204 A  
ENDBRANCH   6   7
ENDBRANCH   5   6
BRANCH   5  13
HETATM   13  O   UNL     1     -12.332  15.943  69.295  1.00  0.00    -0.197 OA 
BRANCH  13  14
HETATM   14  C   UNL     1     -12.569  15.478  70.556  1.00  0.00    -0.416 A  
HETATM   15  C   UNL     1     -13.420  13.935  72.205  1.00  0.00    -0.623 A  
HETATM   16  C   UNL     1     -13.311  14.342  70.874  1.00  0.00    -0.266 A  
HETATM   17  C   UNL     1     -12.026  15.780  72.891  1.00  0.00    -0.599 A  
HETATM   18  C   UNL     1     -11.914  16.181  71.565  1.00  0.00    -0.490 A  
HETATM   19  C   UNL     1     -12.784  14.658  73.214  1.00  0.00    -0.552 A  
ENDBRANCH  13  14
ENDBRANCH   5  13
ENDBRANCH   4   5
ENDBRANCH   2   4
TORSDOF 6
ENDMDL
MODEL       70
REMARK 921   NORMALIZED FREE ENERGY PREDICTED BY IDOCK:   -4.60 KCAL/MOL
REMARK 922        TOTAL FREE ENERGY PREDICTED BY IDOCK:   -7.06 KCAL/MOL
REMARK 923 INTER-LIGAND FREE ENERGY PREDICTED BY IDOCK:   -6.22 KCAL/MOL
REMARK 924 INTRA-LIGAND FREE ENERGY PREDICTED BY IDOCK:   -0.84 KCAL/MOL
REMARK 927      BINDING AFFINITY PREDICTED BY RF-SCORE:    0.00 PKD
ROOT
HETATM    1  C   UNL     1     -12.254  12.225  63.457  1.00  0.00    -0.568 C  
HETATM    2  N   UNL     1     -11.648  12.989  64.558  1.00  0.00    -0.342 NA 
HETATM    3  C   UNL     1     -12.703  13.579  65.386  1.00  0.00    -0.442 C  
ENDROOT
BRANCH   2   4
HETATM    4  C   UNL     1     -10.786  12.074  65.348  1.00  0.00    -0.291 C  
BRANCH   4   5
HETATM    5  C   UNL     1     -10.335  12.453  66.797  1.00  0.00    -0.221 C  
BRANCH   5   6
HETATM    6  O   UNL     1      -9.733  11.323  67.467  1.00  0.00    -0.175 OA 
BRANCH   6   7
HETATM    7  C   UNL     1     -10.370  10.928  68.620  1.00  0.00    -0.191 A  
HETATM    8  C   UNL     1      -9.932   9.905  69.466  1.00  0.00    -0.240 A  
HETATM    9  C   UNL     1     -11.565  11.582  68.926  1.00  0.00    -0.384 A  
HETATM   10  C   UNL     1     -10.627   9.594  70.637  1.00  0.00    -0.386 A  
HETATM   11  C   UNL     1     -11.789  10.285  70.960  1.00  0.00    -0.472 A  
HETATM   12  C   UNL     1     -12.267  11.267  70.096  1.00  0.00    -0.410 A  
ENDBRANCH   6   7
ENDBRANCH   5   6
BRANCH   5  13
HETATM   13  O   UNL     1      -9.344  13.484  66.613  1.00  0.00    -0.255 OA 
BRANCH  13  14
HETATM   14  C   UNL     1      -9.693  14.776  66.886  1.00  0.00    -0.240 A  
HETATM   15  C   UNL     1      -9.961  17.126  66.413  1.00  0.00    -0.315 A  
HETATM   16  C   UNL     1      -9.493  15.865  66.040  1.00  0.00    -0.389 A  
HETATM   17  C   UNL     1     -10.848  16.204  68.456  1.00  0.00    -0.313 A  
HETATM   18  C   UNL     1     -10.386  14.947  68.083  1.00  0.00    -0.237 A  
HETATM   19  C   UNL     1     -10.630  17.297  67.623  1.00  0.00    -0.350 A  
ENDBRANCH  13  14
ENDBRANCH   5  13
ENDBRANCH   4   5
ENDBRANCH   2   4
TORSDOF 6
ENDMDL
MODEL       71
REMARK 921   NORMALIZED FREE ENERGY PREDICTED BY IDOCK:   -4.58 KCAL/MOL
REMARK 922        TOTAL FREE ENERGY PREDICTED BY IDOCK:   -7.05 KCAL/MOL
REMARK 923 INTER-LIGAND FREE ENERGY PREDICTED BY IDOCK:   -6.30 KCAL/MOL
REMARK 924 INTRA-LIGAND FREE ENERGY PREDICTED BY IDOCK:   -0.74 KCAL/MOL
REMARK 927      BINDING AFFINITY PREDICTED BY RF-SCORE:    0.00 PKD
ROOT
HETATM    1  C   UNL     1      -9.303  15.246  65.957  1.00  0.00    -0.311 C  
HETATM    2  N   UNL     1     -10.189  16.277  65.394  1.00  0.00    -0.568 NA 
HETATM    3  C   UNL     1     -11.387  15.645  64.836  1.00  0.00    -0.315 C  
ENDROOT
BRANCH   2   4
HETATM    4  C   UNL     1     -10.534  17.239  66.470  1.00  0.00    -0.260 C  
BRANCH   4   5
HETATM    5  C   UNL     1     -10.394  16.839  67.976  1.00  0.00    -0.317 C  
BRANCH   5   6
HETATM    6  O   UNL     1      -9.915  17.949  68.767  1.00  0.00    -0.359 OA 
BRANCH   6   7
HETATM    7  C   UNL     1      -8.594  18.273  68.568  1.00  0.00    -0.306 A  
HETATM    8  C   UNL     1      -7.517  17.404  68.765  1.00  0.00    -0.258 A  
HETATM    9  C   UNL     1      -8.328  19.588  68.180  1.00  0.00    -0.359 A  
HETATM   10  C   UNL     1      -6.207  17.811  68.503  1.00  0.00    -0.184 A  
HETATM   11  C   UNL     1      -5.956  19.107  68.069  1.00  0.00    -0.222 A  
HETATM   12  C   UNL     1      -7.014  20.001  67.923  1.00  0.00    -0.310 A  
ENDBRANCH   6   7
ENDBRANCH   5   6
BRANCH   5  13
HETATM   13  O   UNL     1     -11.735  16.501  68.388  1.00  0.00    -0.139 OA 
BRANCH  13  14
HETATM   14  C   UNL     1     -11.905  15.446  69.237  1.00  0.00    -0.343 A  
HETATM   15  C   UNL     1     -12.556  14.362  71.293  1.00  0.00    -0.421 A  
HETATM   16  C   UNL     1     -12.360  15.529  70.552  1.00  0.00    -0.461 A  
HETATM   17  C   UNL     1     -11.874  13.034  69.399  1.00  0.00    -0.380 A  
HETATM   18  C   UNL     1     -11.683  14.197  68.660  1.00  0.00    -0.385 A  
HETATM   19  C   UNL     1     -12.306  13.117  70.719  1.00  0.00    -0.404 A  
ENDBRANCH  13  14
ENDBRANCH   5  13
ENDBRANCH   4   5
ENDBRANCH   2   4
TORSDOF 6
ENDMDL
MODEL       72
REMARK 921   NORMALIZED FREE ENERGY PREDICTED BY IDOCK:   -4.54 KCAL/MOL
REMARK 922        TOTAL FREE ENERGY PREDICTED BY IDOCK:   -6.99 KCAL/MOL
REMARK 923 INTER-LIGAND FREE ENERGY PREDICTED BY IDOCK:   -6.16 KCAL/MOL
REMARK 924 INTRA-LIGAND FREE ENERGY PREDICTED BY IDOCK:   -0.83 KCAL/MOL
REMARK 927      BINDING AFFINITY PREDICTED BY RF-SCORE:    0.00 PKD
ROOT
HETATM    1  C   UNL     1     -12.514  10.529  71.178  1.00  0.00    -0.412 C  
HETATM    2  N   UNL     1     -11.474  11.015  70.258  1.00  0.00    -0.298 NA 
HETATM    3  C   UNL     1     -10.618   9.899  69.849  1.00  0.00    -0.273 C  
ENDROOT
BRANCH   2   4
HETATM    4  C   UNL     1     -12.136  11.647  69.090  1.00  0.00    -0.251 C  
BRANCH   4   5
HETATM    5  C   UNL     1     -11.652  13.034  68.550  1.00  0.00    -0.328 C  
BRANCH   5   6
HETATM    6  O   UNL     1     -11.097  13.841  69.612  1.00  0.00    -0.166 OA 
BRANCH   6   7
HETATM    7  C   UNL     1     -10.523  15.022  69.202  1.00  0.00    -0.247 A  
HETATM    8  C   UNL     1      -9.194  15.388  69.429  1.00  0.00    -0.268 A  
HETATM    9  C   UNL     1     -11.363  15.926  68.547  1.00  0.00    -0.374 A  
HETATM   10  C   UNL     1      -8.688  16.596  68.944  1.00  0.00    -0.238 A  
HETATM   11  C   UNL     1      -9.518  17.468  68.250  1.00  0.00    -0.296 A  
HETATM   12  C   UNL     1     -10.859  17.141  68.065  1.00  0.00    -0.317 A  
ENDBRANCH   6   7
ENDBRANCH   5   6
BRANCH   5  13
HETATM   13  O   UNL     1     -10.613  12.712  67.602  1.00  0.00    -0.214 OA 
BRANCH  13  14
HETATM   14  C   UNL     1     -10.964  12.523  66.296  1.00  0.00    -0.277 A  
HETATM   15  C   UNL     1     -10.953  11.404  64.158  1.00  0.00    -0.411 A  
HETATM   16  C   UNL     1     -10.457  11.532  65.457  1.00  0.00    -0.327 A  
HETATM   17  C   UNL     1     -12.476  13.233  64.549  1.00  0.00    -0.381 A  
HETATM   18  C   UNL     1     -11.985  13.357  65.844  1.00  0.00    -0.452 A  
HETATM   19  C   UNL     1     -11.955  12.259  63.702  1.00  0.00    -0.633 A  
ENDBRANCH  13  14
ENDBRANCH   5  13
ENDBRANCH   4   5
ENDBRANCH   2   4
TORSDOF 6
ENDMDL
MODEL       73
REMARK 921   NORMALIZED FREE ENERGY PREDICTED BY IDOCK:   -4.53 KCAL/MOL
REMARK 922        TOTAL FREE ENERGY PREDICTED BY IDOCK:   -6.97 KCAL/MOL
REMARK 923 INTER-LIGAND FREE ENERGY PREDICTED BY IDOCK:   -6.45 KCAL/MOL
REMARK 924 INTRA-LIGAND FREE ENERGY PREDICTED BY IDOCK:   -0.52 KCAL/MOL
REMARK 927      BINDING AFFINITY PREDICTED BY RF-SCORE:    0.00 PKD
ROOT
HETATM    1  C   UNL     1      -8.658   8.460  65.428  1.00  0.00    -0.167 C  
HETATM    2  N   UNL     1      -9.758   8.901  66.299  1.00  0.00    -0.261 NA 
HETATM    3  C   UNL     1     -10.318   7.747  67.007  1.00  0.00    -0.334 C  
ENDROOT
BRANCH   2   4
HETATM    4  C   UNL     1      -9.231   9.915  67.246  1.00  0.00    -0.138 C  
BRANCH   4   5
HETATM    5  C   UNL     1     -10.194  10.927  67.952  1.00  0.00    -0.179 C  
BRANCH   5   6
HETATM    6  O   UNL     1      -9.889  11.041  69.359  1.00  0.00    -0.105 OA 
BRANCH   6   7
HETATM    7  C   UNL     1     -10.851  10.536  70.202  1.00  0.00    -0.227 A  
HETATM    8  C   UNL     1     -10.773   9.306  70.861  1.00  0.00    -0.371 A  
HETATM    9  C   UNL     1     -12.004  11.307  70.362  1.00  0.00    -0.471 A  
HETATM   10  C   UNL     1     -11.786   8.889  71.728  1.00  0.00    -0.432 A  
HETATM   11  C   UNL     1     -12.907   9.686  71.920  1.00  0.00    -0.515 A  
HETATM   12  C   UNL     1     -13.025  10.888  71.225  1.00  0.00    -0.492 A  
ENDBRANCH   6   7
ENDBRANCH   5   6
BRANCH   5  13
HETATM   13  O   UNL     1      -9.935  12.188  67.302  1.00  0.00    -0.201 OA 
BRANCH  13  14
HETATM   14  C   UNL     1     -10.538  12.436  66.102  1.00  0.00    -0.254 A  
HETATM   15  C   UNL     1     -10.726  12.436  63.697  1.00  0.00    -0.497 A  
HETATM   16  C   UNL     1      -9.974  12.202  64.849  1.00  0.00    -0.235 A  
HETATM   17  C   UNL     1     -12.608  13.104  65.049  1.00  0.00    -0.499 A  
HETATM   18  C   UNL     1     -11.859  12.868  66.197  1.00  0.00    -0.487 A  
HETATM   19  C   UNL     1     -12.039  12.893  63.796  1.00  0.00    -0.583 A  
ENDBRANCH  13  14
ENDBRANCH   5  13
ENDBRANCH   4   5
ENDBRANCH   2   4
TORSDOF 6
ENDMDL
MODEL       74
REMARK 921   NORMALIZED FREE ENERGY PREDICTED BY IDOCK:   -4.53 KCAL/MOL
REMARK 922        TOTAL FREE ENERGY PREDICTED BY IDOCK:   -6.97 KCAL/MOL
REMARK 923 INTER-LIGAND FREE ENERGY PREDICTED BY IDOCK:   -6.10 KCAL/MOL
REMARK 924 INTRA-LIGAND FREE ENERGY PREDICTED BY IDOCK:   -0.87 KCAL/MOL
REMARK 927      BINDING AFFINITY PREDICTED BY RF-SCORE:    0.00 PKD
ROOT
HETATM    1  C   UNL     1      -7.216  16.141  69.515  1.00  0.00    -0.136 C  
HETATM    2  N   UNL     1      -6.321  15.416  68.600  1.00  0.00    -0.093 NA 
HETATM    3  C   UNL     1      -6.353  13.985  68.913  1.00  0.00    -0.092 C  
ENDROOT
BRANCH   2   4
HETATM    4  C   UNL     1      -6.760  15.676  67.206  1.00  0.00    -0.132 C  
BRANCH   4   5
HETATM    5  C   UNL     1      -8.272  15.901  66.873  1.00  0.00    -0.248 C  
BRANCH   5   6
HETATM    6  O   UNL     1      -8.441  16.979  65.927  1.00  0.00    -0.519 OA 
BRANCH   6   7
HETATM    7  C   UNL     1      -8.875  18.165  66.473  1.00  0.00    -0.271 A  
HETATM    8  C   UNL     1      -8.043  19.151  67.010  1.00  0.00    -0.279 A  
HETATM    9  C   UNL     1     -10.258  18.357  66.524  1.00  0.00    -0.423 A  
HETATM   10  C   UNL     1      -8.571  20.342  67.513  1.00  0.00    -0.358 A  
HETATM   11  C   UNL     1      -9.945  20.546  67.514  1.00  0.00    -0.497 A  
HETATM   12  C   UNL     1     -10.790  19.547  67.035  1.00  0.00    -0.542 A  
ENDBRANCH   6   7
ENDBRANCH   5   6
BRANCH   5  13
HETATM   13  O   UNL     1      -8.699  14.663  66.269  1.00  0.00    -0.093 OA 
BRANCH  13  14
HETATM   14  C   UNL     1     -10.027  14.499  65.995  1.00  0.00    -0.322 A  
HETATM   15  C   UNL     1     -11.958  14.204  64.579  1.00  0.00    -0.476 A  
HETATM   16  C   UNL     1     -10.590  14.446  64.722  1.00  0.00    -0.417 A  
HETATM   17  C   UNL     1     -12.189  14.042  66.974  1.00  0.00    -0.387 A  
HETATM   18  C   UNL     1     -10.826  14.279  67.115  1.00  0.00    -0.296 A  
HETATM   19  C   UNL     1     -12.758  14.010  65.704  1.00  0.00    -0.515 A  
ENDBRANCH  13  14
ENDBRANCH   5  13
ENDBRANCH   4   5
ENDBRANCH   2   4
TORSDOF 6
ENDMDL
MODEL       75
REMARK 921   NORMALIZED FREE ENERGY PREDICTED BY IDOCK:   -4.50 KCAL/MOL
REMARK 922        TOTAL FREE ENERGY PREDICTED BY IDOCK:   -6.94 KCAL/MOL
REMARK 923 INTER-LIGAND FREE ENERGY PREDICTED BY IDOCK:   -6.24 KCAL/MOL
REMARK 924 INTRA-LIGAND FREE ENERGY PREDICTED BY IDOCK:   -0.69 KCAL/MOL
REMARK 927      BINDING AFFINITY PREDICTED BY RF-SCORE:    0.00 PKD
ROOT
HETATM    1  C   UNL     1      -9.930   6.553  73.998  1.00  0.00    -0.299 C  
HETATM    2  N   UNL     1     -10.265   7.842  73.374  1.00  0.00    -0.315 NA 
HETATM    3  C   UNL     1      -9.256   8.176  72.365  1.00  0.00    -0.226 C  
ENDROOT
BRANCH   2   4
HETATM    4  C   UNL     1     -11.618   7.737  72.774  1.00  0.00    -0.314 C  
BRANCH   4   5
HETATM    5  C   UNL     1     -11.828   7.924  71.235  1.00  0.00    -0.296 C  
BRANCH   5   6
HETATM    6  O   UNL     1     -12.215   6.681  70.608  1.00  0.00    -0.377 OA 
BRANCH   6   7
HETATM    7  C   UNL     1     -11.193   6.009  69.979  1.00  0.00    -0.355 A  
HETATM    8  C   UNL     1     -10.273   5.171  70.617  1.00  0.00    -0.326 A  
HETATM    9  C   UNL     1     -11.057   6.228  68.606  1.00  0.00    -0.409 A  
HETATM   10  C   UNL     1      -9.287   4.501  69.890  1.00  0.00    -0.218 A  
HETATM   11  C   UNL     1      -9.190   4.686  68.516  1.00  0.00    -0.173 A  
HETATM   12  C   UNL     1     -10.065   5.562  67.876  1.00  0.00    -0.218 A  
ENDBRANCH   6   7
ENDBRANCH   5   6
BRANCH   5  13
HETATM   13  O   UNL     1     -12.910   8.871  71.127  1.00  0.00    -0.261 OA 
BRANCH  13  14
HETATM   14  C   UNL     1     -12.604  10.184  70.910  1.00  0.00    -0.360 A  
HETATM   15  C   UNL     1     -11.672  12.051  69.699  1.00  0.00    -0.405 A  
HETATM   16  C   UNL     1     -11.855  10.675  69.842  1.00  0.00    -0.392 A  
HETATM   17  C   UNL     1     -13.007  12.443  71.668  1.00  0.00    -0.409 A  
HETATM   18  C   UNL     1     -13.193  11.072  71.808  1.00  0.00    -0.505 A  
HETATM   19  C   UNL     1     -12.242  12.934  70.615  1.00  0.00    -0.386 A  
ENDBRANCH  13  14
ENDBRANCH   5  13
ENDBRANCH   4   5
ENDBRANCH   2   4
TORSDOF 6
ENDMDL
MODEL       76
REMARK 921   NORMALIZED FREE ENERGY PREDICTED BY IDOCK:   -4.48 KCAL/MOL
REMARK 922        TOTAL FREE ENERGY PREDICTED BY IDOCK:   -6.90 KCAL/MOL
REMARK 923 INTER-LIGAND FREE ENERGY PREDICTED BY IDOCK:   -6.10 KCAL/MOL
REMARK 924 INTRA-LIGAND FREE ENERGY PREDICTED BY IDOCK:   -0.81 KCAL/MOL
REMARK 927      BINDING AFFINITY PREDICTED BY RF-SCORE:    0.00 PKD
ROOT
HETATM    1  C   UNL     1      -8.190  10.427  64.983  1.00  0.00    -0.152 C  
HETATM    2  N   UNL     1      -9.551   9.869  64.999  1.00  0.00    -0.290 NA 
HETATM    3  C   UNL     1      -9.832   9.295  66.317  1.00  0.00    -0.291 C  
ENDROOT
BRANCH   2   4
HETATM    4  C   UNL     1     -10.508  10.953  64.663  1.00  0.00    -0.314 C  
BRANCH   4   5
HETATM    5  C   UNL     1     -10.612  12.233  65.557  1.00  0.00    -0.269 C  
BRANCH   5   6
HETATM    6  O   UNL     1     -10.594  13.432  64.752  1.00  0.00    -0.358 OA 
BRANCH   6   7
HETATM    7  C   UNL     1     -10.168  14.563  65.409  1.00  0.00    -0.389 A  
HETATM    8  C   UNL     1      -9.148  14.598  66.364  1.00  0.00    -0.242 A  
HETATM    9  C   UNL     1     -10.849  15.747  65.115  1.00  0.00    -0.444 A  
HETATM   10  C   UNL     1      -8.758  15.802  66.956  1.00  0.00    -0.251 A  
HETATM   11  C   UNL     1      -9.408  16.983  66.620  1.00  0.00    -0.274 A  
HETATM   12  C   UNL     1     -10.465  16.954  65.712  1.00  0.00    -0.279 A  
ENDBRANCH   6   7
ENDBRANCH   5   6
BRANCH   5  13
HETATM   13  O   UNL     1     -11.891  12.116  66.213  1.00  0.00    -0.553 OA 
BRANCH  13  14
HETATM   14  C   UNL     1     -11.942  12.278  67.568  1.00  0.00    -0.140 A  
HETATM   15  C   UNL     1     -11.756  11.585  69.872  1.00  0.00    -0.420 A  
HETATM   16  C   UNL     1     -11.745  11.271  68.512  1.00  0.00    -0.378 A  
HETATM   17  C   UNL     1     -12.130  13.908  69.342  1.00  0.00    -0.384 A  
HETATM   18  C   UNL     1     -12.115  13.595  67.987  1.00  0.00    -0.309 A  
HETATM   19  C   UNL     1     -11.956  12.901  70.286  1.00  0.00    -0.359 A  
ENDBRANCH  13  14
ENDBRANCH   5  13
ENDBRANCH   4   5
ENDBRANCH   2   4
TORSDOF 6
ENDMDL
MODEL       77
REMARK 921   NORMALIZED FREE ENERGY PREDICTED BY IDOCK:   -4.46 KCAL/MOL
REMARK 922        TOTAL FREE ENERGY PREDICTED BY IDOCK:   -6.87 KCAL/MOL
REMARK 923 INTER-LIGAND FREE ENERGY PREDICTED BY IDOCK:   -5.98 KCAL/MOL
REMARK 924 INTRA-LIGAND FREE ENERGY PREDICTED BY IDOCK:   -0.90 KCAL/MOL
REMARK 927      BINDING AFFINITY PREDICTED BY RF-SCORE:    0.00 PKD
ROOT
HETATM    1  C   UNL     1     -10.763  12.374  68.535  1.00  0.00    -0.238 C  
HETATM    2  N   UNL     1     -12.028  12.998  68.953  1.00  0.00    -0.296 NA 
HETATM    3  C   UNL     1     -12.254  12.744  70.378  1.00  0.00    -0.293 C  
ENDROOT
BRANCH   2   4
HETATM    4  C   UNL     1     -11.954  14.452  68.665  1.00  0.00    -0.297 C  
BRANCH   4   5
HETATM    5  C   UNL     1     -10.950  15.006  67.601  1.00  0.00    -0.305 C  
BRANCH   5   6
HETATM    6  O   UNL     1     -11.615  15.271  66.347  1.00  0.00    -0.172 OA 
BRANCH   6   7
HETATM    7  C   UNL     1     -11.592  14.229  65.449  1.00  0.00    -0.346 A  
HETATM    8  C   UNL     1     -12.689  13.426  65.125  1.00  0.00    -0.459 A  
HETATM    9  C   UNL     1     -10.358  13.943  64.860  1.00  0.00    -0.430 A  
HETATM   10  C   UNL     1     -12.580  12.409  64.173  1.00  0.00    -0.498 A  
HETATM   11  C   UNL     1     -11.360  12.164  63.556  1.00  0.00    -0.535 A  
HETATM   12  C   UNL     1     -10.244  12.920  63.911  1.00  0.00    -0.162 A  
ENDBRANCH   6   7
ENDBRANCH   5   6
BRANCH   5  13
HETATM   13  O   UNL     1     -10.474  16.247  68.161  1.00  0.00    -0.266 OA 
BRANCH  13  14
HETATM   14  C   UNL     1      -9.622  17.010  67.416  1.00  0.00    -0.246 A  
HETATM   15  C   UNL     1      -8.842  19.030  66.350  1.00  0.00    -0.326 A  
HETATM   16  C   UNL     1      -9.829  18.341  67.059  1.00  0.00    -0.331 A  
HETATM   17  C   UNL     1      -7.438  17.070  66.384  1.00  0.00    -0.336 A  
HETATM   18  C   UNL     1      -8.419  16.386  67.093  1.00  0.00    -0.208 A  
HETATM   19  C   UNL     1      -7.651  18.392  66.007  1.00  0.00    -0.231 A  
ENDBRANCH  13  14
ENDBRANCH   5  13
ENDBRANCH   4   5
ENDBRANCH   2   4
TORSDOF 6
ENDMDL
MODEL       78
REMARK 921   NORMALIZED FREE ENERGY PREDICTED BY IDOCK:   -4.45 KCAL/MOL
REMARK 922        TOTAL FREE ENERGY PREDICTED BY IDOCK:   -6.86 KCAL/MOL
REMARK 923 INTER-LIGAND FREE ENERGY PREDICTED BY IDOCK:   -5.98 KCAL/MOL
REMARK 924 INTRA-LIGAND FREE ENERGY PREDICTED BY IDOCK:   -0.88 KCAL/MOL
REMARK 927      BINDING AFFINITY PREDICTED BY RF-SCORE:    0.00 PKD
ROOT
HETATM    1  C   UNL     1     -10.613   6.239  73.546  1.00  0.00    -0.269 C  
HETATM    2  N   UNL     1     -10.706   7.678  73.254  1.00  0.00    -0.388 NA 
HETATM    3  C   UNL     1      -9.373   8.203  72.948  1.00  0.00    -0.273 C  
ENDROOT
BRANCH   2   4
HETATM    4  C   UNL     1     -11.639   7.869  72.117  1.00  0.00    -0.328 C  
BRANCH   4   5
HETATM    5  C   UNL     1     -11.323   8.905  70.988  1.00  0.00    -0.291 C  
BRANCH   5   6
HETATM    6  O   UNL     1     -10.954   8.240  69.760  1.00  0.00    -0.224 OA 
BRANCH   6   7
HETATM    7  C   UNL     1     -10.170   8.987  68.912  1.00  0.00    -0.208 A  
HETATM    8  C   UNL     1      -9.055   9.734  69.301  1.00  0.00    -0.189 A  
HETATM    9  C   UNL     1     -10.562   9.021  67.571  1.00  0.00    -0.306 A  
HETATM   10  C   UNL     1      -8.296  10.437  68.362  1.00  0.00    -0.119 A  
HETATM   11  C   UNL     1      -8.665  10.425  67.022  1.00  0.00    -0.132 A  
HETATM   12  C   UNL     1      -9.807   9.730  66.629  1.00  0.00    -0.275 A  
ENDBRANCH   6   7
ENDBRANCH   5   6
BRANCH   5  13
HETATM   13  O   UNL     1     -12.561   9.618  70.792  1.00  0.00    -0.247 OA 
BRANCH  13  14
HETATM   14  C   UNL     1     -12.543  10.982  70.866  1.00  0.00    -0.391 A  
HETATM   15  C   UNL     1     -12.080  13.218  70.087  1.00  0.00    -0.403 A  
HETATM   16  C   UNL     1     -11.968  11.836  69.926  1.00  0.00    -0.405 A  
HETATM   17  C   UNL     1     -13.361  12.889  72.104  1.00  0.00    -0.615 A  
HETATM   18  C   UNL     1     -13.253  11.512  71.941  1.00  0.00    -0.479 A  
HETATM   19  C   UNL     1     -12.769  13.744  71.179  1.00  0.00    -0.438 A  
ENDBRANCH  13  14
ENDBRANCH   5  13
ENDBRANCH   4   5
ENDBRANCH   2   4
TORSDOF 6
ENDMDL
MODEL       79
REMARK 921   NORMALIZED FREE ENERGY PREDICTED BY IDOCK:   -4.42 KCAL/MOL
REMARK 922        TOTAL FREE ENERGY PREDICTED BY IDOCK:   -6.83 KCAL/MOL
REMARK 923 INTER-LIGAND FREE ENERGY PREDICTED BY IDOCK:   -6.74 KCAL/MOL
REMARK 924 INTRA-LIGAND FREE ENERGY PREDICTED BY IDOCK:   -0.08 KCAL/MOL
REMARK 927      BINDING AFFINITY PREDICTED BY RF-SCORE:    0.00 PKD
ROOT
HETATM    1  C   UNL     1     -10.377  16.595  67.845  1.00  0.00    -0.310 C  
HETATM    2  N   UNL     1     -10.836  15.705  66.767  1.00  0.00    -0.307 NA 
HETATM    3  C   UNL     1     -10.080  15.985  65.544  1.00  0.00    -0.304 C  
ENDROOT
BRANCH   2   4
HETATM    4  C   UNL     1     -10.655  14.299  67.208  1.00  0.00    -0.278 C  
BRANCH   4   5
HETATM    5  C   UNL     1     -11.854  13.486  67.799  1.00  0.00    -0.362 C  
BRANCH   5   6
HETATM    6  O   UNL     1     -12.097  12.286  67.032  1.00  0.00    -0.575 OA 
BRANCH   6   7
HETATM    7  C   UNL     1     -11.039  11.409  66.981  1.00  0.00    -0.303 A  
HETATM    8  C   UNL     1      -9.925  11.546  66.147  1.00  0.00    -0.257 A  
HETATM    9  C   UNL     1     -11.126  10.282  67.801  1.00  0.00    -0.335 A  
HETATM   10  C   UNL     1      -8.879  10.621  66.187  1.00  0.00    -0.179 A  
HETATM   11  C   UNL     1      -8.951   9.528  67.043  1.00  0.00    -0.150 A  
HETATM   12  C   UNL     1     -10.081   9.350  67.838  1.00  0.00    -0.239 A  
ENDBRANCH   6   7
ENDBRANCH   5   6
BRANCH   5  13
HETATM   13  O   UNL     1     -11.429  13.126  69.129  1.00  0.00    -0.273 OA 
BRANCH  13  14
HETATM   14  C   UNL     1     -12.159  13.582  70.189  1.00  0.00    -0.354 A  
HETATM   15  C   UNL     1     -13.306  15.239  71.516  1.00  0.00    -0.559 A  
HETATM   16  C   UNL     1     -12.494  14.914  70.429  1.00  0.00    -0.403 A  
HETATM   17  C   UNL     1     -13.471  12.905  72.102  1.00  0.00    -0.619 A  
HETATM   18  C   UNL     1     -12.665  12.582  71.016  1.00  0.00    -0.316 A  
HETATM   19  C   UNL     1     -13.788  14.236  72.356  1.00  0.00    -0.619 A  
ENDBRANCH  13  14
ENDBRANCH   5  13
ENDBRANCH   4   5
ENDBRANCH   2   4
TORSDOF 6
ENDMDL
MODEL       80
REMARK 921   NORMALIZED FREE ENERGY PREDICTED BY IDOCK:   -4.41 KCAL/MOL
REMARK 922        TOTAL FREE ENERGY PREDICTED BY IDOCK:   -6.81 KCAL/MOL
REMARK 923 INTER-LIGAND FREE ENERGY PREDICTED BY IDOCK:   -5.97 KCAL/MOL
REMARK 924 INTRA-LIGAND FREE ENERGY PREDICTED BY IDOCK:   -0.85 KCAL/MOL
REMARK 927      BINDING AFFINITY PREDICTED BY RF-SCORE:    0.00 PKD
ROOT
HETATM    1  C   UNL     1     -13.548  14.632  71.165  1.00  0.00    -0.344 C  
HETATM    2  N   UNL     1     -12.593  15.550  70.524  1.00  0.00    -0.435 NA 
HETATM    3  C   UNL     1     -11.665  16.074  71.530  1.00  0.00    -0.484 C  
ENDROOT
BRANCH   2   4
HETATM    4  C   UNL     1     -11.875  14.812  69.456  1.00  0.00    -0.326 C  
BRANCH   4   5
HETATM    5  C   UNL     1     -10.600  15.419  68.783  1.00  0.00    -0.235 C  
BRANCH   5   6
HETATM    6  O   UNL     1      -9.796  14.389  68.166  1.00  0.00    -0.212 OA 
BRANCH   6   7
HETATM    7  C   UNL     1      -8.448  14.474  68.425  1.00  0.00    -0.163 A  
HETATM    8  C   UNL     1      -7.872  15.281  69.410  1.00  0.00    -0.227 A  
HETATM    9  C   UNL     1      -7.608  13.720  67.602  1.00  0.00    -0.189 A  
HETATM   10  C   UNL     1      -6.491  15.277  69.625  1.00  0.00    -0.162 A  
HETATM   11  C   UNL     1      -5.667  14.486  68.834  1.00  0.00    -0.086 A  
HETATM   12  C   UNL     1      -6.223  13.720  67.812  1.00  0.00    -0.159 A  
ENDBRANCH   6   7
ENDBRANCH   5   6
BRANCH   5  13
HETATM   13  O   UNL     1     -11.111  16.302  67.764  1.00  0.00    -0.310 OA 
BRANCH  13  14
HETATM   14  C   UNL     1     -10.667  17.593  67.741  1.00  0.00    -0.332 A  
HETATM   15  C   UNL     1      -9.674  19.591  68.659  1.00  0.00    -0.514 A  
HETATM   16  C   UNL     1     -10.160  18.294  68.833  1.00  0.00    -0.358 A  
HETATM   17  C   UNL     1     -10.171  19.470  66.302  1.00  0.00    -0.582 A  
HETATM   18  C   UNL     1     -10.652  18.177  66.476  1.00  0.00    -0.290 A  
HETATM   19  C   UNL     1      -9.686  20.181  67.396  1.00  0.00    -0.563 A  
ENDBRANCH  13  14
ENDBRANCH   5  13
ENDBRANCH   4   5
ENDBRANCH   2   4
TORSDOF 6
ENDMDL
MODEL       81
REMARK 921   NORMALIZED FREE ENERGY PREDICTED BY IDOCK:   -4.40 KCAL/MOL
REMARK 922        TOTAL FREE ENERGY PREDICTED BY IDOCK:   -6.80 KCAL/MOL
REMARK 923 INTER-LIGAND FREE ENERGY PREDICTED BY IDOCK:   -6.72 KCAL/MOL
REMARK 924 INTRA-LIGAND FREE ENERGY PREDICTED BY IDOCK:   -0.08 KCAL/MOL
REMARK 927      BINDING AFFINITY PREDICTED BY RF-SCORE:    0.00 PKD
ROOT
HETATM    1  C   UNL     1      -8.521  16.688  68.576  1.00  0.00    -0.233 C  
HETATM    2  N   UNL     1      -9.049  15.351  68.263  1.00  0.00    -0.184 NA 
HETATM    3  C   UNL     1      -7.974  14.361  68.365  1.00  0.00    -0.141 C  
ENDROOT
BRANCH   2   4
HETATM    4  C   UNL     1     -10.157  15.050  69.203  1.00  0.00    -0.245 C  
BRANCH   4   5
HETATM    5  C   UNL     1     -11.591  14.724  68.671  1.00  0.00    -0.319 C  
BRANCH   5   6
HETATM    6  O   UNL     1     -11.980  13.376  69.014  1.00  0.00    -0.319 OA 
BRANCH   6   7
HETATM    7  C   UNL     1     -11.476  12.400  68.186  1.00  0.00    -0.318 A  
HETATM    8  C   UNL     1     -11.260  12.549  66.813  1.00  0.00    -0.347 A  
HETATM    9  C   UNL     1     -11.207  11.162  68.774  1.00  0.00    -0.314 A  
HETATM   10  C   UNL     1     -10.710  11.512  66.055  1.00  0.00    -0.332 A  
HETATM   11  C   UNL     1     -10.399  10.300  66.659  1.00  0.00    -0.283 A  
HETATM   12  C   UNL     1     -10.662  10.119  68.015  1.00  0.00    -0.305 A  
ENDBRANCH   6   7
ENDBRANCH   5   6
BRANCH   5  13
HETATM   13  O   UNL     1     -12.453  15.658  69.353  1.00  0.00    -0.188 OA 
BRANCH  13  14
HETATM   14  C   UNL     1     -12.581  15.552  70.708  1.00  0.00    -0.452 A  
HETATM   15  C   UNL     1     -12.020  16.009  73.010  1.00  0.00    -0.597 A  
HETATM   16  C   UNL     1     -11.737  16.139  71.649  1.00  0.00    -0.558 A  
HETATM   17  C   UNL     1     -14.000  14.737  72.486  1.00  0.00    -0.527 A  
HETATM   18  C   UNL     1     -13.720  14.870  71.131  1.00  0.00    -0.452 A  
HETATM   19  C   UNL     1     -13.147  15.303  73.428  1.00  0.00    -0.612 A  
ENDBRANCH  13  14
ENDBRANCH   5  13
ENDBRANCH   4   5
ENDBRANCH   2   4
TORSDOF 6
ENDMDL
MODEL       82
REMARK 921   NORMALIZED FREE ENERGY PREDICTED BY IDOCK:   -4.40 KCAL/MOL
REMARK 922        TOTAL FREE ENERGY PREDICTED BY IDOCK:   -6.79 KCAL/MOL
REMARK 923 INTER-LIGAND FREE ENERGY PREDICTED BY IDOCK:   -6.14 KCAL/MOL
REMARK 924 INTRA-LIGAND FREE ENERGY PREDICTED BY IDOCK:   -0.65 KCAL/MOL
REMARK 927      BINDING AFFINITY PREDICTED BY RF-SCORE:    0.00 PKD
ROOT
HETATM    1  C   UNL     1      -7.556   8.437  67.876  1.00  0.00    -0.099 C  
HETATM    2  N   UNL     1      -8.504   9.173  67.025  1.00  0.00    -0.123 NA 
HETATM    3  C   UNL     1      -8.416   8.679  65.649  1.00  0.00    -0.156 C  
ENDROOT
BRANCH   2   4
HETATM    4  C   UNL     1      -9.869   8.997  67.579  1.00  0.00    -0.179 C  
BRANCH   4   5
HETATM    5  C   UNL     1     -10.600  10.181  68.295  1.00  0.00    -0.226 C  
BRANCH   5   6
HETATM    6  O   UNL     1     -10.252  10.237  69.696  1.00  0.00    -0.228 OA 
BRANCH   6   7
HETATM    7  C   UNL     1     -11.276   9.924  70.559  1.00  0.00    -0.330 A  
HETATM    8  C   UNL     1     -12.360  10.756  70.851  1.00  0.00    -0.497 A  
HETATM    9  C   UNL     1     -11.183   8.694  71.214  1.00  0.00    -0.338 A  
HETATM   10  C   UNL     1     -13.375  10.340  71.716  1.00  0.00    -0.476 A  
HETATM   11  C   UNL     1     -13.299   9.093  72.326  1.00  0.00    -0.540 A  
HETATM   12  C   UNL     1     -12.195   8.277  72.088  1.00  0.00    -0.418 A  
ENDBRANCH   6   7
ENDBRANCH   5   6
BRANCH   5  13
HETATM   13  O   UNL     1     -10.110  11.365  67.633  1.00  0.00    -0.177 OA 
BRANCH  13  14
HETATM   14  C   UNL     1     -10.961  12.047  66.811  1.00  0.00    -0.285 A  
HETATM   15  C   UNL     1     -12.523  13.791  66.225  1.00  0.00    -0.441 A  
HETATM   16  C   UNL     1     -11.745  13.138  67.183  1.00  0.00    -0.430 A  
HETATM   17  C   UNL     1     -11.710  12.285  64.526  1.00  0.00    -0.421 A  
HETATM   18  C   UNL     1     -10.933  11.637  65.480  1.00  0.00    -0.327 A  
HETATM   19  C   UNL     1     -12.511  13.360  64.899  1.00  0.00    -0.447 A  
ENDBRANCH  13  14
ENDBRANCH   5  13
ENDBRANCH   4   5
ENDBRANCH   2   4
TORSDOF 6
ENDMDL
MODEL       83
REMARK 921   NORMALIZED FREE ENERGY PREDICTED BY IDOCK:   -4.39 KCAL/MOL
REMARK 922        TOTAL FREE ENERGY PREDICTED BY IDOCK:   -6.79 KCAL/MOL
REMARK 923 INTER-LIGAND FREE ENERGY PREDICTED BY IDOCK:   -5.80 KCAL/MOL
REMARK 924 INTRA-LIGAND FREE ENERGY PREDICTED BY IDOCK:   -0.98 KCAL/MOL
REMARK 927      BINDING AFFINITY PREDICTED BY RF-SCORE:    0.00 PKD
ROOT
HETATM    1  C   UNL     1      -9.310   3.793  74.186  1.00  0.00    -0.091 C  
HETATM    2  N   UNL     1      -9.028   5.227  74.346  1.00  0.00    -0.117 NA 
HETATM    3  C   UNL     1      -7.981   5.631  73.404  1.00  0.00    -0.110 C  
ENDROOT
BRANCH   2   4
HETATM    4  C   UNL     1     -10.285   5.983  74.118  1.00  0.00    -0.297 C  
BRANCH   4   5
HETATM    5  C   UNL     1     -10.537   6.723  72.763  1.00  0.00    -0.235 C  
BRANCH   5   6
HETATM    6  O   UNL     1     -11.405   5.953  71.903  1.00  0.00    -0.276 OA 
BRANCH   6   7
HETATM    7  C   UNL     1     -10.856   5.603  70.691  1.00  0.00    -0.234 A  
HETATM    8  C   UNL     1      -9.875   4.624  70.509  1.00  0.00    -0.301 A  
HETATM    9  C   UNL     1     -11.296   6.323  69.578  1.00  0.00    -0.475 A  
HETATM   10  C   UNL     1      -9.399   4.312  69.234  1.00  0.00    -0.231 A  
HETATM   11  C   UNL     1      -9.879   4.999  68.126  1.00  0.00    -0.203 A  
HETATM   12  C   UNL     1     -10.815   6.016  68.299  1.00  0.00    -0.366 A  
ENDBRANCH   6   7
ENDBRANCH   5   6
BRANCH   5  13
HETATM   13  O   UNL     1     -11.199   7.949  73.136  1.00  0.00    -0.382 OA 
BRANCH  13  14
HETATM   14  C   UNL     1     -11.547   8.825  72.148  1.00  0.00    -0.364 A  
HETATM   15  C   UNL     1     -13.031  10.287  70.930  1.00  0.00    -0.456 A  
HETATM   16  C   UNL     1     -12.824   9.343  71.938  1.00  0.00    -0.497 A  
HETATM   17  C   UNL     1     -10.687  10.216  70.369  1.00  0.00    -0.329 A  
HETATM   18  C   UNL     1     -10.480   9.278  71.375  1.00  0.00    -0.408 A  
HETATM   19  C   UNL     1     -11.965  10.717  70.142  1.00  0.00    -0.432 A  
ENDBRANCH  13  14
ENDBRANCH   5  13
ENDBRANCH   4   5
ENDBRANCH   2   4
TORSDOF 6
ENDMDL
MODEL       84
REMARK 921   NORMALIZED FREE ENERGY PREDICTED BY IDOCK:   -4.39 KCAL/MOL
REMARK 922        TOTAL FREE ENERGY PREDICTED BY IDOCK:   -6.78 KCAL/MOL
REMARK 923 INTER-LIGAND FREE ENERGY PREDICTED BY IDOCK:   -6.06 KCAL/MOL
REMARK 924 INTRA-LIGAND FREE ENERGY PREDICTED BY IDOCK:   -0.72 KCAL/MOL
REMARK 927      BINDING AFFINITY PREDICTED BY RF-SCORE:    0.00 PKD
ROOT
HETATM    1  C   UNL     1     -12.418  13.753  66.025  1.00  0.00    -0.445 C  
HETATM    2  N   UNL     1     -12.197  12.354  65.630  1.00  0.00    -0.626 NA 
HETATM    3  C   UNL     1     -12.490  12.193  64.204  1.00  0.00    -0.396 C  
ENDROOT
BRANCH   2   4
HETATM    4  C   UNL     1     -10.792  11.993  65.940  1.00  0.00    -0.288 C  
BRANCH   4   5
HETATM    5  C   UNL     1     -10.461  10.716  66.782  1.00  0.00    -0.247 C  
BRANCH   5   6
HETATM    6  O   UNL     1      -9.372   9.972  66.192  1.00  0.00    -0.157 OA 
BRANCH   6   7
HETATM    7  C   UNL     1      -9.448   8.609  66.355  1.00  0.00    -0.230 A  
HETATM    8  C   UNL     1      -8.442   7.703  66.008  1.00  0.00    -0.149 A  
HETATM    9  C   UNL     1     -10.648   8.111  66.869  1.00  0.00    -0.311 A  
HETATM   10  C   UNL     1      -8.594   6.334  66.243  1.00  0.00    -0.138 A  
HETATM   11  C   UNL     1      -9.772   5.852  66.801  1.00  0.00    -0.177 A  
HETATM   12  C   UNL     1     -10.805   6.738  67.099  1.00  0.00    -0.462 A  
ENDBRANCH   6   7
ENDBRANCH   5   6
BRANCH   5  13
HETATM   13  O   UNL     1     -10.051  11.224  68.068  1.00  0.00    -0.169 OA 
BRANCH  13  14
HETATM   14  C   UNL     1     -10.531  10.612  69.190  1.00  0.00    -0.222 A  
HETATM   15  C   UNL     1     -10.404   9.224  71.160  1.00  0.00    -0.392 A  
HETATM   16  C   UNL     1      -9.817   9.729  69.999  1.00  0.00    -0.295 A  
HETATM   17  C   UNL     1     -12.400  10.504  70.718  1.00  0.00    -0.474 A  
HETATM   18  C   UNL     1     -11.813  11.010  69.563  1.00  0.00    -0.404 A  
HETATM   19  C   UNL     1     -11.697   9.605  71.515  1.00  0.00    -0.472 A  
ENDBRANCH  13  14
ENDBRANCH   5  13
ENDBRANCH   4   5
ENDBRANCH   2   4
TORSDOF 6
ENDMDL
MODEL       85
REMARK 921   NORMALIZED FREE ENERGY PREDICTED BY IDOCK:   -4.37 KCAL/MOL
REMARK 922        TOTAL FREE ENERGY PREDICTED BY IDOCK:   -6.76 KCAL/MOL
REMARK 923 INTER-LIGAND FREE ENERGY PREDICTED BY IDOCK:   -6.45 KCAL/MOL
REMARK 924 INTRA-LIGAND FREE ENERGY PREDICTED BY IDOCK:   -0.31 KCAL/MOL
REMARK 927      BINDING AFFINITY PREDICTED BY RF-SCORE:    0.00 PKD
ROOT
HETATM    1  C   UNL     1      -9.721   7.668  68.088  1.00  0.00    -0.153 C  
HETATM    2  N   UNL     1     -10.490   8.705  68.794  1.00  0.00    -0.209 NA 
HETATM    3  C   UNL     1      -9.999   8.829  70.169  1.00  0.00    -0.184 C  
ENDROOT
BRANCH   2   4
HETATM    4  C   UNL     1     -10.352   9.982  68.051  1.00  0.00    -0.198 C  
BRANCH   4   5
HETATM    5  C   UNL     1     -11.532  11.008  68.000  1.00  0.00    -0.290 C  
BRANCH   5   6
HETATM    6  O   UNL     1     -11.168  12.251  68.640  1.00  0.00    -0.222 OA 
BRANCH   6   7
HETATM    7  C   UNL     1     -11.888  12.549  69.774  1.00  0.00    -0.310 A  
HETATM    8  C   UNL     1     -12.148  13.841  70.241  1.00  0.00    -0.425 A  
HETATM    9  C   UNL     1     -12.348  11.463  70.523  1.00  0.00    -0.439 A  
HETATM   10  C   UNL     1     -12.919  14.050  71.386  1.00  0.00    -0.427 A  
HETATM   11  C   UNL     1     -13.415  12.964  72.097  1.00  0.00    -0.619 A  
HETATM   12  C   UNL     1     -13.116  11.670  71.675  1.00  0.00    -0.456 A  
ENDBRANCH   6   7
ENDBRANCH   5   6
BRANCH   5  13
HETATM   13  O   UNL     1     -11.751  11.241  66.594  1.00  0.00    -0.368 OA 
BRANCH  13  14
HETATM   14  C   UNL     1     -11.510  12.490  66.098  1.00  0.00    -0.377 A  
HETATM   15  C   UNL     1     -10.143  14.309  65.295  1.00  0.00    -0.378 A  
HETATM   16  C   UNL     1     -10.251  13.043  65.873  1.00  0.00    -0.298 A  
HETATM   17  C   UNL     1     -12.546  14.453  65.142  1.00  0.00    -0.323 A  
HETATM   18  C   UNL     1     -12.652  13.190  65.714  1.00  0.00    -0.351 A  
HETATM   19  C   UNL     1     -11.290  15.016  64.937  1.00  0.00    -0.419 A  
ENDBRANCH  13  14
ENDBRANCH   5  13
ENDBRANCH   4   5
ENDBRANCH   2   4
TORSDOF 6
ENDMDL
MODEL       86
REMARK 921   NORMALIZED FREE ENERGY PREDICTED BY IDOCK:   -4.36 KCAL/MOL
REMARK 922        TOTAL FREE ENERGY PREDICTED BY IDOCK:   -6.74 KCAL/MOL
REMARK 923 INTER-LIGAND FREE ENERGY PREDICTED BY IDOCK:   -6.41 KCAL/MOL
REMARK 924 INTRA-LIGAND FREE ENERGY PREDICTED BY IDOCK:   -0.33 KCAL/MOL
REMARK 927      BINDING AFFINITY PREDICTED BY RF-SCORE:    0.00 PKD
ROOT
HETATM    1  C   UNL     1      -8.254   9.832  67.640  1.00  0.00    -0.114 C  
HETATM    2  N   UNL     1      -9.410   9.802  66.731  1.00  0.00    -0.148 NA 
HETATM    3  C   UNL     1     -10.239   8.631  67.028  1.00  0.00    -0.290 C  
ENDROOT
BRANCH   2   4
HETATM    4  C   UNL     1     -10.173  11.064  66.895  1.00  0.00    -0.222 C  
BRANCH   4   5
HETATM    5  C   UNL     1     -11.365  11.151  67.904  1.00  0.00    -0.309 C  
BRANCH   5   6
HETATM    6  O   UNL     1     -10.896  11.432  69.242  1.00  0.00    -0.228 OA 
BRANCH   6   7
HETATM    7  C   UNL     1     -11.368  10.578  70.211  1.00  0.00    -0.327 A  
HETATM    8  C   UNL     1     -10.744   9.390  70.604  1.00  0.00    -0.353 A  
HETATM    9  C   UNL     1     -12.585  10.922  70.804  1.00  0.00    -0.470 A  
HETATM   10  C   UNL     1     -11.280   8.601  71.624  1.00  0.00    -0.379 A  
HETATM   11  C   UNL     1     -12.466   8.976  72.244  1.00  0.00    -0.427 A  
HETATM   12  C   UNL     1     -13.127  10.128  71.822  1.00  0.00    -0.568 A  
ENDBRANCH   6   7
ENDBRANCH   5   6
BRANCH   5  13
HETATM   13  O   UNL     1     -12.160  12.259  67.434  1.00  0.00    -0.533 OA 
BRANCH  13  14
HETATM   14  C   UNL     1     -11.723  13.527  67.693  1.00  0.00    -0.363 A  
HETATM   15  C   UNL     1     -10.687  15.643  67.173  1.00  0.00    -0.314 A  
HETATM   16  C   UNL     1     -11.015  14.336  66.807  1.00  0.00    -0.304 A  
HETATM   17  C   UNL     1     -11.799  15.338  69.291  1.00  0.00    -0.353 A  
HETATM   18  C   UNL     1     -12.129  14.038  68.924  1.00  0.00    -0.351 A  
HETATM   19  C   UNL     1     -11.072  16.140  68.417  1.00  0.00    -0.359 A  
ENDBRANCH  13  14
ENDBRANCH   5  13
ENDBRANCH   4   5
ENDBRANCH   2   4
TORSDOF 6
ENDMDL
MODEL       87
REMARK 921   NORMALIZED FREE ENERGY PREDICTED BY IDOCK:   -4.36 KCAL/MOL
REMARK 922        TOTAL FREE ENERGY PREDICTED BY IDOCK:   -6.74 KCAL/MOL
REMARK 923 INTER-LIGAND FREE ENERGY PREDICTED BY IDOCK:   -6.12 KCAL/MOL
REMARK 924 INTRA-LIGAND FREE ENERGY PREDICTED BY IDOCK:   -0.61 KCAL/MOL
REMARK 927      BINDING AFFINITY PREDICTED BY RF-SCORE:    0.00 PKD
ROOT
HETATM    1  C   UNL     1     -11.104  15.897  70.106  1.00  0.00    -0.365 C  
HETATM    2  N   UNL     1     -10.136  16.405  69.122  1.00  0.00    -0.264 NA 
HETATM    3  C   UNL     1      -9.107  15.391  68.877  1.00  0.00    -0.218 C  
ENDROOT
BRANCH   2   4
HETATM    4  C   UNL     1     -10.866  16.750  67.877  1.00  0.00    -0.311 C  
BRANCH   4   5
HETATM    5  C   UNL     1     -10.263  16.406  66.475  1.00  0.00    -0.304 C  
BRANCH   5   6
HETATM    6  O   UNL     1     -11.269  15.856  65.597  1.00  0.00    -0.158 OA 
BRANCH   6   7
HETATM    7  C   UNL     1     -11.087  14.533  65.268  1.00  0.00    -0.353 A  
HETATM    8  C   UNL     1     -10.202  13.662  65.910  1.00  0.00    -0.318 A  
HETATM    9  C   UNL     1     -11.823  14.056  64.180  1.00  0.00    -0.393 A  
HETATM   10  C   UNL     1     -10.109  12.321  65.529  1.00  0.00    -0.279 A  
HETATM   11  C   UNL     1     -10.882  11.843  64.478  1.00  0.00    -0.368 A  
HETATM   12  C   UNL     1     -11.726  12.713  63.793  1.00  0.00    -0.566 A  
ENDBRANCH   6   7
ENDBRANCH   5   6
BRANCH   5  13
HETATM   13  O   UNL     1      -9.813  17.673  65.953  1.00  0.00    -0.516 OA 
BRANCH  13  14
HETATM   14  C   UNL     1      -8.676  18.223  66.473  1.00  0.00    -0.274 A  
HETATM   15  C   UNL     1      -6.323  18.318  66.998  1.00  0.00    -0.193 A  
HETATM   16  C   UNL     1      -7.421  17.617  66.497  1.00  0.00    -0.299 A  
HETATM   17  C   UNL     1      -7.727  20.233  67.421  1.00  0.00    -0.352 A  
HETATM   18  C   UNL     1      -8.820  19.535  66.918  1.00  0.00    -0.362 A  
HETATM   19  C   UNL     1      -6.477  19.622  67.466  1.00  0.00    -0.231 A  
ENDBRANCH  13  14
ENDBRANCH   5  13
ENDBRANCH   4   5
ENDBRANCH   2   4
TORSDOF 6
ENDMDL
MODEL       88
REMARK 921   NORMALIZED FREE ENERGY PREDICTED BY IDOCK:   -4.34 KCAL/MOL
REMARK 922        TOTAL FREE ENERGY PREDICTED BY IDOCK:   -6.72 KCAL/MOL
REMARK 923 INTER-LIGAND FREE ENERGY PREDICTED BY IDOCK:   -6.08 KCAL/MOL
REMARK 924 INTRA-LIGAND FREE ENERGY PREDICTED BY IDOCK:   -0.64 KCAL/MOL
REMARK 927      BINDING AFFINITY PREDICTED BY RF-SCORE:    0.00 PKD
ROOT
HETATM    1  C   UNL     1      -9.679  12.626  66.457  1.00  0.00    -0.256 C  
HETATM    2  N   UNL     1     -10.770  13.472  65.950  1.00  0.00    -0.274 NA 
HETATM    3  C   UNL     1     -11.914  12.632  65.584  1.00  0.00    -0.452 C  
ENDROOT
BRANCH   2   4
HETATM    4  C   UNL     1     -11.132  14.454  67.001  1.00  0.00    -0.313 C  
BRANCH   4   5
HETATM    5  C   UNL     1     -10.213  15.686  67.295  1.00  0.00    -0.266 C  
BRANCH   5   6
HETATM    6  O   UNL     1      -9.233  15.864  66.249  1.00  0.00    -0.278 OA 
BRANCH   6   7
HETATM    7  C   UNL     1      -7.949  16.082  66.692  1.00  0.00    -0.256 A  
HETATM    8  C   UNL     1      -7.254  15.250  67.575  1.00  0.00    -0.224 A  
HETATM    9  C   UNL     1      -7.327  17.251  66.247  1.00  0.00    -0.342 A  
HETATM   10  C   UNL     1      -5.937  15.533  67.944  1.00  0.00    -0.163 A  
HETATM   11  C   UNL     1      -5.309  16.672  67.457  1.00  0.00    -0.158 A  
HETATM   12  C   UNL     1      -6.009  17.540  66.621  1.00  0.00    -0.227 A  
ENDBRANCH   6   7
ENDBRANCH   5   6
BRANCH   5  13
HETATM   13  O   UNL     1     -11.111  16.815  67.307  1.00  0.00    -0.113 OA 
BRANCH  13  14
HETATM   14  C   UNL     1     -10.576  18.069  67.241  1.00  0.00    -0.346 A  
HETATM   15  C   UNL     1      -9.978  20.150  66.174  1.00  0.00    -0.532 A  
HETATM   16  C   UNL     1     -10.486  18.852  66.091  1.00  0.00    -0.521 A  
HETATM   17  C   UNL     1      -9.679  19.890  68.553  1.00  0.00    -0.421 A  
HETATM   18  C   UNL     1     -10.190  18.599  68.471  1.00  0.00    -0.398 A  
HETATM   19  C   UNL     1      -9.568  20.665  67.403  1.00  0.00    -0.544 A  
ENDBRANCH  13  14
ENDBRANCH   5  13
ENDBRANCH   4   5
ENDBRANCH   2   4
TORSDOF 6
ENDMDL
MODEL       89
REMARK 921   NORMALIZED FREE ENERGY PREDICTED BY IDOCK:   -4.33 KCAL/MOL
REMARK 922        TOTAL FREE ENERGY PREDICTED BY IDOCK:   -6.71 KCAL/MOL
REMARK 923 INTER-LIGAND FREE ENERGY PREDICTED BY IDOCK:   -6.05 KCAL/MOL
REMARK 924 INTRA-LIGAND FREE ENERGY PREDICTED BY IDOCK:   -0.65 KCAL/MOL
REMARK 927      BINDING AFFINITY PREDICTED BY RF-SCORE:    0.00 PKD
ROOT
HETATM    1  C   UNL     1      -8.841  10.796  65.243  1.00  0.00    -0.187 C  
HETATM    2  N   UNL     1      -9.199  11.238  66.600  1.00  0.00    -0.175 NA 
HETATM    3  C   UNL     1      -8.328  12.345  67.002  1.00  0.00    -0.157 C  
ENDROOT
BRANCH   2   4
HETATM    4  C   UNL     1     -10.627  11.641  66.602  1.00  0.00    -0.243 C  
BRANCH   4   5
HETATM    5  C   UNL     1     -11.310  12.153  67.913  1.00  0.00    -0.300 C  
BRANCH   5   6
HETATM    6  O   UNL     1     -12.082  13.349  67.664  1.00  0.00    -0.342 OA 
BRANCH   6   7
HETATM    7  C   UNL     1     -11.614  14.479  68.293  1.00  0.00    -0.329 A  
HETATM    8  C   UNL     1     -11.759  14.756  69.655  1.00  0.00    -0.354 A  
HETATM    9  C   UNL     1     -10.988  15.428  67.481  1.00  0.00    -0.315 A  
HETATM   10  C   UNL     1     -11.220  15.917  70.214  1.00  0.00    -0.388 A  
HETATM   11  C   UNL     1     -10.555  16.832  69.407  1.00  0.00    -0.318 A  
HETATM   12  C   UNL     1     -10.453  16.596  68.038  1.00  0.00    -0.320 A  
ENDBRANCH   6   7
ENDBRANCH   5   6
BRANCH   5  13
HETATM   13  O   UNL     1     -12.197  11.084  68.302  1.00  0.00    -0.582 OA 
BRANCH  13  14
HETATM   14  C   UNL     1     -11.997  10.483  69.512  1.00  0.00    -0.186 A  
HETATM   15  C   UNL     1     -12.501   9.951  71.811  1.00  0.00    -0.487 A  
HETATM   16  C   UNL     1     -12.772  10.682  70.653  1.00  0.00    -0.445 A  
HETATM   17  C   UNL     1     -10.706   8.807  70.679  1.00  0.00    -0.267 A  
HETATM   18  C   UNL     1     -10.979   9.532  69.524  1.00  0.00    -0.217 A  
HETATM   19  C   UNL     1     -11.464   9.020  71.826  1.00  0.00    -0.442 A  
ENDBRANCH  13  14
ENDBRANCH   5  13
ENDBRANCH   4   5
ENDBRANCH   2   4
TORSDOF 6
ENDMDL
MODEL       90
REMARK 921   NORMALIZED FREE ENERGY PREDICTED BY IDOCK:   -4.33 KCAL/MOL
REMARK 922        TOTAL FREE ENERGY PREDICTED BY IDOCK:   -6.70 KCAL/MOL
REMARK 923 INTER-LIGAND FREE ENERGY PREDICTED BY IDOCK:   -6.72 KCAL/MOL
REMARK 924 INTRA-LIGAND FREE ENERGY PREDICTED BY IDOCK:    0.02 KCAL/MOL
REMARK 927      BINDING AFFINITY PREDICTED BY RF-SCORE:    0.00 PKD
ROOT
HETATM    1  C   UNL     1     -12.916  14.325  71.806  1.00  0.00    -0.354 C  
HETATM    2  N   UNL     1     -12.510  14.944  70.535  1.00  0.00    -0.341 NA 
HETATM    3  C   UNL     1     -11.207  15.594  70.698  1.00  0.00    -0.359 C  
ENDROOT
BRANCH   2   4
HETATM    4  C   UNL     1     -12.464  13.890  69.491  1.00  0.00    -0.095 C  
BRANCH   4   5
HETATM    5  C   UNL     1     -11.418  12.729  69.573  1.00  0.00    -0.225 C  
BRANCH   5   6
HETATM    6  O   UNL     1     -12.037  11.451  69.311  1.00  0.00    -0.325 OA 
BRANCH   6   7
HETATM    7  C   UNL     1     -12.008  10.568  70.365  1.00  0.00    -0.335 A  
HETATM    8  C   UNL     1     -13.069  10.336  71.245  1.00  0.00    -0.492 A  
HETATM    9  C   UNL     1     -10.803   9.895  70.579  1.00  0.00    -0.391 A  
HETATM   10  C   UNL     1     -12.961   9.392  72.270  1.00  0.00    -0.479 A  
HETATM   11  C   UNL     1     -11.774   8.691  72.445  1.00  0.00    -0.393 A  
HETATM   12  C   UNL     1     -10.690   8.953  71.610  1.00  0.00    -0.418 A  
ENDBRANCH   6   7
ENDBRANCH   5   6
BRANCH   5  13
HETATM   13  O   UNL     1     -10.467  13.022  68.529  1.00  0.00    -0.249 OA 
BRANCH  13  14
HETATM   14  C   UNL     1     -10.937  13.251  67.268  1.00  0.00    -0.268 A  
HETATM   15  C   UNL     1     -12.283  12.815  65.312  1.00  0.00    -0.535 A  
HETATM   16  C   UNL     1     -11.825  12.430  66.574  1.00  0.00    -0.407 A  
HETATM   17  C   UNL     1     -10.993  14.848  65.455  1.00  0.00    -0.355 A  
HETATM   18  C   UNL     1     -10.540  14.466  66.713  1.00  0.00    -0.282 A  
HETATM   19  C   UNL     1     -11.861  14.019  64.751  1.00  0.00    -0.415 A  
ENDBRANCH  13  14
ENDBRANCH   5  13
ENDBRANCH   4   5
ENDBRANCH   2   4
TORSDOF 6
ENDMDL
MODEL       91
REMARK 921   NORMALIZED FREE ENERGY PREDICTED BY IDOCK:   -4.32 KCAL/MOL
REMARK 922        TOTAL FREE ENERGY PREDICTED BY IDOCK:   -6.69 KCAL/MOL
REMARK 923 INTER-LIGAND FREE ENERGY PREDICTED BY IDOCK:   -5.82 KCAL/MOL
REMARK 924 INTRA-LIGAND FREE ENERGY PREDICTED BY IDOCK:   -0.87 KCAL/MOL
REMARK 927      BINDING AFFINITY PREDICTED BY RF-SCORE:    0.00 PKD
ROOT
HETATM    1  C   UNL     1     -12.740  11.315  71.175  1.00  0.00    -0.390 C  
HETATM    2  N   UNL     1     -11.609  11.010  70.286  1.00  0.00    -0.324 NA 
HETATM    3  C   UNL     1     -11.006   9.733  70.678  1.00  0.00    -0.331 C  
ENDROOT
BRANCH   2   4
HETATM    4  C   UNL     1     -12.107  10.968  68.889  1.00  0.00    -0.169 C  
BRANCH   4   5
HETATM    5  C   UNL     1     -11.462  11.869  67.783  1.00  0.00    -0.319 C  
BRANCH   5   6
HETATM    6  O   UNL     1     -11.737  13.266  68.026  1.00  0.00    -0.318 OA 
BRANCH   6   7
HETATM    7  C   UNL     1     -11.539  14.090  66.943  1.00  0.00    -0.386 A  
HETATM    8  C   UNL     1     -10.670  15.185  66.918  1.00  0.00    -0.308 A  
HETATM    9  C   UNL     1     -12.306  13.820  65.807  1.00  0.00    -0.523 A  
HETATM   10  C   UNL     1     -10.507  15.948  65.759  1.00  0.00    -0.386 A  
HETATM   11  C   UNL     1     -11.238  15.640  64.617  1.00  0.00    -0.380 A  
HETATM   12  C   UNL     1     -12.149  14.587  64.646  1.00  0.00    -0.486 A  
ENDBRANCH   6   7
ENDBRANCH   5   6
BRANCH   5  13
HETATM   13  O   UNL     1     -10.045  11.632  67.902  1.00  0.00    -0.180 OA 
BRANCH  13  14
HETATM   14  C   UNL     1      -9.377  11.138  66.818  1.00  0.00    -0.177 A  
HETATM   15  C   UNL     1      -7.470  10.271  65.620  1.00  0.00    -0.149 A  
HETATM   16  C   UNL     1      -8.016  10.838  66.773  1.00  0.00    -0.138 A  
HETATM   17  C   UNL     1      -9.643  10.280  64.575  1.00  0.00    -0.378 A  
HETATM   18  C   UNL     1     -10.188  10.841  65.725  1.00  0.00    -0.319 A  
HETATM   19  C   UNL     1      -8.281  10.000  64.520  1.00  0.00    -0.164 A  
ENDBRANCH  13  14
ENDBRANCH   5  13
ENDBRANCH   4   5
ENDBRANCH   2   4
TORSDOF 6
ENDMDL
MODEL       92
REMARK 921   NORMALIZED FREE ENERGY PREDICTED BY IDOCK:   -4.28 KCAL/MOL
REMARK 922        TOTAL FREE ENERGY PREDICTED BY IDOCK:   -6.63 KCAL/MOL
REMARK 923 INTER-LIGAND FREE ENERGY PREDICTED BY IDOCK:   -5.70 KCAL/MOL
REMARK 924 INTRA-LIGAND FREE ENERGY PREDICTED BY IDOCK:   -0.93 KCAL/MOL
REMARK 927      BINDING AFFINITY PREDICTED BY RF-SCORE:    0.00 PKD
ROOT
HETATM    1  C   UNL     1     -13.681   9.255  71.865  1.00  0.00    -0.398 C  
HETATM    2  N   UNL     1     -13.113  10.420  71.170  1.00  0.00    -0.392 NA 
HETATM    3  C   UNL     1     -13.339  11.628  71.968  1.00  0.00    -0.300 C  
ENDROOT
BRANCH   2   4
HETATM    4  C   UNL     1     -11.666  10.178  70.949  1.00  0.00    -0.378 C  
BRANCH   4   5
HETATM    5  C   UNL     1     -11.024  10.401  69.540  1.00  0.00    -0.262 C  
BRANCH   5   6
HETATM    6  O   UNL     1     -10.698   9.141  68.911  1.00  0.00    -0.212 OA 
BRANCH   6   7
HETATM    7  C   UNL     1      -9.694   9.206  67.973  1.00  0.00    -0.154 A  
HETATM    8  C   UNL     1      -8.382   9.613  68.231  1.00  0.00    -0.117 A  
HETATM    9  C   UNL     1     -10.046   8.876  66.662  1.00  0.00    -0.357 A  
HETATM   10  C   UNL     1      -7.418   9.615  67.220  1.00  0.00    -0.088 A  
HETATM   11  C   UNL     1      -7.765   9.237  65.929  1.00  0.00    -0.098 A  
HETATM   12  C   UNL     1      -9.083   8.884  65.646  1.00  0.00    -0.269 A  
ENDBRANCH   6   7
ENDBRANCH   5   6
BRANCH   5  13
HETATM   13  O   UNL     1     -12.048  11.067  68.774  1.00  0.00    -0.518 OA 
BRANCH  13  14
HETATM   14  C   UNL     1     -11.729  12.233  68.140  1.00  0.00    -0.349 A  
HETATM   15  C   UNL     1     -11.198  13.631  66.247  1.00  0.00    -0.313 A  
HETATM   16  C   UNL     1     -11.442  12.366  66.783  1.00  0.00    -0.423 A  
HETATM   17  C   UNL     1     -11.557  14.628  68.413  1.00  0.00    -0.351 A  
HETATM   18  C   UNL     1     -11.804  13.368  68.946  1.00  0.00    -0.373 A  
HETATM   19  C   UNL     1     -11.248  14.760  67.062  1.00  0.00    -0.347 A  
ENDBRANCH  13  14
ENDBRANCH   5  13
ENDBRANCH   4   5
ENDBRANCH   2   4
TORSDOF 6
ENDMDL
MODEL       93
REMARK 921   NORMALIZED FREE ENERGY PREDICTED BY IDOCK:   -4.28 KCAL/MOL
REMARK 922        TOTAL FREE ENERGY PREDICTED BY IDOCK:   -6.63 KCAL/MOL
REMARK 923 INTER-LIGAND FREE ENERGY PREDICTED BY IDOCK:   -6.38 KCAL/MOL
REMARK 924 INTRA-LIGAND FREE ENERGY PREDICTED BY IDOCK:   -0.25 KCAL/MOL
REMARK 927      BINDING AFFINITY PREDICTED BY RF-SCORE:    0.00 PKD
ROOT
HETATM    1  C   UNL     1     -10.667   6.631  68.219  1.00  0.00    -0.257 C  
HETATM    2  N   UNL     1      -9.768   7.736  67.852  1.00  0.00    -0.149 NA 
HETATM    3  C   UNL     1      -8.693   7.231  66.994  1.00  0.00    -0.123 C  
ENDROOT
BRANCH   2   4
HETATM    4  C   UNL     1     -10.564   8.783  67.165  1.00  0.00    -0.233 C  
BRANCH   4   5
HETATM    5  C   UNL     1     -10.389  10.292  67.536  1.00  0.00    -0.229 C  
BRANCH   5   6
HETATM    6  O   UNL     1     -11.616  11.026  67.324  1.00  0.00    -0.496 OA 
BRANCH   6   7
HETATM    7  C   UNL     1     -11.550  11.992  66.348  1.00  0.00    -0.313 A  
HETATM    8  C   UNL     1     -10.933  11.833  65.103  1.00  0.00    -0.351 A  
HETATM    9  C   UNL     1     -12.110  13.233  66.662  1.00  0.00    -0.421 A  
HETATM   10  C   UNL     1     -10.945  12.861  64.158  1.00  0.00    -0.442 A  
HETATM   11  C   UNL     1     -11.549  14.076  64.461  1.00  0.00    -0.403 A  
HETATM   12  C   UNL     1     -12.117  14.267  65.718  1.00  0.00    -0.414 A  
ENDBRANCH   6   7
ENDBRANCH   5   6
BRANCH   5  13
HETATM   13  O   UNL     1     -10.073  10.287  68.943  1.00  0.00    -0.184 OA 
BRANCH  13  14
HETATM   14  C   UNL     1     -11.099  10.372  69.840  1.00  0.00    -0.305 A  
HETATM   15  C   UNL     1     -12.610   9.554  71.534  1.00  0.00    -0.462 A  
HETATM   16  C   UNL     1     -11.599   9.317  70.601  1.00  0.00    -0.305 A  
HETATM   17  C   UNL     1     -12.597  11.898  70.966  1.00  0.00    -0.381 A  
HETATM   18  C   UNL     1     -11.588  11.662  70.039  1.00  0.00    -0.338 A  
HETATM   19  C   UNL     1     -13.113  10.842  71.711  1.00  0.00    -0.573 A  
ENDBRANCH  13  14
ENDBRANCH   5  13
ENDBRANCH   4   5
ENDBRANCH   2   4
TORSDOF 6
ENDMDL
MODEL       94
REMARK 921   NORMALIZED FREE ENERGY PREDICTED BY IDOCK:   -4.28 KCAL/MOL
REMARK 922        TOTAL FREE ENERGY PREDICTED BY IDOCK:   -6.63 KCAL/MOL
REMARK 923 INTER-LIGAND FREE ENERGY PREDICTED BY IDOCK:   -6.21 KCAL/MOL
REMARK 924 INTRA-LIGAND FREE ENERGY PREDICTED BY IDOCK:   -0.42 KCAL/MOL
REMARK 927      BINDING AFFINITY PREDICTED BY RF-SCORE:    0.00 PKD
ROOT
HETATM    1  C   UNL     1      -9.151   9.345  70.353  1.00  0.00    -0.256 C  
HETATM    2  N   UNL     1      -8.854   9.836  68.999  1.00  0.00    -0.144 NA 
HETATM    3  C   UNL     1      -9.643   9.086  68.019  1.00  0.00    -0.148 C  
ENDROOT
BRANCH   2   4
HETATM    4  C   UNL     1      -9.161  11.287  68.946  1.00  0.00    -0.053 C  
BRANCH   4   5
HETATM    5  C   UNL     1     -10.437  11.808  68.207  1.00  0.00    -0.206 C  
BRANCH   5   6
HETATM    6  O   UNL     1     -11.217  12.673  69.062  1.00  0.00    -0.256 OA 
BRANCH   6   7
HETATM    7  C   UNL     1     -11.979  12.021  70.003  1.00  0.00    -0.324 A  
HETATM    8  C   UNL     1     -12.307  10.663  69.967  1.00  0.00    -0.341 A  
HETATM    9  C   UNL     1     -12.488  12.804  71.042  1.00  0.00    -0.369 A  
HETATM   10  C   UNL     1     -13.060  10.078  70.988  1.00  0.00    -0.435 A  
HETATM   11  C   UNL     1     -13.520  10.855  72.044  1.00  0.00    -0.287 A  
HETATM   12  C   UNL     1     -13.249  12.221  72.063  1.00  0.00    -0.508 A  
ENDBRANCH   6   7
ENDBRANCH   5   6
BRANCH   5  13
HETATM   13  O   UNL     1      -9.927  12.570  67.093  1.00  0.00    -0.212 OA 
BRANCH  13  14
HETATM   14  C   UNL     1     -10.533  12.426  65.878  1.00  0.00    -0.256 A  
HETATM   15  C   UNL     1     -10.709  11.701  63.583  1.00  0.00    -0.500 A  
HETATM   16  C   UNL     1      -9.955  11.850  64.748  1.00  0.00    -0.262 A  
HETATM   17  C   UNL     1     -12.621  12.673  64.686  1.00  0.00    -0.517 A  
HETATM   18  C   UNL     1     -11.870  12.818  65.848  1.00  0.00    -0.490 A  
HETATM   19  C   UNL     1     -12.039  12.120  63.550  1.00  0.00    -0.649 A  
ENDBRANCH  13  14
ENDBRANCH   5  13
ENDBRANCH   4   5
ENDBRANCH   2   4
TORSDOF 6
ENDMDL
MODEL       95
REMARK 921   NORMALIZED FREE ENERGY PREDICTED BY IDOCK:   -4.27 KCAL/MOL
REMARK 922        TOTAL FREE ENERGY PREDICTED BY IDOCK:   -6.62 KCAL/MOL
REMARK 923 INTER-LIGAND FREE ENERGY PREDICTED BY IDOCK:   -5.93 KCAL/MOL
REMARK 924 INTRA-LIGAND FREE ENERGY PREDICTED BY IDOCK:   -0.69 KCAL/MOL
REMARK 927      BINDING AFFINITY PREDICTED BY RF-SCORE:    0.00 PKD
ROOT
HETATM    1  C   UNL     1      -9.796  18.551  68.589  1.00  0.00    -0.385 C  
HETATM    2  N   UNL     1     -10.809  17.972  67.693  1.00  0.00    -0.333 NA 
HETATM    3  C   UNL     1     -10.374  18.114  66.302  1.00  0.00    -0.397 C  
ENDROOT
BRANCH   2   4
HETATM    4  C   UNL     1     -11.001  16.547  68.059  1.00  0.00    -0.320 C  
BRANCH   4   5
HETATM    5  C   UNL     1     -10.434  15.405  67.153  1.00  0.00    -0.290 C  
BRANCH   5   6
HETATM    6  O   UNL     1      -9.409  14.654  67.840  1.00  0.00    -0.192 OA 
BRANCH   6   7
HETATM    7  C   UNL     1      -8.233  15.337  68.046  1.00  0.00    -0.141 A  
HETATM    8  C   UNL     1      -7.680  15.621  69.298  1.00  0.00    -0.223 A  
HETATM    9  C   UNL     1      -7.581  15.810  66.905  1.00  0.00    -0.235 A  
HETATM   10  C   UNL     1      -6.460  16.293  69.410  1.00  0.00    -0.197 A  
HETATM   11  C   UNL     1      -5.793  16.716  68.267  1.00  0.00    -0.118 A  
HETATM   12  C   UNL     1      -6.361  16.490  67.015  1.00  0.00    -0.207 A  
ENDBRANCH   6   7
ENDBRANCH   5   6
BRANCH   5  13
HETATM   13  O   UNL     1     -11.565  14.547  66.898  1.00  0.00    -0.361 OA 
BRANCH  13  14
HETATM   14  C   UNL     1     -11.492  13.670  65.853  1.00  0.00    -0.316 A  
HETATM   15  C   UNL     1     -10.921  11.595  64.762  1.00  0.00    -0.351 A  
HETATM   16  C   UNL     1     -10.863  12.427  65.882  1.00  0.00    -0.305 A  
HETATM   17  C   UNL     1     -12.258  13.235  63.603  1.00  0.00    -0.522 A  
HETATM   18  C   UNL     1     -12.203  14.061  64.720  1.00  0.00    -0.454 A  
HETATM   19  C   UNL     1     -11.611  12.002  63.621  1.00  0.00    -0.578 A  
ENDBRANCH  13  14
ENDBRANCH   5  13
ENDBRANCH   4   5
ENDBRANCH   2   4
TORSDOF 6
ENDMDL
MODEL       96
REMARK 921   NORMALIZED FREE ENERGY PREDICTED BY IDOCK:   -4.24 KCAL/MOL
REMARK 922        TOTAL FREE ENERGY PREDICTED BY IDOCK:   -6.59 KCAL/MOL
REMARK 923 INTER-LIGAND FREE ENERGY PREDICTED BY IDOCK:   -5.82 KCAL/MOL
REMARK 924 INTRA-LIGAND FREE ENERGY PREDICTED BY IDOCK:   -0.76 KCAL/MOL
REMARK 927      BINDING AFFINITY PREDICTED BY RF-SCORE:    0.00 PKD
ROOT
HETATM    1  C   UNL     1      -8.156  12.007  67.812  1.00  0.00    -0.149 C  
HETATM    2  N   UNL     1      -9.068  11.093  67.108  1.00  0.00    -0.146 NA 
HETATM    3  C   UNL     1      -8.476  10.697  65.828  1.00  0.00    -0.178 C  
ENDROOT
BRANCH   2   4
HETATM    4  C   UNL     1      -9.320   9.916  67.977  1.00  0.00    -0.130 C  
BRANCH   4   5
HETATM    5  C   UNL     1     -10.365   9.989  69.138  1.00  0.00    -0.216 C  
BRANCH   5   6
HETATM    6  O   UNL     1     -11.506  10.791  68.762  1.00  0.00    -0.269 OA 
BRANCH   6   7
HETATM    7  C   UNL     1     -12.074  11.506  69.791  1.00  0.00    -0.306 A  
HETATM    8  C   UNL     1     -12.748  10.944  70.879  1.00  0.00    -0.464 A  
HETATM    9  C   UNL     1     -11.996  12.897  69.699  1.00  0.00    -0.358 A  
HETATM   10  C   UNL     1     -13.265  11.749  71.898  1.00  0.00    -0.468 A  
HETATM   11  C   UNL     1     -13.139  13.130  71.823  1.00  0.00    -0.478 A  
HETATM   12  C   UNL     1     -12.520  13.706  70.716  1.00  0.00    -0.432 A  
ENDBRANCH   6   7
ENDBRANCH   5   6
BRANCH   5  13
HETATM   13  O   UNL     1     -10.785   8.623  69.336  1.00  0.00    -0.220 OA 
BRANCH  13  14
HETATM   14  C   UNL     1     -10.748   8.109  70.600  1.00  0.00    -0.224 A  
HETATM   15  C   UNL     1     -10.106   8.039  72.925  1.00  0.00    -0.376 A  
HETATM   16  C   UNL     1     -10.001   8.620  71.660  1.00  0.00    -0.353 A  
HETATM   17  C   UNL     1     -11.723   6.464  72.077  1.00  0.00    -0.376 A  
HETATM   18  C   UNL     1     -11.621   7.045  70.818  1.00  0.00    -0.381 A  
HETATM   19  C   UNL     1     -10.961   6.957  73.132  1.00  0.00    -0.297 A  
ENDBRANCH  13  14
ENDBRANCH   5  13
ENDBRANCH   4   5
ENDBRANCH   2   4
TORSDOF 6
ENDMDL
MODEL       97
REMARK 921   NORMALIZED FREE ENERGY PREDICTED BY IDOCK:   -4.24 KCAL/MOL
REMARK 922        TOTAL FREE ENERGY PREDICTED BY IDOCK:   -6.58 KCAL/MOL
REMARK 923 INTER-LIGAND FREE ENERGY PREDICTED BY IDOCK:   -5.92 KCAL/MOL
REMARK 924 INTRA-LIGAND FREE ENERGY PREDICTED BY IDOCK:   -0.66 KCAL/MOL
REMARK 927      BINDING AFFINITY PREDICTED BY RF-SCORE:    0.00 PKD
ROOT
HETATM    1  C   UNL     1     -10.785   8.390  69.852  1.00  0.00    -0.227 C  
HETATM    2  N   UNL     1      -9.873   9.393  69.280  1.00  0.00    -0.168 NA 
HETATM    3  C   UNL     1      -8.526   8.827  69.169  1.00  0.00    -0.123 C  
ENDROOT
BRANCH   2   4
HETATM    4  C   UNL     1     -10.399   9.805  67.955  1.00  0.00    -0.213 C  
BRANCH   4   5
HETATM    5  C   UNL     1     -10.498  11.319  67.570  1.00  0.00    -0.201 C  
BRANCH   5   6
HETATM    6  O   UNL     1     -11.829  11.656  67.123  1.00  0.00    -0.608 OA 
BRANCH   6   7
HETATM    7  C   UNL     1     -11.891  12.239  65.879  1.00  0.00    -0.354 A  
HETATM    8  C   UNL     1     -11.469  11.637  64.691  1.00  0.00    -0.249 A  
HETATM    9  C   UNL     1     -12.376  13.548  65.829  1.00  0.00    -0.516 A  
HETATM   10  C   UNL     1     -11.602  12.294  63.465  1.00  0.00    -0.570 A  
HETATM   11  C   UNL     1     -12.132  13.577  63.419  1.00  0.00    -0.351 A  
HETATM   12  C   UNL     1     -12.504  14.211  64.602  1.00  0.00    -0.375 A  
ENDBRANCH   6   7
ENDBRANCH   5   6
BRANCH   5  13
HETATM   13  O   UNL     1     -10.211  12.025  68.794  1.00  0.00    -0.204 OA 
BRANCH  13  14
HETATM   14  C   UNL     1     -10.811  13.234  69.002  1.00  0.00    -0.173 A  
HETATM   15  C   UNL     1     -12.416  14.752  69.972  1.00  0.00    -0.327 A  
HETATM   16  C   UNL     1     -11.942  13.452  69.787  1.00  0.00    -0.396 A  
HETATM   17  C   UNL     1     -10.616  15.611  68.617  1.00  0.00    -0.243 A  
HETATM   18  C   UNL     1     -10.142  14.317  68.435  1.00  0.00    -0.243 A  
HETATM   19  C   UNL     1     -11.758  15.830  69.382  1.00  0.00    -0.379 A  
ENDBRANCH  13  14
ENDBRANCH   5  13
ENDBRANCH   4   5
ENDBRANCH   2   4
TORSDOF 6
ENDMDL
MODEL       98
REMARK 921   NORMALIZED FREE ENERGY PREDICTED BY IDOCK:   -4.22 KCAL/MOL
REMARK 922        TOTAL FREE ENERGY PREDICTED BY IDOCK:   -6.56 KCAL/MOL
REMARK 923 INTER-LIGAND FREE ENERGY PREDICTED BY IDOCK:   -5.67 KCAL/MOL
REMARK 924 INTRA-LIGAND FREE ENERGY PREDICTED BY IDOCK:   -0.89 KCAL/MOL
REMARK 927      BINDING AFFINITY PREDICTED BY RF-SCORE:    0.00 PKD
ROOT
HETATM    1  C   UNL     1      -9.008  11.871  67.052  1.00  0.00    -0.190 C  
HETATM    2  N   UNL     1     -10.244  11.471  66.363  1.00  0.00    -0.217 NA 
HETATM    3  C   UNL     1     -10.762  10.237  66.960  1.00  0.00    -0.216 C  
ENDROOT
BRANCH   2   4
HETATM    4  C   UNL     1     -11.225  12.579  66.472  1.00  0.00    -0.307 C  
BRANCH   4   5
HETATM    5  C   UNL     1     -10.788  13.983  67.009  1.00  0.00    -0.290 C  
BRANCH   5   6
HETATM    6  O   UNL     1     -10.347  14.838  65.932  1.00  0.00    -0.288 OA 
BRANCH   6   7
HETATM    7  C   UNL     1      -9.560  15.897  66.320  1.00  0.00    -0.316 A  
HETATM    8  C   UNL     1      -9.923  17.243  66.223  1.00  0.00    -0.311 A  
HETATM    9  C   UNL     1      -8.289  15.581  66.806  1.00  0.00    -0.301 A  
HETATM   10  C   UNL     1      -9.070  18.253  66.675  1.00  0.00    -0.294 A  
HETATM   11  C   UNL     1      -7.827  17.927  67.204  1.00  0.00    -0.225 A  
HETATM   12  C   UNL     1      -7.429  16.592  67.254  1.00  0.00    -0.197 A  
ENDBRANCH   6   7
ENDBRANCH   5   6
BRANCH   5  13
HETATM   13  O   UNL     1     -11.984  14.534  67.599  1.00  0.00    -0.374 OA 
BRANCH  13  14
HETATM   14  C   UNL     1     -12.039  14.656  68.958  1.00  0.00    -0.235 A  
HETATM   15  C   UNL     1     -12.413  13.899  71.218  1.00  0.00    -0.440 A  
HETATM   16  C   UNL     1     -12.471  13.670  69.842  1.00  0.00    -0.226 A  
HETATM   17  C   UNL     1     -11.467  16.082  70.823  1.00  0.00    -0.444 A  
HETATM   18  C   UNL     1     -11.521  15.851  69.453  1.00  0.00    -0.351 A  
HETATM   19  C   UNL     1     -11.919  15.107  71.707  1.00  0.00    -0.448 A  
ENDBRANCH  13  14
ENDBRANCH   5  13
ENDBRANCH   4   5
ENDBRANCH   2   4
TORSDOF 6
ENDMDL
MODEL       99
REMARK 921   NORMALIZED FREE ENERGY PREDICTED BY IDOCK:   -4.16 KCAL/MOL
REMARK 922        TOTAL FREE ENERGY PREDICTED BY IDOCK:   -6.48 KCAL/MOL
REMARK 923 INTER-LIGAND FREE ENERGY PREDICTED BY IDOCK:   -5.93 KCAL/MOL
REMARK 924 INTRA-LIGAND FREE ENERGY PREDICTED BY IDOCK:   -0.55 KCAL/MOL
REMARK 927      BINDING AFFINITY PREDICTED BY RF-SCORE:    0.00 PKD
ROOT
HETATM    1  C   UNL     1     -12.069  15.379  70.399  1.00  0.00    -0.372 C  
HETATM    2  N   UNL     1     -11.108  16.111  69.560  1.00  0.00    -0.327 NA 
HETATM    3  C   UNL     1      -9.766  15.554  69.750  1.00  0.00    -0.241 C  
ENDROOT
BRANCH   2   4
HETATM    4  C   UNL     1     -11.543  16.008  68.145  1.00  0.00    -0.183 C  
BRANCH   4   5
HETATM    5  C   UNL     1     -10.534  15.583  67.027  1.00  0.00    -0.304 C  
BRANCH   5   6
HETATM    6  O   UNL     1     -11.034  14.455  66.277  1.00  0.00    -0.308 OA 
BRANCH   6   7
HETATM    7  C   UNL     1     -10.602  13.227  66.723  1.00  0.00    -0.276 A  
HETATM    8  C   UNL     1     -11.438  12.169  67.090  1.00  0.00    -0.413 A  
HETATM    9  C   UNL     1      -9.221  13.063  66.850  1.00  0.00    -0.236 A  
HETATM   10  C   UNL     1     -10.908  10.943  67.500  1.00  0.00    -0.324 A  
HETATM   11  C   UNL     1      -9.531  10.772  67.576  1.00  0.00    -0.168 A  
HETATM   12  C   UNL     1      -8.688  11.837  67.268  1.00  0.00    -0.163 A  
ENDBRANCH   6   7
ENDBRANCH   5   6
BRANCH   5  13
HETATM   13  O   UNL     1     -10.447  16.733  66.161  1.00  0.00    -0.319 OA 
BRANCH  13  14
HETATM   14  C   UNL     1      -9.849  17.863  66.641  1.00  0.00    -0.342 A  
HETATM   15  C   UNL     1      -9.779  20.034  67.692  1.00  0.00    -0.535 A  
HETATM   16  C   UNL     1     -10.514  18.968  67.170  1.00  0.00    -0.522 A  
HETATM   17  C   UNL     1      -7.724  18.878  67.183  1.00  0.00    -0.246 A  
HETATM   18  C   UNL     1      -8.457  17.815  66.667  1.00  0.00    -0.283 A  
HETATM   19  C   UNL     1      -8.385  19.992  67.691  1.00  0.00    -0.364 A  
ENDBRANCH  13  14
ENDBRANCH   5  13
ENDBRANCH   4   5
ENDBRANCH   2   4
TORSDOF 6
ENDMDL
MODEL      100
REMARK 921   NORMALIZED FREE ENERGY PREDICTED BY IDOCK:   -4.16 KCAL/MOL
REMARK 922        TOTAL FREE ENERGY PREDICTED BY IDOCK:   -6.47 KCAL/MOL
REMARK 923 INTER-LIGAND FREE ENERGY PREDICTED BY IDOCK:   -5.60 KCAL/MOL
REMARK 924 INTRA-LIGAND FREE ENERGY PREDICTED BY IDOCK:   -0.87 KCAL/MOL
REMARK 927      BINDING AFFINITY PREDICTED BY RF-SCORE:    0.00 PKD
ROOT
HETATM    1  C   UNL     1      -7.188  13.012  69.024  1.00  0.00     0.014 C  
HETATM    2  N   UNL     1      -7.080  14.473  68.887  1.00  0.00    -0.111 NA 
HETATM    3  C   UNL     1      -6.859  14.821  67.481  1.00  0.00    -0.155 C  
ENDROOT
BRANCH   2   4
HETATM    4  C   UNL     1      -8.326  15.088  69.409  1.00  0.00    -0.141 C  
BRANCH   4   5
HETATM    5  C   UNL     1      -9.590  15.230  68.498  1.00  0.00    -0.211 C  
BRANCH   5   6
HETATM    6  O   UNL     1     -10.503  14.129  68.699  1.00  0.00    -0.240 OA 
BRANCH   6   7
HETATM    7  C   UNL     1     -11.008  13.579  67.544  1.00  0.00    -0.268 A  
HETATM    8  C   UNL     1     -12.110  14.072  66.838  1.00  0.00    -0.465 A  
HETATM    9  C   UNL     1     -10.385  12.418  67.083  1.00  0.00    -0.232 A  
HETATM   10  C   UNL     1     -12.533  13.467  65.652  1.00  0.00    -0.519 A  
HETATM   11  C   UNL     1     -11.875  12.340  65.174  1.00  0.00    -0.404 A  
HETATM   12  C   UNL     1     -10.811  11.806  65.897  1.00  0.00    -0.339 A  
ENDBRANCH   6   7
ENDBRANCH   5   6
BRANCH   5  13
HETATM   13  O   UNL     1     -10.216  16.455  68.933  1.00  0.00    -0.228 OA 
BRANCH  13  14
HETATM   14  C   UNL     1     -10.303  17.489  68.045  1.00  0.00    -0.368 A  
HETATM   15  C   UNL     1     -10.611  18.503  65.877  1.00  0.00    -0.336 A  
HETATM   16  C   UNL     1     -10.465  17.361  66.666  1.00  0.00    -0.253 A  
HETATM   17  C   UNL     1     -10.463  19.892  67.843  1.00  0.00    -0.505 A  
HETATM   18  C   UNL     1     -10.322  18.753  68.630  1.00  0.00    -0.261 A  
HETATM   19  C   UNL     1     -10.602  19.767  66.464  1.00  0.00    -0.580 A  
ENDBRANCH  13  14
ENDBRANCH   5  13
ENDBRANCH   4   5
ENDBRANCH   2   4
TORSDOF 6
ENDMDL
MODEL      101
REMARK 921   NORMALIZED FREE ENERGY PREDICTED BY IDOCK:   -4.15 KCAL/MOL
REMARK 922        TOTAL FREE ENERGY PREDICTED BY IDOCK:   -6.46 KCAL/MOL
REMARK 923 INTER-LIGAND FREE ENERGY PREDICTED BY IDOCK:   -6.33 KCAL/MOL
REMARK 924 INTRA-LIGAND FREE ENERGY PREDICTED BY IDOCK:   -0.12 KCAL/MOL
REMARK 927      BINDING AFFINITY PREDICTED BY RF-SCORE:    0.00 PKD
ROOT
HETATM    1  C   UNL     1     -11.057  15.330  67.227  1.00  0.00    -0.325 C  
HETATM    2  N   UNL     1     -11.934  14.149  67.247  1.00  0.00    -0.416 NA 
HETATM    3  C   UNL     1     -12.413  13.869  65.891  1.00  0.00    -0.481 C  
ENDROOT
BRANCH   2   4
HETATM    4  C   UNL     1     -11.168  13.004  67.800  1.00  0.00    -0.279 C  
BRANCH   4   5
HETATM    5  C   UNL     1     -11.905  11.805  68.483  1.00  0.00    -0.303 C  
BRANCH   5   6
HETATM    6  O   UNL     1     -11.642  10.567  67.786  1.00  0.00    -0.462 OA 
BRANCH   6   7
HETATM    7  C   UNL     1     -10.511  10.574  67.003  1.00  0.00    -0.249 A  
HETATM    8  C   UNL     1     -10.495  10.789  65.622  1.00  0.00    -0.255 A  
HETATM    9  C   UNL     1      -9.304  10.301  67.651  1.00  0.00    -0.158 A  
HETATM   10  C   UNL     1      -9.292  10.813  64.912  1.00  0.00    -0.261 A  
HETATM   11  C   UNL     1      -8.090  10.589  65.574  1.00  0.00    -0.155 A  
HETATM   12  C   UNL     1      -8.098  10.317  66.940  1.00  0.00    -0.119 A  
ENDBRANCH   6   7
ENDBRANCH   5   6
BRANCH   5  13
HETATM   13  O   UNL     1     -11.340  11.737  69.808  1.00  0.00    -0.244 OA 
BRANCH  13  14
HETATM   14  C   UNL     1     -11.644  10.659  70.589  1.00  0.00    -0.336 A  
HETATM   15  C   UNL     1     -11.195   8.598  71.761  1.00  0.00    -0.396 A  
HETATM   16  C   UNL     1     -10.780   9.608  70.891  1.00  0.00    -0.402 A  
HETATM   17  C   UNL     1     -13.319   9.704  72.046  1.00  0.00    -0.547 A  
HETATM   18  C   UNL     1     -12.904  10.712  71.183  1.00  0.00    -0.518 A  
HETATM   19  C   UNL     1     -12.466   8.642  72.332  1.00  0.00    -0.428 A  
ENDBRANCH  13  14
ENDBRANCH   5  13
ENDBRANCH   4   5
ENDBRANCH   2   4
TORSDOF 6
ENDMDL
MODEL      102
REMARK 921   NORMALIZED FREE ENERGY PREDICTED BY IDOCK:   -4.14 KCAL/MOL
REMARK 922        TOTAL FREE ENERGY PREDICTED BY IDOCK:   -6.44 KCAL/MOL
REMARK 923 INTER-LIGAND FREE ENERGY PREDICTED BY IDOCK:   -5.64 KCAL/MOL
REMARK 924 INTRA-LIGAND FREE ENERGY PREDICTED BY IDOCK:   -0.80 KCAL/MOL
REMARK 927      BINDING AFFINITY PREDICTED BY RF-SCORE:    0.00 PKD
ROOT
HETATM    1  C   UNL     1     -11.602   8.904  71.607  1.00  0.00    -0.338 C  
HETATM    2  N   UNL     1     -12.129   9.937  70.703  1.00  0.00    -0.273 NA 
HETATM    3  C   UNL     1     -12.951  10.883  71.462  1.00  0.00    -0.451 C  
ENDROOT
BRANCH   2   4
HETATM    4  C   UNL     1     -10.985  10.617  70.047  1.00  0.00    -0.259 C  
BRANCH   4   5
HETATM    5  C   UNL     1     -10.637  10.332  68.549  1.00  0.00    -0.213 C  
BRANCH   5   6
HETATM    6  O   UNL     1     -10.161  11.525  67.888  1.00  0.00    -0.177 OA 
BRANCH   6   7
HETATM    7  C   UNL     1     -10.748  11.786  66.672  1.00  0.00    -0.263 A  
HETATM    8  C   UNL     1     -11.816  12.664  66.470  1.00  0.00    -0.463 A  
HETATM    9  C   UNL     1     -10.250  11.075  65.577  1.00  0.00    -0.327 A  
HETATM   10  C   UNL     1     -12.326  12.893  65.189  1.00  0.00    -0.547 A  
HETATM   11  C   UNL     1     -11.792  12.219  64.098  1.00  0.00    -0.502 A  
HETATM   12  C   UNL     1     -10.765  11.298  64.293  1.00  0.00    -0.416 A  
ENDBRANCH   6   7
ENDBRANCH   5   6
BRANCH   5  13
HETATM   13  O   UNL     1      -9.575   9.358  68.601  1.00  0.00    -0.145 OA 
BRANCH  13  14
HETATM   14  C   UNL     1      -9.726   8.195  67.901  1.00  0.00    -0.161 A  
HETATM   15  C   UNL     1      -9.189   6.567  66.203  1.00  0.00    -0.126 A  
HETATM   16  C   UNL     1      -8.979   7.818  66.786  1.00  0.00    -0.163 A  
HETATM   17  C   UNL     1     -10.863   6.063  67.864  1.00  0.00    -0.378 A  
HETATM   18  C   UNL     1     -10.651   7.307  68.447  1.00  0.00    -0.209 A  
HETATM   19  C   UNL     1     -10.135   5.693  66.737  1.00  0.00    -0.235 A  
ENDBRANCH  13  14
ENDBRANCH   5  13
ENDBRANCH   4   5
ENDBRANCH   2   4
TORSDOF 6
ENDMDL
MODEL      103
REMARK 921   NORMALIZED FREE ENERGY PREDICTED BY IDOCK:   -4.13 KCAL/MOL
REMARK 922        TOTAL FREE ENERGY PREDICTED BY IDOCK:   -6.43 KCAL/MOL
REMARK 923 INTER-LIGAND FREE ENERGY PREDICTED BY IDOCK:   -6.49 KCAL/MOL
REMARK 924 INTRA-LIGAND FREE ENERGY PREDICTED BY IDOCK:    0.06 KCAL/MOL
REMARK 927      BINDING AFFINITY PREDICTED BY RF-SCORE:    0.00 PKD
ROOT
HETATM    1  C   UNL     1      -7.815  13.562  68.380  1.00  0.00    -0.143 C  
HETATM    2  N   UNL     1      -9.258  13.689  68.639  1.00  0.00    -0.108 NA 
HETATM    3  C   UNL     1      -9.677  15.075  68.417  1.00  0.00    -0.216 C  
ENDROOT
BRANCH   2   4
HETATM    4  C   UNL     1      -9.981  12.754  67.742  1.00  0.00    -0.219 C  
BRANCH   4   5
HETATM    5  C   UNL     1     -10.941  11.666  68.328  1.00  0.00    -0.226 C  
BRANCH   5   6
HETATM    6  O   UNL     1     -11.331  11.990  69.680  1.00  0.00    -0.247 OA 
BRANCH   6   7
HETATM    7  C   UNL     1     -11.618  10.905  70.475  1.00  0.00    -0.300 A  
HETATM    8  C   UNL     1     -10.738   9.852  70.742  1.00  0.00    -0.350 A  
HETATM    9  C   UNL     1     -12.907  10.850  71.010  1.00  0.00    -0.472 A  
HETATM   10  C   UNL     1     -11.105   8.805  71.590  1.00  0.00    -0.398 A  
HETATM   11  C   UNL     1     -12.373   8.785  72.159  1.00  0.00    -0.458 A  
HETATM   12  C   UNL     1     -13.280   9.798  71.857  1.00  0.00    -0.545 A  
ENDBRANCH   6   7
ENDBRANCH   5   6
BRANCH   5  13
HETATM   13  O   UNL     1     -12.102  11.707  67.473  1.00  0.00    -0.611 OA 
BRANCH  13  14
HETATM   14  C   UNL     1     -11.989  12.311  66.253  1.00  0.00    -0.231 A  
HETATM   15  C   UNL     1     -11.519  12.415  63.888  1.00  0.00    -0.509 A  
HETATM   16  C   UNL     1     -11.520  11.703  65.090  1.00  0.00    -0.180 A  
HETATM   17  C   UNL     1     -12.481  14.323  65.008  1.00  0.00    -0.409 A  
HETATM   18  C   UNL     1     -12.485  13.612  66.203  1.00  0.00    -0.449 A  
HETATM   19  C   UNL     1     -11.992  13.726  63.850  1.00  0.00    -0.414 A  
ENDBRANCH  13  14
ENDBRANCH   5  13
ENDBRANCH   4   5
ENDBRANCH   2   4
TORSDOF 6
ENDMDL
MODEL      104
REMARK 921   NORMALIZED FREE ENERGY PREDICTED BY IDOCK:   -4.10 KCAL/MOL
REMARK 922        TOTAL FREE ENERGY PREDICTED BY IDOCK:   -6.39 KCAL/MOL
REMARK 923 INTER-LIGAND FREE ENERGY PREDICTED BY IDOCK:   -6.07 KCAL/MOL
REMARK 924 INTRA-LIGAND FREE ENERGY PREDICTED BY IDOCK:   -0.32 KCAL/MOL
REMARK 927      BINDING AFFINITY PREDICTED BY RF-SCORE:    0.00 PKD
ROOT
HETATM    1  C   UNL     1      -8.165  14.115  68.335  1.00  0.00    -0.149 C  
HETATM    2  N   UNL     1      -7.601  15.262  69.064  1.00  0.00    -0.155 NA 
HETATM    3  C   UNL     1      -6.624  15.950  68.216  1.00  0.00    -0.119 C  
ENDROOT
BRANCH   2   4
HETATM    4  C   UNL     1      -8.712  16.164  69.455  1.00  0.00    -0.101 C  
BRANCH   4   5
HETATM    5  C   UNL     1     -10.183  15.858  69.016  1.00  0.00    -0.227 C  
BRANCH   5   6
HETATM    6  O   UNL     1     -11.132  16.468  69.919  1.00  0.00    -0.345 OA 
BRANCH   6   7
HETATM    7  C   UNL     1     -11.909  15.580  70.626  1.00  0.00    -0.365 A  
HETATM    8  C   UNL     1     -12.690  15.908  71.737  1.00  0.00    -0.466 A  
HETATM    9  C   UNL     1     -11.865  14.247  70.210  1.00  0.00    -0.377 A  
HETATM   10  C   UNL     1     -13.476  14.944  72.374  1.00  0.00    -0.528 A  
HETATM   11  C   UNL     1     -13.465  13.630  71.922  1.00  0.00    -0.519 A  
HETATM   12  C   UNL     1     -12.647  13.277  70.850  1.00  0.00    -0.386 A  
ENDBRANCH   6   7
ENDBRANCH   5   6
BRANCH   5  13
HETATM   13  O   UNL     1     -10.306  16.463  67.712  1.00  0.00    -0.270 OA 
BRANCH  13  14
HETATM   14  C   UNL     1     -10.951  15.764  66.732  1.00  0.00    -0.192 A  
HETATM   15  C   UNL     1     -11.621  15.263  64.469  1.00  0.00    -0.312 A  
HETATM   16  C   UNL     1     -10.981  16.104  65.381  1.00  0.00    -0.235 A  
HETATM   17  C   UNL     1     -12.173  13.735  66.251  1.00  0.00    -0.489 A  
HETATM   18  C   UNL     1     -11.532  14.571  67.159  1.00  0.00    -0.383 A  
HETATM   19  C   UNL     1     -12.223  14.084  64.905  1.00  0.00    -0.455 A  
ENDBRANCH  13  14
ENDBRANCH   5  13
ENDBRANCH   4   5
ENDBRANCH   2   4
TORSDOF 6
ENDMDL
MODEL      105
REMARK 921   NORMALIZED FREE ENERGY PREDICTED BY IDOCK:   -4.09 KCAL/MOL
REMARK 922        TOTAL FREE ENERGY PREDICTED BY IDOCK:   -6.38 KCAL/MOL
REMARK 923 INTER-LIGAND FREE ENERGY PREDICTED BY IDOCK:   -5.81 KCAL/MOL
REMARK 924 INTRA-LIGAND FREE ENERGY PREDICTED BY IDOCK:   -0.57 KCAL/MOL
REMARK 927      BINDING AFFINITY PREDICTED BY RF-SCORE:    0.00 PKD
ROOT
HETATM    1  C   UNL     1     -13.915  15.034  71.310  1.00  0.00    -0.444 C  
HETATM    2  N   UNL     1     -12.680  15.805  71.100  1.00  0.00    -0.475 NA 
HETATM    3  C   UNL     1     -11.829  15.703  72.289  1.00  0.00    -0.481 C  
ENDROOT
BRANCH   2   4
HETATM    4  C   UNL     1     -11.994  15.276  69.895  1.00  0.00    -0.343 C  
BRANCH   4   5
HETATM    5  C   UNL     1     -10.782  16.040  69.266  1.00  0.00    -0.275 C  
BRANCH   5   6
HETATM    6  O   UNL     1     -10.860  17.456  69.540  1.00  0.00    -0.026 OA 
BRANCH   6   7
HETATM    7  C   UNL     1     -10.509  18.269  68.488  1.00  0.00    -0.216 A  
HETATM    8  C   UNL     1     -10.242  19.637  68.588  1.00  0.00    -0.498 A  
HETATM    9  C   UNL     1     -10.463  17.669  67.227  1.00  0.00    -0.338 A  
HETATM   10  C   UNL     1      -9.858  20.379  67.468  1.00  0.00    -0.564 A  
HETATM   11  C   UNL     1      -9.766  19.763  66.225  1.00  0.00    -0.532 A  
HETATM   12  C   UNL     1     -10.084  18.412  66.102  1.00  0.00    -0.376 A  
ENDBRANCH   6   7
ENDBRANCH   5   6
BRANCH   5  13
HETATM   13  O   UNL     1      -9.623  15.488  69.923  1.00  0.00    -0.275 OA 
BRANCH  13  14
HETATM   14  C   UNL     1      -8.675  14.872  69.157  1.00  0.00    -0.149 A  
HETATM   15  C   UNL     1      -6.439  14.196  68.550  1.00  0.00    -0.096 A  
HETATM   16  C   UNL     1      -7.299  14.931  69.369  1.00  0.00    -0.181 A  
HETATM   17  C   UNL     1      -8.330  13.325  67.333  1.00  0.00    -0.193 A  
HETATM   18  C   UNL     1      -9.186  14.054  68.151  1.00  0.00    -0.196 A  
HETATM   19  C   UNL     1      -6.954  13.400  67.528  1.00  0.00    -0.153 A  
ENDBRANCH  13  14
ENDBRANCH   5  13
ENDBRANCH   4   5
ENDBRANCH   2   4
TORSDOF 6
ENDMDL
MODEL      106
REMARK 921   NORMALIZED FREE ENERGY PREDICTED BY IDOCK:   -4.07 KCAL/MOL
REMARK 922        TOTAL FREE ENERGY PREDICTED BY IDOCK:   -6.36 KCAL/MOL
REMARK 923 INTER-LIGAND FREE ENERGY PREDICTED BY IDOCK:   -5.57 KCAL/MOL
REMARK 924 INTRA-LIGAND FREE ENERGY PREDICTED BY IDOCK:   -0.78 KCAL/MOL
REMARK 927      BINDING AFFINITY PREDICTED BY RF-SCORE:    0.00 PKD
ROOT
HETATM    1  C   UNL     1      -6.942   7.336  71.175  1.00  0.00    -0.060 C  
HETATM    2  N   UNL     1      -8.306   7.787  71.489  1.00  0.00    -0.106 NA 
HETATM    3  C   UNL     1      -8.493   7.813  72.942  1.00  0.00    -0.154 C  
ENDROOT
BRANCH   2   4
HETATM    4  C   UNL     1      -8.507   9.131  70.892  1.00  0.00    -0.201 C  
BRANCH   4   5
HETATM    5  C   UNL     1      -9.845   9.492  70.167  1.00  0.00    -0.244 C  
BRANCH   5   6
HETATM    6  O   UNL     1      -9.629   9.720  68.757  1.00  0.00    -0.147 OA 
BRANCH   6   7
HETATM    7  C   UNL     1     -10.359  10.755  68.220  1.00  0.00    -0.173 A  
HETATM    8  C   UNL     1     -11.044  11.721  68.962  1.00  0.00    -0.301 A  
HETATM    9  C   UNL     1     -10.444  10.798  66.826  1.00  0.00    -0.305 A  
HETATM   10  C   UNL     1     -11.733  12.759  68.329  1.00  0.00    -0.388 A  
HETATM   11  C   UNL     1     -11.770  12.823  66.942  1.00  0.00    -0.447 A  
HETATM   12  C   UNL     1     -11.139  11.833  66.190  1.00  0.00    -0.358 A  
ENDBRANCH   6   7
ENDBRANCH   5   6
BRANCH   5  13
HETATM   13  O   UNL     1     -10.679   8.328  70.341  1.00  0.00    -0.224 OA 
BRANCH  13  14
HETATM   14  C   UNL     1     -11.843   8.463  71.043  1.00  0.00    -0.252 A  
HETATM   15  C   UNL     1     -13.589   9.669  72.192  1.00  0.00    -0.471 A  
HETATM   16  C   UNL     1     -12.349   9.658  71.550  1.00  0.00    -0.477 A  
HETATM   17  C   UNL     1     -13.827   7.302  71.790  1.00  0.00    -0.420 A  
HETATM   18  C   UNL     1     -12.593   7.293  71.148  1.00  0.00    -0.362 A  
HETATM   19  C   UNL     1     -14.323   8.491  72.318  1.00  0.00    -0.483 A  
ENDBRANCH  13  14
ENDBRANCH   5  13
ENDBRANCH   4   5
ENDBRANCH   2   4
TORSDOF 6
ENDMDL
MODEL      107
REMARK 921   NORMALIZED FREE ENERGY PREDICTED BY IDOCK:   -4.07 KCAL/MOL
REMARK 922        TOTAL FREE ENERGY PREDICTED BY IDOCK:   -6.35 KCAL/MOL
REMARK 923 INTER-LIGAND FREE ENERGY PREDICTED BY IDOCK:   -5.75 KCAL/MOL
REMARK 924 INTRA-LIGAND FREE ENERGY PREDICTED BY IDOCK:   -0.60 KCAL/MOL
REMARK 927      BINDING AFFINITY PREDICTED BY RF-SCORE:    0.00 PKD
ROOT
HETATM    1  C   UNL     1      -9.345  17.222  68.531  1.00  0.00    -0.276 C  
HETATM    2  N   UNL     1     -10.358  17.433  67.485  1.00  0.00    -0.339 NA 
HETATM    3  C   UNL     1     -10.085  18.691  66.784  1.00  0.00    -0.380 C  
ENDROOT
BRANCH   2   4
HETATM    4  C   UNL     1     -10.325  16.276  66.557  1.00  0.00    -0.307 C  
BRANCH   4   5
HETATM    5  C   UNL     1     -10.540  14.820  67.087  1.00  0.00    -0.285 C  
BRANCH   5   6
HETATM    6  O   UNL     1     -11.902  14.621  67.526  1.00  0.00    -0.380 OA 
BRANCH   6   7
HETATM    7  C   UNL     1     -12.068  14.573  68.890  1.00  0.00    -0.237 A  
HETATM    8  C   UNL     1     -12.159  15.690  69.726  1.00  0.00    -0.346 A  
HETATM    9  C   UNL     1     -12.103  13.302  69.468  1.00  0.00    -0.315 A  
HETATM   10  C   UNL     1     -12.362  15.545  71.100  1.00  0.00    -0.468 A  
HETATM   11  C   UNL     1     -12.446  14.276  71.660  1.00  0.00    -0.419 A  
HETATM   12  C   UNL     1     -12.300  13.154  70.847  1.00  0.00    -0.393 A  
ENDBRANCH   6   7
ENDBRANCH   5   6
BRANCH   5  13
HETATM   13  O   UNL     1     -10.277  13.975  65.948  1.00  0.00    -0.299 OA 
BRANCH  13  14
HETATM   14  C   UNL     1      -9.794  12.718  66.170  1.00  0.00    -0.267 A  
HETATM   15  C   UNL     1      -8.900  10.910  67.495  1.00  0.00    -0.133 A  
HETATM   16  C   UNL     1      -9.301  12.243  67.384  1.00  0.00    -0.183 A  
HETATM   17  C   UNL     1      -9.513  10.524  65.195  1.00  0.00    -0.285 A  
HETATM   18  C   UNL     1      -9.916  11.851  65.086  1.00  0.00    -0.276 A  
HETATM   19  C   UNL     1      -8.999  10.054  66.400  1.00  0.00    -0.164 A  
ENDBRANCH  13  14
ENDBRANCH   5  13
ENDBRANCH   4   5
ENDBRANCH   2   4
TORSDOF 6
ENDMDL
MODEL      108
REMARK 921   NORMALIZED FREE ENERGY PREDICTED BY IDOCK:   -4.06 KCAL/MOL
REMARK 922        TOTAL FREE ENERGY PREDICTED BY IDOCK:   -6.33 KCAL/MOL
REMARK 923 INTER-LIGAND FREE ENERGY PREDICTED BY IDOCK:   -5.57 KCAL/MOL
REMARK 924 INTRA-LIGAND FREE ENERGY PREDICTED BY IDOCK:   -0.76 KCAL/MOL
REMARK 927      BINDING AFFINITY PREDICTED BY RF-SCORE:    0.00 PKD
ROOT
HETATM    1  C   UNL     1     -12.186   6.437  71.976  1.00  0.00    -0.269 C  
HETATM    2  N   UNL     1     -12.965   7.485  71.298  1.00  0.00    -0.312 NA 
HETATM    3  C   UNL     1     -14.387   7.315  71.604  1.00  0.00    -0.421 C  
ENDROOT
BRANCH   2   4
HETATM    4  C   UNL     1     -12.466   8.808  71.749  1.00  0.00    -0.350 C  
BRANCH   4   5
HETATM    5  C   UNL     1     -11.735   9.768  70.753  1.00  0.00    -0.328 C  
BRANCH   5   6
HETATM    6  O   UNL     1     -12.208  11.125  70.897  1.00  0.00    -0.355 OA 
BRANCH   6   7
HETATM    7  C   UNL     1     -12.017  11.924  69.793  1.00  0.00    -0.307 A  
HETATM    8  C   UNL     1     -11.777  11.456  68.498  1.00  0.00    -0.386 A  
HETATM    9  C   UNL     1     -12.025  13.303  70.014  1.00  0.00    -0.399 A  
HETATM   10  C   UNL     1     -11.629  12.343  67.429  1.00  0.00    -0.433 A  
HETATM   11  C   UNL     1     -11.688  13.713  67.650  1.00  0.00    -0.398 A  
HETATM   12  C   UNL     1     -11.870  14.194  68.945  1.00  0.00    -0.382 A  
ENDBRANCH   6   7
ENDBRANCH   5   6
BRANCH   5  13
HETATM   13  O   UNL     1     -10.346   9.702  71.138  1.00  0.00    -0.294 OA 
BRANCH  13  14
HETATM   14  C   UNL     1      -9.432   9.312  70.202  1.00  0.00    -0.226 A  
HETATM   15  C   UNL     1      -7.241   9.155  69.202  1.00  0.00    -0.067 A  
HETATM   16  C   UNL     1      -8.088   9.682  70.179  1.00  0.00    -0.205 A  
HETATM   17  C   UNL     1      -9.070   7.870  68.297  1.00  0.00    -0.134 A  
HETATM   18  C   UNL     1      -9.912   8.392  69.272  1.00  0.00    -0.195 A  
HETATM   19  C   UNL     1      -7.733   8.256  68.258  1.00  0.00    -0.106 A  
ENDBRANCH  13  14
ENDBRANCH   5  13
ENDBRANCH   4   5
ENDBRANCH   2   4
TORSDOF 6
ENDMDL
MODEL      109
REMARK 921   NORMALIZED FREE ENERGY PREDICTED BY IDOCK:   -4.03 KCAL/MOL
REMARK 922        TOTAL FREE ENERGY PREDICTED BY IDOCK:   -6.30 KCAL/MOL
REMARK 923 INTER-LIGAND FREE ENERGY PREDICTED BY IDOCK:   -5.93 KCAL/MOL
REMARK 924 INTRA-LIGAND FREE ENERGY PREDICTED BY IDOCK:   -0.37 KCAL/MOL
REMARK 927      BINDING AFFINITY PREDICTED BY RF-SCORE:    0.00 PKD
ROOT
HETATM    1  C   UNL     1      -9.493   9.816  64.859  1.00  0.00    -0.265 C  
HETATM    2  N   UNL     1      -9.124   9.744  66.281  1.00  0.00    -0.152 NA 
HETATM    3  C   UNL     1      -7.682   9.517  66.404  1.00  0.00    -0.097 C  
ENDROOT
BRANCH   2   4
HETATM    4  C   UNL     1      -9.533  11.010  66.938  1.00  0.00    -0.177 C  
BRANCH   4   5
HETATM    5  C   UNL     1     -10.691  11.027  67.990  1.00  0.00    -0.217 C  
BRANCH   5   6
HETATM    6  O   UNL     1     -11.928  11.477  67.395  1.00  0.00    -0.623 OA 
BRANCH   6   7
HETATM    7  C   UNL     1     -11.808  12.573  66.573  1.00  0.00    -0.367 A  
HETATM    8  C   UNL     1     -12.144  12.597  65.216  1.00  0.00    -0.519 A  
HETATM    9  C   UNL     1     -11.267  13.726  67.148  1.00  0.00    -0.327 A  
HETATM   10  C   UNL     1     -12.021  13.769  64.466  1.00  0.00    -0.458 A  
HETATM   11  C   UNL     1     -11.529  14.925  65.058  1.00  0.00    -0.379 A  
HETATM   12  C   UNL     1     -11.136  14.900  66.395  1.00  0.00    -0.342 A  
ENDBRANCH   6   7
ENDBRANCH   5   6
BRANCH   5  13
HETATM   13  O   UNL     1     -10.831   9.651  68.400  1.00  0.00    -0.219 OA 
BRANCH  13  14
HETATM   14  C   UNL     1     -10.802   9.365  69.735  1.00  0.00    -0.232 A  
HETATM   15  C   UNL     1     -11.729   9.110  71.948  1.00  0.00    -0.436 A  
HETATM   16  C   UNL     1     -11.872   9.504  70.616  1.00  0.00    -0.301 A  
HETATM   17  C   UNL     1      -9.461   8.416  71.508  1.00  0.00    -0.267 A  
HETATM   18  C   UNL     1      -9.606   8.804  70.180  1.00  0.00    -0.187 A  
HETATM   19  C   UNL     1     -10.522   8.574  72.395  1.00  0.00    -0.367 A  
ENDBRANCH  13  14
ENDBRANCH   5  13
ENDBRANCH   4   5
ENDBRANCH   2   4
TORSDOF 6
ENDMDL
MODEL      110
REMARK 921   NORMALIZED FREE ENERGY PREDICTED BY IDOCK:   -4.00 KCAL/MOL
REMARK 922        TOTAL FREE ENERGY PREDICTED BY IDOCK:   -6.26 KCAL/MOL
REMARK 923 INTER-LIGAND FREE ENERGY PREDICTED BY IDOCK:   -5.33 KCAL/MOL
REMARK 924 INTRA-LIGAND FREE ENERGY PREDICTED BY IDOCK:   -0.94 KCAL/MOL
REMARK 927      BINDING AFFINITY PREDICTED BY RF-SCORE:    0.00 PKD
ROOT
HETATM    1  C   UNL     1      -9.235  11.661  66.162  1.00  0.00    -0.219 C  
HETATM    2  N   UNL     1      -9.991  11.950  67.390  1.00  0.00    -0.189 NA 
HETATM    3  C   UNL     1     -11.389  11.546  67.214  1.00  0.00    -0.290 C  
ENDROOT
BRANCH   2   4
HETATM    4  C   UNL     1      -9.354  11.226  68.518  1.00  0.00    -0.182 C  
BRANCH   4   5
HETATM    5  C   UNL     1      -9.872   9.816  68.956  1.00  0.00    -0.181 C  
BRANCH   5   6
HETATM    6  O   UNL     1      -8.870   8.800  68.731  1.00  0.00    -0.133 OA 
BRANCH   6   7
HETATM    7  C   UNL     1      -9.366   7.569  68.373  1.00  0.00    -0.141 A  
HETATM    8  C   UNL     1      -8.984   6.353  68.948  1.00  0.00    -0.123 A  
HETATM    9  C   UNL     1     -10.290   7.551  67.325  1.00  0.00    -0.366 A  
HETATM   10  C   UNL     1      -9.568   5.151  68.543  1.00  0.00    -0.190 A  
HETATM   11  C   UNL     1     -10.523   5.148  67.533  1.00  0.00    -0.148 A  
HETATM   12  C   UNL     1     -10.872   6.345  66.913  1.00  0.00    -0.428 A  
ENDBRANCH   6   7
ENDBRANCH   5   6
BRANCH   5  13
HETATM   13  O   UNL     1     -10.115   9.942  70.373  1.00  0.00    -0.267 OA 
BRANCH  13  14
HETATM   14  C   UNL     1     -11.318   9.524  70.864  1.00  0.00    -0.341 A  
HETATM   15  C   UNL     1     -12.926   7.909  71.656  1.00  0.00    -0.359 A  
HETATM   16  C   UNL     1     -11.687   8.198  71.083  1.00  0.00    -0.309 A  
HETATM   17  C   UNL     1     -13.411  10.265  71.819  1.00  0.00    -0.476 A  
HETATM   18  C   UNL     1     -12.174  10.553  71.251  1.00  0.00    -0.472 A  
HETATM   19  C   UNL     1     -13.790   8.941  72.017  1.00  0.00    -0.511 A  
ENDBRANCH  13  14
ENDBRANCH   5  13
ENDBRANCH   4   5
ENDBRANCH   2   4
TORSDOF 6
ENDMDL
MODEL      111
REMARK 921   NORMALIZED FREE ENERGY PREDICTED BY IDOCK:   -3.99 KCAL/MOL
REMARK 922        TOTAL FREE ENERGY PREDICTED BY IDOCK:   -6.24 KCAL/MOL
REMARK 923 INTER-LIGAND FREE ENERGY PREDICTED BY IDOCK:   -5.38 KCAL/MOL
REMARK 924 INTRA-LIGAND FREE ENERGY PREDICTED BY IDOCK:   -0.86 KCAL/MOL
REMARK 927      BINDING AFFINITY PREDICTED BY RF-SCORE:    0.00 PKD
ROOT
HETATM    1  C   UNL     1      -8.309  12.784  67.286  1.00  0.00    -0.187 C  
HETATM    2  N   UNL     1      -9.755  12.986  67.461  1.00  0.00    -0.202 NA 
HETATM    3  C   UNL     1     -10.363  11.759  67.982  1.00  0.00    -0.198 C  
ENDROOT
BRANCH   2   4
HETATM    4  C   UNL     1      -9.963  14.129  68.384  1.00  0.00    -0.235 C  
BRANCH   4   5
HETATM    5  C   UNL     1      -9.556  15.580  67.965  1.00  0.00    -0.203 C  
BRANCH   5   6
HETATM    6  O   UNL     1     -10.531  16.545  68.416  1.00  0.00    -0.274 OA 
BRANCH   6   7
HETATM    7  C   UNL     1     -10.399  17.800  67.868  1.00  0.00    -0.386 A  
HETATM    8  C   UNL     1     -10.433  18.084  66.500  1.00  0.00    -0.341 A  
HETATM    9  C   UNL     1     -10.171  18.849  68.762  1.00  0.00    -0.325 A  
HETATM   10  C   UNL     1     -10.325  19.396  66.035  1.00  0.00    -0.584 A  
HETATM   11  C   UNL     1     -10.149  20.440  66.935  1.00  0.00    -0.503 A  
HETATM   12  C   UNL     1     -10.055  20.165  68.298  1.00  0.00    -0.471 A  
ENDBRANCH   6   7
ENDBRANCH   5   6
BRANCH   5  13
HETATM   13  O   UNL     1      -8.302  15.815  68.638  1.00  0.00    -0.162 OA 
BRANCH  13  14
HETATM   14  C   UNL     1      -7.418  16.691  68.076  1.00  0.00    -0.164 A  
HETATM   15  C   UNL     1      -6.195  17.723  66.270  1.00  0.00    -0.265 A  
HETATM   16  C   UNL     1      -7.061  16.729  66.730  1.00  0.00    -0.270 A  
HETATM   17  C   UNL     1      -6.071  18.654  68.492  1.00  0.00    -0.214 A  
HETATM   18  C   UNL     1      -6.936  17.666  68.948  1.00  0.00    -0.251 A  
HETATM   19  C   UNL     1      -5.694  18.680  67.152  1.00  0.00    -0.147 A  
ENDBRANCH  13  14
ENDBRANCH   5  13
ENDBRANCH   4   5
ENDBRANCH   2   4
TORSDOF 6
ENDMDL
MODEL      112
REMARK 921   NORMALIZED FREE ENERGY PREDICTED BY IDOCK:   -3.97 KCAL/MOL
REMARK 922        TOTAL FREE ENERGY PREDICTED BY IDOCK:   -6.21 KCAL/MOL
REMARK 923 INTER-LIGAND FREE ENERGY PREDICTED BY IDOCK:   -5.47 KCAL/MOL
REMARK 924 INTRA-LIGAND FREE ENERGY PREDICTED BY IDOCK:   -0.74 KCAL/MOL
REMARK 927      BINDING AFFINITY PREDICTED BY RF-SCORE:    0.00 PKD
ROOT
HETATM    1  C   UNL     1      -7.800  13.848  68.423  1.00  0.00    -0.138 C  
HETATM    2  N   UNL     1      -7.896  14.822  69.521  1.00  0.00    -0.099 NA 
HETATM    3  C   UNL     1      -6.734  15.713  69.490  1.00  0.00    -0.185 C  
ENDROOT
BRANCH   2   4
HETATM    4  C   UNL     1      -9.164  15.578  69.371  1.00  0.00    -0.280 C  
BRANCH   4   5
HETATM    5  C   UNL     1      -9.460  16.393  68.069  1.00  0.00    -0.217 C  
BRANCH   5   6
HETATM    6  O   UNL     1     -10.823  16.202  67.633  1.00  0.00    -0.318 OA 
BRANCH   6   7
HETATM    7  C   UNL     1     -11.077  14.984  67.045  1.00  0.00    -0.334 A  
HETATM    8  C   UNL     1     -11.750  13.923  67.658  1.00  0.00    -0.403 A  
HETATM    9  C   UNL     1     -10.577  14.802  65.754  1.00  0.00    -0.338 A  
HETATM   10  C   UNL     1     -11.992  12.732  66.970  1.00  0.00    -0.364 A  
HETATM   11  C   UNL     1     -11.534  12.578  65.667  1.00  0.00    -0.400 A  
HETATM   12  C   UNL     1     -10.813  13.606  65.064  1.00  0.00    -0.358 A  
ENDBRANCH   6   7
ENDBRANCH   5   6
BRANCH   5  13
HETATM   13  O   UNL     1      -9.269  17.771  68.452  1.00  0.00    -0.272 OA 
BRANCH  13  14
HETATM   14  C   UNL     1      -8.473  18.557  67.669  1.00  0.00    -0.263 A  
HETATM   15  C   UNL     1      -7.282  20.568  67.066  1.00  0.00    -0.368 A  
HETATM   16  C   UNL     1      -8.168  19.895  67.910  1.00  0.00    -0.318 A  
HETATM   17  C   UNL     1      -6.987  18.560  65.763  1.00  0.00    -0.287 A  
HETATM   18  C   UNL     1      -7.866  17.890  66.607  1.00  0.00    -0.272 A  
HETATM   19  C   UNL     1      -6.699  19.902  65.989  1.00  0.00    -0.258 A  
ENDBRANCH  13  14
ENDBRANCH   5  13
ENDBRANCH   4   5
ENDBRANCH   2   4
TORSDOF 6
ENDMDL
MODEL      113
REMARK 921   NORMALIZED FREE ENERGY PREDICTED BY IDOCK:   -3.96 KCAL/MOL
REMARK 922        TOTAL FREE ENERGY PREDICTED BY IDOCK:   -6.20 KCAL/MOL
REMARK 923 INTER-LIGAND FREE ENERGY PREDICTED BY IDOCK:   -6.18 KCAL/MOL
REMARK 924 INTRA-LIGAND FREE ENERGY PREDICTED BY IDOCK:   -0.02 KCAL/MOL
REMARK 927      BINDING AFFINITY PREDICTED BY RF-SCORE:    0.00 PKD
ROOT
HETATM    1  C   UNL     1      -8.005  12.689  68.294  1.00  0.00    -0.153 C  
HETATM    2  N   UNL     1      -9.357  12.371  67.809  1.00  0.00    -0.189 NA 
HETATM    3  C   UNL     1      -9.978  11.385  68.698  1.00  0.00    -0.202 C  
ENDROOT
BRANCH   2   4
HETATM    4  C   UNL     1     -10.145  13.627  67.756  1.00  0.00    -0.242 C  
BRANCH   4   5
HETATM    5  C   UNL     1      -9.478  14.971  67.312  1.00  0.00    -0.208 C  
BRANCH   5   6
HETATM    6  O   UNL     1      -9.216  14.978  65.892  1.00  0.00    -0.280 OA 
BRANCH   6   7
HETATM    7  C   UNL     1     -10.182  14.371  65.123  1.00  0.00    -0.391 A  
HETATM    8  C   UNL     1     -10.053  13.117  64.519  1.00  0.00    -0.244 A  
HETATM    9  C   UNL     1     -11.354  15.099  64.908  1.00  0.00    -0.402 A  
HETATM   10  C   UNL     1     -11.102  12.563  63.781  1.00  0.00    -0.503 A  
HETATM   11  C   UNL     1     -12.285  13.274  63.614  1.00  0.00    -0.522 A  
HETATM   12  C   UNL     1     -12.405  14.549  64.164  1.00  0.00    -0.317 A  
ENDBRANCH   6   7
ENDBRANCH   5   6
BRANCH   5  13
HETATM   13  O   UNL     1     -10.458  15.983  67.623  1.00  0.00    -0.278 OA 
BRANCH  13  14
HETATM   14  C   UNL     1     -10.046  17.283  67.699  1.00  0.00    -0.313 A  
HETATM   15  C   UNL     1     -10.247  19.671  67.421  1.00  0.00    -0.561 A  
HETATM   16  C   UNL     1     -10.750  18.385  67.216  1.00  0.00    -0.389 A  
HETATM   17  C   UNL     1      -8.362  18.755  68.613  1.00  0.00    -0.360 A  
HETATM   18  C   UNL     1      -8.865  17.474  68.413  1.00  0.00    -0.276 A  
HETATM   19  C   UNL     1      -9.051  19.855  68.112  1.00  0.00    -0.349 A  
ENDBRANCH  13  14
ENDBRANCH   5  13
ENDBRANCH   4   5
ENDBRANCH   2   4
TORSDOF 6
ENDMDL
MODEL      114
REMARK 921   NORMALIZED FREE ENERGY PREDICTED BY IDOCK:   -3.93 KCAL/MOL
REMARK 922        TOTAL FREE ENERGY PREDICTED BY IDOCK:   -6.17 KCAL/MOL
REMARK 923 INTER-LIGAND FREE ENERGY PREDICTED BY IDOCK:   -5.32 KCAL/MOL
REMARK 924 INTRA-LIGAND FREE ENERGY PREDICTED BY IDOCK:   -0.85 KCAL/MOL
REMARK 927      BINDING AFFINITY PREDICTED BY RF-SCORE:    0.00 PKD
ROOT
HETATM    1  C   UNL     1      -6.202   6.124  71.383  1.00  0.00    -0.044 C  
HETATM    2  N   UNL     1      -7.398   5.547  72.017  1.00  0.00    -0.090 NA 
HETATM    3  C   UNL     1      -7.002   4.757  73.185  1.00  0.00    -0.074 C  
ENDROOT
BRANCH   2   4
HETATM    4  C   UNL     1      -8.312   6.654  72.394  1.00  0.00    -0.106 C  
BRANCH   4   5
HETATM    5  C   UNL     1      -9.566   6.988  71.520  1.00  0.00    -0.158 C  
BRANCH   5   6
HETATM    6  O   UNL     1     -10.234   5.783  71.087  1.00  0.00    -0.201 OA 
BRANCH   6   7
HETATM    7  C   UNL     1     -10.206   5.563  69.729  1.00  0.00    -0.265 A  
HETATM    8  C   UNL     1      -9.459   4.567  69.094  1.00  0.00    -0.233 A  
HETATM    9  C   UNL     1     -10.955   6.441  68.942  1.00  0.00    -0.412 A  
HETATM   10  C   UNL     1      -9.520   4.396  67.709  1.00  0.00    -0.207 A  
HETATM   11  C   UNL     1     -10.307   5.243  66.938  1.00  0.00    -0.303 A  
HETATM   12  C   UNL     1     -11.012   6.276  67.553  1.00  0.00    -0.444 A  
ENDBRANCH   6   7
ENDBRANCH   5   6
BRANCH   5  13
HETATM   13  O   UNL     1     -10.436   7.727  72.401  1.00  0.00    -0.223 OA 
BRANCH  13  14
HETATM   14  C   UNL     1     -11.192   8.734  71.872  1.00  0.00    -0.368 A  
HETATM   15  C   UNL     1     -11.729  10.484  70.300  1.00  0.00    -0.420 A  
HETATM   16  C   UNL     1     -10.832   9.531  70.787  1.00  0.00    -0.386 A  
HETATM   17  C   UNL     1     -13.348   9.822  71.961  1.00  0.00    -0.547 A  
HETATM   18  C   UNL     1     -12.456   8.870  72.443  1.00  0.00    -0.405 A  
HETATM   19  C   UNL     1     -12.983  10.634  70.891  1.00  0.00    -0.429 A  
ENDBRANCH  13  14
ENDBRANCH   5  13
ENDBRANCH   4   5
ENDBRANCH   2   4
TORSDOF 6
ENDMDL
MODEL      115
REMARK 921   NORMALIZED FREE ENERGY PREDICTED BY IDOCK:   -3.91 KCAL/MOL
REMARK 922        TOTAL FREE ENERGY PREDICTED BY IDOCK:   -6.14 KCAL/MOL
REMARK 923 INTER-LIGAND FREE ENERGY PREDICTED BY IDOCK:   -5.63 KCAL/MOL
REMARK 924 INTRA-LIGAND FREE ENERGY PREDICTED BY IDOCK:   -0.50 KCAL/MOL
REMARK 927      BINDING AFFINITY PREDICTED BY RF-SCORE:    0.00 PKD
ROOT
HETATM    1  C   UNL     1      -7.058  12.509  67.297  1.00  0.00    -0.112 C  
HETATM    2  N   UNL     1      -7.809  13.128  68.400  1.00  0.00    -0.137 NA 
HETATM    3  C   UNL     1      -6.873  13.687  69.379  1.00  0.00    -0.022 C  
ENDROOT
BRANCH   2   4
HETATM    4  C   UNL     1      -8.695  14.177  67.837  1.00  0.00    -0.182 C  
BRANCH   4   5
HETATM    5  C   UNL     1     -10.165  14.340  68.346  1.00  0.00    -0.245 C  
BRANCH   5   6
HETATM    6  O   UNL     1     -10.914  15.236  67.496  1.00  0.00    -0.301 OA 
BRANCH   6   7
HETATM    7  C   UNL     1     -10.490  16.544  67.519  1.00  0.00    -0.310 A  
HETATM    8  C   UNL     1     -10.469  17.359  68.654  1.00  0.00    -0.355 A  
HETATM    9  C   UNL     1     -10.095  17.091  66.296  1.00  0.00    -0.330 A  
HETATM   10  C   UNL     1      -9.988  18.669  68.590  1.00  0.00    -0.431 A  
HETATM   11  C   UNL     1      -9.549  19.189  67.378  1.00  0.00    -0.373 A  
HETATM   12  C   UNL     1      -9.618  18.406  66.228  1.00  0.00    -0.266 A  
ENDBRANCH   6   7
ENDBRANCH   5   6
BRANCH   5  13
HETATM   13  O   UNL     1     -10.729  13.015  68.259  1.00  0.00    -0.230 OA 
BRANCH  13  14
HETATM   14  C   UNL     1     -11.451  12.547  69.319  1.00  0.00    -0.293 A  
HETATM   15  C   UNL     1     -12.180  10.900  70.925  1.00  0.00    -0.485 A  
HETATM   16  C   UNL     1     -11.447  11.233  69.785  1.00  0.00    -0.386 A  
HETATM   17  C   UNL     1     -12.894  13.193  71.147  1.00  0.00    -0.349 A  
HETATM   18  C   UNL     1     -12.160  13.525  70.014  1.00  0.00    -0.411 A  
HETATM   19  C   UNL     1     -12.909  11.878  71.601  1.00  0.00    -0.417 A  
ENDBRANCH  13  14
ENDBRANCH   5  13
ENDBRANCH   4   5
ENDBRANCH   2   4
TORSDOF 6
ENDMDL
MODEL      116
REMARK 921   NORMALIZED FREE ENERGY PREDICTED BY IDOCK:   -3.91 KCAL/MOL
REMARK 922        TOTAL FREE ENERGY PREDICTED BY IDOCK:   -6.13 KCAL/MOL
REMARK 923 INTER-LIGAND FREE ENERGY PREDICTED BY IDOCK:   -5.26 KCAL/MOL
REMARK 924 INTRA-LIGAND FREE ENERGY PREDICTED BY IDOCK:   -0.87 KCAL/MOL
REMARK 927      BINDING AFFINITY PREDICTED BY RF-SCORE:    0.00 PKD
ROOT
HETATM    1  C   UNL     1     -11.107   6.338  67.308  1.00  0.00    -0.296 C  
HETATM    2  N   UNL     1      -9.797   5.823  67.736  1.00  0.00    -0.120 NA 
HETATM    3  C   UNL     1      -8.937   5.634  66.565  1.00  0.00    -0.126 C  
ENDROOT
BRANCH   2   4
HETATM    4  C   UNL     1      -9.203   6.785  68.697  1.00  0.00    -0.132 C  
BRANCH   4   5
HETATM    5  C   UNL     1      -9.788   8.228  68.849  1.00  0.00    -0.180 C  
BRANCH   5   6
HETATM    6  O   UNL     1      -9.699   8.684  70.217  1.00  0.00    -0.167 OA 
BRANCH   6   7
HETATM    7  C   UNL     1     -10.905   8.988  70.804  1.00  0.00    -0.251 A  
HETATM    8  C   UNL     1     -11.607  10.183  70.620  1.00  0.00    -0.429 A  
HETATM    9  C   UNL     1     -11.429   8.035  71.680  1.00  0.00    -0.310 A  
HETATM   10  C   UNL     1     -12.845  10.392  71.232  1.00  0.00    -0.533 A  
HETATM   11  C   UNL     1     -13.382   9.416  72.063  1.00  0.00    -0.525 A  
HETATM   12  C   UNL     1     -12.667   8.244  72.301  1.00  0.00    -0.338 A  
ENDBRANCH   6   7
ENDBRANCH   5   6
BRANCH   5  13
HETATM   13  O   UNL     1      -8.948   9.051  68.015  1.00  0.00    -0.132 OA 
BRANCH  13  14
HETATM   14  C   UNL     1      -9.515   9.682  66.945  1.00  0.00    -0.153 A  
HETATM   15  C   UNL     1     -10.871  11.344  65.839  1.00  0.00    -0.292 A  
HETATM   16  C   UNL     1     -10.418  10.742  67.014  1.00  0.00    -0.297 A  
HETATM   17  C   UNL     1      -9.501   9.849  64.534  1.00  0.00    -0.328 A  
HETATM   18  C   UNL     1      -9.046   9.252  65.705  1.00  0.00    -0.268 A  
HETATM   19  C   UNL     1     -10.419  10.892  64.600  1.00  0.00    -0.384 A  
ENDBRANCH  13  14
ENDBRANCH   5  13
ENDBRANCH   4   5
ENDBRANCH   2   4
TORSDOF 6
ENDMDL
MODEL      117
REMARK 921   NORMALIZED FREE ENERGY PREDICTED BY IDOCK:   -3.88 KCAL/MOL
REMARK 922        TOTAL FREE ENERGY PREDICTED BY IDOCK:   -6.10 KCAL/MOL
REMARK 923 INTER-LIGAND FREE ENERGY PREDICTED BY IDOCK:   -5.64 KCAL/MOL
REMARK 924 INTRA-LIGAND FREE ENERGY PREDICTED BY IDOCK:   -0.46 KCAL/MOL
REMARK 927      BINDING AFFINITY PREDICTED BY RF-SCORE:    0.00 PKD
ROOT
HETATM    1  C   UNL     1     -12.431  13.716  70.722  1.00  0.00    -0.359 C  
HETATM    2  N   UNL     1     -12.596  12.439  71.433  1.00  0.00    -0.264 NA 
HETATM    3  C   UNL     1     -13.770  12.511  72.306  1.00  0.00    -0.259 C  
ENDROOT
BRANCH   2   4
HETATM    4  C   UNL     1     -12.731  11.354  70.430  1.00  0.00    -0.092 C  
BRANCH   4   5
HETATM    5  C   UNL     1     -11.599  11.088  69.384  1.00  0.00    -0.312 C  
BRANCH   5   6
HETATM    6  O   UNL     1     -11.222   9.693  69.369  1.00  0.00    -0.187 OA 
BRANCH   6   7
HETATM    7  C   UNL     1     -10.385   9.311  70.392  1.00  0.00    -0.240 A  
HETATM    8  C   UNL     1     -10.807   8.812  71.628  1.00  0.00    -0.399 A  
HETATM    9  C   UNL     1      -9.016   9.482  70.173  1.00  0.00    -0.269 A  
HETATM   10  C   UNL     1      -9.882   8.415  72.597  1.00  0.00    -0.329 A  
HETATM   11  C   UNL     1      -8.521   8.543  72.351  1.00  0.00    -0.196 A  
HETATM   12  C   UNL     1      -8.088   9.091  71.145  1.00  0.00    -0.185 A  
ENDBRANCH   6   7
ENDBRANCH   5   6
BRANCH   5  13
HETATM   13  O   UNL     1     -12.188  11.436  68.114  1.00  0.00    -0.602 OA 
BRANCH  13  14
HETATM   14  C   UNL     1     -11.449  12.179  67.239  1.00  0.00    -0.345 A  
HETATM   15  C   UNL     1      -9.851  12.540  65.466  1.00  0.00    -0.197 A  
HETATM   16  C   UNL     1     -10.489  11.679  66.361  1.00  0.00    -0.283 A  
HETATM   17  C   UNL     1     -11.152  14.389  66.306  1.00  0.00    -0.331 A  
HETATM   18  C   UNL     1     -11.790  13.530  67.194  1.00  0.00    -0.430 A  
HETATM   19  C   UNL     1     -10.178  13.896  65.445  1.00  0.00    -0.356 A  
ENDBRANCH  13  14
ENDBRANCH   5  13
ENDBRANCH   4   5
ENDBRANCH   2   4
TORSDOF 6
ENDMDL
MODEL      118
REMARK 921   NORMALIZED FREE ENERGY PREDICTED BY IDOCK:   -3.87 KCAL/MOL
REMARK 922        TOTAL FREE ENERGY PREDICTED BY IDOCK:   -6.08 KCAL/MOL
REMARK 923 INTER-LIGAND FREE ENERGY PREDICTED BY IDOCK:   -5.36 KCAL/MOL
REMARK 924 INTRA-LIGAND FREE ENERGY PREDICTED BY IDOCK:   -0.73 KCAL/MOL
REMARK 927      BINDING AFFINITY PREDICTED BY RF-SCORE:    0.00 PKD
ROOT
HETATM    1  C   UNL     1     -12.361  14.144  64.924  1.00  0.00    -0.430 C  
HETATM    2  N   UNL     1     -12.308  12.680  65.060  1.00  0.00    -0.491 NA 
HETATM    3  C   UNL     1     -12.644  12.055  63.778  1.00  0.00    -0.454 C  
ENDROOT
BRANCH   2   4
HETATM    4  C   UNL     1     -10.947  12.297  65.511  1.00  0.00    -0.298 C  
BRANCH   4   5
HETATM    5  C   UNL     1     -10.748  11.401  66.777  1.00  0.00    -0.271 C  
BRANCH   5   6
HETATM    6  O   UNL     1     -11.996  11.203  67.478  1.00  0.00    -0.580 OA 
BRANCH   6   7
HETATM    7  C   UNL     1     -12.127  11.927  68.640  1.00  0.00    -0.095 A  
HETATM    8  C   UNL     1     -12.035  13.318  68.732  1.00  0.00    -0.335 A  
HETATM    9  C   UNL     1     -12.323  11.191  69.811  1.00  0.00    -0.315 A  
HETATM   10  C   UNL     1     -12.216  13.972  69.954  1.00  0.00    -0.399 A  
HETATM   11  C   UNL     1     -12.461  13.235  71.106  1.00  0.00    -0.397 A  
HETATM   12  C   UNL     1     -12.497  11.843  71.038  1.00  0.00    -0.390 A  
ENDBRANCH   6   7
ENDBRANCH   5   6
BRANCH   5  13
HETATM   13  O   UNL     1     -10.286  10.136  66.259  1.00  0.00    -0.238 OA 
BRANCH  13  14
HETATM   14  C   UNL     1      -9.140   9.603  66.776  1.00  0.00    -0.146 A  
HETATM   15  C   UNL     1      -6.779   9.109  66.837  1.00  0.00    -0.076 A  
HETATM   16  C   UNL     1      -7.887   9.632  66.168  1.00  0.00    -0.101 A  
HETATM   17  C   UNL     1      -8.171   8.558  68.728  1.00  0.00    -0.122 A  
HETATM   18  C   UNL     1      -9.273   9.083  68.062  1.00  0.00    -0.143 A  
HETATM   19  C   UNL     1      -6.923   8.566  68.113  1.00  0.00    -0.074 A  
ENDBRANCH  13  14
ENDBRANCH   5  13
ENDBRANCH   4   5
ENDBRANCH   2   4
TORSDOF 6
ENDMDL
MODEL      119
REMARK 921   NORMALIZED FREE ENERGY PREDICTED BY IDOCK:   -3.87 KCAL/MOL
REMARK 922        TOTAL FREE ENERGY PREDICTED BY IDOCK:   -6.08 KCAL/MOL
REMARK 923 INTER-LIGAND FREE ENERGY PREDICTED BY IDOCK:   -5.75 KCAL/MOL
REMARK 924 INTRA-LIGAND FREE ENERGY PREDICTED BY IDOCK:   -0.32 KCAL/MOL
REMARK 927      BINDING AFFINITY PREDICTED BY RF-SCORE:    0.00 PKD
ROOT
HETATM    1  C   UNL     1     -12.747  13.794  65.486  1.00  0.00    -0.488 C  
HETATM    2  N   UNL     1     -12.018  12.536  65.710  1.00  0.00    -0.517 NA 
HETATM    3  C   UNL     1     -10.686  12.625  65.105  1.00  0.00    -0.292 C  
ENDROOT
BRANCH   2   4
HETATM    4  C   UNL     1     -11.936  12.293  67.171  1.00  0.00    -0.137 C  
BRANCH   4   5
HETATM    5  C   UNL     1     -10.772  11.440  67.776  1.00  0.00    -0.211 C  
BRANCH   5   6
HETATM    6  O   UNL     1     -10.534  11.789  69.157  1.00  0.00    -0.147 OA 
BRANCH   6   7
HETATM    7  C   UNL     1     -11.079  10.920  70.074  1.00  0.00    -0.211 A  
HETATM    8  C   UNL     1     -10.430   9.799  70.600  1.00  0.00    -0.358 A  
HETATM    9  C   UNL     1     -12.397  11.172  70.462  1.00  0.00    -0.454 A  
HETATM   10  C   UNL     1     -11.050   8.991  71.555  1.00  0.00    -0.419 A  
HETATM   11  C   UNL     1     -12.344   9.278  71.973  1.00  0.00    -0.433 A  
HETATM   12  C   UNL     1     -13.024  10.358  71.415  1.00  0.00    -0.545 A  
ENDBRANCH   6   7
ENDBRANCH   5   6
BRANCH   5  13
HETATM   13  O   UNL     1     -11.241  10.078  67.700  1.00  0.00    -0.248 OA 
BRANCH  13  14
HETATM   14  C   UNL     1     -10.446   9.152  67.088  1.00  0.00    -0.255 A  
HETATM   15  C   UNL     1      -8.542   8.385  65.820  1.00  0.00    -0.181 A  
HETATM   16  C   UNL     1      -9.307   9.432  66.335  1.00  0.00    -0.241 A  
HETATM   17  C   UNL     1     -10.035   6.784  66.832  1.00  0.00    -0.252 A  
HETATM   18  C   UNL     1     -10.794   7.828  67.349  1.00  0.00    -0.207 A  
HETATM   19  C   UNL     1      -8.910   7.062  66.061  1.00  0.00    -0.155 A  
ENDBRANCH  13  14
ENDBRANCH   5  13
ENDBRANCH   4   5
ENDBRANCH   2   4
TORSDOF 6
ENDMDL
MODEL      120
REMARK 921   NORMALIZED FREE ENERGY PREDICTED BY IDOCK:   -3.86 KCAL/MOL
REMARK 922        TOTAL FREE ENERGY PREDICTED BY IDOCK:   -6.07 KCAL/MOL
REMARK 923 INTER-LIGAND FREE ENERGY PREDICTED BY IDOCK:   -5.07 KCAL/MOL
REMARK 924 INTRA-LIGAND FREE ENERGY PREDICTED BY IDOCK:   -1.00 KCAL/MOL
REMARK 927      BINDING AFFINITY PREDICTED BY RF-SCORE:    0.00 PKD
ROOT
HETATM    1  C   UNL     1      -9.882   5.130  73.758  1.00  0.00    -0.159 C  
HETATM    2  N   UNL     1      -8.460   5.226  73.394  1.00  0.00    -0.113 NA 
HETATM    3  C   UNL     1      -8.119   4.153  72.457  1.00  0.00    -0.095 C  
ENDROOT
BRANCH   2   4
HETATM    4  C   UNL     1      -8.214   6.564  72.801  1.00  0.00    -0.109 C  
BRANCH   4   5
HETATM    5  C   UNL     1      -9.223   7.182  71.778  1.00  0.00    -0.139 C  
BRANCH   5   6
HETATM    6  O   UNL     1      -9.521   8.557  72.106  1.00  0.00    -0.257 OA 
BRANCH   6   7
HETATM    7  C   UNL     1     -10.818   8.942  71.861  1.00  0.00    -0.363 A  
HETATM    8  C   UNL     1     -11.947   8.380  72.464  1.00  0.00    -0.418 A  
HETATM    9  C   UNL     1     -11.000   9.942  70.904  1.00  0.00    -0.392 A  
HETATM   10  C   UNL     1     -13.228   8.859  72.179  1.00  0.00    -0.478 A  
HETATM   11  C   UNL     1     -13.396   9.889  71.261  1.00  0.00    -0.419 A  
HETATM   12  C   UNL     1     -12.284  10.420  70.611  1.00  0.00    -0.441 A  
ENDBRANCH   6   7
ENDBRANCH   5   6
BRANCH   5  13
HETATM   13  O   UNL     1      -8.535   7.131  70.511  1.00  0.00    -0.135 OA 
BRANCH  13  14
HETATM   14  C   UNL     1      -9.280   7.046  69.370  1.00  0.00    -0.147 A  
HETATM   15  C   UNL     1     -11.118   6.298  67.997  1.00  0.00    -0.365 A  
HETATM   16  C   UNL     1     -10.402   6.239  69.195  1.00  0.00    -0.262 A  
HETATM   17  C   UNL     1      -9.609   7.988  67.169  1.00  0.00    -0.227 A  
HETATM   18  C   UNL     1      -8.900   7.932  68.364  1.00  0.00    -0.130 A  
HETATM   19  C   UNL     1     -10.717   7.166  66.983  1.00  0.00    -0.420 A  
ENDBRANCH  13  14
ENDBRANCH   5  13
ENDBRANCH   4   5
ENDBRANCH   2   4
TORSDOF 6
ENDMDL
MODEL      121
REMARK 921   NORMALIZED FREE ENERGY PREDICTED BY IDOCK:   -3.86 KCAL/MOL
REMARK 922        TOTAL FREE ENERGY PREDICTED BY IDOCK:   -6.06 KCAL/MOL
REMARK 923 INTER-LIGAND FREE ENERGY PREDICTED BY IDOCK:   -5.11 KCAL/MOL
REMARK 924 INTRA-LIGAND FREE ENERGY PREDICTED BY IDOCK:   -0.96 KCAL/MOL
REMARK 927      BINDING AFFINITY PREDICTED BY RF-SCORE:    0.00 PKD
ROOT
HETATM    1  C   UNL     1     -10.165   9.437  68.867  1.00  0.00    -0.200 C  
HETATM    2  N   UNL     1      -9.257   9.507  67.712  1.00  0.00    -0.125 NA 
HETATM    3  C   UNL     1      -9.974   9.106  66.498  1.00  0.00    -0.288 C  
ENDROOT
BRANCH   2   4
HETATM    4  C   UNL     1      -8.739  10.893  67.603  1.00  0.00    -0.127 C  
BRANCH   4   5
HETATM    5  C   UNL     1      -9.719  12.105  67.471  1.00  0.00    -0.185 C  
BRANCH   5   6
HETATM    6  O   UNL     1      -9.417  13.127  68.446  1.00  0.00    -0.213 OA 
BRANCH   6   7
HETATM    7  C   UNL     1     -10.516  13.686  69.056  1.00  0.00    -0.078 A  
HETATM    8  C   UNL     1     -11.386  13.009  69.916  1.00  0.00    -0.037 A  
HETATM    9  C   UNL     1     -10.788  15.020  68.745  1.00  0.00    -0.249 A  
HETATM   10  C   UNL     1     -12.459  13.669  70.518  1.00  0.00    -0.394 A  
HETATM   11  C   UNL     1     -12.694  15.011  70.241  1.00  0.00    -0.319 A  
HETATM   12  C   UNL     1     -11.868  15.682  69.342  1.00  0.00    -0.391 A  
ENDBRANCH   6   7
ENDBRANCH   5   6
BRANCH   5  13
HETATM   13  O   UNL     1      -9.480  12.623  66.146  1.00  0.00    -0.239 OA 
BRANCH  13  14
HETATM   14  C   UNL     1     -10.484  12.533  65.224  1.00  0.00    -0.287 A  
HETATM   15  C   UNL     1     -11.479  11.924  63.112  1.00  0.00    -0.230 A  
HETATM   16  C   UNL     1     -10.355  12.024  63.934  1.00  0.00    -0.433 A  
HETATM   17  C   UNL     1     -12.859  12.814  64.879  1.00  0.00    -0.357 A  
HETATM   18  C   UNL     1     -11.740  12.908  65.698  1.00  0.00    -0.430 A  
HETATM   19  C   UNL     1     -12.729  12.326  63.582  1.00  0.00    -0.526 A  
ENDBRANCH  13  14
ENDBRANCH   5  13
ENDBRANCH   4   5
ENDBRANCH   2   4
TORSDOF 6
ENDMDL
MODEL      122
REMARK 921   NORMALIZED FREE ENERGY PREDICTED BY IDOCK:   -3.86 KCAL/MOL
REMARK 922        TOTAL FREE ENERGY PREDICTED BY IDOCK:   -6.06 KCAL/MOL
REMARK 923 INTER-LIGAND FREE ENERGY PREDICTED BY IDOCK:   -5.23 KCAL/MOL
REMARK 924 INTRA-LIGAND FREE ENERGY PREDICTED BY IDOCK:   -0.84 KCAL/MOL
REMARK 927      BINDING AFFINITY PREDICTED BY RF-SCORE:    0.00 PKD
ROOT
HETATM    1  C   UNL     1     -12.331   6.788  71.934  1.00  0.00    -0.326 C  
HETATM    2  N   UNL     1     -12.800   8.011  71.265  1.00  0.00    -0.251 NA 
HETATM    3  C   UNL     1     -13.961   8.547  71.979  1.00  0.00    -0.433 C  
ENDROOT
BRANCH   2   4
HETATM    4  C   UNL     1     -11.683   8.989  71.234  1.00  0.00    -0.313 C  
BRANCH   4   5
HETATM    5  C   UNL     1     -10.950   9.322  69.893  1.00  0.00    -0.213 C  
BRANCH   5   6
HETATM    6  O   UNL     1     -10.403  10.658  69.917  1.00  0.00    -0.181 OA 
BRANCH   6   7
HETATM    7  C   UNL     1     -10.930  11.516  68.981  1.00  0.00    -0.234 A  
HETATM    8  C   UNL     1     -11.417  12.798  69.253  1.00  0.00    -0.349 A  
HETATM    9  C   UNL     1     -11.015  11.033  67.673  1.00  0.00    -0.332 A  
HETATM   10  C   UNL     1     -11.905  13.614  68.230  1.00  0.00    -0.404 A  
HETATM   11  C   UNL     1     -11.939  13.144  66.923  1.00  0.00    -0.421 A  
HETATM   12  C   UNL     1     -11.510  11.848  66.646  1.00  0.00    -0.382 A  
ENDBRANCH   6   7
ENDBRANCH   5   6
BRANCH   5  13
HETATM   13  O   UNL     1      -9.873   8.365  69.819  1.00  0.00    -0.182 OA 
BRANCH  13  14
HETATM   14  C   UNL     1      -9.686   7.688  68.648  1.00  0.00    -0.155 A  
HETATM   15  C   UNL     1      -8.400   6.729  66.846  1.00  0.00    -0.114 A  
HETATM   16  C   UNL     1      -8.463   7.504  68.006  1.00  0.00    -0.123 A  
HETATM   17  C   UNL     1     -10.769   6.302  66.991  1.00  0.00    -0.435 A  
HETATM   18  C   UNL     1     -10.831   7.070  68.148  1.00  0.00    -0.214 A  
HETATM   19  C   UNL     1      -9.553   6.135  66.335  1.00  0.00    -0.162 A  
ENDBRANCH  13  14
ENDBRANCH   5  13
ENDBRANCH   4   5
ENDBRANCH   2   4
TORSDOF 6
ENDMDL
MODEL      123
REMARK 921   NORMALIZED FREE ENERGY PREDICTED BY IDOCK:   -3.86 KCAL/MOL
REMARK 922        TOTAL FREE ENERGY PREDICTED BY IDOCK:   -6.06 KCAL/MOL
REMARK 923 INTER-LIGAND FREE ENERGY PREDICTED BY IDOCK:   -5.26 KCAL/MOL
REMARK 924 INTRA-LIGAND FREE ENERGY PREDICTED BY IDOCK:   -0.80 KCAL/MOL
REMARK 927      BINDING AFFINITY PREDICTED BY RF-SCORE:    0.00 PKD
ROOT
HETATM    1  C   UNL     1      -6.283  11.868  69.743  1.00  0.00    -0.137 C  
HETATM    2  N   UNL     1      -6.933  12.413  68.542  1.00  0.00    -0.086 NA 
HETATM    3  C   UNL     1      -6.442  11.709  67.355  1.00  0.00    -0.103 C  
ENDROOT
BRANCH   2   4
HETATM    4  C   UNL     1      -8.402  12.264  68.692  1.00  0.00    -0.002 C  
BRANCH   4   5
HETATM    5  C   UNL     1      -9.385  13.033  67.748  1.00  0.00    -0.199 C  
BRANCH   5   6
HETATM    6  O   UNL     1     -10.501  12.198  67.368  1.00  0.00    -0.209 OA 
BRANCH   6   7
HETATM    7  C   UNL     1     -10.984  12.422  66.100  1.00  0.00    -0.286 A  
HETATM    8  C   UNL     1     -11.889  13.429  65.753  1.00  0.00    -0.412 A  
HETATM    9  C   UNL     1     -10.557  11.536  65.107  1.00  0.00    -0.350 A  
HETATM   10  C   UNL     1     -12.299  13.603  64.429  1.00  0.00    -0.387 A  
HETATM   11  C   UNL     1     -11.831  12.748  63.439  1.00  0.00    -0.591 A  
HETATM   12  C   UNL     1     -10.973  11.705  63.780  1.00  0.00    -0.495 A  
ENDBRANCH   6   7
ENDBRANCH   5   6
BRANCH   5  13
HETATM   13  O   UNL     1      -9.863  14.138  68.542  1.00  0.00    -0.226 OA 
BRANCH  13  14
HETATM   14  C   UNL     1      -9.768  15.397  68.024  1.00  0.00    -0.207 A  
HETATM   15  C   UNL     1      -9.192  17.054  66.366  1.00  0.00    -0.298 A  
HETATM   16  C   UNL     1      -9.159  15.732  66.816  1.00  0.00    -0.276 A  
HETATM   17  C   UNL     1     -10.464  17.693  68.312  1.00  0.00    -0.376 A  
HETATM   18  C   UNL     1     -10.435  16.377  68.758  1.00  0.00    -0.300 A  
HETATM   19  C   UNL     1      -9.837  18.035  67.118  1.00  0.00    -0.316 A  
ENDBRANCH  13  14
ENDBRANCH   5  13
ENDBRANCH   4   5
ENDBRANCH   2   4
TORSDOF 6
ENDMDL
MODEL      124
REMARK 921   NORMALIZED FREE ENERGY PREDICTED BY IDOCK:   -3.84 KCAL/MOL
REMARK 922        TOTAL FREE ENERGY PREDICTED BY IDOCK:   -6.04 KCAL/MOL
REMARK 923 INTER-LIGAND FREE ENERGY PREDICTED BY IDOCK:   -5.49 KCAL/MOL
REMARK 924 INTRA-LIGAND FREE ENERGY PREDICTED BY IDOCK:   -0.54 KCAL/MOL
REMARK 927      BINDING AFFINITY PREDICTED BY RF-SCORE:    0.00 PKD
ROOT
HETATM    1  C   UNL     1      -6.640   7.272  69.325  1.00  0.00    -0.041 C  
HETATM    2  N   UNL     1      -7.571   7.994  68.445  1.00  0.00    -0.106 NA 
HETATM    3  C   UNL     1      -7.538   7.403  67.104  1.00  0.00    -0.107 C  
ENDROOT
BRANCH   2   4
HETATM    4  C   UNL     1      -8.930   7.922  69.036  1.00  0.00    -0.145 C  
BRANCH   4   5
HETATM    5  C   UNL     1      -9.695   9.225  69.442  1.00  0.00    -0.172 C  
BRANCH   5   6
HETATM    6  O   UNL     1     -10.900   9.386  68.661  1.00  0.00    -0.195 OA 
BRANCH   6   7
HETATM    7  C   UNL     1     -10.883  10.443  67.782  1.00  0.00    -0.297 A  
HETATM    8  C   UNL     1     -10.337  10.407  66.496  1.00  0.00    -0.287 A  
HETATM    9  C   UNL     1     -11.419  11.647  68.247  1.00  0.00    -0.369 A  
HETATM   10  C   UNL     1     -10.396  11.523  65.658  1.00  0.00    -0.308 A  
HETATM   11  C   UNL     1     -10.975  12.702  66.111  1.00  0.00    -0.313 A  
HETATM   12  C   UNL     1     -11.472  12.769  67.411  1.00  0.00    -0.396 A  
ENDBRANCH   6   7
ENDBRANCH   5   6
BRANCH   5  13
HETATM   13  O   UNL     1     -10.046   9.026  70.827  1.00  0.00    -0.203 OA 
BRANCH  13  14
HETATM   14  C   UNL     1     -11.357   8.812  71.139  1.00  0.00    -0.285 A  
HETATM   15  C   UNL     1     -13.322   7.482  71.581  1.00  0.00    -0.414 A  
HETATM   16  C   UNL     1     -11.989   7.569  71.177  1.00  0.00    -0.334 A  
HETATM   17  C   UNL     1     -13.381   9.867  71.936  1.00  0.00    -0.524 A  
HETATM   18  C   UNL     1     -12.051   9.953  71.537  1.00  0.00    -0.496 A  
HETATM   19  C   UNL     1     -14.019   8.630  71.952  1.00  0.00    -0.501 A  
ENDBRANCH  13  14
ENDBRANCH   5  13
ENDBRANCH   4   5
ENDBRANCH   2   4
TORSDOF 6
ENDMDL
MODEL      125
REMARK 921   NORMALIZED FREE ENERGY PREDICTED BY IDOCK:   -3.84 KCAL/MOL
REMARK 922        TOTAL FREE ENERGY PREDICTED BY IDOCK:   -6.04 KCAL/MOL
REMARK 923 INTER-LIGAND FREE ENERGY PREDICTED BY IDOCK:   -5.89 KCAL/MOL
REMARK 924 INTRA-LIGAND FREE ENERGY PREDICTED BY IDOCK:   -0.14 KCAL/MOL
REMARK 927      BINDING AFFINITY PREDICTED BY RF-SCORE:    0.00 PKD
ROOT
HETATM    1  C   UNL     1      -8.758   7.300  66.587  1.00  0.00    -0.132 C  
HETATM    2  N   UNL     1      -9.999   7.953  67.031  1.00  0.00    -0.225 NA 
HETATM    3  C   UNL     1     -10.903   6.953  67.605  1.00  0.00    -0.263 C  
ENDROOT
BRANCH   2   4
HETATM    4  C   UNL     1      -9.651   9.003  68.020  1.00  0.00    -0.148 C  
BRANCH   4   5
HETATM    5  C   UNL     1     -10.657   9.400  69.151  1.00  0.00    -0.218 C  
BRANCH   5   6
HETATM    6  O   UNL     1      -9.959   9.865  70.327  1.00  0.00    -0.254 OA 
BRANCH   6   7
HETATM    7  C   UNL     1      -9.977   8.993  71.391  1.00  0.00    -0.318 A  
HETATM    8  C   UNL     1      -8.848   8.567  72.096  1.00  0.00    -0.286 A  
HETATM    9  C   UNL     1     -11.223   8.474  71.749  1.00  0.00    -0.379 A  
HETATM   10  C   UNL     1      -8.965   7.704  73.188  1.00  0.00    -0.244 A  
HETATM   11  C   UNL     1     -10.215   7.231  73.569  1.00  0.00    -0.404 A  
HETATM   12  C   UNL     1     -11.343   7.603  72.839  1.00  0.00    -0.394 A  
ENDBRANCH   6   7
ENDBRANCH   5   6
BRANCH   5  13
HETATM   13  O   UNL     1     -11.424  10.486  68.590  1.00  0.00    -0.266 OA 
BRANCH  13  14
HETATM   14  C   UNL     1     -11.875  11.463  69.431  1.00  0.00    -0.351 A  
HETATM   15  C   UNL     1     -12.883  12.340  71.440  1.00  0.00    -0.373 A  
HETATM   16  C   UNL     1     -12.534  11.250  70.640  1.00  0.00    -0.439 A  
HETATM   17  C   UNL     1     -11.888  13.844  69.840  1.00  0.00    -0.394 A  
HETATM   18  C   UNL     1     -11.538  12.759  69.045  1.00  0.00    -0.366 A  
HETATM   19  C   UNL     1     -12.567  13.636  71.037  1.00  0.00    -0.441 A  
ENDBRANCH  13  14
ENDBRANCH   5  13
ENDBRANCH   4   5
ENDBRANCH   2   4
TORSDOF 6
ENDMDL
MODEL      126
REMARK 921   NORMALIZED FREE ENERGY PREDICTED BY IDOCK:   -3.83 KCAL/MOL
REMARK 922        TOTAL FREE ENERGY PREDICTED BY IDOCK:   -6.03 KCAL/MOL
REMARK 923 INTER-LIGAND FREE ENERGY PREDICTED BY IDOCK:   -5.25 KCAL/MOL
REMARK 924 INTRA-LIGAND FREE ENERGY PREDICTED BY IDOCK:   -0.78 KCAL/MOL
REMARK 927      BINDING AFFINITY PREDICTED BY RF-SCORE:    0.00 PKD
ROOT
HETATM    1  C   UNL     1     -12.290  14.035  70.498  1.00  0.00    -0.367 C  
HETATM    2  N   UNL     1     -12.451  12.793  71.270  1.00  0.00    -0.267 NA 
HETATM    3  C   UNL     1     -13.516  12.965  72.261  1.00  0.00    -0.531 C  
ENDROOT
BRANCH   2   4
HETATM    4  C   UNL     1     -12.760  11.689  70.327  1.00  0.00     0.032 C  
BRANCH   4   5
HETATM    5  C   UNL     1     -11.805  10.456  70.201  1.00  0.00    -0.297 C  
BRANCH   5   6
HETATM    6  O   UNL     1     -10.453  10.873  69.906  1.00  0.00    -0.116 OA 
BRANCH   6   7
HETATM    7  C   UNL     1     -10.220  11.187  68.588  1.00  0.00    -0.205 A  
HETATM    8  C   UNL     1      -9.883  12.458  68.115  1.00  0.00    -0.213 A  
HETATM    9  C   UNL     1     -10.378  10.151  67.664  1.00  0.00    -0.265 A  
HETATM   10  C   UNL     1      -9.629  12.678  66.759  1.00  0.00    -0.241 A  
HETATM   11  C   UNL     1      -9.741  11.630  65.853  1.00  0.00    -0.260 A  
HETATM   12  C   UNL     1     -10.131  10.370  66.303  1.00  0.00    -0.292 A  
ENDBRANCH   6   7
ENDBRANCH   5   6
BRANCH   5  13
HETATM   13  O   UNL     1     -11.841   9.833  71.501  1.00  0.00    -0.379 OA 
BRANCH  13  14
HETATM   14  C   UNL     1     -11.647   8.484  71.579  1.00  0.00    -0.292 A  
HETATM   15  C   UNL     1     -11.579   6.221  70.741  1.00  0.00    -0.347 A  
HETATM   16  C   UNL     1     -11.886   7.571  70.553  1.00  0.00    -0.144 A  
HETATM   17  C   UNL     1     -10.770   6.706  72.961  1.00  0.00    -0.299 A  
HETATM   18  C   UNL     1     -11.072   8.050  72.772  1.00  0.00    -0.448 A  
HETATM   19  C   UNL     1     -11.029   5.789  71.947  1.00  0.00    -0.318 A  
ENDBRANCH  13  14
ENDBRANCH   5  13
ENDBRANCH   4   5
ENDBRANCH   2   4
TORSDOF 6
ENDMDL
MODEL      127
REMARK 921   NORMALIZED FREE ENERGY PREDICTED BY IDOCK:   -3.83 KCAL/MOL
REMARK 922        TOTAL FREE ENERGY PREDICTED BY IDOCK:   -6.02 KCAL/MOL
REMARK 923 INTER-LIGAND FREE ENERGY PREDICTED BY IDOCK:   -5.59 KCAL/MOL
REMARK 924 INTRA-LIGAND FREE ENERGY PREDICTED BY IDOCK:   -0.43 KCAL/MOL
REMARK 927      BINDING AFFINITY PREDICTED BY RF-SCORE:    0.00 PKD
ROOT
HETATM    1  C   UNL     1     -13.659  14.997  70.988  1.00  0.00    -0.381 C  
HETATM    2  N   UNL     1     -12.407  15.165  70.234  1.00  0.00    -0.341 NA 
HETATM    3  C   UNL     1     -11.285  15.291  71.168  1.00  0.00    -0.330 C  
ENDROOT
BRANCH   2   4
HETATM    4  C   UNL     1     -12.238  13.995  69.337  1.00  0.00    -0.292 C  
BRANCH   4   5
HETATM    5  C   UNL     1     -11.397  14.111  68.023  1.00  0.00    -0.299 C  
BRANCH   5   6
HETATM    6  O   UNL     1     -12.205  14.601  66.930  1.00  0.00    -0.311 OA 
BRANCH   6   7
HETATM    7  C   UNL     1     -12.126  13.858  65.775  1.00  0.00    -0.425 A  
HETATM    8  C   UNL     1     -12.303  14.363  64.484  1.00  0.00    -0.440 A  
HETATM    9  C   UNL     1     -11.894  12.489  65.931  1.00  0.00    -0.489 A  
HETATM   10  C   UNL     1     -12.171  13.538  63.364  1.00  0.00    -0.338 A  
HETATM   11  C   UNL     1     -11.890  12.187  63.527  1.00  0.00    -0.597 A  
HETATM   12  C   UNL     1     -11.768  11.659  64.810  1.00  0.00    -0.121 A  
ENDBRANCH   6   7
ENDBRANCH   5   6
BRANCH   5  13
HETATM   13  O   UNL     1     -10.372  15.078  68.331  1.00  0.00    -0.223 OA 
BRANCH  13  14
HETATM   14  C   UNL     1      -9.093  14.633  68.510  1.00  0.00    -0.188 A  
HETATM   15  C   UNL     1      -6.852  14.689  69.402  1.00  0.00    -0.159 A  
HETATM   16  C   UNL     1      -8.102  15.289  69.238  1.00  0.00    -0.236 A  
HETATM   17  C   UNL     1      -7.594  12.774  68.139  1.00  0.00    -0.134 A  
HETATM   18  C   UNL     1      -8.841  13.369  67.979  1.00  0.00    -0.183 A  
HETATM   19  C   UNL     1      -6.596  13.437  68.846  1.00  0.00    -0.107 A  
ENDBRANCH  13  14
ENDBRANCH   5  13
ENDBRANCH   4   5
ENDBRANCH   2   4
TORSDOF 6
ENDMDL
MODEL      128
REMARK 921   NORMALIZED FREE ENERGY PREDICTED BY IDOCK:   -3.82 KCAL/MOL
REMARK 922        TOTAL FREE ENERGY PREDICTED BY IDOCK:   -6.02 KCAL/MOL
REMARK 923 INTER-LIGAND FREE ENERGY PREDICTED BY IDOCK:   -5.25 KCAL/MOL
REMARK 924 INTRA-LIGAND FREE ENERGY PREDICTED BY IDOCK:   -0.77 KCAL/MOL
REMARK 927      BINDING AFFINITY PREDICTED BY RF-SCORE:    0.00 PKD
ROOT
HETATM    1  C   UNL     1      -7.539  11.541  68.173  1.00  0.00    -0.113 C  
HETATM    2  N   UNL     1      -7.070  10.562  67.181  1.00  0.00    -0.088 NA 
HETATM    3  C   UNL     1      -6.710   9.313  67.855  1.00  0.00    -0.071 C  
ENDROOT
BRANCH   2   4
HETATM    4  C   UNL     1      -8.147  10.350  66.183  1.00  0.00    -0.139 C  
BRANCH   4   5
HETATM    5  C   UNL     1      -9.592  10.893  66.438  1.00  0.00    -0.197 C  
BRANCH   5   6
HETATM    6  O   UNL     1     -10.263  11.191  65.193  1.00  0.00    -0.259 OA 
BRANCH   6   7
HETATM    7  C   UNL     1     -10.600  12.513  65.021  1.00  0.00    -0.300 A  
HETATM    8  C   UNL     1     -11.634  12.976  64.201  1.00  0.00    -0.462 A  
HETATM    9  C   UNL     1      -9.810  13.449  65.691  1.00  0.00    -0.180 A  
HETATM   10  C   UNL     1     -11.927  14.338  64.113  1.00  0.00    -0.401 A  
HETATM   11  C   UNL     1     -11.167  15.260  64.823  1.00  0.00    -0.405 A  
HETATM   12  C   UNL     1     -10.098  14.817  65.599  1.00  0.00    -0.393 A  
ENDBRANCH   6   7
ENDBRANCH   5   6
BRANCH   5  13
HETATM   13  O   UNL     1     -10.276   9.812  67.103  1.00  0.00    -0.200 OA 
BRANCH  13  14
HETATM   14  C   UNL     1     -10.805  10.042  68.340  1.00  0.00    -0.235 A  
HETATM   15  C   UNL     1     -12.285  11.081  69.938  1.00  0.00    -0.408 A  
HETATM   16  C   UNL     1     -11.778  10.994  68.640  1.00  0.00    -0.367 A  
HETATM   17  C   UNL     1     -10.870   9.252  70.623  1.00  0.00    -0.339 A  
HETATM   18  C   UNL     1     -10.369   9.163  69.329  1.00  0.00    -0.223 A  
HETATM   19  C   UNL     1     -11.826  10.216  70.930  1.00  0.00    -0.468 A  
ENDBRANCH  13  14
ENDBRANCH   5  13
ENDBRANCH   4   5
ENDBRANCH   2   4
TORSDOF 6
ENDMDL
MODEL      129
REMARK 921   NORMALIZED FREE ENERGY PREDICTED BY IDOCK:   -3.81 KCAL/MOL
REMARK 922        TOTAL FREE ENERGY PREDICTED BY IDOCK:   -6.01 KCAL/MOL
REMARK 923 INTER-LIGAND FREE ENERGY PREDICTED BY IDOCK:   -5.91 KCAL/MOL
REMARK 924 INTRA-LIGAND FREE ENERGY PREDICTED BY IDOCK:   -0.09 KCAL/MOL
REMARK 927      BINDING AFFINITY PREDICTED BY RF-SCORE:    0.00 PKD
ROOT
HETATM    1  C   UNL     1     -12.292  13.810  70.719  1.00  0.00    -0.379 C  
HETATM    2  N   UNL     1     -12.107  13.554  69.282  1.00  0.00    -0.316 NA 
HETATM    3  C   UNL     1     -10.966  14.328  68.788  1.00  0.00    -0.255 C  
ENDROOT
BRANCH   2   4
HETATM    4  C   UNL     1     -11.901  12.097  69.086  1.00  0.00    -0.305 C  
BRANCH   4   5
HETATM    5  C   UNL     1     -10.594  11.558  68.416  1.00  0.00    -0.201 C  
BRANCH   5   6
HETATM    6  O   UNL     1      -9.808  10.789  69.354  1.00  0.00    -0.186 OA 
BRANCH   6   7
HETATM    7  C   UNL     1     -10.429   9.663  69.841  1.00  0.00    -0.253 A  
HETATM    8  C   UNL     1     -11.260   9.629  70.965  1.00  0.00    -0.445 A  
HETATM    9  C   UNL     1     -10.159   8.466  69.173  1.00  0.00    -0.206 A  
HETATM   10  C   UNL     1     -11.876   8.442  71.368  1.00  0.00    -0.339 A  
HETATM   11  C   UNL     1     -11.642   7.265  70.667  1.00  0.00    -0.322 A  
HETATM   12  C   UNL     1     -10.771   7.273  69.580  1.00  0.00    -0.244 A  
ENDBRANCH   6   7
ENDBRANCH   5   6
BRANCH   5  13
HETATM   13  O   UNL     1     -11.058  10.693  67.359  1.00  0.00    -0.302 OA 
BRANCH  13  14
HETATM   14  C   UNL     1     -10.921  11.116  66.068  1.00  0.00    -0.123 A  
HETATM   15  C   UNL     1     -11.136  12.664  64.229  1.00  0.00    -0.405 A  
HETATM   16  C   UNL     1     -11.404  12.319  65.555  1.00  0.00    -0.394 A  
HETATM   17  C   UNL     1      -9.881  10.624  63.943  1.00  0.00    -0.398 A  
HETATM   18  C   UNL     1     -10.145  10.283  65.265  1.00  0.00    -0.359 A  
HETATM   19  C   UNL     1     -10.382  11.814  63.422  1.00  0.00    -0.481 A  
ENDBRANCH  13  14
ENDBRANCH   5  13
ENDBRANCH   4   5
ENDBRANCH   2   4
TORSDOF 6
ENDMDL
MODEL      130
REMARK 921   NORMALIZED FREE ENERGY PREDICTED BY IDOCK:   -3.80 KCAL/MOL
REMARK 922        TOTAL FREE ENERGY PREDICTED BY IDOCK:   -5.98 KCAL/MOL
REMARK 923 INTER-LIGAND FREE ENERGY PREDICTED BY IDOCK:   -5.08 KCAL/MOL
REMARK 924 INTRA-LIGAND FREE ENERGY PREDICTED BY IDOCK:   -0.90 KCAL/MOL
REMARK 927      BINDING AFFINITY PREDICTED BY RF-SCORE:    0.00 PKD
ROOT
HETATM    1  C   UNL     1     -10.978  12.318  64.204  1.00  0.00    -0.363 C  
HETATM    2  N   UNL     1     -11.338  13.490  65.017  1.00  0.00    -0.312 NA 
HETATM    3  C   UNL     1     -12.304  14.316  64.288  1.00  0.00    -0.377 C  
ENDROOT
BRANCH   2   4
HETATM    4  C   UNL     1     -11.896  13.015  66.307  1.00  0.00    -0.408 C  
BRANCH   4   5
HETATM    5  C   UNL     1     -10.950  12.587  67.478  1.00  0.00    -0.251 C  
BRANCH   5   6
HETATM    6  O   UNL     1      -9.769  13.417  67.522  1.00  0.00    -0.215 OA 
BRANCH   6   7
HETATM    7  C   UNL     1      -8.596  12.741  67.766  1.00  0.00    -0.184 A  
HETATM    8  C   UNL     1      -7.608  13.151  68.665  1.00  0.00    -0.089 A  
HETATM    9  C   UNL     1      -8.379  11.583  67.017  1.00  0.00    -0.165 A  
HETATM   10  C   UNL     1      -6.461  12.380  68.874  1.00  0.00    -0.090 A  
HETATM   11  C   UNL     1      -6.277  11.203  68.160  1.00  0.00    -0.049 A  
HETATM   12  C   UNL     1      -7.227  10.812  67.219  1.00  0.00    -0.096 A  
ENDBRANCH   6   7
ENDBRANCH   5   6
BRANCH   5  13
HETATM   13  O   UNL     1     -11.730  12.801  68.672  1.00  0.00    -0.288 OA 
BRANCH  13  14
HETATM   14  C   UNL     1     -11.823  11.783  69.577  1.00  0.00    -0.337 A  
HETATM   15  C   UNL     1     -12.624  10.678  71.567  1.00  0.00    -0.517 A  
HETATM   16  C   UNL     1     -12.557  11.816  70.762  1.00  0.00    -0.344 A  
HETATM   17  C   UNL     1     -11.253   9.471  69.993  1.00  0.00    -0.243 A  
HETATM   18  C   UNL     1     -11.190  10.604  69.188  1.00  0.00    -0.324 A  
HETATM   19  C   UNL     1     -11.967   9.509  71.187  1.00  0.00    -0.429 A  
ENDBRANCH  13  14
ENDBRANCH   5  13
ENDBRANCH   4   5
ENDBRANCH   2   4
TORSDOF 6
ENDMDL
MODEL      131
REMARK 921   NORMALIZED FREE ENERGY PREDICTED BY IDOCK:   -3.80 KCAL/MOL
REMARK 922        TOTAL FREE ENERGY PREDICTED BY IDOCK:   -5.98 KCAL/MOL
REMARK 923 INTER-LIGAND FREE ENERGY PREDICTED BY IDOCK:   -5.32 KCAL/MOL
REMARK 924 INTRA-LIGAND FREE ENERGY PREDICTED BY IDOCK:   -0.66 KCAL/MOL
REMARK 927      BINDING AFFINITY PREDICTED BY RF-SCORE:    0.00 PKD
ROOT
HETATM    1  C   UNL     1      -6.878  11.416  68.614  1.00  0.00    -0.078 C  
HETATM    2  N   UNL     1      -7.644  10.172  68.787  1.00  0.00    -0.085 NA 
HETATM    3  C   UNL     1      -7.672   9.805  70.205  1.00  0.00    -0.177 C  
ENDROOT
BRANCH   2   4
HETATM    4  C   UNL     1      -9.013  10.383  68.253  1.00  0.00    -0.135 C  
BRANCH   4   5
HETATM    5  C   UNL     1     -10.267   9.923  69.066  1.00  0.00    -0.200 C  
BRANCH   5   6
HETATM    6  O   UNL     1     -11.416  10.744  68.760  1.00  0.00    -0.269 OA 
BRANCH   6   7
HETATM    7  C   UNL     1     -12.030  11.309  69.854  1.00  0.00    -0.365 A  
HETATM    8  C   UNL     1     -12.764  10.604  70.812  1.00  0.00    -0.468 A  
HETATM    9  C   UNL     1     -11.937  12.697  69.972  1.00  0.00    -0.377 A  
HETATM   10  C   UNL     1     -13.326  11.258  71.911  1.00  0.00    -0.413 A  
HETATM   11  C   UNL     1     -13.185  12.634  72.047  1.00  0.00    -0.531 A  
HETATM   12  C   UNL     1     -12.505  13.356  71.069  1.00  0.00    -0.437 A  
ENDBRANCH   6   7
ENDBRANCH   5   6
BRANCH   5  13
HETATM   13  O   UNL     1     -10.513   8.573  68.622  1.00  0.00    -0.208 OA 
BRANCH  13  14
HETATM   14  C   UNL     1     -10.584   7.584  69.561  1.00  0.00    -0.236 A  
HETATM   15  C   UNL     1     -11.522   6.409  71.449  1.00  0.00    -0.363 A  
HETATM   16  C   UNL     1     -11.516   7.514  70.595  1.00  0.00    -0.291 A  
HETATM   17  C   UNL     1      -9.689   5.438  70.219  1.00  0.00    -0.254 A  
HETATM   18  C   UNL     1      -9.686   6.536  69.366  1.00  0.00    -0.155 A  
HETATM   19  C   UNL     1     -10.605   5.376  71.266  1.00  0.00    -0.276 A  
ENDBRANCH  13  14
ENDBRANCH   5  13
ENDBRANCH   4   5
ENDBRANCH   2   4
TORSDOF 6
ENDMDL
MODEL      132
REMARK 921   NORMALIZED FREE ENERGY PREDICTED BY IDOCK:   -3.77 KCAL/MOL
REMARK 922        TOTAL FREE ENERGY PREDICTED BY IDOCK:   -5.94 KCAL/MOL
REMARK 923 INTER-LIGAND FREE ENERGY PREDICTED BY IDOCK:   -5.20 KCAL/MOL
REMARK 924 INTRA-LIGAND FREE ENERGY PREDICTED BY IDOCK:   -0.74 KCAL/MOL
REMARK 927      BINDING AFFINITY PREDICTED BY RF-SCORE:    0.00 PKD
ROOT
HETATM    1  C   UNL     1     -12.267  13.182  70.385  1.00  0.00    -0.316 C  
HETATM    2  N   UNL     1     -12.078  11.778  70.779  1.00  0.00    -0.327 NA 
HETATM    3  C   UNL     1     -13.205  11.344  71.609  1.00  0.00    -0.309 C  
ENDROOT
BRANCH   2   4
HETATM    4  C   UNL     1     -11.960  10.955  69.550  1.00  0.00    -0.330 C  
BRANCH   4   5
HETATM    5  C   UNL     1     -11.075  11.431  68.351  1.00  0.00    -0.242 C  
BRANCH   5   6
HETATM    6  O   UNL     1     -10.096  10.430  67.997  1.00  0.00    -0.155 OA 
BRANCH   6   7
HETATM    7  C   UNL     1      -8.838  10.645  68.508  1.00  0.00    -0.148 A  
HETATM    8  C   UNL     1      -8.325  10.037  69.657  1.00  0.00    -0.188 A  
HETATM    9  C   UNL     1      -8.045  11.579  67.836  1.00  0.00    -0.132 A  
HETATM   10  C   UNL     1      -7.019  10.291  70.084  1.00  0.00    -0.159 A  
HETATM   11  C   UNL     1      -6.220  11.184  69.381  1.00  0.00    -0.079 A  
HETATM   12  C   UNL     1      -6.738  11.841  68.266  1.00  0.00    -0.065 A  
ENDBRANCH   6   7
ENDBRANCH   5   6
BRANCH   5  13
HETATM   13  O   UNL     1     -12.002  11.601  67.259  1.00  0.00    -0.627 OA 
BRANCH  13  14
HETATM   14  C   UNL     1     -11.679  12.478  66.264  1.00  0.00    -0.404 A  
HETATM   15  C   UNL     1     -10.853  13.131  64.093  1.00  0.00    -0.407 A  
HETATM   16  C   UNL     1     -11.067  12.144  65.057  1.00  0.00    -0.368 A  
HETATM   17  C   UNL     1     -11.887  14.771  65.528  1.00  0.00    -0.231 A  
HETATM   18  C   UNL     1     -12.103  13.787  66.486  1.00  0.00    -0.483 A  
HETATM   19  C   UNL     1     -11.256  14.444  64.331  1.00  0.00    -0.235 A  
ENDBRANCH  13  14
ENDBRANCH   5  13
ENDBRANCH   4   5
ENDBRANCH   2   4
TORSDOF 6
ENDMDL
MODEL      133
REMARK 921   NORMALIZED FREE ENERGY PREDICTED BY IDOCK:   -3.77 KCAL/MOL
REMARK 922        TOTAL FREE ENERGY PREDICTED BY IDOCK:   -5.94 KCAL/MOL
REMARK 923 INTER-LIGAND FREE ENERGY PREDICTED BY IDOCK:   -5.27 KCAL/MOL
REMARK 924 INTRA-LIGAND FREE ENERGY PREDICTED BY IDOCK:   -0.68 KCAL/MOL
REMARK 927      BINDING AFFINITY PREDICTED BY RF-SCORE:    0.00 PKD
ROOT
HETATM    1  C   UNL     1     -11.875  11.318  68.545  1.00  0.00    -0.285 C  
HETATM    2  N   UNL     1     -10.683  11.150  69.390  1.00  0.00    -0.209 NA 
HETATM    3  C   UNL     1     -10.929  10.104  70.385  1.00  0.00    -0.319 C  
ENDROOT
BRANCH   2   4
HETATM    4  C   UNL     1      -9.532  10.810  68.518  1.00  0.00    -0.181 C  
BRANCH   4   5
HETATM    5  C   UNL     1      -9.716  10.665  66.971  1.00  0.00    -0.176 C  
BRANCH   5   6
HETATM    6  O   UNL     1      -9.261  11.850  66.280  1.00  0.00    -0.219 OA 
BRANCH   6   7
HETATM    7  C   UNL     1     -10.206  12.454  65.485  1.00  0.00    -0.274 A  
HETATM    8  C   UNL     1     -10.582  13.797  65.567  1.00  0.00    -0.312 A  
HETATM    9  C   UNL     1     -10.858  11.633  64.561  1.00  0.00    -0.383 A  
HETATM   10  C   UNL     1     -11.530  14.334  64.692  1.00  0.00    -0.389 A  
HETATM   11  C   UNL     1     -12.137  13.521  63.742  1.00  0.00    -0.482 A  
HETATM   12  C   UNL     1     -11.813  12.167  63.687  1.00  0.00    -0.608 A  
ENDBRANCH   6   7
ENDBRANCH   5   6
BRANCH   5  13
HETATM   13  O   UNL     1      -8.878   9.549  66.607  1.00  0.00    -0.132 OA 
BRANCH  13  14
HETATM   14  C   UNL     1      -9.384   8.288  66.742  1.00  0.00    -0.182 A  
HETATM   15  C   UNL     1     -11.124   6.632  66.975  1.00  0.00    -0.395 A  
HETATM   16  C   UNL     1     -10.730   7.970  66.920  1.00  0.00    -0.201 A  
HETATM   17  C   UNL     1      -8.839   5.935  66.645  1.00  0.00    -0.123 A  
HETATM   18  C   UNL     1      -8.447   7.268  66.586  1.00  0.00    -0.124 A  
HETATM   19  C   UNL     1     -10.178   5.616  66.845  1.00  0.00    -0.272 A  
ENDBRANCH  13  14
ENDBRANCH   5  13
ENDBRANCH   4   5
ENDBRANCH   2   4
TORSDOF 6
ENDMDL
MODEL      134
REMARK 921   NORMALIZED FREE ENERGY PREDICTED BY IDOCK:   -3.76 KCAL/MOL
REMARK 922        TOTAL FREE ENERGY PREDICTED BY IDOCK:   -5.93 KCAL/MOL
REMARK 923 INTER-LIGAND FREE ENERGY PREDICTED BY IDOCK:   -5.13 KCAL/MOL
REMARK 924 INTRA-LIGAND FREE ENERGY PREDICTED BY IDOCK:   -0.80 KCAL/MOL
REMARK 927      BINDING AFFINITY PREDICTED BY RF-SCORE:    0.00 PKD
ROOT
HETATM    1  C   UNL     1      -9.999  11.939  63.298  1.00  0.00    -0.380 C  
HETATM    2  N   UNL     1     -11.104  12.081  64.258  1.00  0.00    -0.328 NA 
HETATM    3  C   UNL     1     -12.381  11.855  63.575  1.00  0.00    -0.490 C  
ENDROOT
BRANCH   2   4
HETATM    4  C   UNL     1     -10.899  11.108  65.360  1.00  0.00    -0.142 C  
BRANCH   4   5
HETATM    5  C   UNL     1     -10.841  11.587  66.848  1.00  0.00    -0.284 C  
BRANCH   5   6
HETATM    6  O   UNL     1     -12.098  12.172  67.256  1.00  0.00    -0.565 OA 
BRANCH   6   7
HETATM    7  C   UNL     1     -11.994  13.151  68.216  1.00  0.00    -0.291 A  
HETATM    8  C   UNL     1     -11.931  12.920  69.593  1.00  0.00    -0.358 A  
HETATM    9  C   UNL     1     -11.998  14.472  67.759  1.00  0.00    -0.345 A  
HETATM   10  C   UNL     1     -11.792  13.978  70.494  1.00  0.00    -0.339 A  
HETATM   11  C   UNL     1     -11.746  15.286  70.027  1.00  0.00    -0.344 A  
HETATM   12  C   UNL     1     -11.865  15.535  68.662  1.00  0.00    -0.318 A  
ENDBRANCH   6   7
ENDBRANCH   5   6
BRANCH   5  13
HETATM   13  O   UNL     1     -10.605  10.384  67.608  1.00  0.00    -0.218 OA 
BRANCH  13  14
HETATM   14  C   UNL     1      -9.428  10.269  68.291  1.00  0.00    -0.142 A  
HETATM   15  C   UNL     1      -7.700   9.109  69.512  1.00  0.00    -0.080 A  
HETATM   16  C   UNL     1      -8.956   9.109  68.902  1.00  0.00    -0.139 A  
HETATM   17  C   UNL     1      -7.381  11.413  68.875  1.00  0.00    -0.114 A  
HETATM   18  C   UNL     1      -8.630  11.411  68.264  1.00  0.00    -0.156 A  
HETATM   19  C   UNL     1      -6.917  10.262  69.505  1.00  0.00    -0.096 A  
ENDBRANCH  13  14
ENDBRANCH   5  13
ENDBRANCH   4   5
ENDBRANCH   2   4
TORSDOF 6
ENDMDL
MODEL      135
REMARK 921   NORMALIZED FREE ENERGY PREDICTED BY IDOCK:   -3.75 KCAL/MOL
REMARK 922        TOTAL FREE ENERGY PREDICTED BY IDOCK:   -5.92 KCAL/MOL
REMARK 923 INTER-LIGAND FREE ENERGY PREDICTED BY IDOCK:   -5.19 KCAL/MOL
REMARK 924 INTRA-LIGAND FREE ENERGY PREDICTED BY IDOCK:   -0.73 KCAL/MOL
REMARK 927      BINDING AFFINITY PREDICTED BY RF-SCORE:    0.00 PKD
ROOT
HETATM    1  C   UNL     1      -7.759  12.780  67.764  1.00  0.00    -0.152 C  
HETATM    2  N   UNL     1      -9.189  12.437  67.721  1.00  0.00    -0.185 NA 
HETATM    3  C   UNL     1      -9.836  13.162  66.624  1.00  0.00    -0.261 C  
ENDROOT
BRANCH   2   4
HETATM    4  C   UNL     1      -9.317  10.968  67.551  1.00  0.00    -0.159 C  
BRANCH   4   5
HETATM    5  C   UNL     1     -10.009  10.094  68.649  1.00  0.00    -0.170 C  
BRANCH   5   6
HETATM    6  O   UNL     1     -10.796  10.909  69.544  1.00  0.00    -0.239 OA 
BRANCH   6   7
HETATM    7  C   UNL     1     -11.451  10.214  70.534  1.00  0.00    -0.337 A  
HETATM    8  C   UNL     1     -12.794  10.386  70.879  1.00  0.00    -0.482 A  
HETATM    9  C   UNL     1     -10.685   9.302  71.264  1.00  0.00    -0.422 A  
HETATM   10  C   UNL     1     -13.385   9.609  71.878  1.00  0.00    -0.526 A  
HETATM   11  C   UNL     1     -12.627   8.668  72.566  1.00  0.00    -0.367 A  
HETATM   12  C   UNL     1     -11.273   8.526  72.271  1.00  0.00    -0.432 A  
ENDBRANCH   6   7
ENDBRANCH   5   6
BRANCH   5  13
HETATM   13  O   UNL     1     -10.881   9.211  67.914  1.00  0.00    -0.196 OA 
BRANCH  13  14
HETATM   14  C   UNL     1     -10.428   7.960  67.607  1.00  0.00    -0.234 A  
HETATM   15  C   UNL     1      -9.158   6.326  66.366  1.00  0.00    -0.164 A  
HETATM   16  C   UNL     1      -9.607   7.638  66.527  1.00  0.00    -0.254 A  
HETATM   17  C   UNL     1     -10.324   5.670  68.372  1.00  0.00    -0.258 A  
HETATM   18  C   UNL     1     -10.768   6.977  68.535  1.00  0.00    -0.219 A  
HETATM   19  C   UNL     1      -9.522   5.341  67.283  1.00  0.00    -0.134 A  
ENDBRANCH  13  14
ENDBRANCH   5  13
ENDBRANCH   4   5
ENDBRANCH   2   4
TORSDOF 6
ENDMDL
MODEL      136
REMARK 921   NORMALIZED FREE ENERGY PREDICTED BY IDOCK:   -3.72 KCAL/MOL
REMARK 922        TOTAL FREE ENERGY PREDICTED BY IDOCK:   -5.88 KCAL/MOL
REMARK 923 INTER-LIGAND FREE ENERGY PREDICTED BY IDOCK:   -5.00 KCAL/MOL
REMARK 924 INTRA-LIGAND FREE ENERGY PREDICTED BY IDOCK:   -0.88 KCAL/MOL
REMARK 927      BINDING AFFINITY PREDICTED BY RF-SCORE:    0.00 PKD
ROOT
HETATM    1  C   UNL     1     -10.133   9.444  70.590  1.00  0.00    -0.291 C  
HETATM    2  N   UNL     1     -10.141   9.592  69.127  1.00  0.00    -0.180 NA 
HETATM    3  C   UNL     1     -10.371   8.287  68.502  1.00  0.00    -0.199 C  
ENDROOT
BRANCH   2   4
HETATM    4  C   UNL     1     -11.200  10.564  68.757  1.00  0.00    -0.262 C  
BRANCH   4   5
HETATM    5  C   UNL     1     -10.861  11.829  67.901  1.00  0.00    -0.211 C  
BRANCH   5   6
HETATM    6  O   UNL     1     -10.551  12.960  68.744  1.00  0.00    -0.242 OA 
BRANCH   6   7
HETATM    7  C   UNL     1     -10.187  14.102  68.068  1.00  0.00    -0.232 A  
HETATM    8  C   UNL     1     -11.040  14.863  67.263  1.00  0.00    -0.336 A  
HETATM    9  C   UNL     1      -8.848  14.487  68.173  1.00  0.00    -0.177 A  
HETATM   10  C   UNL     1     -10.590  16.030  66.641  1.00  0.00    -0.297 A  
HETATM   11  C   UNL     1      -9.269  16.433  66.792  1.00  0.00    -0.259 A  
HETATM   12  C   UNL     1      -8.393  15.653  67.545  1.00  0.00    -0.186 A  
ENDBRANCH   6   7
ENDBRANCH   5   6
BRANCH   5  13
HETATM   13  O   UNL     1      -9.687  11.456  67.150  1.00  0.00    -0.180 OA 
BRANCH  13  14
HETATM   14  C   UNL     1      -9.809  11.278  65.802  1.00  0.00    -0.232 A  
HETATM   15  C   UNL     1     -10.408  11.899  63.549  1.00  0.00    -0.495 A  
HETATM   16  C   UNL     1     -10.411  12.171  64.918  1.00  0.00    -0.325 A  
HETATM   17  C   UNL     1      -9.178   9.864  63.947  1.00  0.00    -0.295 A  
HETATM   18  C   UNL     1      -9.178  10.137  65.310  1.00  0.00    -0.257 A  
HETATM   19  C   UNL     1      -9.799  10.743  63.064  1.00  0.00    -0.344 A  
ENDBRANCH  13  14
ENDBRANCH   5  13
ENDBRANCH   4   5
ENDBRANCH   2   4
TORSDOF 6
ENDMDL
MODEL      137
REMARK 921   NORMALIZED FREE ENERGY PREDICTED BY IDOCK:   -3.71 KCAL/MOL
REMARK 922        TOTAL FREE ENERGY PREDICTED BY IDOCK:   -5.87 KCAL/MOL
REMARK 923 INTER-LIGAND FREE ENERGY PREDICTED BY IDOCK:   -5.00 KCAL/MOL
REMARK 924 INTRA-LIGAND FREE ENERGY PREDICTED BY IDOCK:   -0.86 KCAL/MOL
REMARK 927      BINDING AFFINITY PREDICTED BY RF-SCORE:    0.00 PKD
ROOT
HETATM    1  C   UNL     1      -8.698   7.763  65.946  1.00  0.00    -0.149 C  
HETATM    2  N   UNL     1      -9.816   8.306  66.734  1.00  0.00    -0.239 NA 
HETATM    3  C   UNL     1     -10.777   7.239  67.024  1.00  0.00    -0.336 C  
ENDROOT
BRANCH   2   4
HETATM    4  C   UNL     1      -9.269   8.898  67.980  1.00  0.00    -0.139 C  
BRANCH   4   5
HETATM    5  C   UNL     1      -9.590   8.264  69.374  1.00  0.00    -0.171 C  
BRANCH   5   6
HETATM    6  O   UNL     1      -8.490   7.451  69.841  1.00  0.00    -0.135 OA 
BRANCH   6   7
HETATM    7  C   UNL     1      -8.668   6.096  69.689  1.00  0.00    -0.135 A  
HETATM    8  C   UNL     1      -8.068   5.316  68.696  1.00  0.00    -0.090 A  
HETATM    9  C   UNL     1      -9.551   5.481  70.579  1.00  0.00    -0.225 A  
HETATM   10  C   UNL     1      -8.280   3.937  68.639  1.00  0.00    -0.083 A  
HETATM   11  C   UNL     1      -9.122   3.325  69.559  1.00  0.00    -0.200 A  
HETATM   12  C   UNL     1      -9.771   4.098  70.519  1.00  0.00    -0.270 A  
ENDBRANCH   6   7
ENDBRANCH   5   6
BRANCH   5  13
HETATM   13  O   UNL     1      -9.760   9.391  70.257  1.00  0.00    -0.212 OA 
BRANCH  13  14
HETATM   14  C   UNL     1     -10.959   9.542  70.893  1.00  0.00    -0.337 A  
HETATM   15  C   UNL     1     -13.087  10.582  71.352  1.00  0.00    -0.509 A  
HETATM   16  C   UNL     1     -11.861  10.584  70.684  1.00  0.00    -0.458 A  
HETATM   17  C   UNL     1     -12.519   8.490  72.410  1.00  0.00    -0.416 A  
HETATM   18  C   UNL     1     -11.300   8.490  71.741  1.00  0.00    -0.377 A  
HETATM   19  C   UNL     1     -13.412   9.541  72.220  1.00  0.00    -0.521 A  
ENDBRANCH  13  14
ENDBRANCH   5  13
ENDBRANCH   4   5
ENDBRANCH   2   4
TORSDOF 6
ENDMDL
MODEL      138
REMARK 921   NORMALIZED FREE ENERGY PREDICTED BY IDOCK:   -3.69 KCAL/MOL
REMARK 922        TOTAL FREE ENERGY PREDICTED BY IDOCK:   -5.84 KCAL/MOL
REMARK 923 INTER-LIGAND FREE ENERGY PREDICTED BY IDOCK:   -5.57 KCAL/MOL
REMARK 924 INTRA-LIGAND FREE ENERGY PREDICTED BY IDOCK:   -0.27 KCAL/MOL
REMARK 927      BINDING AFFINITY PREDICTED BY RF-SCORE:    0.00 PKD
ROOT
HETATM    1  C   UNL     1      -6.579   9.122  68.634  1.00  0.00    -0.054 C  
HETATM    2  N   UNL     1      -7.541   9.534  67.600  1.00  0.00    -0.094 NA 
HETATM    3  C   UNL     1      -7.233   8.850  66.342  1.00  0.00    -0.084 C  
ENDROOT
BRANCH   2   4
HETATM    4  C   UNL     1      -8.909   9.210  68.074  1.00  0.00    -0.129 C  
BRANCH   4   5
HETATM    5  C   UNL     1      -9.656  10.157  69.070  1.00  0.00    -0.196 C  
BRANCH   5   6
HETATM    6  O   UNL     1     -11.039  10.326  68.690  1.00  0.00    -0.243 OA 
BRANCH   6   7
HETATM    7  C   UNL     1     -11.380  11.602  68.304  1.00  0.00    -0.285 A  
HETATM    8  C   UNL     1     -11.723  12.638  69.177  1.00  0.00    -0.375 A  
HETATM    9  C   UNL     1     -11.422  11.845  66.929  1.00  0.00    -0.390 A  
HETATM   10  C   UNL     1     -12.023  13.914  68.696  1.00  0.00    -0.401 A  
HETATM   11  C   UNL     1     -12.014  14.161  67.328  1.00  0.00    -0.449 A  
HETATM   12  C   UNL     1     -11.729  13.122  66.444  1.00  0.00    -0.429 A  
ENDBRANCH   6   7
ENDBRANCH   5   6
BRANCH   5  13
HETATM   13  O   UNL     1      -9.589   9.475  70.340  1.00  0.00    -0.244 OA 
BRANCH  13  14
HETATM   14  C   UNL     1     -10.706   8.834  70.791  1.00  0.00    -0.228 A  
HETATM   15  C   UNL     1     -12.901   8.678  71.783  1.00  0.00    -0.397 A  
HETATM   16  C   UNL     1     -11.785   9.440  71.432  1.00  0.00    -0.448 A  
HETATM   17  C   UNL     1     -11.872   6.717  70.826  1.00  0.00    -0.446 A  
HETATM   18  C   UNL     1     -10.763   7.478  70.473  1.00  0.00    -0.244 A  
HETATM   19  C   UNL     1     -12.941   7.316  71.487  1.00  0.00    -0.434 A  
ENDBRANCH  13  14
ENDBRANCH   5  13
ENDBRANCH   4   5
ENDBRANCH   2   4
TORSDOF 6
ENDMDL
MODEL      139
REMARK 921   NORMALIZED FREE ENERGY PREDICTED BY IDOCK:   -3.69 KCAL/MOL
REMARK 922        TOTAL FREE ENERGY PREDICTED BY IDOCK:   -5.84 KCAL/MOL
REMARK 923 INTER-LIGAND FREE ENERGY PREDICTED BY IDOCK:   -4.96 KCAL/MOL
REMARK 924 INTRA-LIGAND FREE ENERGY PREDICTED BY IDOCK:   -0.88 KCAL/MOL
REMARK 927      BINDING AFFINITY PREDICTED BY RF-SCORE:    0.00 PKD
ROOT
HETATM    1  C   UNL     1      -7.690  10.935  66.517  1.00  0.00    -0.149 C  
HETATM    2  N   UNL     1      -8.946  11.051  65.762  1.00  0.00    -0.193 NA 
HETATM    3  C   UNL     1      -9.036   9.962  64.786  1.00  0.00    -0.217 C  
ENDROOT
BRANCH   2   4
HETATM    4  C   UNL     1     -10.078  11.014  66.721  1.00  0.00    -0.220 C  
BRANCH   4   5
HETATM    5  C   UNL     1     -10.046  10.058  67.959  1.00  0.00    -0.167 C  
BRANCH   5   6
HETATM    6  O   UNL     1     -10.529  10.726  69.145  1.00  0.00    -0.199 OA 
BRANCH   6   7
HETATM    7  C   UNL     1     -10.682   9.914  70.244  1.00  0.00    -0.310 A  
HETATM    8  C   UNL     1      -9.651   9.198  70.861  1.00  0.00    -0.347 A  
HETATM    9  C   UNL     1     -11.981   9.774  70.740  1.00  0.00    -0.382 A  
HETATM   10  C   UNL     1      -9.894   8.422  71.997  1.00  0.00    -0.354 A  
HETATM   11  C   UNL     1     -11.181   8.330  72.513  1.00  0.00    -0.446 A  
HETATM   12  C   UNL     1     -12.227   8.992  71.875  1.00  0.00    -0.451 A  
ENDBRANCH   6   7
ENDBRANCH   5   6
BRANCH   5  13
HETATM   13  O   UNL     1     -10.947   8.986  67.614  1.00  0.00    -0.152 OA 
BRANCH  13  14
HETATM   14  C   UNL     1     -10.432   7.730  67.462  1.00  0.00    -0.268 A  
HETATM   15  C   UNL     1     -10.465   5.405  66.816  1.00  0.00    -0.347 A  
HETATM   16  C   UNL     1     -11.130   6.620  66.989  1.00  0.00    -0.395 A  
HETATM   17  C   UNL     1      -8.406   6.417  67.560  1.00  0.00    -0.117 A  
HETATM   18  C   UNL     1      -9.068   7.628  67.728  1.00  0.00    -0.131 A  
HETATM   19  C   UNL     1      -9.106   5.302  67.109  1.00  0.00    -0.112 A  
ENDBRANCH  13  14
ENDBRANCH   5  13
ENDBRANCH   4   5
ENDBRANCH   2   4
TORSDOF 6
ENDMDL
MODEL      140
REMARK 921   NORMALIZED FREE ENERGY PREDICTED BY IDOCK:   -3.69 KCAL/MOL
REMARK 922        TOTAL FREE ENERGY PREDICTED BY IDOCK:   -5.83 KCAL/MOL
REMARK 923 INTER-LIGAND FREE ENERGY PREDICTED BY IDOCK:   -5.04 KCAL/MOL
REMARK 924 INTRA-LIGAND FREE ENERGY PREDICTED BY IDOCK:   -0.79 KCAL/MOL
REMARK 927      BINDING AFFINITY PREDICTED BY RF-SCORE:    0.00 PKD
ROOT
HETATM    1  C   UNL     1      -7.035   8.872  66.408  1.00  0.00    -0.079 C  
HETATM    2  N   UNL     1      -8.425   8.463  66.665  1.00  0.00    -0.109 NA 
HETATM    3  C   UNL     1      -8.637   7.102  66.166  1.00  0.00    -0.146 C  
ENDROOT
BRANCH   2   4
HETATM    4  C   UNL     1      -8.680   8.552  68.124  1.00  0.00    -0.142 C  
BRANCH   4   5
HETATM    5  C   UNL     1     -10.120   8.833  68.668  1.00  0.00    -0.189 C  
BRANCH   5   6
HETATM    6  O   UNL     1     -10.990   9.306  67.617  1.00  0.00    -0.204 OA 
BRANCH   6   7
HETATM    7  C   UNL     1     -11.273  10.651  67.663  1.00  0.00    -0.290 A  
HETATM    8  C   UNL     1     -11.234  11.516  66.566  1.00  0.00    -0.324 A  
HETATM    9  C   UNL     1     -11.579  11.180  68.920  1.00  0.00    -0.385 A  
HETATM   10  C   UNL     1     -11.571  12.865  66.701  1.00  0.00    -0.428 A  
HETATM   11  C   UNL     1     -11.923  13.372  67.946  1.00  0.00    -0.360 A  
HETATM   12  C   UNL     1     -11.911  12.533  69.059  1.00  0.00    -0.344 A  
ENDBRANCH   6   7
ENDBRANCH   5   6
BRANCH   5  13
HETATM   13  O   UNL     1     -10.588   7.551  69.136  1.00  0.00    -0.219 OA 
BRANCH  13  14
HETATM   14  C   UNL     1     -10.684   7.347  70.482  1.00  0.00    -0.233 A  
HETATM   15  C   UNL     1     -10.231   6.231  72.573  1.00  0.00    -0.203 A  
HETATM   16  C   UNL     1     -10.116   6.285  71.183  1.00  0.00    -0.218 A  
HETATM   17  C   UNL     1     -11.451   8.312  72.561  1.00  0.00    -0.454 A  
HETATM   18  C   UNL     1     -11.332   8.367  71.177  1.00  0.00    -0.310 A  
HETATM   19  C   UNL     1     -10.905   7.240  73.261  1.00  0.00    -0.404 A  
ENDBRANCH  13  14
ENDBRANCH   5  13
ENDBRANCH   4   5
ENDBRANCH   2   4
TORSDOF 6
ENDMDL
MODEL      141
REMARK 921   NORMALIZED FREE ENERGY PREDICTED BY IDOCK:   -3.67 KCAL/MOL
REMARK 922        TOTAL FREE ENERGY PREDICTED BY IDOCK:   -5.81 KCAL/MOL
REMARK 923 INTER-LIGAND FREE ENERGY PREDICTED BY IDOCK:   -5.26 KCAL/MOL
REMARK 924 INTRA-LIGAND FREE ENERGY PREDICTED BY IDOCK:   -0.55 KCAL/MOL
REMARK 927      BINDING AFFINITY PREDICTED BY RF-SCORE:    0.00 PKD
ROOT
HETATM    1  C   UNL     1     -12.598  11.290  71.158  1.00  0.00    -0.397 C  
HETATM    2  N   UNL     1     -11.415  10.682  70.529  1.00  0.00    -0.324 NA 
HETATM    3  C   UNL     1     -10.943   9.563  71.348  1.00  0.00    -0.345 C  
ENDROOT
BRANCH   2   4
HETATM    4  C   UNL     1     -11.785  10.236  69.163  1.00  0.00    -0.037 C  
BRANCH   4   5
HETATM    5  C   UNL     1     -11.048  10.811  67.908  1.00  0.00    -0.308 C  
BRANCH   5   6
HETATM    6  O   UNL     1     -10.815   9.779  66.923  1.00  0.00    -0.170 OA 
BRANCH   6   7
HETATM    7  C   UNL     1     -10.009   8.748  67.347  1.00  0.00    -0.208 A  
HETATM    8  C   UNL     1      -8.680   8.888  67.758  1.00  0.00    -0.125 A  
HETATM    9  C   UNL     1     -10.567   7.468  67.313  1.00  0.00    -0.394 A  
HETATM   10  C   UNL     1      -7.947   7.786  68.205  1.00  0.00    -0.122 A  
HETATM   11  C   UNL     1      -8.527   6.524  68.216  1.00  0.00    -0.116 A  
HETATM   12  C   UNL     1      -9.832   6.361  67.755  1.00  0.00    -0.136 A  
ENDBRANCH   6   7
ENDBRANCH   5   6
BRANCH   5  13
HETATM   13  O   UNL     1     -11.960  11.790  67.367  1.00  0.00    -0.617 OA 
BRANCH  13  14
HETATM   14  C   UNL     1     -11.504  13.062  67.172  1.00  0.00    -0.331 A  
HETATM   15  C   UNL     1     -10.976  15.329  67.808  1.00  0.00    -0.312 A  
HETATM   16  C   UNL     1     -11.541  14.089  68.113  1.00  0.00    -0.369 A  
HETATM   17  C   UNL     1     -10.315  14.504  65.640  1.00  0.00    -0.367 A  
HETATM   18  C   UNL     1     -10.874  13.268  65.946  1.00  0.00    -0.289 A  
HETATM   19  C   UNL     1     -10.371  15.538  66.570  1.00  0.00    -0.293 A  
ENDBRANCH  13  14
ENDBRANCH   5  13
ENDBRANCH   4   5
ENDBRANCH   2   4
TORSDOF 6
ENDMDL
MODEL      142
REMARK 921   NORMALIZED FREE ENERGY PREDICTED BY IDOCK:   -3.66 KCAL/MOL
REMARK 922        TOTAL FREE ENERGY PREDICTED BY IDOCK:   -5.79 KCAL/MOL
REMARK 923 INTER-LIGAND FREE ENERGY PREDICTED BY IDOCK:   -4.94 KCAL/MOL
REMARK 924 INTRA-LIGAND FREE ENERGY PREDICTED BY IDOCK:   -0.85 KCAL/MOL
REMARK 927      BINDING AFFINITY PREDICTED BY RF-SCORE:    0.00 PKD
ROOT
HETATM    1  C   UNL     1      -8.233  10.151  67.304  1.00  0.00    -0.117 C  
HETATM    2  N   UNL     1      -7.857   9.321  68.458  1.00  0.00    -0.089 NA 
HETATM    3  C   UNL     1      -7.710  10.166  69.645  1.00  0.00    -0.163 C  
ENDROOT
BRANCH   2   4
HETATM    4  C   UNL     1      -8.902   8.286  68.655  1.00  0.00    -0.133 C  
BRANCH   4   5
HETATM    5  C   UNL     1      -9.624   8.130  70.034  1.00  0.00    -0.171 C  
BRANCH   5   6
HETATM    6  O   UNL     1     -11.056   8.050  69.866  1.00  0.00    -0.215 OA 
BRANCH   6   7
HETATM    7  C   UNL     1     -11.770   9.029  70.517  1.00  0.00    -0.126 A  
HETATM    8  C   UNL     1     -12.667   8.804  71.565  1.00  0.00    -0.372 A  
HETATM    9  C   UNL     1     -11.602  10.335  70.051  1.00  0.00    -0.349 A  
HETATM   10  C   UNL     1     -13.323   9.867  72.191  1.00  0.00    -0.498 A  
HETATM   11  C   UNL     1     -13.112  11.168  71.753  1.00  0.00    -0.536 A  
HETATM   12  C   UNL     1     -12.264  11.402  70.672  1.00  0.00    -0.484 A  
ENDBRANCH   6   7
ENDBRANCH   5   6
BRANCH   5  13
HETATM   13  O   UNL     1      -9.134   6.880  70.562  1.00  0.00    -0.155 OA 
BRANCH  13  14
HETATM   14  C   UNL     1      -9.667   6.416  71.730  1.00  0.00    -0.159 A  
HETATM   15  C   UNL     1     -10.953   4.916  73.115  1.00  0.00    -0.376 A  
HETATM   16  C   UNL     1     -10.534   5.331  71.850  1.00  0.00    -0.282 A  
HETATM   17  C   UNL     1      -9.619   6.647  74.135  1.00  0.00    -0.281 A  
HETATM   18  C   UNL     1      -9.199   7.057  72.875  1.00  0.00    -0.162 A  
HETATM   19  C   UNL     1     -10.502   5.578  74.256  1.00  0.00    -0.275 A  
ENDBRANCH  13  14
ENDBRANCH   5  13
ENDBRANCH   4   5
ENDBRANCH   2   4
TORSDOF 6
ENDMDL
MODEL      143
REMARK 921   NORMALIZED FREE ENERGY PREDICTED BY IDOCK:   -3.65 KCAL/MOL
REMARK 922        TOTAL FREE ENERGY PREDICTED BY IDOCK:   -5.78 KCAL/MOL
REMARK 923 INTER-LIGAND FREE ENERGY PREDICTED BY IDOCK:   -5.45 KCAL/MOL
REMARK 924 INTRA-LIGAND FREE ENERGY PREDICTED BY IDOCK:   -0.33 KCAL/MOL
REMARK 927      BINDING AFFINITY PREDICTED BY RF-SCORE:    0.00 PKD
ROOT
HETATM    1  C   UNL     1     -12.017  11.971  63.166  1.00  0.00    -0.220 C  
HETATM    2  N   UNL     1     -11.380  12.820  64.184  1.00  0.00    -0.363 NA 
HETATM    3  C   UNL     1     -12.192  14.020  64.401  1.00  0.00    -0.426 C  
ENDROOT
BRANCH   2   4
HETATM    4  C   UNL     1     -11.233  12.031  65.432  1.00  0.00    -0.322 C  
BRANCH   4   5
HETATM    5  C   UNL     1     -11.424  12.704  66.831  1.00  0.00    -0.343 C  
BRANCH   5   6
HETATM    6  O   UNL     1     -12.211  11.868  67.708  1.00  0.00    -0.508 OA 
BRANCH   6   7
HETATM    7  C   UNL     1     -11.496  10.914  68.394  1.00  0.00    -0.304 A  
HETATM    8  C   UNL     1     -10.905   9.787  67.816  1.00  0.00    -0.306 A  
HETATM    9  C   UNL     1     -11.402  11.083  69.777  1.00  0.00    -0.366 A  
HETATM   10  C   UNL     1     -10.166   8.887  68.587  1.00  0.00    -0.221 A  
HETATM   11  C   UNL     1     -10.035   9.090  69.956  1.00  0.00    -0.207 A  
HETATM   12  C   UNL     1     -10.667  10.178  70.554  1.00  0.00    -0.295 A  
ENDBRANCH   6   7
ENDBRANCH   5   6
BRANCH   5  13
HETATM   13  O   UNL     1     -10.088  12.828  67.361  1.00  0.00    -0.216 OA 
BRANCH  13  14
HETATM   14  C   UNL     1      -9.637  14.071  67.699  1.00  0.00    -0.221 A  
HETATM   15  C   UNL     1      -8.950  15.825  69.208  1.00  0.00    -0.266 A  
HETATM   16  C   UNL     1      -9.489  14.554  68.998  1.00  0.00    -0.087 A  
HETATM   17  C   UNL     1      -8.681  16.113  66.828  1.00  0.00    -0.273 A  
HETATM   18  C   UNL     1      -9.214  14.846  66.620  1.00  0.00    -0.302 A  
HETATM   19  C   UNL     1      -8.553  16.606  68.124  1.00  0.00    -0.200 A  
ENDBRANCH  13  14
ENDBRANCH   5  13
ENDBRANCH   4   5
ENDBRANCH   2   4
TORSDOF 6
ENDMDL
MODEL      144
REMARK 921   NORMALIZED FREE ENERGY PREDICTED BY IDOCK:   -3.61 KCAL/MOL
REMARK 922        TOTAL FREE ENERGY PREDICTED BY IDOCK:   -5.73 KCAL/MOL
REMARK 923 INTER-LIGAND FREE ENERGY PREDICTED BY IDOCK:   -4.90 KCAL/MOL
REMARK 924 INTRA-LIGAND FREE ENERGY PREDICTED BY IDOCK:   -0.83 KCAL/MOL
REMARK 927      BINDING AFFINITY PREDICTED BY RF-SCORE:    0.00 PKD
ROOT
HETATM    1  C   UNL     1      -7.496  14.294  69.185  1.00  0.00    -0.067 C  
HETATM    2  N   UNL     1      -8.657  14.343  68.283  1.00  0.00    -0.164 NA 
HETATM    3  C   UNL     1      -8.570  15.533  67.433  1.00  0.00    -0.178 C  
ENDROOT
BRANCH   2   4
HETATM    4  C   UNL     1      -8.679  13.099  67.475  1.00  0.00    -0.201 C  
BRANCH   4   5
HETATM    5  C   UNL     1      -9.869  12.090  67.592  1.00  0.00    -0.189 C  
BRANCH   5   6
HETATM    6  O   UNL     1      -9.981  11.570  68.935  1.00  0.00    -0.187 OA 
BRANCH   6   7
HETATM    7  C   UNL     1     -10.216  10.217  69.014  1.00  0.00    -0.210 A  
HETATM    8  C   UNL     1     -10.449   9.380  67.919  1.00  0.00    -0.296 A  
HETATM    9  C   UNL     1     -10.263   9.668  70.297  1.00  0.00    -0.333 A  
HETATM   10  C   UNL     1     -10.645   8.008  68.093  1.00  0.00    -0.174 A  
HETATM   11  C   UNL     1     -10.641   7.462  69.370  1.00  0.00    -0.231 A  
HETATM   12  C   UNL     1     -10.466   8.294  70.474  1.00  0.00    -0.225 A  
ENDBRANCH   6   7
ENDBRANCH   5   6
BRANCH   5  13
HETATM   13  O   UNL     1     -11.041  12.872  67.282  1.00  0.00    -0.258 OA 
BRANCH  13  14
HETATM   14  C   UNL     1     -11.375  13.047  65.970  1.00  0.00    -0.310 A  
HETATM   15  C   UNL     1     -11.792  14.314  63.959  1.00  0.00    -0.267 A  
HETATM   16  C   UNL     1     -11.512  14.276  65.327  1.00  0.00    -0.344 A  
HETATM   17  C   UNL     1     -11.767  11.904  63.877  1.00  0.00    -0.509 A  
HETATM   18  C   UNL     1     -11.485  11.866  65.238  1.00  0.00    -0.313 A  
HETATM   19  C   UNL     1     -11.927  13.129  63.237  1.00  0.00    -0.445 A  
ENDBRANCH  13  14
ENDBRANCH   5  13
ENDBRANCH   4   5
ENDBRANCH   2   4
TORSDOF 6
ENDMDL
MODEL      145
REMARK 921   NORMALIZED FREE ENERGY PREDICTED BY IDOCK:   -3.61 KCAL/MOL
REMARK 922        TOTAL FREE ENERGY PREDICTED BY IDOCK:   -5.73 KCAL/MOL
REMARK 923 INTER-LIGAND FREE ENERGY PREDICTED BY IDOCK:   -4.86 KCAL/MOL
REMARK 924 INTRA-LIGAND FREE ENERGY PREDICTED BY IDOCK:   -0.86 KCAL/MOL
REMARK 927      BINDING AFFINITY PREDICTED BY RF-SCORE:    0.00 PKD
ROOT
HETATM    1  C   UNL     1     -11.992  11.670  68.592  1.00  0.00    -0.248 C  
HETATM    2  N   UNL     1     -10.782  11.163  69.258  1.00  0.00    -0.217 NA 
HETATM    3  C   UNL     1     -11.074   9.874  69.892  1.00  0.00    -0.275 C  
ENDROOT
BRANCH   2   4
HETATM    4  C   UNL     1      -9.704  11.039  68.247  1.00  0.00    -0.177 C  
BRANCH   4   5
HETATM    5  C   UNL     1      -9.240  12.281  67.417  1.00  0.00    -0.182 C  
BRANCH   5   6
HETATM    6  O   UNL     1      -7.863  12.614  67.703  1.00  0.00    -0.137 OA 
BRANCH   6   7
HETATM    7  C   UNL     1      -7.663  13.891  68.172  1.00  0.00    -0.142 A  
HETATM    8  C   UNL     1      -6.423  14.532  68.244  1.00  0.00    -0.118 A  
HETATM    9  C   UNL     1      -8.791  14.564  68.646  1.00  0.00    -0.180 A  
HETATM   10  C   UNL     1      -6.319  15.847  68.704  1.00  0.00    -0.112 A  
HETATM   11  C   UNL     1      -7.455  16.527  69.127  1.00  0.00    -0.218 A  
HETATM   12  C   UNL     1      -8.689  15.880  69.114  1.00  0.00    -0.256 A  
ENDBRANCH   6   7
ENDBRANCH   5   6
BRANCH   5  13
HETATM   13  O   UNL     1      -9.354  11.863  66.041  1.00  0.00    -0.229 OA 
BRANCH  13  14
HETATM   14  C   UNL     1     -10.320  12.440  65.267  1.00  0.00    -0.282 A  
HETATM   15  C   UNL     1     -12.040  12.490  63.575  1.00  0.00    -0.653 A  
HETATM   16  C   UNL     1     -11.026  11.804  64.247  1.00  0.00    -0.419 A  
HETATM   17  C   UNL     1     -11.659  14.428  64.959  1.00  0.00    -0.374 A  
HETATM   18  C   UNL     1     -10.652  13.743  65.631  1.00  0.00    -0.302 A  
HETATM   19  C   UNL     1     -12.351  13.803  63.926  1.00  0.00    -0.346 A  
ENDBRANCH  13  14
ENDBRANCH   5  13
ENDBRANCH   4   5
ENDBRANCH   2   4
TORSDOF 6
ENDMDL
MODEL      146
REMARK 921   NORMALIZED FREE ENERGY PREDICTED BY IDOCK:   -3.61 KCAL/MOL
REMARK 922        TOTAL FREE ENERGY PREDICTED BY IDOCK:   -5.72 KCAL/MOL
REMARK 923 INTER-LIGAND FREE ENERGY PREDICTED BY IDOCK:   -6.02 KCAL/MOL
REMARK 924 INTRA-LIGAND FREE ENERGY PREDICTED BY IDOCK:    0.29 KCAL/MOL
REMARK 927      BINDING AFFINITY PREDICTED BY RF-SCORE:    0.00 PKD
ROOT
HETATM    1  C   UNL     1      -8.337   8.192  68.174  1.00  0.00    -0.129 C  
HETATM    2  N   UNL     1      -8.955   9.520  68.042  1.00  0.00    -0.124 NA 
HETATM    3  C   UNL     1     -10.211   9.406  67.296  1.00  0.00    -0.246 C  
ENDROOT
BRANCH   2   4
HETATM    4  C   UNL     1      -9.178  10.072  69.401  1.00  0.00    -0.216 C  
BRANCH   4   5
HETATM    5  C   UNL     1     -10.605  10.063  70.043  1.00  0.00    -0.293 C  
BRANCH   5   6
HETATM    6  O   UNL     1     -11.468  11.032  69.408  1.00  0.00    -0.240 OA 
BRANCH   6   7
HETATM    7  C   UNL     1     -12.089  11.905  70.270  1.00  0.00    -0.325 A  
HETATM    8  C   UNL     1     -11.962  13.296  70.231  1.00  0.00    -0.372 A  
HETATM    9  C   UNL     1     -12.868  11.333  71.279  1.00  0.00    -0.491 A  
HETATM   10  C   UNL     1     -12.660  14.108  71.128  1.00  0.00    -0.439 A  
HETATM   11  C   UNL     1     -13.472  13.533  72.098  1.00  0.00    -0.631 A  
HETATM   12  C   UNL     1     -13.563  12.145  72.184  1.00  0.00    -0.285 A  
ENDBRANCH   6   7
ENDBRANCH   5   6
BRANCH   5  13
HETATM   13  O   UNL     1     -11.109   8.735  69.790  1.00  0.00    -0.192 OA 
BRANCH  13  14
HETATM   14  C   UNL     1     -11.042   7.814  70.796  1.00  0.00    -0.257 A  
HETATM   15  C   UNL     1     -10.844   5.601  71.739  1.00  0.00    -0.301 A  
HETATM   16  C   UNL     1     -10.979   6.432  70.625  1.00  0.00    -0.355 A  
HETATM   17  C   UNL     1     -10.806   7.532  73.184  1.00  0.00    -0.448 A  
HETATM   18  C   UNL     1     -10.937   8.359  72.074  1.00  0.00    -0.394 A  
HETATM   19  C   UNL     1     -10.765   6.151  73.018  1.00  0.00    -0.276 A  
ENDBRANCH  13  14
ENDBRANCH   5  13
ENDBRANCH   4   5
ENDBRANCH   2   4
TORSDOF 6
ENDMDL
MODEL      147
REMARK 921   NORMALIZED FREE ENERGY PREDICTED BY IDOCK:   -3.57 KCAL/MOL
REMARK 922        TOTAL FREE ENERGY PREDICTED BY IDOCK:   -5.67 KCAL/MOL
REMARK 923 INTER-LIGAND FREE ENERGY PREDICTED BY IDOCK:   -4.93 KCAL/MOL
REMARK 924 INTRA-LIGAND FREE ENERGY PREDICTED BY IDOCK:   -0.74 KCAL/MOL
REMARK 927      BINDING AFFINITY PREDICTED BY RF-SCORE:    0.00 PKD
ROOT
HETATM    1  C   UNL     1     -11.143   6.249  68.901  1.00  0.00    -0.362 C  
HETATM    2  N   UNL     1      -9.791   5.706  69.099  1.00  0.00    -0.150 NA 
HETATM    3  C   UNL     1      -9.060   5.730  67.830  1.00  0.00    -0.106 C  
ENDROOT
BRANCH   2   4
HETATM    4  C   UNL     1      -9.105   6.516  70.136  1.00  0.00    -0.155 C  
BRANCH   4   5
HETATM    5  C   UNL     1      -9.663   6.583  71.597  1.00  0.00    -0.163 C  
BRANCH   5   6
HETATM    6  O   UNL     1      -8.773   5.924  72.524  1.00  0.00    -0.124 OA 
BRANCH   6   7
HETATM    7  C   UNL     1      -9.280   4.783  73.100  1.00  0.00    -0.115 A  
HETATM    8  C   UNL     1      -8.525   3.827  73.785  1.00  0.00    -0.090 A  
HETATM    9  C   UNL     1     -10.650   4.560  72.937  1.00  0.00    -0.275 A  
HETATM   10  C   UNL     1      -9.132   2.713  74.368  1.00  0.00    -0.092 A  
HETATM   11  C   UNL     1     -10.503   2.525  74.244  1.00  0.00    -0.210 A  
HETATM   12  C   UNL     1     -11.260   3.440  73.515  1.00  0.00    -0.280 A  
ENDBRANCH   6   7
ENDBRANCH   5   6
BRANCH   5  13
HETATM   13  O   UNL     1      -9.714   7.992  71.902  1.00  0.00    -0.166 OA 
BRANCH  13  14
HETATM   14  C   UNL     1     -10.896   8.652  71.721  1.00  0.00    -0.325 A  
HETATM   15  C   UNL     1     -13.210   9.176  72.162  1.00  0.00    -0.524 A  
HETATM   16  C   UNL     1     -12.087   8.378  72.390  1.00  0.00    -0.443 A  
HETATM   17  C   UNL     1     -11.942  10.534  70.624  1.00  0.00    -0.455 A  
HETATM   18  C   UNL     1     -10.823   9.742  70.855  1.00  0.00    -0.399 A  
HETATM   19  C   UNL     1     -13.139  10.248  71.274  1.00  0.00    -0.492 A  
ENDBRANCH  13  14
ENDBRANCH   5  13
ENDBRANCH   4   5
ENDBRANCH   2   4
TORSDOF 6
ENDMDL
MODEL      148
REMARK 921   NORMALIZED FREE ENERGY PREDICTED BY IDOCK:   -3.56 KCAL/MOL
REMARK 922        TOTAL FREE ENERGY PREDICTED BY IDOCK:   -5.66 KCAL/MOL
REMARK 923 INTER-LIGAND FREE ENERGY PREDICTED BY IDOCK:   -5.18 KCAL/MOL
REMARK 924 INTRA-LIGAND FREE ENERGY PREDICTED BY IDOCK:   -0.48 KCAL/MOL
REMARK 927      BINDING AFFINITY PREDICTED BY RF-SCORE:    0.00 PKD
ROOT
HETATM    1  C   UNL     1      -9.684   3.357  71.919  1.00  0.00    -0.165 C  
HETATM    2  N   UNL     1      -9.324   4.277  70.830  1.00  0.00    -0.137 NA 
HETATM    3  C   UNL     1      -9.174   3.526  69.581  1.00  0.00    -0.153 C  
ENDROOT
BRANCH   2   4
HETATM    4  C   UNL     1     -10.382   5.312  70.718  1.00  0.00    -0.239 C  
BRANCH   4   5
HETATM    5  C   UNL     1     -10.035   6.762  70.247  1.00  0.00    -0.178 C  
BRANCH   5   6
HETATM    6  O   UNL     1     -10.947   7.207  69.219  1.00  0.00    -0.210 OA 
BRANCH   6   7
HETATM    7  C   UNL     1     -10.345   7.697  68.084  1.00  0.00    -0.204 A  
HETATM    8  C   UNL     1     -10.505   8.993  67.587  1.00  0.00    -0.324 A  
HETATM    9  C   UNL     1      -9.551   6.799  67.365  1.00  0.00    -0.158 A  
HETATM   10  C   UNL     1      -9.824   9.414  66.442  1.00  0.00    -0.337 A  
HETATM   11  C   UNL     1      -8.996   8.529  65.762  1.00  0.00    -0.229 A  
HETATM   12  C   UNL     1      -8.872   7.217  66.213  1.00  0.00    -0.179 A  
ENDBRANCH   6   7
ENDBRANCH   5   6
BRANCH   5  13
HETATM   13  O   UNL     1     -10.207   7.578  71.424  1.00  0.00    -0.187 OA 
BRANCH  13  14
HETATM   14  C   UNL     1     -11.306   8.385  71.500  1.00  0.00    -0.276 A  
HETATM   15  C   UNL     1     -13.564   8.969  72.118  1.00  0.00    -0.523 A  
HETATM   16  C   UNL     1     -12.539   8.024  72.038  1.00  0.00    -0.346 A  
HETATM   17  C   UNL     1     -12.114  10.636  71.151  1.00  0.00    -0.445 A  
HETATM   18  C   UNL     1     -11.092   9.695  71.075  1.00  0.00    -0.438 A  
HETATM   19  C   UNL     1     -13.353  10.272  71.668  1.00  0.00    -0.451 A  
ENDBRANCH  13  14
ENDBRANCH   5  13
ENDBRANCH   4   5
ENDBRANCH   2   4
TORSDOF 6
ENDMDL
MODEL      149
REMARK 921   NORMALIZED FREE ENERGY PREDICTED BY IDOCK:   -3.54 KCAL/MOL
REMARK 922        TOTAL FREE ENERGY PREDICTED BY IDOCK:   -5.64 KCAL/MOL
REMARK 923 INTER-LIGAND FREE ENERGY PREDICTED BY IDOCK:   -4.78 KCAL/MOL
REMARK 924 INTRA-LIGAND FREE ENERGY PREDICTED BY IDOCK:   -0.86 KCAL/MOL
REMARK 927      BINDING AFFINITY PREDICTED BY RF-SCORE:    0.00 PKD
ROOT
HETATM    1  C   UNL     1     -11.077   6.728  67.411  1.00  0.00    -0.295 C  
HETATM    2  N   UNL     1     -10.305   5.578  67.906  1.00  0.00    -0.191 NA 
HETATM    3  C   UNL     1      -9.105   5.401  67.084  1.00  0.00    -0.111 C  
ENDROOT
BRANCH   2   4
HETATM    4  C   UNL     1      -9.957   5.820  69.328  1.00  0.00    -0.182 C  
BRANCH   4   5
HETATM    5  C   UNL     1     -10.205   7.218  69.984  1.00  0.00    -0.201 C  
BRANCH   5   6
HETATM    6  O   UNL     1     -10.652   7.080  71.351  1.00  0.00    -0.217 OA 
BRANCH   6   7
HETATM    7  C   UNL     1     -11.845   7.701  71.635  1.00  0.00    -0.291 A  
HETATM    8  C   UNL     1     -11.971   8.969  72.209  1.00  0.00    -0.332 A  
HETATM    9  C   UNL     1     -13.006   6.974  71.360  1.00  0.00    -0.395 A  
HETATM   10  C   UNL     1     -13.228   9.537  72.431  1.00  0.00    -0.451 A  
HETATM   11  C   UNL     1     -14.378   8.827  72.108  1.00  0.00    -0.481 A  
HETATM   12  C   UNL     1     -14.268   7.539  71.587  1.00  0.00    -0.592 A  
ENDBRANCH   6   7
ENDBRANCH   5   6
BRANCH   5  13
HETATM   13  O   UNL     1      -8.915   7.863  69.966  1.00  0.00    -0.144 OA 
BRANCH  13  14
HETATM   14  C   UNL     1      -8.811   9.089  69.374  1.00  0.00    -0.144 A  
HETATM   15  C   UNL     1      -7.689  10.876  68.203  1.00  0.00    -0.103 A  
HETATM   16  C   UNL     1      -7.644   9.637  68.845  1.00  0.00    -0.076 A  
HETATM   17  C   UNL     1     -10.065  11.002  68.593  1.00  0.00    -0.207 A  
HETATM   18  C   UNL     1     -10.021   9.766  69.229  1.00  0.00    -0.201 A  
HETATM   19  C   UNL     1      -8.897  11.561  68.084  1.00  0.00    -0.165 A  
ENDBRANCH  13  14
ENDBRANCH   5  13
ENDBRANCH   4   5
ENDBRANCH   2   4
TORSDOF 6
ENDMDL
MODEL      150
REMARK 921   NORMALIZED FREE ENERGY PREDICTED BY IDOCK:   -3.52 KCAL/MOL
REMARK 922        TOTAL FREE ENERGY PREDICTED BY IDOCK:   -5.61 KCAL/MOL
REMARK 923 INTER-LIGAND FREE ENERGY PREDICTED BY IDOCK:   -5.63 KCAL/MOL
REMARK 924 INTRA-LIGAND FREE ENERGY PREDICTED BY IDOCK:    0.02 KCAL/MOL
REMARK 927      BINDING AFFINITY PREDICTED BY RF-SCORE:    0.00 PKD
ROOT
HETATM    1  C   UNL     1      -7.185  10.794  67.988  1.00  0.00    -0.086 C  
HETATM    2  N   UNL     1      -7.390   9.948  69.174  1.00  0.00    -0.077 NA 
HETATM    3  C   UNL     1      -6.425  10.317  70.213  1.00  0.00    -0.137 C  
ENDROOT
BRANCH   2   4
HETATM    4  C   UNL     1      -8.787  10.125  69.643  1.00  0.00    -0.164 C  
BRANCH   4   5
HETATM    5  C   UNL     1      -9.815   8.949  69.555  1.00  0.00    -0.180 C  
BRANCH   5   6
HETATM    6  O   UNL     1     -10.113   8.419  70.865  1.00  0.00    -0.186 OA 
BRANCH   6   7
HETATM    7  C   UNL     1     -11.451   8.382  71.183  1.00  0.00    -0.274 A  
HETATM    8  C   UNL     1     -12.268   7.253  71.080  1.00  0.00    -0.376 A  
HETATM    9  C   UNL     1     -12.025   9.587  71.596  1.00  0.00    -0.474 A  
HETATM   10  C   UNL     1     -13.611   7.300  71.459  1.00  0.00    -0.442 A  
HETATM   11  C   UNL     1     -14.162   8.491  71.916  1.00  0.00    -0.536 A  
HETATM   12  C   UNL     1     -13.374   9.638  71.970  1.00  0.00    -0.547 A  
ENDBRANCH   6   7
ENDBRANCH   5   6
BRANCH   5  13
HETATM   13  O   UNL     1     -11.004   9.546  68.998  1.00  0.00    -0.194 OA 
BRANCH  13  14
HETATM   14  C   UNL     1     -10.920  10.136  67.769  1.00  0.00    -0.277 A  
HETATM   15  C   UNL     1     -11.095  11.947  66.185  1.00  0.00    -0.374 A  
HETATM   16  C   UNL     1     -11.298  11.444  67.471  1.00  0.00    -0.362 A  
HETATM   17  C   UNL     1     -10.112   9.851  65.510  1.00  0.00    -0.297 A  
HETATM   18  C   UNL     1     -10.311   9.351  66.792  1.00  0.00    -0.303 A  
HETATM   19  C   UNL     1     -10.509  11.149  65.203  1.00  0.00    -0.341 A  
ENDBRANCH  13  14
ENDBRANCH   5  13
ENDBRANCH   4   5
ENDBRANCH   2   4
TORSDOF 6
ENDMDL
MODEL      151
REMARK 921   NORMALIZED FREE ENERGY PREDICTED BY IDOCK:   -3.51 KCAL/MOL
REMARK 922        TOTAL FREE ENERGY PREDICTED BY IDOCK:   -5.59 KCAL/MOL
REMARK 923 INTER-LIGAND FREE ENERGY PREDICTED BY IDOCK:   -4.70 KCAL/MOL
REMARK 924 INTRA-LIGAND FREE ENERGY PREDICTED BY IDOCK:   -0.89 KCAL/MOL
REMARK 927      BINDING AFFINITY PREDICTED BY RF-SCORE:    0.00 PKD
ROOT
HETATM    1  C   UNL     1     -11.291  14.090  67.304  1.00  0.00    -0.330 C  
HETATM    2  N   UNL     1     -12.216  13.306  66.471  1.00  0.00    -0.365 NA 
HETATM    3  C   UNL     1     -12.741  14.148  65.394  1.00  0.00    -0.431 C  
ENDROOT
BRANCH   2   4
HETATM    4  C   UNL     1     -11.486  12.130  65.935  1.00  0.00    -0.363 C  
BRANCH   4   5
HETATM    5  C   UNL     1     -10.480  11.336  66.833  1.00  0.00    -0.245 C  
BRANCH   5   6
HETATM    6  O   UNL     1     -11.070  10.108  67.314  1.00  0.00    -0.244 OA 
BRANCH   6   7
HETATM    7  C   UNL     1     -11.274  10.059  68.673  1.00  0.00    -0.121 A  
HETATM    8  C   UNL     1     -12.027  10.982  69.404  1.00  0.00    -0.408 A  
HETATM    9  C   UNL     1     -10.636   9.024  69.360  1.00  0.00    -0.231 A  
HETATM   10  C   UNL     1     -12.208  10.833  70.781  1.00  0.00    -0.480 A  
HETATM   11  C   UNL     1     -11.611   9.771  71.449  1.00  0.00    -0.452 A  
HETATM   12  C   UNL     1     -10.811   8.875  70.742  1.00  0.00    -0.294 A  
ENDBRANCH   6   7
ENDBRANCH   5   6
BRANCH   5  13
HETATM   13  O   UNL     1      -9.377  11.026  65.957  1.00  0.00    -0.187 OA 
BRANCH  13  14
HETATM   14  C   UNL     1      -8.498  10.054  66.339  1.00  0.00    -0.129 A  
HETATM   15  C   UNL     1      -7.296   7.972  66.128  1.00  0.00    -0.074 A  
HETATM   16  C   UNL     1      -8.275   8.854  65.667  1.00  0.00    -0.126 A  
HETATM   17  C   UNL     1      -6.746   9.502  67.909  1.00  0.00    -0.066 A  
HETATM   18  C   UNL     1      -7.719  10.381  67.447  1.00  0.00    -0.095 A  
HETATM   19  C   UNL     1      -6.537   8.293  67.253  1.00  0.00    -0.058 A  
ENDBRANCH  13  14
ENDBRANCH   5  13
ENDBRANCH   4   5
ENDBRANCH   2   4
TORSDOF 6
ENDMDL
MODEL      152
REMARK 921   NORMALIZED FREE ENERGY PREDICTED BY IDOCK:   -3.50 KCAL/MOL
REMARK 922        TOTAL FREE ENERGY PREDICTED BY IDOCK:   -5.58 KCAL/MOL
REMARK 923 INTER-LIGAND FREE ENERGY PREDICTED BY IDOCK:   -4.70 KCAL/MOL
REMARK 924 INTRA-LIGAND FREE ENERGY PREDICTED BY IDOCK:   -0.88 KCAL/MOL
REMARK 927      BINDING AFFINITY PREDICTED BY RF-SCORE:    0.00 PKD
ROOT
HETATM    1  C   UNL     1     -11.184  11.017  67.477  1.00  0.00    -0.302 C  
HETATM    2  N   UNL     1     -10.508   9.777  67.888  1.00  0.00    -0.224 NA 
HETATM    3  C   UNL     1      -9.260   9.625  67.135  1.00  0.00    -0.134 C  
ENDROOT
BRANCH   2   4
HETATM    4  C   UNL     1     -10.257   9.839  69.349  1.00  0.00    -0.210 C  
BRANCH   4   5
HETATM    5  C   UNL     1     -10.298   8.542  70.223  1.00  0.00    -0.205 C  
BRANCH   5   6
HETATM    6  O   UNL     1     -10.731   8.836  71.569  1.00  0.00    -0.250 OA 
BRANCH   6   7
HETATM    7  C   UNL     1     -10.179   8.035  72.542  1.00  0.00    -0.294 A  
HETATM    8  C   UNL     1     -10.872   7.059  73.264  1.00  0.00    -0.345 A  
HETATM    9  C   UNL     1      -8.834   8.260  72.843  1.00  0.00    -0.302 A  
HETATM   10  C   UNL     1     -10.219   6.267  74.212  1.00  0.00    -0.351 A  
HETATM   11  C   UNL     1      -8.868   6.465  74.470  1.00  0.00    -0.171 A  
HETATM   12  C   UNL     1      -8.179   7.472  73.798  1.00  0.00    -0.205 A  
ENDBRANCH   6   7
ENDBRANCH   5   6
BRANCH   5  13
HETATM   13  O   UNL     1     -11.275   7.700  69.579  1.00  0.00    -0.089 OA 
BRANCH  13  14
HETATM   14  C   UNL     1     -10.848   6.547  68.986  1.00  0.00    -0.306 A  
HETATM   15  C   UNL     1     -10.459   5.037  67.144  1.00  0.00    -0.181 A  
HETATM   16  C   UNL     1     -11.005   6.222  67.639  1.00  0.00    -0.438 A  
HETATM   17  C   UNL     1      -9.576   4.520  69.328  1.00  0.00    -0.258 A  
HETATM   18  C   UNL     1     -10.117   5.703  69.820  1.00  0.00    -0.286 A  
HETATM   19  C   UNL     1      -9.751   4.183  67.990  1.00  0.00    -0.155 A  
ENDBRANCH  13  14
ENDBRANCH   5  13
ENDBRANCH   4   5
ENDBRANCH   2   4
TORSDOF 6
ENDMDL
MODEL      153
REMARK 921   NORMALIZED FREE ENERGY PREDICTED BY IDOCK:   -3.50 KCAL/MOL
REMARK 922        TOTAL FREE ENERGY PREDICTED BY IDOCK:   -5.58 KCAL/MOL
REMARK 923 INTER-LIGAND FREE ENERGY PREDICTED BY IDOCK:   -4.73 KCAL/MOL
REMARK 924 INTRA-LIGAND FREE ENERGY PREDICTED BY IDOCK:   -0.85 KCAL/MOL
REMARK 927      BINDING AFFINITY PREDICTED BY RF-SCORE:    0.00 PKD
ROOT
HETATM    1  C   UNL     1      -5.818  10.965  65.710  1.00  0.00    -0.110 C  
HETATM    2  N   UNL     1      -6.723   9.979  66.320  1.00  0.00    -0.089 NA 
HETATM    3  C   UNL     1      -7.042  10.386  67.691  1.00  0.00    -0.085 C  
ENDROOT
BRANCH   2   4
HETATM    4  C   UNL     1      -7.946   9.881  65.485  1.00  0.00    -0.128 C  
BRANCH   4   5
HETATM    5  C   UNL     1      -9.323  10.395  66.020  1.00  0.00    -0.178 C  
BRANCH   5   6
HETATM    6  O   UNL     1      -9.848  11.446  65.179  1.00  0.00    -0.241 OA 
BRANCH   6   7
HETATM    7  C   UNL     1     -10.466  12.472  65.855  1.00  0.00    -0.265 A  
HETATM    8  C   UNL     1     -11.682  12.364  66.536  1.00  0.00    -0.443 A  
HETATM    9  C   UNL     1      -9.834  13.717  65.808  1.00  0.00    -0.242 A  
HETATM   10  C   UNL     1     -12.219  13.454  67.226  1.00  0.00    -0.282 A  
HETATM   11  C   UNL     1     -11.558  14.677  67.215  1.00  0.00    -0.404 A  
HETATM   12  C   UNL     1     -10.374  14.813  66.493  1.00  0.00    -0.287 A  
ENDBRANCH   6   7
ENDBRANCH   5   6
BRANCH   5  13
HETATM   13  O   UNL     1     -10.193   9.247  65.949  1.00  0.00    -0.245 OA 
BRANCH  13  14
HETATM   14  C   UNL     1     -10.429   8.540  67.093  1.00  0.00    -0.299 A  
HETATM   15  C   UNL     1     -10.686   6.551  68.434  1.00  0.00    -0.339 A  
HETATM   16  C   UNL     1     -10.507   7.152  67.187  1.00  0.00    -0.389 A  
HETATM   17  C   UNL     1     -10.679   8.719  69.490  1.00  0.00    -0.196 A  
HETATM   18  C   UNL     1     -10.497   9.317  68.249  1.00  0.00    -0.260 A  
HETATM   19  C   UNL     1     -10.780   7.334  69.583  1.00  0.00    -0.249 A  
ENDBRANCH  13  14
ENDBRANCH   5  13
ENDBRANCH   4   5
ENDBRANCH   2   4
TORSDOF 6
ENDMDL
MODEL      154
REMARK 921   NORMALIZED FREE ENERGY PREDICTED BY IDOCK:   -3.48 KCAL/MOL
REMARK 922        TOTAL FREE ENERGY PREDICTED BY IDOCK:   -5.56 KCAL/MOL
REMARK 923 INTER-LIGAND FREE ENERGY PREDICTED BY IDOCK:   -5.75 KCAL/MOL
REMARK 924 INTRA-LIGAND FREE ENERGY PREDICTED BY IDOCK:    0.19 KCAL/MOL
REMARK 927      BINDING AFFINITY PREDICTED BY RF-SCORE:    0.00 PKD
ROOT
HETATM    1  C   UNL     1     -12.264  13.179  70.386  1.00  0.00    -0.316 C  
HETATM    2  N   UNL     1     -12.053  11.783  70.799  1.00  0.00    -0.327 NA 
HETATM    3  C   UNL     1     -13.180  11.340  71.624  1.00  0.00    -0.327 C  
ENDROOT
BRANCH   2   4
HETATM    4  C   UNL     1     -11.911  10.948  69.581  1.00  0.00    -0.344 C  
BRANCH   4   5
HETATM    5  C   UNL     1     -11.031  11.429  68.380  1.00  0.00    -0.215 C  
BRANCH   5   6
HETATM    6  O   UNL     1     -10.014  10.455  68.057  1.00  0.00    -0.151 OA 
BRANCH   6   7
HETATM    7  C   UNL     1     -10.384   9.145  68.259  1.00  0.00    -0.214 A  
HETATM    8  C   UNL     1     -10.836   8.278  67.260  1.00  0.00    -0.103 A  
HETATM    9  C   UNL     1     -10.336   8.682  69.576  1.00  0.00    -0.214 A  
HETATM   10  C   UNL     1     -11.158   6.950  67.553  1.00  0.00    -0.283 A  
HETATM   11  C   UNL     1     -11.060   6.483  68.858  1.00  0.00    -0.371 A  
HETATM   12  C   UNL     1     -10.665   7.353  69.872  1.00  0.00    -0.254 A  
ENDBRANCH   6   7
ENDBRANCH   5   6
BRANCH   5  13
HETATM   13  O   UNL     1     -11.952  11.543  67.276  1.00  0.00    -0.605 OA 
BRANCH  13  14
HETATM   14  C   UNL     1     -11.648  12.409  66.265  1.00  0.00    -0.393 A  
HETATM   15  C   UNL     1     -10.823  13.040  64.087  1.00  0.00    -0.433 A  
HETATM   16  C   UNL     1     -11.014  12.069  65.071  1.00  0.00    -0.355 A  
HETATM   17  C   UNL     1     -11.925  14.676  65.475  1.00  0.00    -0.256 A  
HETATM   18  C   UNL     1     -12.118  13.707  66.454  1.00  0.00    -0.478 A  
HETATM   19  C   UNL     1     -11.272  14.344  64.292  1.00  0.00    -0.111 A  
ENDBRANCH  13  14
ENDBRANCH   5  13
ENDBRANCH   4   5
ENDBRANCH   2   4
TORSDOF 6
ENDMDL
MODEL      155
REMARK 921   NORMALIZED FREE ENERGY PREDICTED BY IDOCK:   -3.48 KCAL/MOL
REMARK 922        TOTAL FREE ENERGY PREDICTED BY IDOCK:   -5.56 KCAL/MOL
REMARK 923 INTER-LIGAND FREE ENERGY PREDICTED BY IDOCK:   -5.62 KCAL/MOL
REMARK 924 INTRA-LIGAND FREE ENERGY PREDICTED BY IDOCK:    0.06 KCAL/MOL
REMARK 927      BINDING AFFINITY PREDICTED BY RF-SCORE:    0.00 PKD
ROOT
HETATM    1  C   UNL     1      -7.247  11.144  66.632  1.00  0.00    -0.144 C  
HETATM    2  N   UNL     1      -8.032  11.597  67.790  1.00  0.00    -0.124 NA 
HETATM    3  C   UNL     1      -7.442  12.822  68.336  1.00  0.00    -0.124 C  
ENDROOT
BRANCH   2   4
HETATM    4  C   UNL     1      -9.433  11.818  67.352  1.00  0.00    -0.173 C  
BRANCH   4   5
HETATM    5  C   UNL     1     -10.566  10.822  67.765  1.00  0.00    -0.228 C  
BRANCH   5   6
HETATM    6  O   UNL     1     -11.869  11.348  67.429  1.00  0.00    -0.609 OA 
BRANCH   6   7
HETATM    7  C   UNL     1     -11.871  12.291  66.428  1.00  0.00    -0.311 A  
HETATM    8  C   UNL     1     -12.079  13.660  66.617  1.00  0.00    -0.459 A  
HETATM    9  C   UNL     1     -11.693  11.816  65.126  1.00  0.00    -0.155 A  
HETATM   10  C   UNL     1     -12.029  14.550  65.542  1.00  0.00    -0.312 A  
HETATM   11  C   UNL     1     -11.801  14.075  64.257  1.00  0.00    -0.435 A  
HETATM   12  C   UNL     1     -11.650  12.706  64.046  1.00  0.00    -0.486 A  
ENDBRANCH   6   7
ENDBRANCH   5   6
BRANCH   5  13
HETATM   13  O   UNL     1     -10.313   9.637  66.983  1.00  0.00    -0.234 OA 
BRANCH  13  14
HETATM   14  C   UNL     1     -10.533   8.419  67.560  1.00  0.00    -0.257 A  
HETATM   15  C   UNL     1     -10.913   6.036  67.586  1.00  0.00    -0.334 A  
HETATM   16  C   UNL     1     -10.771   7.229  66.875  1.00  0.00    -0.346 A  
HETATM   17  C   UNL     1     -10.551   7.218  69.657  1.00  0.00    -0.246 A  
HETATM   18  C   UNL     1     -10.406   8.405  68.948  1.00  0.00    -0.231 A  
HETATM   19  C   UNL     1     -10.811   6.032  68.977  1.00  0.00    -0.412 A  
ENDBRANCH  13  14
ENDBRANCH   5  13
ENDBRANCH   4   5
ENDBRANCH   2   4
TORSDOF 6
ENDMDL
MODEL      156
REMARK 921   NORMALIZED FREE ENERGY PREDICTED BY IDOCK:   -3.47 KCAL/MOL
REMARK 922        TOTAL FREE ENERGY PREDICTED BY IDOCK:   -5.54 KCAL/MOL
REMARK 923 INTER-LIGAND FREE ENERGY PREDICTED BY IDOCK:   -5.64 KCAL/MOL
REMARK 924 INTRA-LIGAND FREE ENERGY PREDICTED BY IDOCK:    0.10 KCAL/MOL
REMARK 927      BINDING AFFINITY PREDICTED BY RF-SCORE:    0.00 PKD
ROOT
HETATM    1  C   UNL     1      -8.015  14.716  68.504  1.00  0.00    -0.136 C  
HETATM    2  N   UNL     1      -7.642  15.876  67.680  1.00  0.00    -0.139 NA 
HETATM    3  C   UNL     1      -6.235  15.767  67.286  1.00  0.00    -0.033 C  
ENDROOT
BRANCH   2   4
HETATM    4  C   UNL     1      -8.535  15.920  66.496  1.00  0.00    -0.313 C  
BRANCH   4   5
HETATM    5  C   UNL     1      -9.960  15.276  66.545  1.00  0.00    -0.265 C  
BRANCH   5   6
HETATM    6  O   UNL     1     -10.990  16.283  66.439  1.00  0.00    -0.168 OA 
BRANCH   6   7
HETATM    7  C   UNL     1     -10.626  17.532  66.885  1.00  0.00    -0.219 A  
HETATM    8  C   UNL     1     -10.334  18.623  66.061  1.00  0.00    -0.436 A  
HETATM    9  C   UNL     1     -10.503  17.687  68.268  1.00  0.00    -0.376 A  
HETATM   10  C   UNL     1     -10.005  19.867  66.605  1.00  0.00    -0.578 A  
HETATM   11  C   UNL     1      -9.934  20.025  67.984  1.00  0.00    -0.550 A  
HETATM   12  C   UNL     1     -10.167  18.931  68.815  1.00  0.00    -0.325 A  
ENDBRANCH   6   7
ENDBRANCH   5   6
BRANCH   5  13
HETATM   13  O   UNL     1     -10.011  14.415  65.389  1.00  0.00    -0.348 OA 
BRANCH  13  14
HETATM   14  C   UNL     1      -9.990  13.064  65.584  1.00  0.00    -0.230 A  
HETATM   15  C   UNL     1      -9.838  11.033  66.879  1.00  0.00    -0.222 A  
HETATM   16  C   UNL     1      -9.764  12.425  66.802  1.00  0.00    -0.226 A  
HETATM   17  C   UNL     1     -10.390  10.925  64.534  1.00  0.00    -0.417 A  
HETATM   18  C   UNL     1     -10.320  12.312  64.459  1.00  0.00    -0.339 A  
HETATM   19  C   UNL     1     -10.143  10.284  65.744  1.00  0.00    -0.325 A  
ENDBRANCH  13  14
ENDBRANCH   5  13
ENDBRANCH   4   5
ENDBRANCH   2   4
TORSDOF 6
ENDMDL
MODEL      157
REMARK 921   NORMALIZED FREE ENERGY PREDICTED BY IDOCK:   -3.46 KCAL/MOL
REMARK 922        TOTAL FREE ENERGY PREDICTED BY IDOCK:   -5.53 KCAL/MOL
REMARK 923 INTER-LIGAND FREE ENERGY PREDICTED BY IDOCK:   -5.66 KCAL/MOL
REMARK 924 INTRA-LIGAND FREE ENERGY PREDICTED BY IDOCK:    0.12 KCAL/MOL
REMARK 927      BINDING AFFINITY PREDICTED BY RF-SCORE:    0.00 PKD
ROOT
HETATM    1  C   UNL     1     -11.603  10.222  69.316  1.00  0.00    -0.119 C  
HETATM    2  N   UNL     1     -10.288  10.857  69.495  1.00  0.00    -0.159 NA 
HETATM    3  C   UNL     1      -9.233   9.923  69.093  1.00  0.00    -0.180 C  
ENDROOT
BRANCH   2   4
HETATM    4  C   UNL     1     -10.250  12.100  68.686  1.00  0.00    -0.174 C  
BRANCH   4   5
HETATM    5  C   UNL     1     -11.249  12.313  67.501  1.00  0.00    -0.297 C  
BRANCH   5   6
HETATM    6  O   UNL     1     -12.262  13.284  67.843  1.00  0.00    -0.275 OA 
BRANCH   6   7
HETATM    7  C   UNL     1     -11.942  14.107  68.897  1.00  0.00    -0.341 A  
HETATM    8  C   UNL     1     -11.175  15.272  68.800  1.00  0.00    -0.293 A  
HETATM    9  C   UNL     1     -12.391  13.707  70.158  1.00  0.00    -0.372 A  
HETATM   10  C   UNL     1     -10.928  16.066  69.922  1.00  0.00    -0.353 A  
HETATM   11  C   UNL     1     -11.421  15.686  71.164  1.00  0.00    -0.463 A  
HETATM   12  C   UNL     1     -12.139  14.499  71.285  1.00  0.00    -0.419 A  
ENDBRANCH   6   7
ENDBRANCH   5   6
BRANCH   5  13
HETATM   13  O   UNL     1     -10.435  12.829  66.428  1.00  0.00    -0.246 OA 
BRANCH  13  14
HETATM   14  C   UNL     1     -10.246  12.048  65.324  1.00  0.00    -0.271 A  
HETATM   15  C   UNL     1     -10.145  11.572  62.960  1.00  0.00    -0.330 A  
HETATM   16  C   UNL     1     -10.441  12.451  64.004  1.00  0.00    -0.443 A  
HETATM   17  C   UNL     1      -9.434   9.907  64.553  1.00  0.00    -0.328 A  
HETATM   18  C   UNL     1      -9.726  10.784  65.592  1.00  0.00    -0.287 A  
HETATM   19  C   UNL     1      -9.649  10.299  63.235  1.00  0.00    -0.305 A  
ENDBRANCH  13  14
ENDBRANCH   5  13
ENDBRANCH   4   5
ENDBRANCH   2   4
TORSDOF 6
ENDMDL
MODEL      158
REMARK 921   NORMALIZED FREE ENERGY PREDICTED BY IDOCK:   -3.46 KCAL/MOL
REMARK 922        TOTAL FREE ENERGY PREDICTED BY IDOCK:   -5.53 KCAL/MOL
REMARK 923 INTER-LIGAND FREE ENERGY PREDICTED BY IDOCK:   -5.49 KCAL/MOL
REMARK 924 INTRA-LIGAND FREE ENERGY PREDICTED BY IDOCK:   -0.04 KCAL/MOL
REMARK 927      BINDING AFFINITY PREDICTED BY RF-SCORE:    0.00 PKD
ROOT
HETATM    1  C   UNL     1     -12.316  12.111  63.594  1.00  0.00    -0.568 C  
HETATM    2  N   UNL     1     -11.698  13.065  64.529  1.00  0.00    -0.349 NA 
HETATM    3  C   UNL     1     -12.715  13.999  65.020  1.00  0.00    -0.328 C  
ENDROOT
BRANCH   2   4
HETATM    4  C   UNL     1     -11.079  12.302  65.640  1.00  0.00    -0.317 C  
BRANCH   4   5
HETATM    5  C   UNL     1     -10.724  13.005  66.992  1.00  0.00    -0.258 C  
BRANCH   5   6
HETATM    6  O   UNL     1     -10.251  12.050  67.967  1.00  0.00    -0.187 OA 
BRANCH   6   7
HETATM    7  C   UNL     1      -9.869  10.835  67.447  1.00  0.00    -0.177 A  
HETATM    8  C   UNL     1     -10.684   9.701  67.379  1.00  0.00    -0.308 A  
HETATM    9  C   UNL     1      -8.550  10.737  66.999  1.00  0.00    -0.130 A  
HETATM   10  C   UNL     1     -10.222   8.516  66.801  1.00  0.00    -0.370 A  
HETATM   11  C   UNL     1      -8.923   8.443  66.312  1.00  0.00    -0.213 A  
HETATM   12  C   UNL     1      -8.082   9.548  66.425  1.00  0.00    -0.111 A  
ENDBRANCH   6   7
ENDBRANCH   5   6
BRANCH   5  13
HETATM   13  O   UNL     1      -9.657  13.917  66.659  1.00  0.00    -0.270 OA 
BRANCH  13  14
HETATM   14  C   UNL     1      -9.862  15.253  66.851  1.00  0.00    -0.235 A  
HETATM   15  C   UNL     1      -9.960  17.576  66.206  1.00  0.00    -0.316 A  
HETATM   16  C   UNL     1      -9.644  16.250  65.902  1.00  0.00    -0.336 A  
HETATM   17  C   UNL     1     -10.736  16.901  68.387  1.00  0.00    -0.368 A  
HETATM   18  C   UNL     1     -10.424  15.581  68.083  1.00  0.00    -0.259 A  
HETATM   19  C   UNL     1     -10.498  17.902  67.450  1.00  0.00    -0.390 A  
ENDBRANCH  13  14
ENDBRANCH   5  13
ENDBRANCH   4   5
ENDBRANCH   2   4
TORSDOF 6
ENDMDL
MODEL      159
REMARK 921   NORMALIZED FREE ENERGY PREDICTED BY IDOCK:   -3.45 KCAL/MOL
REMARK 922        TOTAL FREE ENERGY PREDICTED BY IDOCK:   -5.51 KCAL/MOL
REMARK 923 INTER-LIGAND FREE ENERGY PREDICTED BY IDOCK:   -4.76 KCAL/MOL
REMARK 924 INTRA-LIGAND FREE ENERGY PREDICTED BY IDOCK:   -0.75 KCAL/MOL
REMARK 927      BINDING AFFINITY PREDICTED BY RF-SCORE:    0.00 PKD
ROOT
HETATM    1  C   UNL     1      -5.780  19.252  69.102  1.00  0.00    -0.215 C  
HETATM    2  N   UNL     1      -5.138  17.932  68.997  1.00  0.00    -0.166 NA 
HETATM    3  C   UNL     1      -5.576  17.083  70.108  1.00  0.00    -0.226 C  
ENDROOT
BRANCH   2   4
HETATM    4  C   UNL     1      -5.496  17.337  67.686  1.00  0.00    -0.120 C  
BRANCH   4   5
HETATM    5  C   UNL     1      -6.942  16.803  67.418  1.00  0.00    -0.153 C  
BRANCH   5   6
HETATM    6  O   UNL     1      -7.606  17.585  66.401  1.00  0.00    -0.242 OA 
BRANCH   6   7
HETATM    7  C   UNL     1      -8.483  18.531  66.879  1.00  0.00    -0.273 A  
HETATM    8  C   UNL     1      -8.841  19.703  66.208  1.00  0.00    -0.410 A  
HETATM    9  C   UNL     1      -9.010  18.301  68.153  1.00  0.00    -0.314 A  
HETATM   10  C   UNL     1      -9.769  20.591  66.758  1.00  0.00    -0.466 A  
HETATM   11  C   UNL     1     -10.326  20.330  68.004  1.00  0.00    -0.382 A  
HETATM   12  C   UNL     1      -9.935  19.194  68.709  1.00  0.00    -0.493 A  
ENDBRANCH   6   7
ENDBRANCH   5   6
BRANCH   5  13
HETATM   13  O   UNL     1      -6.749  15.457  66.936  1.00  0.00    -0.211 OA 
BRANCH  13  14
HETATM   14  C   UNL     1      -7.584  14.479  67.393  1.00  0.00    -0.184 A  
HETATM   15  C   UNL     1      -9.717  13.443  67.840  1.00  0.00    -0.226 A  
HETATM   16  C   UNL     1      -8.977  14.545  67.409  1.00  0.00    -0.207 A  
HETATM   17  C   UNL     1      -7.680  12.206  68.210  1.00  0.00    -0.135 A  
HETATM   18  C   UNL     1      -6.943  13.303  67.776  1.00  0.00    -0.154 A  
HETATM   19  C   UNL     1      -9.069  12.278  68.248  1.00  0.00    -0.187 A  
ENDBRANCH  13  14
ENDBRANCH   5  13
ENDBRANCH   4   5
ENDBRANCH   2   4
TORSDOF 6
ENDMDL
MODEL      160
REMARK 921   NORMALIZED FREE ENERGY PREDICTED BY IDOCK:   -3.44 KCAL/MOL
REMARK 922        TOTAL FREE ENERGY PREDICTED BY IDOCK:   -5.50 KCAL/MOL
REMARK 923 INTER-LIGAND FREE ENERGY PREDICTED BY IDOCK:   -5.54 KCAL/MOL
REMARK 924 INTRA-LIGAND FREE ENERGY PREDICTED BY IDOCK:    0.04 KCAL/MOL
REMARK 927      BINDING AFFINITY PREDICTED BY RF-SCORE:    0.00 PKD
ROOT
HETATM    1  C   UNL     1     -12.634  10.594  70.384  1.00  0.00    -0.316 C  
HETATM    2  N   UNL     1     -11.172  10.685  70.518  1.00  0.00    -0.268 NA 
HETATM    3  C   UNL     1     -10.646   9.419  71.032  1.00  0.00    -0.330 C  
ENDROOT
BRANCH   2   4
HETATM    4  C   UNL     1     -10.597  11.013  69.190  1.00  0.00    -0.219 C  
BRANCH   4   5
HETATM    5  C   UNL     1     -11.273  10.497  67.877  1.00  0.00    -0.289 C  
BRANCH   5   6
HETATM    6  O   UNL     1     -12.150  11.498  67.315  1.00  0.00    -0.548 OA 
BRANCH   6   7
HETATM    7  C   UNL     1     -11.568  12.727  67.110  1.00  0.00    -0.364 A  
HETATM    8  C   UNL     1     -10.638  13.017  66.108  1.00  0.00    -0.289 A  
HETATM    9  C   UNL     1     -11.915  13.737  68.011  1.00  0.00    -0.390 A  
HETATM   10  C   UNL     1     -10.124  14.306  65.954  1.00  0.00    -0.344 A  
HETATM   11  C   UNL     1     -10.513  15.317  66.825  1.00  0.00    -0.293 A  
HETATM   12  C   UNL     1     -11.395  15.029  67.863  1.00  0.00    -0.344 A  
ENDBRANCH   6   7
ENDBRANCH   5   6
BRANCH   5  13
HETATM   13  O   UNL     1     -10.175  10.260  66.971  1.00  0.00    -0.207 OA 
BRANCH  13  14
HETATM   14  C   UNL     1      -9.798   8.970  66.733  1.00  0.00    -0.234 A  
HETATM   15  C   UNL     1      -9.927   6.569  66.940  1.00  0.00    -0.227 A  
HETATM   16  C   UNL     1     -10.360   7.840  67.324  1.00  0.00    -0.371 A  
HETATM   17  C   UNL     1      -8.398   7.559  65.359  1.00  0.00    -0.129 A  
HETATM   18  C   UNL     1      -8.832   8.824  65.739  1.00  0.00    -0.233 A  
HETATM   19  C   UNL     1      -8.942   6.429  65.964  1.00  0.00    -0.143 A  
ENDBRANCH  13  14
ENDBRANCH   5  13
ENDBRANCH   4   5
ENDBRANCH   2   4
TORSDOF 6
ENDMDL
MODEL      161
REMARK 921   NORMALIZED FREE ENERGY PREDICTED BY IDOCK:   -3.43 KCAL/MOL
REMARK 922        TOTAL FREE ENERGY PREDICTED BY IDOCK:   -5.48 KCAL/MOL
REMARK 923 INTER-LIGAND FREE ENERGY PREDICTED BY IDOCK:   -5.37 KCAL/MOL
REMARK 924 INTRA-LIGAND FREE ENERGY PREDICTED BY IDOCK:   -0.11 KCAL/MOL
REMARK 927      BINDING AFFINITY PREDICTED BY RF-SCORE:    0.00 PKD
ROOT
HETATM    1  C   UNL     1      -7.164   8.294  71.552  1.00  0.00    -0.084 C  
HETATM    2  N   UNL     1      -7.786   7.236  70.741  1.00  0.00    -0.093 NA 
HETATM    3  C   UNL     1      -6.768   6.263  70.337  1.00  0.00    -0.053 C  
ENDROOT
BRANCH   2   4
HETATM    4  C   UNL     1      -8.859   6.597  71.544  1.00  0.00    -0.138 C  
BRANCH   4   5
HETATM    5  C   UNL     1     -10.360   6.974  71.315  1.00  0.00    -0.202 C  
BRANCH   5   6
HETATM    6  O   UNL     1     -10.484   8.086  70.401  1.00  0.00    -0.210 OA 
BRANCH   6   7
HETATM    7  C   UNL     1     -11.353   9.072  70.806  1.00  0.00    -0.277 A  
HETATM    8  C   UNL     1     -11.307  10.403  70.384  1.00  0.00    -0.417 A  
HETATM    9  C   UNL     1     -12.321   8.701  71.743  1.00  0.00    -0.402 A  
HETATM   10  C   UNL     1     -12.255  11.331  70.823  1.00  0.00    -0.479 A  
HETATM   11  C   UNL     1     -13.245  10.941  71.717  1.00  0.00    -0.513 A  
HETATM   12  C   UNL     1     -13.269   9.631  72.190  1.00  0.00    -0.535 A  
ENDBRANCH   6   7
ENDBRANCH   5   6
BRANCH   5  13
HETATM   13  O   UNL     1     -10.943   5.797  70.719  1.00  0.00    -0.283 OA 
BRANCH  13  14
HETATM   14  C   UNL     1     -10.540   5.438  69.465  1.00  0.00    -0.246 A  
HETATM   15  C   UNL     1      -9.428   4.061  67.824  1.00  0.00    -0.228 A  
HETATM   16  C   UNL     1      -9.708   4.362  69.158  1.00  0.00    -0.240 A  
HETATM   17  C   UNL     1     -10.830   5.888  67.108  1.00  0.00    -0.373 A  
HETATM   18  C   UNL     1     -11.112   6.185  68.437  1.00  0.00    -0.343 A  
HETATM   19  C   UNL     1      -9.982   4.828  66.801  1.00  0.00    -0.253 A  
ENDBRANCH  13  14
ENDBRANCH   5  13
ENDBRANCH   4   5
ENDBRANCH   2   4
TORSDOF 6
ENDMDL
MODEL      162
REMARK 921   NORMALIZED FREE ENERGY PREDICTED BY IDOCK:   -3.43 KCAL/MOL
REMARK 922        TOTAL FREE ENERGY PREDICTED BY IDOCK:   -5.48 KCAL/MOL
REMARK 923 INTER-LIGAND FREE ENERGY PREDICTED BY IDOCK:   -4.66 KCAL/MOL
REMARK 924 INTRA-LIGAND FREE ENERGY PREDICTED BY IDOCK:   -0.82 KCAL/MOL
REMARK 927      BINDING AFFINITY PREDICTED BY RF-SCORE:    0.00 PKD
ROOT
HETATM    1  C   UNL     1     -10.653  14.441  66.893  1.00  0.00    -0.278 C  
HETATM    2  N   UNL     1     -11.709  13.452  66.629  1.00  0.00    -0.364 NA 
HETATM    3  C   UNL     1     -12.450  13.834  65.424  1.00  0.00    -0.500 C  
ENDROOT
BRANCH   2   4
HETATM    4  C   UNL     1     -11.077  12.117  66.478  1.00  0.00    -0.307 C  
BRANCH   4   5
HETATM    5  C   UNL     1     -10.348  11.437  67.684  1.00  0.00    -0.183 C  
BRANCH   5   6
HETATM    6  O   UNL     1     -10.897  10.128  67.951  1.00  0.00    -0.251 OA 
BRANCH   6   7
HETATM    7  C   UNL     1     -11.206   9.889  69.270  1.00  0.00    -0.130 A  
HETATM    8  C   UNL     1     -10.636   8.884  70.057  1.00  0.00    -0.234 A  
HETATM    9  C   UNL     1     -12.197  10.697  69.832  1.00  0.00    -0.346 A  
HETATM   10  C   UNL     1     -10.987   8.738  71.401  1.00  0.00    -0.360 A  
HETATM   11  C   UNL     1     -11.939   9.578  71.966  1.00  0.00    -0.283 A  
HETATM   12  C   UNL     1     -12.556  10.547  71.178  1.00  0.00    -0.520 A  
ENDBRANCH   6   7
ENDBRANCH   5   6
BRANCH   5  13
HETATM   13  O   UNL     1      -8.979  11.303  67.252  1.00  0.00    -0.146 OA 
BRANCH  13  14
HETATM   14  C   UNL     1      -7.989  11.715  68.097  1.00  0.00    -0.141 A  
HETATM   15  C   UNL     1      -6.568  13.326  69.196  1.00  0.00    -0.105 A  
HETATM   16  C   UNL     1      -7.543  13.028  68.243  1.00  0.00    -0.135 A  
HETATM   17  C   UNL     1      -6.509  11.013  69.874  1.00  0.00    -0.144 A  
HETATM   18  C   UNL     1      -7.483  10.716  68.927  1.00  0.00    -0.108 A  
HETATM   19  C   UNL     1      -6.046  12.318  70.006  1.00  0.00    -0.130 A  
ENDBRANCH  13  14
ENDBRANCH   5  13
ENDBRANCH   4   5
ENDBRANCH   2   4
TORSDOF 6
ENDMDL
MODEL      163
REMARK 921   NORMALIZED FREE ENERGY PREDICTED BY IDOCK:   -3.40 KCAL/MOL
REMARK 922        TOTAL FREE ENERGY PREDICTED BY IDOCK:   -5.44 KCAL/MOL
REMARK 923 INTER-LIGAND FREE ENERGY PREDICTED BY IDOCK:   -4.61 KCAL/MOL
REMARK 924 INTRA-LIGAND FREE ENERGY PREDICTED BY IDOCK:   -0.83 KCAL/MOL
REMARK 927      BINDING AFFINITY PREDICTED BY RF-SCORE:    0.00 PKD
ROOT
HETATM    1  C   UNL     1     -10.195  10.815  65.331  1.00  0.00    -0.276 C  
HETATM    2  N   UNL     1      -9.805  11.073  66.725  1.00  0.00    -0.193 NA 
HETATM    3  C   UNL     1      -9.482  12.493  66.891  1.00  0.00    -0.219 C  
ENDROOT
BRANCH   2   4
HETATM    4  C   UNL     1     -10.924  10.664  67.610  1.00  0.00    -0.310 C  
BRANCH   4   5
HETATM    5  C   UNL     1     -10.890   9.290  68.359  1.00  0.00    -0.076 C  
BRANCH   5   6
HETATM    6  O   UNL     1      -9.591   8.669  68.247  1.00  0.00    -0.144 OA 
BRANCH   6   7
HETATM    7  C   UNL     1      -9.616   7.329  67.935  1.00  0.00    -0.139 A  
HETATM    8  C   UNL     1     -10.440   6.747  66.968  1.00  0.00    -0.369 A  
HETATM    9  C   UNL     1      -8.777   6.501  68.684  1.00  0.00    -0.123 A  
HETATM   10  C   UNL     1     -10.373   5.379  66.694  1.00  0.00    -0.325 A  
HETATM   11  C   UNL     1      -9.499   4.570  67.410  1.00  0.00    -0.189 A  
HETATM   12  C   UNL     1      -8.713   5.127  68.416  1.00  0.00    -0.104 A  
ENDBRANCH   6   7
ENDBRANCH   5   6
BRANCH   5  13
HETATM   13  O   UNL     1     -11.144   9.622  69.739  1.00  0.00    -0.238 OA 
BRANCH  13  14
HETATM   14  C   UNL     1     -11.127   8.615  70.662  1.00  0.00    -0.249 A  
HETATM   15  C   UNL     1     -11.619   6.415  71.523  1.00  0.00    -0.364 A  
HETATM   16  C   UNL     1     -11.774   7.388  70.533  1.00  0.00    -0.220 A  
HETATM   17  C   UNL     1     -10.149   7.884  72.747  1.00  0.00    -0.365 A  
HETATM   18  C   UNL     1     -10.301   8.851  71.760  1.00  0.00    -0.426 A  
HETATM   19  C   UNL     1     -10.813   6.666  72.632  1.00  0.00    -0.279 A  
ENDBRANCH  13  14
ENDBRANCH   5  13
ENDBRANCH   4   5
ENDBRANCH   2   4
TORSDOF 6
ENDMDL
MODEL      164
REMARK 921   NORMALIZED FREE ENERGY PREDICTED BY IDOCK:   -3.39 KCAL/MOL
REMARK 922        TOTAL FREE ENERGY PREDICTED BY IDOCK:   -5.43 KCAL/MOL
REMARK 923 INTER-LIGAND FREE ENERGY PREDICTED BY IDOCK:   -4.59 KCAL/MOL
REMARK 924 INTRA-LIGAND FREE ENERGY PREDICTED BY IDOCK:   -0.84 KCAL/MOL
REMARK 927      BINDING AFFINITY PREDICTED BY RF-SCORE:    0.00 PKD
ROOT
HETATM    1  C   UNL     1      -8.590   5.625  65.570  1.00  0.00    -0.151 C  
HETATM    2  N   UNL     1      -8.987   6.009  66.933  1.00  0.00    -0.115 NA 
HETATM    3  C   UNL     1      -8.314   5.143  67.904  1.00  0.00    -0.097 C  
ENDROOT
BRANCH   2   4
HETATM    4  C   UNL     1      -8.635   7.435  67.142  1.00  0.00    -0.118 C  
BRANCH   4   5
HETATM    5  C   UNL     1      -9.691   8.446  67.701  1.00  0.00    -0.160 C  
BRANCH   5   6
HETATM    6  O   UNL     1     -10.276   9.229  66.637  1.00  0.00    -0.256 OA 
BRANCH   6   7
HETATM    7  C   UNL     1     -10.182  10.591  66.804  1.00  0.00    -0.234 A  
HETATM    8  C   UNL     1     -10.826  11.541  66.007  1.00  0.00    -0.330 A  
HETATM    9  C   UNL     1      -9.341  11.036  67.827  1.00  0.00    -0.162 A  
HETATM   10  C   UNL     1     -10.700  12.907  66.272  1.00  0.00    -0.292 A  
HETATM   11  C   UNL     1      -9.900  13.339  67.323  1.00  0.00    -0.233 A  
HETATM   12  C   UNL     1      -9.208  12.405  68.090  1.00  0.00    -0.205 A  
ENDBRANCH   6   7
ENDBRANCH   5   6
BRANCH   5  13
HETATM   13  O   UNL     1     -10.708   7.616  68.299  1.00  0.00    -0.155 OA 
BRANCH  13  14
HETATM   14  C   UNL     1     -10.905   7.701  69.647  1.00  0.00    -0.191 A  
HETATM   15  C   UNL     1     -11.111   8.827  71.771  1.00  0.00    -0.417 A  
HETATM   16  C   UNL     1     -10.818   8.866  70.406  1.00  0.00    -0.269 A  
HETATM   17  C   UNL     1     -11.606   6.473  71.607  1.00  0.00    -0.357 A  
HETATM   18  C   UNL     1     -11.317   6.512  70.247  1.00  0.00    -0.456 A  
HETATM   19  C   UNL     1     -11.497   7.630  72.372  1.00  0.00    -0.392 A  
ENDBRANCH  13  14
ENDBRANCH   5  13
ENDBRANCH   4   5
ENDBRANCH   2   4
TORSDOF 6
ENDMDL
MODEL      165
REMARK 921   NORMALIZED FREE ENERGY PREDICTED BY IDOCK:   -3.38 KCAL/MOL
REMARK 922        TOTAL FREE ENERGY PREDICTED BY IDOCK:   -5.42 KCAL/MOL
REMARK 923 INTER-LIGAND FREE ENERGY PREDICTED BY IDOCK:   -4.54 KCAL/MOL
REMARK 924 INTRA-LIGAND FREE ENERGY PREDICTED BY IDOCK:   -0.87 KCAL/MOL
REMARK 927      BINDING AFFINITY PREDICTED BY RF-SCORE:    0.00 PKD
ROOT
HETATM    1  C   UNL     1     -10.275   8.407  69.519  1.00  0.00    -0.207 C  
HETATM    2  N   UNL     1     -10.184   7.460  68.396  1.00  0.00    -0.179 NA 
HETATM    3  C   UNL     1     -11.067   6.318  68.645  1.00  0.00    -0.325 C  
ENDROOT
BRANCH   2   4
HETATM    4  C   UNL     1     -10.556   8.172  67.148  1.00  0.00    -0.285 C  
BRANCH   4   5
HETATM    5  C   UNL     1     -10.121   9.657  66.915  1.00  0.00    -0.227 C  
BRANCH   5   6
HETATM    6  O   UNL     1      -9.308   9.781  65.728  1.00  0.00    -0.186 OA 
BRANCH   6   7
HETATM    7  C   UNL     1      -8.062  10.325  65.934  1.00  0.00    -0.143 A  
HETATM    8  C   UNL     1      -6.929  10.050  65.163  1.00  0.00    -0.134 A  
HETATM    9  C   UNL     1      -7.932  11.182  67.030  1.00  0.00    -0.145 A  
HETATM   10  C   UNL     1      -5.710  10.677  65.426  1.00  0.00    -0.133 A  
HETATM   11  C   UNL     1      -5.602  11.567  66.488  1.00  0.00    -0.119 A  
HETATM   12  C   UNL     1      -6.708  11.807  67.300  1.00  0.00    -0.133 A  
ENDBRANCH   6   7
ENDBRANCH   5   6
BRANCH   5  13
HETATM   13  O   UNL     1     -11.358  10.373  66.724  1.00  0.00    -0.094 OA 
BRANCH  13  14
HETATM   14  C   UNL     1     -11.496  11.599  67.310  1.00  0.00    -0.277 A  
HETATM   15  C   UNL     1     -11.326  13.211  69.098  1.00  0.00    -0.335 A  
HETATM   16  C   UNL     1     -11.207  11.897  68.641  1.00  0.00    -0.311 A  
HETATM   17  C   UNL     1     -11.990  13.927  66.893  1.00  0.00    -0.467 A  
HETATM   18  C   UNL     1     -11.867  12.619  66.437  1.00  0.00    -0.466 A  
HETATM   19  C   UNL     1     -11.724  14.223  68.227  1.00  0.00    -0.377 A  
ENDBRANCH  13  14
ENDBRANCH   5  13
ENDBRANCH   4   5
ENDBRANCH   2   4
TORSDOF 6
ENDMDL
MODEL      166
REMARK 921   NORMALIZED FREE ENERGY PREDICTED BY IDOCK:   -3.37 KCAL/MOL
REMARK 922        TOTAL FREE ENERGY PREDICTED BY IDOCK:   -5.41 KCAL/MOL
REMARK 923 INTER-LIGAND FREE ENERGY PREDICTED BY IDOCK:   -4.86 KCAL/MOL
REMARK 924 INTRA-LIGAND FREE ENERGY PREDICTED BY IDOCK:   -0.55 KCAL/MOL
REMARK 927      BINDING AFFINITY PREDICTED BY RF-SCORE:    0.00 PKD
ROOT
HETATM    1  C   UNL     1      -6.275  14.385  70.739  1.00  0.00    -0.116 C  
HETATM    2  N   UNL     1      -6.101  14.323  69.280  1.00  0.00    -0.094 NA 
HETATM    3  C   UNL     1      -7.005  13.315  68.719  1.00  0.00    -0.103 C  
ENDROOT
BRANCH   2   4
HETATM    4  C   UNL     1      -6.371  15.669  68.716  1.00  0.00    -0.104 C  
BRANCH   4   5
HETATM    5  C   UNL     1      -7.755  16.000  68.067  1.00  0.00    -0.133 C  
BRANCH   5   6
HETATM    6  O   UNL     1      -8.715  16.406  69.067  1.00  0.00    -0.248 OA 
BRANCH   6   7
HETATM    7  C   UNL     1      -9.791  15.561  69.212  1.00  0.00    -0.270 A  
HETATM    8  C   UNL     1     -10.420  15.267  70.425  1.00  0.00    -0.168 A  
HETATM    9  C   UNL     1     -10.245  14.928  68.053  1.00  0.00    -0.228 A  
HETATM   10  C   UNL     1     -11.531  14.421  70.472  1.00  0.00    -0.202 A  
HETATM   11  C   UNL     1     -12.007  13.835  69.305  1.00  0.00    -0.399 A  
HETATM   12  C   UNL     1     -11.355  14.075  68.098  1.00  0.00    -0.320 A  
ENDBRANCH   6   7
ENDBRANCH   5   6
BRANCH   5  13
HETATM   13  O   UNL     1      -7.487  17.109  67.184  1.00  0.00    -0.152 OA 
BRANCH  13  14
HETATM   14  C   UNL     1      -8.475  18.030  66.981  1.00  0.00    -0.237 A  
HETATM   15  C   UNL     1     -10.639  18.805  66.249  1.00  0.00    -0.429 A  
HETATM   16  C   UNL     1      -9.683  17.791  66.329  1.00  0.00    -0.277 A  
HETATM   17  C   UNL     1      -9.194  20.279  67.495  1.00  0.00    -0.491 A  
HETATM   18  C   UNL     1      -8.243  19.268  67.578  1.00  0.00    -0.320 A  
HETATM   19  C   UNL     1     -10.392  20.050  66.824  1.00  0.00    -0.564 A  
ENDBRANCH  13  14
ENDBRANCH   5  13
ENDBRANCH   4   5
ENDBRANCH   2   4
TORSDOF 6
ENDMDL
MODEL      167
REMARK 921   NORMALIZED FREE ENERGY PREDICTED BY IDOCK:   -3.35 KCAL/MOL
REMARK 922        TOTAL FREE ENERGY PREDICTED BY IDOCK:   -5.38 KCAL/MOL
REMARK 923 INTER-LIGAND FREE ENERGY PREDICTED BY IDOCK:   -5.40 KCAL/MOL
REMARK 924 INTRA-LIGAND FREE ENERGY PREDICTED BY IDOCK:    0.02 KCAL/MOL
REMARK 927      BINDING AFFINITY PREDICTED BY RF-SCORE:    0.00 PKD
ROOT
HETATM    1  C   UNL     1     -10.497  13.535  64.561  1.00  0.00    -0.407 C  
HETATM    2  N   UNL     1     -11.615  13.143  65.433  1.00  0.00    -0.322 NA 
HETATM    3  C   UNL     1     -12.772  12.775  64.614  1.00  0.00    -0.362 C  
ENDROOT
BRANCH   2   4
HETATM    4  C   UNL     1     -11.172  12.013  66.287  1.00  0.00    -0.342 C  
BRANCH   4   5
HETATM    5  C   UNL     1     -11.691  11.869  67.756  1.00  0.00    -0.292 C  
BRANCH   5   6
HETATM    6  O   UNL     1     -11.827  10.479  68.126  1.00  0.00    -0.417 OA 
BRANCH   6   7
HETATM    7  C   UNL     1     -10.701   9.715  67.926  1.00  0.00    -0.247 A  
HETATM    8  C   UNL     1     -10.525   8.808  66.878  1.00  0.00    -0.319 A  
HETATM    9  C   UNL     1      -9.687   9.841  68.879  1.00  0.00    -0.172 A  
HETATM   10  C   UNL     1      -9.330   8.098  66.734  1.00  0.00    -0.233 A  
HETATM   11  C   UNL     1      -8.307   8.267  67.659  1.00  0.00    -0.127 A  
HETATM   12  C   UNL     1      -8.491   9.125  68.741  1.00  0.00    -0.130 A  
ENDBRANCH   6   7
ENDBRANCH   5   6
BRANCH   5  13
HETATM   13  O   UNL     1     -10.667  12.482  68.565  1.00  0.00    -0.228 OA 
BRANCH  13  14
HETATM   14  C   UNL     1     -10.851  13.771  68.978  1.00  0.00    -0.217 A  
HETATM   15  C   UNL     1     -11.945  15.562  70.167  1.00  0.00    -0.389 A  
HETATM   16  C   UNL     1     -11.913  14.228  69.756  1.00  0.00    -0.394 A  
HETATM   17  C   UNL     1      -9.847  15.968  69.051  1.00  0.00    -0.239 A  
HETATM   18  C   UNL     1      -9.812  14.638  68.644  1.00  0.00    -0.224 A  
HETATM   19  C   UNL     1     -10.917  16.432  69.808  1.00  0.00    -0.341 A  
ENDBRANCH  13  14
ENDBRANCH   5  13
ENDBRANCH   4   5
ENDBRANCH   2   4
TORSDOF 6
ENDMDL
MODEL      168
REMARK 921   NORMALIZED FREE ENERGY PREDICTED BY IDOCK:   -3.29 KCAL/MOL
REMARK 922        TOTAL FREE ENERGY PREDICTED BY IDOCK:   -5.30 KCAL/MOL
REMARK 923 INTER-LIGAND FREE ENERGY PREDICTED BY IDOCK:   -4.66 KCAL/MOL
REMARK 924 INTRA-LIGAND FREE ENERGY PREDICTED BY IDOCK:   -0.64 KCAL/MOL
REMARK 927      BINDING AFFINITY PREDICTED BY RF-SCORE:    0.00 PKD
ROOT
HETATM    1  C   UNL     1      -8.517   8.284  65.411  1.00  0.00    -0.172 C  
HETATM    2  N   UNL     1      -9.488   9.080  66.175  1.00  0.00    -0.233 NA 
HETATM    3  C   UNL     1     -10.246   8.204  67.072  1.00  0.00    -0.308 C  
ENDROOT
BRANCH   2   4
HETATM    4  C   UNL     1      -8.751  10.124  66.930  1.00  0.00    -0.129 C  
BRANCH   4   5
HETATM    5  C   UNL     1      -9.283  11.594  66.988  1.00  0.00    -0.183 C  
BRANCH   5   6
HETATM    6  O   UNL     1     -10.724  11.631  66.889  1.00  0.00    -0.233 OA 
BRANCH   6   7
HETATM    7  C   UNL     1     -11.209  12.210  65.740  1.00  0.00    -0.339 A  
HETATM    8  C   UNL     1     -11.212  11.606  64.479  1.00  0.00    -0.335 A  
HETATM    9  C   UNL     1     -11.692  13.515  65.857  1.00  0.00    -0.380 A  
HETATM   10  C   UNL     1     -11.759  12.258  63.371  1.00  0.00    -0.542 A  
HETATM   11  C   UNL     1     -12.283  13.538  63.507  1.00  0.00    -0.410 A  
HETATM   12  C   UNL     1     -12.235  14.173  64.746  1.00  0.00    -0.457 A  
ENDBRANCH   6   7
ENDBRANCH   5   6
BRANCH   5  13
HETATM   13  O   UNL     1      -8.880  12.076  68.287  1.00  0.00    -0.179 OA 
BRANCH  13  14
HETATM   14  C   UNL     1      -7.706  12.764  68.388  1.00  0.00    -0.132 A  
HETATM   15  C   UNL     1      -5.411  13.109  69.049  1.00  0.00    -0.069 A  
HETATM   16  C   UNL     1      -6.575  12.339  69.083  1.00  0.00    -0.105 A  
HETATM   17  C   UNL     1      -6.498  14.707  67.607  1.00  0.00    -0.157 A  
HETATM   18  C   UNL     1      -7.656  13.937  67.637  1.00  0.00    -0.188 A  
HETATM   19  C   UNL     1      -5.375  14.295  68.318  1.00  0.00    -0.113 A  
ENDBRANCH  13  14
ENDBRANCH   5  13
ENDBRANCH   4   5
ENDBRANCH   2   4
TORSDOF 6
ENDMDL
MODEL      169
REMARK 921   NORMALIZED FREE ENERGY PREDICTED BY IDOCK:   -3.28 KCAL/MOL
REMARK 922        TOTAL FREE ENERGY PREDICTED BY IDOCK:   -5.28 KCAL/MOL
REMARK 923 INTER-LIGAND FREE ENERGY PREDICTED BY IDOCK:   -4.39 KCAL/MOL
REMARK 924 INTRA-LIGAND FREE ENERGY PREDICTED BY IDOCK:   -0.89 KCAL/MOL
REMARK 927      BINDING AFFINITY PREDICTED BY RF-SCORE:    0.00 PKD
ROOT
HETATM    1  C   UNL     1      -8.071  10.400  64.884  1.00  0.00    -0.130 C  
HETATM    2  N   UNL     1      -9.381  10.222  65.530  1.00  0.00    -0.184 NA 
HETATM    3  C   UNL     1      -9.352   9.029  66.379  1.00  0.00    -0.206 C  
ENDROOT
BRANCH   2   4
HETATM    4  C   UNL     1      -9.688  11.442  66.317  1.00  0.00    -0.212 C  
BRANCH   4   5
HETATM    5  C   UNL     1      -9.986  11.350  67.850  1.00  0.00    -0.177 C  
BRANCH   5   6
HETATM    6  O   UNL     1      -8.910  11.922  68.625  1.00  0.00    -0.139 OA 
BRANCH   6   7
HETATM    7  C   UNL     1      -8.116  11.007  69.276  1.00  0.00    -0.003 A  
HETATM    8  C   UNL     1      -6.719  11.024  69.289  1.00  0.00    -0.099 A  
HETATM    9  C   UNL     1      -8.778   9.966  69.932  1.00  0.00    -0.225 A  
HETATM   10  C   UNL     1      -5.994  10.070  70.008  1.00  0.00    -0.053 A  
HETATM   11  C   UNL     1      -6.663   9.067  70.699  1.00  0.00    -0.064 A  
HETATM   12  C   UNL     1      -8.053   9.004  70.648  1.00  0.00    -0.184 A  
ENDBRANCH   6   7
ENDBRANCH   5   6
BRANCH   5  13
HETATM   13  O   UNL     1     -11.181  12.137  68.036  1.00  0.00    -0.228 OA 
BRANCH  13  14
HETATM   14  C   UNL     1     -11.800  12.098  69.253  1.00  0.00    -0.313 A  
HETATM   15  C   UNL     1     -12.744  11.039  71.205  1.00  0.00    -0.521 A  
HETATM   16  C   UNL     1     -12.180  10.941  69.931  1.00  0.00    -0.408 A  
HETATM   17  C   UNL     1     -12.521  13.439  71.129  1.00  0.00    -0.414 A  
HETATM   18  C   UNL     1     -11.955  13.341  69.863  1.00  0.00    -0.400 A  
HETATM   19  C   UNL     1     -12.922  12.287  71.799  1.00  0.00    -0.431 A  
ENDBRANCH  13  14
ENDBRANCH   5  13
ENDBRANCH   4   5
ENDBRANCH   2   4
TORSDOF 6
ENDMDL
MODEL      170
REMARK 921   NORMALIZED FREE ENERGY PREDICTED BY IDOCK:   -3.27 KCAL/MOL
REMARK 922        TOTAL FREE ENERGY PREDICTED BY IDOCK:   -5.27 KCAL/MOL
REMARK 923 INTER-LIGAND FREE ENERGY PREDICTED BY IDOCK:   -4.63 KCAL/MOL
REMARK 924 INTRA-LIGAND FREE ENERGY PREDICTED BY IDOCK:   -0.64 KCAL/MOL
REMARK 927      BINDING AFFINITY PREDICTED BY RF-SCORE:    0.00 PKD
ROOT
HETATM    1  C   UNL     1     -10.362  12.872  64.036  1.00  0.00    -0.322 C  
HETATM    2  N   UNL     1     -11.308  13.890  64.517  1.00  0.00    -0.377 NA 
HETATM    3  C   UNL     1     -12.628  13.652  63.926  1.00  0.00    -0.059 C  
ENDROOT
BRANCH   2   4
HETATM    4  C   UNL     1     -11.358  13.824  65.999  1.00  0.00    -0.314 C  
BRANCH   4   5
HETATM    5  C   UNL     1     -10.072  13.497  66.828  1.00  0.00    -0.268 C  
BRANCH   5   6
HETATM    6  O   UNL     1      -9.859  14.477  67.867  1.00  0.00    -0.217 OA 
BRANCH   6   7
HETATM    7  C   UNL     1      -9.451  15.713  67.422  1.00  0.00    -0.215 A  
HETATM    8  C   UNL     1     -10.174  16.899  67.574  1.00  0.00    -0.295 A  
HETATM    9  C   UNL     1      -8.238  15.754  66.729  1.00  0.00    -0.302 A  
HETATM   10  C   UNL     1      -9.664  18.116  67.119  1.00  0.00    -0.301 A  
HETATM   11  C   UNL     1      -8.433  18.156  66.475  1.00  0.00    -0.283 A  
HETATM   12  C   UNL     1      -7.727  16.973  66.266  1.00  0.00    -0.346 A  
ENDBRANCH   6   7
ENDBRANCH   5   6
BRANCH   5  13
HETATM   13  O   UNL     1     -10.343  12.214  67.428  1.00  0.00    -0.203 OA 
BRANCH  13  14
HETATM   14  C   UNL     1      -9.593  11.143  67.036  1.00  0.00    -0.181 A  
HETATM   15  C   UNL     1      -9.202   8.984  66.031  1.00  0.00    -0.284 A  
HETATM   16  C   UNL     1     -10.087   9.979  66.450  1.00  0.00    -0.307 A  
HETATM   17  C   UNL     1      -7.335  10.327  66.757  1.00  0.00    -0.106 A  
HETATM   18  C   UNL     1      -8.217  11.320  67.170  1.00  0.00    -0.149 A  
HETATM   19  C   UNL     1      -7.828   9.155  66.192  1.00  0.00    -0.103 A  
ENDBRANCH  13  14
ENDBRANCH   5  13
ENDBRANCH   4   5
ENDBRANCH   2   4
TORSDOF 6
ENDMDL
MODEL      171
REMARK 921   NORMALIZED FREE ENERGY PREDICTED BY IDOCK:   -3.27 KCAL/MOL
REMARK 922        TOTAL FREE ENERGY PREDICTED BY IDOCK:   -5.27 KCAL/MOL
REMARK 923 INTER-LIGAND FREE ENERGY PREDICTED BY IDOCK:   -4.38 KCAL/MOL
REMARK 924 INTRA-LIGAND FREE ENERGY PREDICTED BY IDOCK:   -0.89 KCAL/MOL
REMARK 927      BINDING AFFINITY PREDICTED BY RF-SCORE:    0.00 PKD
ROOT
HETATM    1  C   UNL     1      -7.065  11.602  69.085  1.00  0.00    -0.090 C  
HETATM    2  N   UNL     1      -7.571  11.097  67.800  1.00  0.00    -0.097 NA 
HETATM    3  C   UNL     1      -8.846  10.408  68.009  1.00  0.00    -0.130 C  
ENDROOT
BRANCH   2   4
HETATM    4  C   UNL     1      -7.720  12.244  66.869  1.00  0.00    -0.015 C  
BRANCH   4   5
HETATM    5  C   UNL     1      -9.039  13.085  66.841  1.00  0.00    -0.227 C  
BRANCH   5   6
HETATM    6  O   UNL     1      -8.914  14.276  67.648  1.00  0.00    -0.178 OA 
BRANCH   6   7
HETATM    7  C   UNL     1      -9.961  14.503  68.510  1.00  0.00    -0.238 A  
HETATM    8  C   UNL     1     -10.306  15.749  69.042  1.00  0.00    -0.223 A  
HETATM    9  C   UNL     1     -10.696  13.382  68.904  1.00  0.00    -0.219 A  
HETATM   10  C   UNL     1     -11.410  15.891  69.885  1.00  0.00    -0.348 A  
HETATM   11  C   UNL     1     -12.166  14.778  70.232  1.00  0.00    -0.394 A  
HETATM   12  C   UNL     1     -11.800  13.521  69.755  1.00  0.00    -0.395 A  
ENDBRANCH   6   7
ENDBRANCH   5   6
BRANCH   5  13
HETATM   13  O   UNL     1      -9.203  13.459  65.458  1.00  0.00     0.235 OA 
BRANCH  13  14
HETATM   14  C   UNL     1     -10.422  13.268  64.875  1.00  0.00    -0.371 A  
HETATM   15  C   UNL     1     -12.642  13.897  64.168  1.00  0.00    -0.142 A  
HETATM   16  C   UNL     1     -11.467  14.191  64.862  1.00  0.00    -0.366 A  
HETATM   17  C   UNL     1     -11.716  11.779  63.479  1.00  0.00    -0.485 A  
HETATM   18  C   UNL     1     -10.544  12.074  64.167  1.00  0.00    -0.398 A  
HETATM   19  C   UNL     1     -12.769  12.689  63.484  1.00  0.00    -0.294 A  
ENDBRANCH  13  14
ENDBRANCH   5  13
ENDBRANCH   4   5
ENDBRANCH   2   4
TORSDOF 6
ENDMDL
MODEL      172
REMARK 921   NORMALIZED FREE ENERGY PREDICTED BY IDOCK:   -3.24 KCAL/MOL
REMARK 922        TOTAL FREE ENERGY PREDICTED BY IDOCK:   -5.23 KCAL/MOL
REMARK 923 INTER-LIGAND FREE ENERGY PREDICTED BY IDOCK:   -4.47 KCAL/MOL
REMARK 924 INTRA-LIGAND FREE ENERGY PREDICTED BY IDOCK:   -0.76 KCAL/MOL
REMARK 927      BINDING AFFINITY PREDICTED BY RF-SCORE:    0.00 PKD
ROOT
HETATM    1  C   UNL     1      -7.370  11.464  68.933  1.00  0.00    -0.114 C  
HETATM    2  N   UNL     1      -6.659  10.177  68.962  1.00  0.00    -0.051 NA 
HETATM    3  C   UNL     1      -6.506   9.731  70.350  1.00  0.00    -0.101 C  
ENDROOT
BRANCH   2   4
HETATM    4  C   UNL     1      -7.429   9.195  68.159  1.00  0.00    -0.083 C  
BRANCH   4   5
HETATM    5  C   UNL     1      -8.959   8.983  68.408  1.00  0.00    -0.133 C  
BRANCH   5   6
HETATM    6  O   UNL     1      -9.674   8.838  67.161  1.00  0.00    -0.165 OA 
BRANCH   6   7
HETATM    7  C   UNL     1     -10.172  10.010  66.641  1.00  0.00    -0.223 A  
HETATM    8  C   UNL     1     -10.987  10.910  67.333  1.00  0.00    -0.353 A  
HETATM    9  C   UNL     1      -9.863  10.279  65.306  1.00  0.00    -0.372 A  
HETATM   10  C   UNL     1     -11.420  12.096  66.733  1.00  0.00    -0.418 A  
HETATM   11  C   UNL     1     -11.065  12.379  65.420  1.00  0.00    -0.344 A  
HETATM   12  C   UNL     1     -10.301  11.464  64.700  1.00  0.00    -0.362 A  
ENDBRANCH   6   7
ENDBRANCH   5   6
BRANCH   5  13
HETATM   13  O   UNL     1      -9.039   7.749  69.151  1.00  0.00    -0.145 OA 
BRANCH  13  14
HETATM   14  C   UNL     1      -9.738   7.743  70.324  1.00  0.00    -0.179 A  
HETATM   15  C   UNL     1     -10.009   7.643  72.720  1.00  0.00    -0.298 A  
HETATM   16  C   UNL     1      -9.190   7.558  71.592  1.00  0.00    -0.152 A  
HETATM   17  C   UNL     1     -11.909   8.127  71.315  1.00  0.00    -0.317 A  
HETATM   18  C   UNL     1     -11.092   8.046  70.192  1.00  0.00    -0.191 A  
HETATM   19  C   UNL     1     -11.368   7.920  72.581  1.00  0.00    -0.468 A  
ENDBRANCH  13  14
ENDBRANCH   5  13
ENDBRANCH   4   5
ENDBRANCH   2   4
TORSDOF 6
ENDMDL
MODEL      173
REMARK 921   NORMALIZED FREE ENERGY PREDICTED BY IDOCK:   -3.23 KCAL/MOL
REMARK 922        TOTAL FREE ENERGY PREDICTED BY IDOCK:   -5.22 KCAL/MOL
REMARK 923 INTER-LIGAND FREE ENERGY PREDICTED BY IDOCK:   -4.39 KCAL/MOL
REMARK 924 INTRA-LIGAND FREE ENERGY PREDICTED BY IDOCK:   -0.83 KCAL/MOL
REMARK 927      BINDING AFFINITY PREDICTED BY RF-SCORE:    0.00 PKD
ROOT
HETATM    1  C   UNL     1     -10.238   8.613  69.394  1.00  0.00    -0.210 C  
HETATM    2  N   UNL     1     -10.109   8.060  68.037  1.00  0.00    -0.186 NA 
HETATM    3  C   UNL     1     -10.962   6.876  67.906  1.00  0.00    -0.183 C  
ENDROOT
BRANCH   2   4
HETATM    4  C   UNL     1     -10.488   9.112  67.061  1.00  0.00    -0.240 C  
BRANCH   4   5
HETATM    5  C   UNL     1     -10.180  10.618  67.350  1.00  0.00    -0.204 C  
BRANCH   5   6
HETATM    6  O   UNL     1      -9.267  11.160  66.370  1.00  0.00    -0.173 OA 
BRANCH   6   7
HETATM    7  C   UNL     1      -8.083  11.636  66.884  1.00  0.00    -0.164 A  
HETATM    8  C   UNL     1      -7.882  12.933  67.363  1.00  0.00    -0.170 A  
HETATM    9  C   UNL     1      -7.003  10.750  66.878  1.00  0.00    -0.109 A  
HETATM   10  C   UNL     1      -6.651  13.319  67.899  1.00  0.00    -0.145 A  
HETATM   11  C   UNL     1      -5.595  12.415  67.935  1.00  0.00    -0.085 A  
HETATM   12  C   UNL     1      -5.766  11.137  67.409  1.00  0.00    -0.052 A  
ENDBRANCH   6   7
ENDBRANCH   5   6
BRANCH   5  13
HETATM   13  O   UNL     1     -11.456  11.280  67.233  1.00  0.00    -0.464 OA 
BRANCH  13  14
HETATM   14  C   UNL     1     -11.690  12.381  68.005  1.00  0.00    -0.356 A  
HETATM   15  C   UNL     1     -12.277  14.683  68.429  1.00  0.00    -0.129 A  
HETATM   16  C   UNL     1     -11.991  13.656  67.528  1.00  0.00    -0.393 A  
HETATM   17  C   UNL     1     -11.990  13.157  70.274  1.00  0.00    -0.366 A  
HETATM   18  C   UNL     1     -11.709  12.133  69.376  1.00  0.00    -0.391 A  
HETATM   19  C   UNL     1     -12.269  14.435  69.801  1.00  0.00    -0.370 A  
ENDBRANCH  13  14
ENDBRANCH   5  13
ENDBRANCH   4   5
ENDBRANCH   2   4
TORSDOF 6
ENDMDL
MODEL      174
REMARK 921   NORMALIZED FREE ENERGY PREDICTED BY IDOCK:   -3.21 KCAL/MOL
REMARK 922        TOTAL FREE ENERGY PREDICTED BY IDOCK:   -5.19 KCAL/MOL
REMARK 923 INTER-LIGAND FREE ENERGY PREDICTED BY IDOCK:   -5.09 KCAL/MOL
REMARK 924 INTRA-LIGAND FREE ENERGY PREDICTED BY IDOCK:   -0.10 KCAL/MOL
REMARK 927      BINDING AFFINITY PREDICTED BY RF-SCORE:    0.00 PKD
ROOT
HETATM    1  C   UNL     1     -10.293  17.035  67.434  1.00  0.00    -0.319 C  
HETATM    2  N   UNL     1      -9.360  15.924  67.679  1.00  0.00    -0.216 NA 
HETATM    3  C   UNL     1      -9.179  15.744  69.121  1.00  0.00    -0.256 C  
ENDROOT
BRANCH   2   4
HETATM    4  C   UNL     1      -9.908  14.700  67.044  1.00  0.00    -0.244 C  
BRANCH   4   5
HETATM    5  C   UNL     1     -10.027  13.365  67.851  1.00  0.00    -0.236 C  
BRANCH   5   6
HETATM    6  O   UNL     1     -11.222  12.641  67.485  1.00  0.00    -0.258 OA 
BRANCH   6   7
HETATM    7  C   UNL     1     -11.379  12.429  66.135  1.00  0.00    -0.352 A  
HETATM    8  C   UNL     1     -10.577  11.588  65.358  1.00  0.00    -0.336 A  
HETATM    9  C   UNL     1     -12.395  13.153  65.506  1.00  0.00    -0.529 A  
HETATM   10  C   UNL     1     -10.833  11.408  63.996  1.00  0.00    -0.450 A  
HETATM   11  C   UNL     1     -11.878  12.094  63.389  1.00  0.00    -0.553 A  
HETATM   12  C   UNL     1     -12.648  12.979  64.140  1.00  0.00    -0.301 A  
ENDBRANCH   6   7
ENDBRANCH   5   6
BRANCH   5  13
HETATM   13  O   UNL     1      -8.867  12.601  67.465  1.00  0.00    -0.167 OA 
BRANCH  13  14
HETATM   14  C   UNL     1      -8.210  11.888  68.426  1.00  0.00    -0.160 A  
HETATM   15  C   UNL     1      -7.798   9.989  69.856  1.00  0.00    -0.185 A  
HETATM   16  C   UNL     1      -8.600  10.644  68.920  1.00  0.00    -0.158 A  
HETATM   17  C   UNL     1      -6.210  11.802  69.781  1.00  0.00    -0.138 A  
HETATM   18  C   UNL     1      -7.007  12.453  68.845  1.00  0.00    -0.091 A  
HETATM   19  C   UNL     1      -6.609  10.571  70.292  1.00  0.00    -0.138 A  
ENDBRANCH  13  14
ENDBRANCH   5  13
ENDBRANCH   4   5
ENDBRANCH   2   4
TORSDOF 6
ENDMDL
MODEL      175
REMARK 921   NORMALIZED FREE ENERGY PREDICTED BY IDOCK:   -3.21 KCAL/MOL
REMARK 922        TOTAL FREE ENERGY PREDICTED BY IDOCK:   -5.19 KCAL/MOL
REMARK 923 INTER-LIGAND FREE ENERGY PREDICTED BY IDOCK:   -4.93 KCAL/MOL
REMARK 924 INTRA-LIGAND FREE ENERGY PREDICTED BY IDOCK:   -0.26 KCAL/MOL
REMARK 927      BINDING AFFINITY PREDICTED BY RF-SCORE:    0.00 PKD
ROOT
HETATM    1  C   UNL     1      -8.536   8.282  65.416  1.00  0.00    -0.151 C  
HETATM    2  N   UNL     1      -9.572   9.059  66.114  1.00  0.00    -0.254 NA 
HETATM    3  C   UNL     1     -10.318   8.182  67.019  1.00  0.00    -0.333 C  
ENDROOT
BRANCH   2   4
HETATM    4  C   UNL     1      -8.914  10.167  66.850  1.00  0.00    -0.132 C  
BRANCH   4   5
HETATM    5  C   UNL     1      -9.500  11.616  66.806  1.00  0.00    -0.186 C  
BRANCH   5   6
HETATM    6  O   UNL     1     -10.934  11.592  66.630  1.00  0.00    -0.274 OA 
BRANCH   6   7
HETATM    7  C   UNL     1     -11.385  12.187  65.475  1.00  0.00    -0.344 A  
HETATM    8  C   UNL     1     -11.306  11.621  64.199  1.00  0.00    -0.397 A  
HETATM    9  C   UNL     1     -11.919  13.471  65.605  1.00  0.00    -0.429 A  
HETATM   10  C   UNL     1     -11.822  12.286  63.085  1.00  0.00    -0.328 A  
HETATM   11  C   UNL     1     -12.397  13.543  63.230  1.00  0.00    -0.150 A  
HETATM   12  C   UNL     1     -12.431  14.143  64.487  1.00  0.00    -0.350 A  
ENDBRANCH   6   7
ENDBRANCH   5   6
BRANCH   5  13
HETATM   13  O   UNL     1      -9.186  12.176  68.098  1.00  0.00    -0.187 OA 
BRANCH  13  14
HETATM   14  C   UNL     1     -10.217  12.557  68.907  1.00  0.00     0.009 A  
HETATM   15  C   UNL     1     -11.698  14.128  69.987  1.00  0.00    -0.358 A  
HETATM   16  C   UNL     1     -10.576  13.873  69.196  1.00  0.00    -0.124 A  
HETATM   17  C   UNL     1     -12.115  11.760  70.173  1.00  0.00    -0.398 A  
HETATM   18  C   UNL     1     -11.000  11.507  69.382  1.00  0.00    -0.233 A  
HETATM   19  C   UNL     1     -12.462  13.072  70.481  1.00  0.00    -0.306 A  
ENDBRANCH  13  14
ENDBRANCH   5  13
ENDBRANCH   4   5
ENDBRANCH   2   4
TORSDOF 6
ENDMDL
MODEL      176
REMARK 921   NORMALIZED FREE ENERGY PREDICTED BY IDOCK:   -3.20 KCAL/MOL
REMARK 922        TOTAL FREE ENERGY PREDICTED BY IDOCK:   -5.18 KCAL/MOL
REMARK 923 INTER-LIGAND FREE ENERGY PREDICTED BY IDOCK:   -4.65 KCAL/MOL
REMARK 924 INTRA-LIGAND FREE ENERGY PREDICTED BY IDOCK:   -0.54 KCAL/MOL
REMARK 927      BINDING AFFINITY PREDICTED BY RF-SCORE:    0.00 PKD
ROOT
HETATM    1  C   UNL     1      -6.037  17.321  68.916  1.00  0.00    -0.182 C  
HETATM    2  N   UNL     1      -5.623  15.964  68.528  1.00  0.00    -0.098 NA 
HETATM    3  C   UNL     1      -5.987  15.018  69.585  1.00  0.00    -0.116 C  
ENDROOT
BRANCH   2   4
HETATM    4  C   UNL     1      -6.279  15.621  67.242  1.00  0.00     0.024 C  
BRANCH   4   5
HETATM    5  C   UNL     1      -7.664  16.240  66.860  1.00  0.00    -0.243 C  
BRANCH   5   6
HETATM    6  O   UNL     1      -7.542  17.133  65.732  1.00  0.00    -0.381 OA 
BRANCH   6   7
HETATM    7  C   UNL     1      -7.306  18.448  66.058  1.00  0.00    -0.238 A  
HETATM    8  C   UNL     1      -8.222  19.294  66.690  1.00  0.00    -0.305 A  
HETATM    9  C   UNL     1      -6.065  18.969  65.682  1.00  0.00    -0.251 A  
HETATM   10  C   UNL     1      -7.881  20.609  67.015  1.00  0.00    -0.307 A  
HETATM   11  C   UNL     1      -6.626  21.104  66.681  1.00  0.00    -0.323 A  
HETATM   12  C   UNL     1      -5.724  20.290  66.000  1.00  0.00    -0.201 A  
ENDBRANCH   6   7
ENDBRANCH   5   6
BRANCH   5  13
HETATM   13  O   UNL     1      -8.478  15.109  66.489  1.00  0.00    -0.244 OA 
BRANCH  13  14
HETATM   14  C   UNL     1      -9.661  14.918  67.145  1.00  0.00    -0.225 A  
HETATM   15  C   UNL     1     -11.550  15.561  68.501  1.00  0.00    -0.379 A  
HETATM   16  C   UNL     1     -10.306  15.862  67.942  1.00  0.00    -0.269 A  
HETATM   17  C   UNL     1     -11.512  13.394  67.445  1.00  0.00    -0.368 A  
HETATM   18  C   UNL     1     -10.275  13.695  66.885  1.00  0.00    -0.261 A  
HETATM   19  C   UNL     1     -12.148  14.326  68.259  1.00  0.00    -0.278 A  
ENDBRANCH  13  14
ENDBRANCH   5  13
ENDBRANCH   4   5
ENDBRANCH   2   4
TORSDOF 6
ENDMDL
MODEL      177
REMARK 921   NORMALIZED FREE ENERGY PREDICTED BY IDOCK:   -3.19 KCAL/MOL
REMARK 922        TOTAL FREE ENERGY PREDICTED BY IDOCK:   -5.16 KCAL/MOL
REMARK 923 INTER-LIGAND FREE ENERGY PREDICTED BY IDOCK:   -4.31 KCAL/MOL
REMARK 924 INTRA-LIGAND FREE ENERGY PREDICTED BY IDOCK:   -0.85 KCAL/MOL
REMARK 927      BINDING AFFINITY PREDICTED BY RF-SCORE:    0.00 PKD
ROOT
HETATM    1  C   UNL     1     -12.378  11.681  70.808  1.00  0.00    -0.358 C  
HETATM    2  N   UNL     1     -11.909  11.314  69.463  1.00  0.00    -0.326 NA 
HETATM    3  C   UNL     1     -12.097  12.446  68.551  1.00  0.00    -0.075 C  
ENDROOT
BRANCH   2   4
HETATM    4  C   UNL     1     -10.481  10.921  69.554  1.00  0.00    -0.138 C  
BRANCH   4   5
HETATM    5  C   UNL     1     -10.061   9.415  69.495  1.00  0.00    -0.205 C  
BRANCH   5   6
HETATM    6  O   UNL     1     -11.190   8.550  69.747  1.00  0.00    -0.129 OA 
BRANCH   6   7
HETATM    7  C   UNL     1     -11.059   7.734  70.846  1.00  0.00    -0.259 A  
HETATM    8  C   UNL     1     -11.310   6.359  70.858  1.00  0.00    -0.398 A  
HETATM    9  C   UNL     1     -10.687   8.356  72.041  1.00  0.00    -0.387 A  
HETATM   10  C   UNL     1     -11.116   5.603  72.017  1.00  0.00    -0.291 A  
HETATM   11  C   UNL     1     -10.697   6.221  73.188  1.00  0.00    -0.286 A  
HETATM   12  C   UNL     1     -10.499   7.600  73.205  1.00  0.00    -0.414 A  
ENDBRANCH   6   7
ENDBRANCH   5   6
BRANCH   5  13
HETATM   13  O   UNL     1      -9.601   9.218  68.142  1.00  0.00    -0.141 OA 
BRANCH  13  14
HETATM   14  C   UNL     1      -9.104   7.994  67.798  1.00  0.00    -0.131 A  
HETATM   15  C   UNL     1      -7.706   6.042  68.042  1.00  0.00    -0.101 A  
HETATM   16  C   UNL     1      -8.074   7.324  68.455  1.00  0.00    -0.125 A  
HETATM   17  C   UNL     1      -9.414   6.091  66.340  1.00  0.00    -0.174 A  
HETATM   18  C   UNL     1      -9.782   7.366  66.755  1.00  0.00    -0.271 A  
HETATM   19  C   UNL     1      -8.371   5.430  66.981  1.00  0.00    -0.107 A  
ENDBRANCH  13  14
ENDBRANCH   5  13
ENDBRANCH   4   5
ENDBRANCH   2   4
TORSDOF 6
ENDMDL
MODEL      178
REMARK 921   NORMALIZED FREE ENERGY PREDICTED BY IDOCK:   -3.18 KCAL/MOL
REMARK 922        TOTAL FREE ENERGY PREDICTED BY IDOCK:   -5.14 KCAL/MOL
REMARK 923 INTER-LIGAND FREE ENERGY PREDICTED BY IDOCK:   -4.52 KCAL/MOL
REMARK 924 INTRA-LIGAND FREE ENERGY PREDICTED BY IDOCK:   -0.62 KCAL/MOL
REMARK 927      BINDING AFFINITY PREDICTED BY RF-SCORE:    0.00 PKD
ROOT
HETATM    1  C   UNL     1     -11.127   6.261  68.395  1.00  0.00    -0.279 C  
HETATM    2  N   UNL     1      -9.695   6.037  68.146  1.00  0.00    -0.123 NA 
HETATM    3  C   UNL     1      -9.431   6.101  66.706  1.00  0.00    -0.146 C  
ENDROOT
BRANCH   2   4
HETATM    4  C   UNL     1      -8.922   7.066  68.885  1.00  0.00    -0.129 C  
BRANCH   4   5
HETATM    5  C   UNL     1      -9.582   7.881  70.046  1.00  0.00    -0.168 C  
BRANCH   5   6
HETATM    6  O   UNL     1      -8.849   7.718  71.279  1.00  0.00    -0.129 OA 
BRANCH   6   7
HETATM    7  C   UNL     1      -9.461   6.916  72.214  1.00  0.00    -0.140 A  
HETATM    8  C   UNL     1      -9.720   7.283  73.538  1.00  0.00    -0.315 A  
HETATM    9  C   UNL     1      -9.803   5.627  71.799  1.00  0.00    -0.208 A  
HETATM   10  C   UNL     1     -10.380   6.412  74.409  1.00  0.00    -0.268 A  
HETATM   11  C   UNL     1     -10.761   5.150  73.972  1.00  0.00    -0.320 A  
HETATM   12  C   UNL     1     -10.458   4.750  72.672  1.00  0.00    -0.260 A  
ENDBRANCH   6   7
ENDBRANCH   5   6
BRANCH   5  13
HETATM   13  O   UNL     1      -9.499   9.256  69.618  1.00  0.00    -0.163 OA 
BRANCH  13  14
HETATM   14  C   UNL     1     -10.567  10.074  69.849  1.00  0.00    -0.282 A  
HETATM   15  C   UNL     1     -12.588  10.788  70.958  1.00  0.00    -0.520 A  
HETATM   16  C   UNL     1     -11.586   9.834  70.770  1.00  0.00    -0.417 A  
HETATM   17  C   UNL     1     -11.537  12.226  69.332  1.00  0.00    -0.378 A  
HETATM   18  C   UNL     1     -10.537  11.278  69.148  1.00  0.00    -0.222 A  
HETATM   19  C   UNL     1     -12.568  11.979  70.234  1.00  0.00    -0.060 A  
ENDBRANCH  13  14
ENDBRANCH   5  13
ENDBRANCH   4   5
ENDBRANCH   2   4
TORSDOF 6
ENDMDL
MODEL      179
REMARK 921   NORMALIZED FREE ENERGY PREDICTED BY IDOCK:   -3.18 KCAL/MOL
REMARK 922        TOTAL FREE ENERGY PREDICTED BY IDOCK:   -5.14 KCAL/MOL
REMARK 923 INTER-LIGAND FREE ENERGY PREDICTED BY IDOCK:   -4.26 KCAL/MOL
REMARK 924 INTRA-LIGAND FREE ENERGY PREDICTED BY IDOCK:   -0.88 KCAL/MOL
REMARK 927      BINDING AFFINITY PREDICTED BY RF-SCORE:    0.00 PKD
ROOT
HETATM    1  C   UNL     1      -6.780  12.022  68.287  1.00  0.00    -0.061 C  
HETATM    2  N   UNL     1      -6.324  10.635  68.109  1.00  0.00    -0.057 NA 
HETATM    3  C   UNL     1      -6.968   9.774  69.104  1.00  0.00    -0.055 C  
ENDROOT
BRANCH   2   4
HETATM    4  C   UNL     1      -6.651  10.206  66.727  1.00  0.00    -0.073 C  
BRANCH   4   5
HETATM    5  C   UNL     1      -8.132   9.928  66.305  1.00  0.00    -0.114 C  
BRANCH   5   6
HETATM    6  O   UNL     1      -8.500  10.712  65.150  1.00  0.00    -0.175 OA 
BRANCH   6   7
HETATM    7  C   UNL     1      -9.683  11.404  65.273  1.00  0.00    -0.241 A  
HETATM    8  C   UNL     1     -10.405  11.550  66.461  1.00  0.00    -0.269 A  
HETATM    9  C   UNL     1     -10.204  11.958  64.102  1.00  0.00    -0.364 A  
HETATM   10  C   UNL     1     -11.582  12.301  66.500  1.00  0.00    -0.440 A  
HETATM   11  C   UNL     1     -12.067  12.891  65.339  1.00  0.00    -0.501 A  
HETATM   12  C   UNL     1     -11.388  12.707  64.137  1.00  0.00    -0.439 A  
ENDBRANCH   6   7
ENDBRANCH   5   6
BRANCH   5  13
HETATM   13  O   UNL     1      -8.156   8.527  65.960  1.00  0.00    -0.102 OA 
BRANCH  13  14
HETATM   14  C   UNL     1      -8.959   7.694  66.685  1.00  0.00    -0.156 A  
HETATM   15  C   UNL     1     -11.057   6.774  67.441  1.00  0.00    -0.366 A  
HETATM   16  C   UNL     1     -10.352   7.730  66.708  1.00  0.00    -0.348 A  
HETATM   17  C   UNL     1      -8.983   5.734  68.098  1.00  0.00    -0.114 A  
HETATM   18  C   UNL     1      -8.281   6.684  67.365  1.00  0.00    -0.121 A  
HETATM   19  C   UNL     1     -10.373   5.781  68.141  1.00  0.00    -0.264 A  
ENDBRANCH  13  14
ENDBRANCH   5  13
ENDBRANCH   4   5
ENDBRANCH   2   4
TORSDOF 6
ENDMDL
MODEL      180
REMARK 921   NORMALIZED FREE ENERGY PREDICTED BY IDOCK:   -3.17 KCAL/MOL
REMARK 922        TOTAL FREE ENERGY PREDICTED BY IDOCK:   -5.14 KCAL/MOL
REMARK 923 INTER-LIGAND FREE ENERGY PREDICTED BY IDOCK:   -4.46 KCAL/MOL
REMARK 924 INTRA-LIGAND FREE ENERGY PREDICTED BY IDOCK:   -0.68 KCAL/MOL
REMARK 927      BINDING AFFINITY PREDICTED BY RF-SCORE:    0.00 PKD
ROOT
HETATM    1  C   UNL     1      -6.404  15.325  68.278  1.00  0.00    -0.114 C  
HETATM    2  N   UNL     1      -7.091  14.285  67.496  1.00  0.00    -0.184 NA 
HETATM    3  C   UNL     1      -6.789  12.967  68.059  1.00  0.00    -0.113 C  
ENDROOT
BRANCH   2   4
HETATM    4  C   UNL     1      -8.548  14.565  67.518  1.00  0.00    -0.189 C  
BRANCH   4   5
HETATM    5  C   UNL     1      -9.578  13.472  67.079  1.00  0.00    -0.248 C  
BRANCH   5   6
HETATM    6  O   UNL     1     -10.472  13.135  68.162  1.00  0.00    -0.234 OA 
BRANCH   6   7
HETATM    7  C   UNL     1     -10.501  11.801  68.494  1.00  0.00    -0.215 A  
HETATM    8  C   UNL     1     -10.298  11.290  69.779  1.00  0.00     0.324 A  
HETATM    9  C   UNL     1     -10.709  10.903  67.444  1.00  0.00    -0.305 A  
HETATM   10  C   UNL     1     -10.380   9.918  70.029  1.00  0.00    -0.320 A  
HETATM   11  C   UNL     1     -10.637   9.036  68.987  1.00  0.00    -0.209 A  
HETATM   12  C   UNL     1     -10.785   9.527  67.691  1.00  0.00    -0.314 A  
ENDBRANCH   6   7
ENDBRANCH   5   6
BRANCH   5  13
HETATM   13  O   UNL     1     -10.329  14.087  66.012  1.00  0.00    -0.289 OA 
BRANCH  13  14
HETATM   14  C   UNL     1     -11.003  13.278  65.143  1.00  0.00    -0.299 A  
HETATM   15  C   UNL     1     -12.924  12.495  63.910  1.00  0.00    -0.197 A  
HETATM   16  C   UNL     1     -12.370  13.338  64.875  1.00  0.00    -0.476 A  
HETATM   17  C   UNL     1     -10.746  11.559  63.464  1.00  0.00    -0.483 A  
HETATM   18  C   UNL     1     -10.194  12.402  64.423  1.00  0.00    -0.342 A  
HETATM   19  C   UNL     1     -12.114  11.601  63.210  1.00  0.00    -0.255 A  
ENDBRANCH  13  14
ENDBRANCH   5  13
ENDBRANCH   4   5
ENDBRANCH   2   4
TORSDOF 6
ENDMDL
MODEL      181
REMARK 921   NORMALIZED FREE ENERGY PREDICTED BY IDOCK:   -3.15 KCAL/MOL
REMARK 922        TOTAL FREE ENERGY PREDICTED BY IDOCK:   -5.11 KCAL/MOL
REMARK 923 INTER-LIGAND FREE ENERGY PREDICTED BY IDOCK:   -4.15 KCAL/MOL
REMARK 924 INTRA-LIGAND FREE ENERGY PREDICTED BY IDOCK:   -0.96 KCAL/MOL
REMARK 927      BINDING AFFINITY PREDICTED BY RF-SCORE:    0.00 PKD
ROOT
HETATM    1  C   UNL     1     -10.256   8.466  69.330  1.00  0.00    -0.208 C  
HETATM    2  N   UNL     1      -9.788   7.253  68.641  1.00  0.00    -0.157 NA 
HETATM    3  C   UNL     1     -10.820   6.216  68.717  1.00  0.00    -0.336 C  
ENDROOT
BRANCH   2   4
HETATM    4  C   UNL     1      -9.472   7.603  67.234  1.00  0.00    -0.148 C  
BRANCH   4   5
HETATM    5  C   UNL     1      -9.055   9.060  66.847  1.00  0.00    -0.132 C  
BRANCH   5   6
HETATM    6  O   UNL     1      -7.622   9.226  66.914  1.00  0.00    -0.090 OA 
BRANCH   6   7
HETATM    7  C   UNL     1      -7.203  10.375  67.544  1.00  0.00    -0.087 A  
HETATM    8  C   UNL     1      -7.014  11.610  66.916  1.00  0.00    -0.123 A  
HETATM    9  C   UNL     1      -6.909  10.266  68.905  1.00  0.00    -0.059 A  
HETATM   10  C   UNL     1      -6.618  12.734  67.645  1.00  0.00    -0.150 A  
HETATM   11  C   UNL     1      -6.375  12.627  69.009  1.00  0.00    -0.092 A  
HETATM   12  C   UNL     1      -6.505  11.390  69.637  1.00  0.00    -0.133 A  
ENDBRANCH   6   7
ENDBRANCH   5   6
BRANCH   5  13
HETATM   13  O   UNL     1      -9.490   9.211  65.480  1.00  0.00    -0.250 OA 
BRANCH  13  14
HETATM   14  C   UNL     1      -9.966  10.428  65.082  1.00  0.00    -0.322 A  
HETATM   15  C   UNL     1     -10.940  12.614  65.389  1.00  0.00    -0.320 A  
HETATM   16  C   UNL     1     -10.558  11.377  65.912  1.00  0.00    -0.317 A  
HETATM   17  C   UNL     1     -10.112  11.962  63.220  1.00  0.00    -0.427 A  
HETATM   18  C   UNL     1      -9.728  10.732  63.742  1.00  0.00    -0.372 A  
HETATM   19  C   UNL     1     -10.724  12.903  64.043  1.00  0.00    -0.429 A  
ENDBRANCH  13  14
ENDBRANCH   5  13
ENDBRANCH   4   5
ENDBRANCH   2   4
TORSDOF 6
ENDMDL
MODEL      182
REMARK 921   NORMALIZED FREE ENERGY PREDICTED BY IDOCK:   -3.15 KCAL/MOL
REMARK 922        TOTAL FREE ENERGY PREDICTED BY IDOCK:   -5.10 KCAL/MOL
REMARK 923 INTER-LIGAND FREE ENERGY PREDICTED BY IDOCK:   -4.59 KCAL/MOL
REMARK 924 INTRA-LIGAND FREE ENERGY PREDICTED BY IDOCK:   -0.52 KCAL/MOL
REMARK 927      BINDING AFFINITY PREDICTED BY RF-SCORE:    0.00 PKD
ROOT
HETATM    1  C   UNL     1     -10.033  10.350  64.855  1.00  0.00    -0.339 C  
HETATM    2  N   UNL     1      -9.619  10.062  66.237  1.00  0.00    -0.189 NA 
HETATM    3  C   UNL     1     -10.340  10.942  67.160  1.00  0.00    -0.220 C  
ENDROOT
BRANCH   2   4
HETATM    4  C   UNL     1      -9.896   8.632  66.523  1.00  0.00    -0.278 C  
BRANCH   4   5
HETATM    5  C   UNL     1      -9.578   8.022  67.928  1.00  0.00    -0.155 C  
BRANCH   5   6
HETATM    6  O   UNL     1     -10.731   7.345  68.475  1.00  0.00    -0.182 OA 
BRANCH   6   7
HETATM    7  C   UNL     1     -10.992   7.623  69.796  1.00  0.00    -0.170 A  
HETATM    8  C   UNL     1     -10.662   8.818  70.444  1.00  0.00    -0.254 A  
HETATM    9  C   UNL     1     -11.593   6.605  70.539  1.00  0.00    -0.448 A  
HETATM   10  C   UNL     1     -10.997   9.026  71.784  1.00  0.00    -0.443 A  
HETATM   11  C   UNL     1     -11.641   8.025  72.502  1.00  0.00    -0.464 A  
HETATM   12  C   UNL     1     -11.924   6.809  71.885  1.00  0.00    -0.374 A  
ENDBRANCH   6   7
ENDBRANCH   5   6
BRANCH   5  13
HETATM   13  O   UNL     1      -8.532   7.060  67.679  1.00  0.00    -0.122 OA 
BRANCH  13  14
HETATM   14  C   UNL     1      -8.875   5.742  67.574  1.00  0.00    -0.106 A  
HETATM   15  C   UNL     1      -9.540   3.730  66.421  1.00  0.00    -0.179 A  
HETATM   16  C   UNL     1      -9.284   5.102  66.406  1.00  0.00    -0.141 A  
HETATM   17  C   UNL     1      -8.952   3.637  68.758  1.00  0.00    -0.181 A  
HETATM   18  C   UNL     1      -8.693   5.003  68.741  1.00  0.00    -0.101 A  
HETATM   19  C   UNL     1      -9.382   2.999  67.598  1.00  0.00    -0.242 A  
ENDBRANCH  13  14
ENDBRANCH   5  13
ENDBRANCH   4   5
ENDBRANCH   2   4
TORSDOF 6
ENDMDL
MODEL      183
REMARK 921   NORMALIZED FREE ENERGY PREDICTED BY IDOCK:   -3.14 KCAL/MOL
REMARK 922        TOTAL FREE ENERGY PREDICTED BY IDOCK:   -5.09 KCAL/MOL
REMARK 923 INTER-LIGAND FREE ENERGY PREDICTED BY IDOCK:   -4.81 KCAL/MOL
REMARK 924 INTRA-LIGAND FREE ENERGY PREDICTED BY IDOCK:   -0.28 KCAL/MOL
REMARK 927      BINDING AFFINITY PREDICTED BY RF-SCORE:    0.00 PKD
ROOT
HETATM    1  C   UNL     1      -7.749   8.240  72.214  1.00  0.00    -0.126 C  
HETATM    2  N   UNL     1      -7.909   8.106  70.758  1.00  0.00    -0.085 NA 
HETATM    3  C   UNL     1      -6.653   7.638  70.166  1.00  0.00    -0.038 C  
ENDROOT
BRANCH   2   4
HETATM    4  C   UNL     1      -9.020   7.159  70.491  1.00  0.00    -0.155 C  
BRANCH   4   5
HETATM    5  C   UNL     1     -10.337   7.646  69.802  1.00  0.00    -0.223 C  
BRANCH   5   6
HETATM    6  O   UNL     1     -10.357   9.084  69.676  1.00  0.00    -0.199 OA 
BRANCH   6   7
HETATM    7  C   UNL     1     -11.342   9.715  70.401  1.00  0.00    -0.277 A  
HETATM    8  C   UNL     1     -12.146   9.099  71.364  1.00  0.00    -0.409 A  
HETATM    9  C   UNL     1     -11.566  11.062  70.105  1.00  0.00    -0.421 A  
HETATM   10  C   UNL     1     -13.100   9.829  72.077  1.00  0.00    -0.546 A  
HETATM   11  C   UNL     1     -13.282  11.180  71.811  1.00  0.00    -0.486 A  
HETATM   12  C   UNL     1     -12.527  11.793  70.814  1.00  0.00    -0.405 A  
ENDBRANCH   6   7
ENDBRANCH   5   6
BRANCH   5  13
HETATM   13  O   UNL     1     -10.303   7.050  68.489  1.00  0.00    -0.173 OA 
BRANCH  13  14
HETATM   14  C   UNL     1      -9.867   7.812  67.443  1.00  0.00    -0.175 A  
HETATM   15  C   UNL     1      -9.945   9.648  65.880  1.00  0.00    -0.351 A  
HETATM   16  C   UNL     1     -10.535   8.912  66.908  1.00  0.00    -0.304 A  
HETATM   17  C   UNL     1      -8.013   8.206  65.944  1.00  0.00    -0.102 A  
HETATM   18  C   UNL     1      -8.600   7.475  66.971  1.00  0.00    -0.122 A  
HETATM   19  C   UNL     1      -8.688   9.291  65.393  1.00  0.00    -0.208 A  
ENDBRANCH  13  14
ENDBRANCH   5  13
ENDBRANCH   4   5
ENDBRANCH   2   4
TORSDOF 6
ENDMDL
MODEL      184
REMARK 921   NORMALIZED FREE ENERGY PREDICTED BY IDOCK:   -3.13 KCAL/MOL
REMARK 922        TOTAL FREE ENERGY PREDICTED BY IDOCK:   -5.08 KCAL/MOL
REMARK 923 INTER-LIGAND FREE ENERGY PREDICTED BY IDOCK:   -4.29 KCAL/MOL
REMARK 924 INTRA-LIGAND FREE ENERGY PREDICTED BY IDOCK:   -0.79 KCAL/MOL
REMARK 927      BINDING AFFINITY PREDICTED BY RF-SCORE:    0.00 PKD
ROOT
HETATM    1  C   UNL     1      -9.069   4.932  64.909  1.00  0.00    -0.114 C  
HETATM    2  N   UNL     1      -9.254   5.257  66.332  1.00  0.00    -0.139 NA 
HETATM    3  C   UNL     1      -8.728   4.166  67.157  1.00  0.00    -0.110 C  
ENDROOT
BRANCH   2   4
HETATM    4  C   UNL     1      -8.559   6.537  66.617  1.00  0.00    -0.118 C  
BRANCH   4   5
HETATM    5  C   UNL     1      -9.207   7.606  67.558  1.00  0.00    -0.132 C  
BRANCH   5   6
HETATM    6  O   UNL     1      -8.628   7.554  68.881  1.00  0.00    -0.129 OA 
BRANCH   6   7
HETATM    7  C   UNL     1      -9.511   7.236  69.886  1.00  0.00    -0.157 A  
HETATM    8  C   UNL     1      -9.197   7.209  71.248  1.00  0.00    -0.151 A  
HETATM    9  C   UNL     1     -10.801   6.875  69.490  1.00  0.00    -0.287 A  
HETATM   10  C   UNL     1     -10.170   6.906  72.204  1.00  0.00    -0.213 A  
HETATM   11  C   UNL     1     -11.464   6.597  71.804  1.00  0.00    -0.334 A  
HETATM   12  C   UNL     1     -11.776   6.565  70.446  1.00  0.00    -0.439 A  
ENDBRANCH   6   7
ENDBRANCH   5   6
BRANCH   5  13
HETATM   13  O   UNL     1      -8.888   8.872  66.945  1.00  0.00    -0.123 OA 
BRANCH  13  14
HETATM   14  C   UNL     1      -9.841   9.849  66.941  1.00  0.00    -0.199 A  
HETATM   15  C   UNL     1     -11.490  11.315  67.918  1.00  0.00    -0.360 A  
HETATM   16  C   UNL     1     -10.593  10.252  68.043  1.00  0.00    -0.272 A  
HETATM   17  C   UNL     1     -10.862  11.586  65.606  1.00  0.00    -0.310 A  
HETATM   18  C   UNL     1      -9.965  10.530  65.731  1.00  0.00    -0.318 A  
HETATM   19  C   UNL     1     -11.630  11.976  66.699  1.00  0.00    -0.389 A  
ENDBRANCH  13  14
ENDBRANCH   5  13
ENDBRANCH   4   5
ENDBRANCH   2   4
TORSDOF 6
ENDMDL
MODEL      185
REMARK 921   NORMALIZED FREE ENERGY PREDICTED BY IDOCK:   -3.12 KCAL/MOL
REMARK 922        TOTAL FREE ENERGY PREDICTED BY IDOCK:   -5.07 KCAL/MOL
REMARK 923 INTER-LIGAND FREE ENERGY PREDICTED BY IDOCK:   -4.53 KCAL/MOL
REMARK 924 INTRA-LIGAND FREE ENERGY PREDICTED BY IDOCK:   -0.54 KCAL/MOL
REMARK 927      BINDING AFFINITY PREDICTED BY RF-SCORE:    0.00 PKD
ROOT
HETATM    1  C   UNL     1     -11.875  12.539  68.850  1.00  0.00    -0.301 C  
HETATM    2  N   UNL     1     -11.761  11.583  67.738  1.00  0.00    -0.577 NA 
HETATM    3  C   UNL     1     -11.907  12.292  66.464  1.00  0.00    -0.306 C  
ENDROOT
BRANCH   2   4
HETATM    4  C   UNL     1     -10.446  10.904  67.834  1.00  0.00    -0.195 C  
BRANCH   4   5
HETATM    5  C   UNL     1     -10.330   9.469  68.447  1.00  0.00    -0.206 C  
BRANCH   5   6
HETATM    6  O   UNL     1      -8.957   9.019  68.463  1.00  0.00    -0.133 OA 
BRANCH   6   7
HETATM    7  C   UNL     1      -8.768   7.726  68.035  1.00  0.00    -0.125 A  
HETATM    8  C   UNL     1      -8.025   6.757  68.716  1.00  0.00    -0.119 A  
HETATM    9  C   UNL     1      -9.334   7.389  66.803  1.00  0.00    -0.202 A  
HETATM   10  C   UNL     1      -7.915   5.456  68.221  1.00  0.00    -0.088 A  
HETATM   11  C   UNL     1      -8.524   5.116  67.019  1.00  0.00    -0.106 A  
HETATM   12  C   UNL     1      -9.220   6.087  66.301  1.00  0.00    -0.168 A  
ENDBRANCH   6   7
ENDBRANCH   5   6
BRANCH   5  13
HETATM   13  O   UNL     1     -10.801   9.613  69.802  1.00  0.00    -0.230 OA 
BRANCH  13  14
HETATM   14  C   UNL     1     -10.646   8.561  70.659  1.00  0.00    -0.209 A  
HETATM   15  C   UNL     1     -10.020   7.485  72.726  1.00  0.00    -0.280 A  
HETATM   16  C   UNL     1     -10.055   8.624  71.919  1.00  0.00    -0.398 A  
HETATM   17  C   UNL     1     -11.190   6.235  71.027  1.00  0.00    -0.372 A  
HETATM   18  C   UNL     1     -11.228   7.371  70.226  1.00  0.00    -0.268 A  
HETATM   19  C   UNL     1     -10.580   6.290  72.277  1.00  0.00    -0.244 A  
ENDBRANCH  13  14
ENDBRANCH   5  13
ENDBRANCH   4   5
ENDBRANCH   2   4
TORSDOF 6
ENDMDL
MODEL      186
REMARK 921   NORMALIZED FREE ENERGY PREDICTED BY IDOCK:   -3.12 KCAL/MOL
REMARK 922        TOTAL FREE ENERGY PREDICTED BY IDOCK:   -5.07 KCAL/MOL
REMARK 923 INTER-LIGAND FREE ENERGY PREDICTED BY IDOCK:   -4.07 KCAL/MOL
REMARK 924 INTRA-LIGAND FREE ENERGY PREDICTED BY IDOCK:   -1.00 KCAL/MOL
REMARK 927      BINDING AFFINITY PREDICTED BY RF-SCORE:    0.00 PKD
ROOT
HETATM    1  C   UNL     1      -9.939  10.354  64.957  1.00  0.00    -0.330 C  
HETATM    2  N   UNL     1      -9.645  10.142  66.382  1.00  0.00    -0.182 NA 
HETATM    3  C   UNL     1     -10.621  10.869  67.198  1.00  0.00    -0.255 C  
ENDROOT
BRANCH   2   4
HETATM    4  C   UNL     1      -9.683   8.685  66.660  1.00  0.00    -0.247 C  
BRANCH   4   5
HETATM    5  C   UNL     1      -9.592   8.149  68.127  1.00  0.00    -0.149 C  
BRANCH   5   6
HETATM    6  O   UNL     1     -10.798   7.446  68.500  1.00  0.00    -0.143 OA 
BRANCH   6   7
HETATM    7  C   UNL     1     -11.132   7.538  69.831  1.00  0.00    -0.171 A  
HETATM    8  C   UNL     1     -11.646   6.491  70.602  1.00  0.00    -0.442 A  
HETATM    9  C   UNL     1     -10.979   8.793  70.425  1.00  0.00    -0.262 A  
HETATM   10  C   UNL     1     -11.925   6.667  71.959  1.00  0.00    -0.361 A  
HETATM   11  C   UNL     1     -11.723   7.906  72.554  1.00  0.00    -0.423 A  
HETATM   12  C   UNL     1     -11.265   8.974  71.785  1.00  0.00    -0.448 A  
ENDBRANCH   6   7
ENDBRANCH   5   6
BRANCH   5  13
HETATM   13  O   UNL     1      -8.486   7.223  68.108  1.00  0.00    -0.123 OA 
BRANCH  13  14
HETATM   14  C   UNL     1      -8.001   6.768  69.301  1.00  0.00    -0.115 A  
HETATM   15  C   UNL     1      -7.053   6.974  71.510  1.00  0.00    -0.073 A  
HETATM   16  C   UNL     1      -7.450   7.560  70.306  1.00  0.00    -0.085 A  
HETATM   17  C   UNL     1      -7.785   4.819  70.713  1.00  0.00    -0.069 A  
HETATM   18  C   UNL     1      -8.183   5.403  69.516  1.00  0.00    -0.096 A  
HETATM   19  C   UNL     1      -7.213   5.604  71.710  1.00  0.00    -0.090 A  
ENDBRANCH  13  14
ENDBRANCH   5  13
ENDBRANCH   4   5
ENDBRANCH   2   4
TORSDOF 6
ENDMDL
MODEL      187
REMARK 921   NORMALIZED FREE ENERGY PREDICTED BY IDOCK:   -3.11 KCAL/MOL
REMARK 922        TOTAL FREE ENERGY PREDICTED BY IDOCK:   -5.05 KCAL/MOL
REMARK 923 INTER-LIGAND FREE ENERGY PREDICTED BY IDOCK:   -5.70 KCAL/MOL
REMARK 924 INTRA-LIGAND FREE ENERGY PREDICTED BY IDOCK:    0.65 KCAL/MOL
REMARK 927      BINDING AFFINITY PREDICTED BY RF-SCORE:    0.00 PKD
ROOT
HETATM    1  C   UNL     1      -5.765  15.326  67.808  1.00  0.00    -0.108 C  
HETATM    2  N   UNL     1      -6.524  14.215  67.213  1.00  0.00    -0.216 NA 
HETATM    3  C   UNL     1      -6.006  12.941  67.718  1.00  0.00    -0.141 C  
ENDROOT
BRANCH   2   4
HETATM    4  C   UNL     1      -7.958  14.390  67.549  1.00  0.00    -0.192 C  
BRANCH   4   5
HETATM    5  C   UNL     1      -9.024  13.348  67.074  1.00  0.00    -0.224 C  
BRANCH   5   6
HETATM    6  O   UNL     1      -9.716  12.762  68.198  1.00  0.00    -0.214 OA 
BRANCH   6   7
HETATM    7  C   UNL     1     -10.454  13.647  68.949  1.00  0.00    -0.150 A  
HETATM    8  C   UNL     1     -11.776  13.446  69.354  1.00  0.00    -0.382 A  
HETATM    9  C   UNL     1      -9.828  14.851  69.283  1.00  0.00    -0.164 A  
HETATM   10  C   UNL     1     -12.437  14.388  70.146  1.00  0.00    -0.395 A  
HETATM   11  C   UNL     1     -11.789  15.561  70.516  1.00  0.00    -0.388 A  
HETATM   12  C   UNL     1     -10.491  15.800  70.071  1.00  0.00    -0.313 A  
ENDBRANCH   6   7
ENDBRANCH   5   6
BRANCH   5  13
HETATM   13  O   UNL     1      -9.957  14.115  66.285  1.00  0.00    -0.283 OA 
BRANCH  13  14
HETATM   14  C   UNL     1     -10.809  13.445  65.456  1.00  0.00    -0.289 A  
HETATM   15  C   UNL     1     -12.959  12.722  64.633  1.00  0.00    -0.231 A  
HETATM   16  C   UNL     1     -12.195  13.387  65.593  1.00  0.00    -0.510 A  
HETATM   17  C   UNL     1     -10.960  12.203  63.388  1.00  0.00    -0.480 A  
HETATM   18  C   UNL     1     -10.199  12.869  64.343  1.00  0.00    -0.342 A  
HETATM   19  C   UNL     1     -12.342  12.124  63.536  1.00  0.00    -0.682 A  
ENDBRANCH  13  14
ENDBRANCH   5  13
ENDBRANCH   4   5
ENDBRANCH   2   4
TORSDOF 6
ENDMDL
MODEL      188
REMARK 921   NORMALIZED FREE ENERGY PREDICTED BY IDOCK:   -3.09 KCAL/MOL
REMARK 922        TOTAL FREE ENERGY PREDICTED BY IDOCK:   -5.03 KCAL/MOL
REMARK 923 INTER-LIGAND FREE ENERGY PREDICTED BY IDOCK:   -4.24 KCAL/MOL
REMARK 924 INTRA-LIGAND FREE ENERGY PREDICTED BY IDOCK:   -0.79 KCAL/MOL
REMARK 927      BINDING AFFINITY PREDICTED BY RF-SCORE:    0.00 PKD
ROOT
HETATM    1  C   UNL     1      -6.863   6.911  69.289  1.00  0.00    -0.058 C  
HETATM    2  N   UNL     1      -8.106   6.448  68.654  1.00  0.00    -0.112 NA 
HETATM    3  C   UNL     1      -7.802   5.380  67.698  1.00  0.00    -0.100 C  
ENDROOT
BRANCH   2   4
HETATM    4  C   UNL     1      -9.031   5.979  69.716  1.00  0.00    -0.133 C  
BRANCH   4   5
HETATM    5  C   UNL     1      -9.807   7.002  70.609  1.00  0.00    -0.182 C  
BRANCH   5   6
HETATM    6  O   UNL     1     -11.175   7.147  70.166  1.00  0.00    -0.272 OA 
BRANCH   6   7
HETATM    7  C   UNL     1     -11.879   8.153  70.784  1.00  0.00    -0.159 A  
HETATM    8  C   UNL     1     -12.953   7.959  71.658  1.00  0.00    -0.359 A  
HETATM    9  C   UNL     1     -11.503   9.461  70.467  1.00  0.00    -0.317 A  
HETATM   10  C   UNL     1     -13.589   9.044  72.267  1.00  0.00    -0.540 A  
HETATM   11  C   UNL     1     -13.175  10.340  71.985  1.00  0.00    -0.516 A  
HETATM   12  C   UNL     1     -12.144  10.549  71.072  1.00  0.00    -0.492 A  
ENDBRANCH   6   7
ENDBRANCH   5   6
BRANCH   5  13
HETATM   13  O   UNL     1      -9.791   6.419  71.928  1.00  0.00    -0.160 OA 
BRANCH  13  14
HETATM   14  C   UNL     1      -8.751   6.722  72.759  1.00  0.00    -0.121 A  
HETATM   15  C   UNL     1      -6.664   6.322  73.902  1.00  0.00    -0.075 A  
HETATM   16  C   UNL     1      -7.706   5.863  73.094  1.00  0.00    -0.102 A  
HETATM   17  C   UNL     1      -7.696   8.499  74.012  1.00  0.00    -0.135 A  
HETATM   18  C   UNL     1      -8.731   8.042  73.204  1.00  0.00    -0.300 A  
HETATM   19  C   UNL     1      -6.663   7.636  74.367  1.00  0.00    -0.112 A  
ENDBRANCH  13  14
ENDBRANCH   5  13
ENDBRANCH   4   5
ENDBRANCH   2   4
TORSDOF 6
ENDMDL
MODEL      189
REMARK 921   NORMALIZED FREE ENERGY PREDICTED BY IDOCK:   -3.09 KCAL/MOL
REMARK 922        TOTAL FREE ENERGY PREDICTED BY IDOCK:   -5.02 KCAL/MOL
REMARK 923 INTER-LIGAND FREE ENERGY PREDICTED BY IDOCK:   -4.60 KCAL/MOL
REMARK 924 INTRA-LIGAND FREE ENERGY PREDICTED BY IDOCK:   -0.43 KCAL/MOL
REMARK 927      BINDING AFFINITY PREDICTED BY RF-SCORE:    0.00 PKD
ROOT
HETATM    1  C   UNL     1      -7.516  11.638  66.775  1.00  0.00    -0.091 C  
HETATM    2  N   UNL     1      -8.447  12.520  67.494  1.00  0.00    -0.166 NA 
HETATM    3  C   UNL     1      -9.122  11.765  68.552  1.00  0.00    -0.144 C  
ENDROOT
BRANCH   2   4
HETATM    4  C   UNL     1      -7.679  13.663  68.049  1.00  0.00    -0.143 C  
BRANCH   4   5
HETATM    5  C   UNL     1      -8.399  14.998  68.434  1.00  0.00    -0.154 C  
BRANCH   5   6
HETATM    6  O   UNL     1      -7.970  16.084  67.584  1.00  0.00    -0.135 OA 
BRANCH   6   7
HETATM    7  C   UNL     1      -8.809  17.174  67.571  1.00  0.00    -0.216 A  
HETATM    8  C   UNL     1      -8.952  18.088  68.618  1.00  0.00    -0.278 A  
HETATM    9  C   UNL     1      -9.601  17.335  66.431  1.00  0.00    -0.290 A  
HETATM   10  C   UNL     1      -9.806  19.187  68.503  1.00  0.00    -0.483 A  
HETATM   11  C   UNL     1     -10.552  19.368  67.345  1.00  0.00    -0.603 A  
HETATM   12  C   UNL     1     -10.463  18.433  66.315  1.00  0.00    -0.421 A  
ENDBRANCH   6   7
ENDBRANCH   5   6
BRANCH   5  13
HETATM   13  O   UNL     1      -9.799  14.736  68.205  1.00  0.00    -0.211 OA 
BRANCH  13  14
HETATM   14  C   UNL     1     -10.675  14.952  69.230  1.00  0.00    -0.249 A  
HETATM   15  C   UNL     1     -11.319  15.456  71.500  1.00  0.00    -0.461 A  
HETATM   16  C   UNL     1     -10.325  15.179  70.560  1.00  0.00     0.053 A  
HETATM   17  C   UNL     1     -13.001  15.309  69.778  1.00  0.00     0.191 A  
HETATM   18  C   UNL     1     -12.010  15.037  68.841  1.00  0.00    -0.287 A  
HETATM   19  C   UNL     1     -12.657  15.513  71.111  1.00  0.00    -0.509 A  
ENDBRANCH  13  14
ENDBRANCH   5  13
ENDBRANCH   4   5
ENDBRANCH   2   4
TORSDOF 6
ENDMDL
MODEL      190
REMARK 921   NORMALIZED FREE ENERGY PREDICTED BY IDOCK:   -3.07 KCAL/MOL
REMARK 922        TOTAL FREE ENERGY PREDICTED BY IDOCK:   -5.00 KCAL/MOL
REMARK 923 INTER-LIGAND FREE ENERGY PREDICTED BY IDOCK:   -4.24 KCAL/MOL
REMARK 924 INTRA-LIGAND FREE ENERGY PREDICTED BY IDOCK:   -0.76 KCAL/MOL
REMARK 927      BINDING AFFINITY PREDICTED BY RF-SCORE:    0.00 PKD
ROOT
HETATM    1  C   UNL     1      -9.030   7.685  66.158  1.00  0.00    -0.161 C  
HETATM    2  N   UNL     1      -9.867   7.805  67.361  1.00  0.00    -0.161 NA 
HETATM    3  C   UNL     1     -10.889   6.755  67.356  1.00  0.00    -0.347 C  
ENDROOT
BRANCH   2   4
HETATM    4  C   UNL     1      -8.992   7.705  68.556  1.00  0.00    -0.129 C  
BRANCH   4   5
HETATM    5  C   UNL     1      -9.549   7.158  69.912  1.00  0.00    -0.163 C  
BRANCH   5   6
HETATM    6  O   UNL     1      -8.615   6.246  70.528  1.00  0.00    -0.135 OA 
BRANCH   6   7
HETATM    7  C   UNL     1      -8.901   5.919  71.833  1.00  0.00    -0.138 A  
HETATM    8  C   UNL     1      -9.979   5.130  72.243  1.00  0.00    -0.228 A  
HETATM    9  C   UNL     1      -8.061   6.463  72.808  1.00  0.00    -0.107 A  
HETATM   10  C   UNL     1     -10.172   4.822  73.592  1.00  0.00    -0.224 A  
HETATM   11  C   UNL     1      -9.303   5.326  74.551  1.00  0.00    -0.132 A  
HETATM   12  C   UNL     1      -8.257   6.160  74.162  1.00  0.00    -0.108 A  
ENDBRANCH   6   7
ENDBRANCH   5   6
BRANCH   5  13
HETATM   13  O   UNL     1      -9.695   8.328  70.744  1.00  0.00    -0.167 OA 
BRANCH  13  14
HETATM   14  C   UNL     1     -10.939   8.870  70.888  1.00  0.00    -0.266 A  
HETATM   15  C   UNL     1     -12.654  10.543  70.599  1.00  0.00    -0.457 A  
HETATM   16  C   UNL     1     -11.327  10.135  70.450  1.00  0.00    -0.401 A  
HETATM   17  C   UNL     1     -13.206   8.416  71.593  1.00  0.00    -0.360 A  
HETATM   18  C   UNL     1     -11.885   8.009  71.441  1.00  0.00    -0.326 A  
HETATM   19  C   UNL     1     -13.591   9.687  71.177  1.00  0.00    -0.232 A  
ENDBRANCH  13  14
ENDBRANCH   5  13
ENDBRANCH   4   5
ENDBRANCH   2   4
TORSDOF 6
ENDMDL
MODEL      191
REMARK 921   NORMALIZED FREE ENERGY PREDICTED BY IDOCK:   -3.06 KCAL/MOL
REMARK 922        TOTAL FREE ENERGY PREDICTED BY IDOCK:   -4.99 KCAL/MOL
REMARK 923 INTER-LIGAND FREE ENERGY PREDICTED BY IDOCK:   -4.39 KCAL/MOL
REMARK 924 INTRA-LIGAND FREE ENERGY PREDICTED BY IDOCK:   -0.61 KCAL/MOL
REMARK 927      BINDING AFFINITY PREDICTED BY RF-SCORE:    0.00 PKD
ROOT
HETATM    1  C   UNL     1      -8.789  11.121  68.551  1.00  0.00    -0.161 C  
HETATM    2  N   UNL     1     -10.259  11.128  68.529  1.00  0.00    -0.191 NA 
HETATM    3  C   UNL     1     -10.738  10.354  67.381  1.00  0.00    -0.283 C  
ENDROOT
BRANCH   2   4
HETATM    4  C   UNL     1     -10.752  10.562  69.809  1.00  0.00    -0.264 C  
BRANCH   4   5
HETATM    5  C   UNL     1     -10.943   9.018  69.979  1.00  0.00    -0.214 C  
BRANCH   5   6
HETATM    6  O   UNL     1      -9.669   8.343  70.071  1.00  0.00    -0.174 OA 
BRANCH   6   7
HETATM    7  C   UNL     1      -9.611   7.129  69.428  1.00  0.00    -0.153 A  
HETATM    8  C   UNL     1     -10.270   6.823  68.233  1.00  0.00    -0.194 A  
HETATM    9  C   UNL     1      -8.867   6.128  70.056  1.00  0.00    -0.144 A  
HETATM   10  C   UNL     1     -10.125   5.570  67.633  1.00  0.00    -0.217 A  
HETATM   11  C   UNL     1      -9.341   4.595  68.240  1.00  0.00    -0.182 A  
HETATM   12  C   UNL     1      -8.726   4.868  69.459  1.00  0.00    -0.108 A  
ENDBRANCH   6   7
ENDBRANCH   5   6
BRANCH   5  13
HETATM   13  O   UNL     1     -11.651   8.875  71.228  1.00  0.00    -0.270 OA 
BRANCH  13  14
HETATM   14  C   UNL     1     -11.382   7.784  72.004  1.00  0.00    -0.284 A  
HETATM   15  C   UNL     1     -10.358   6.587  73.831  1.00  0.00    -0.356 A  
HETATM   16  C   UNL     1     -10.489   7.752  73.073  1.00  0.00    -0.432 A  
HETATM   17  C   UNL     1     -12.029   5.503  72.472  1.00  0.00    -0.085 A  
HETATM   18  C   UNL     1     -12.162   6.665  71.720  1.00  0.00    -0.400 A  
HETATM   19  C   UNL     1     -11.121   5.461  73.526  1.00  0.00    -0.273 A  
ENDBRANCH  13  14
ENDBRANCH   5  13
ENDBRANCH   4   5
ENDBRANCH   2   4
TORSDOF 6
ENDMDL
MODEL      192
REMARK 921   NORMALIZED FREE ENERGY PREDICTED BY IDOCK:   -3.04 KCAL/MOL
REMARK 922        TOTAL FREE ENERGY PREDICTED BY IDOCK:   -4.97 KCAL/MOL
REMARK 923 INTER-LIGAND FREE ENERGY PREDICTED BY IDOCK:   -4.86 KCAL/MOL
REMARK 924 INTRA-LIGAND FREE ENERGY PREDICTED BY IDOCK:   -0.11 KCAL/MOL
REMARK 927      BINDING AFFINITY PREDICTED BY RF-SCORE:    0.00 PKD
ROOT
HETATM    1  C   UNL     1      -9.299   9.393  65.896  1.00  0.00    -0.230 C  
HETATM    2  N   UNL     1      -8.321   8.931  66.893  1.00  0.00    -0.111 NA 
HETATM    3  C   UNL     1      -7.864  10.068  67.697  1.00  0.00    -0.095 C  
ENDROOT
BRANCH   2   4
HETATM    4  C   UNL     1      -8.964   7.893  67.737  1.00  0.00    -0.128 C  
BRANCH   4   5
HETATM    5  C   UNL     1     -10.423   8.084  68.267  1.00  0.00    -0.161 C  
BRANCH   5   6
HETATM    6  O   UNL     1     -11.247   6.941  67.947  1.00  0.00    -0.152 OA 
BRANCH   6   7
HETATM    7  C   UNL     1     -10.580   5.738  67.919  1.00  0.00    -0.231 A  
HETATM    8  C   UNL     1     -10.262   5.025  66.760  1.00  0.00    -0.286 A  
HETATM    9  C   UNL     1     -10.243   5.185  69.157  1.00  0.00    -0.259 A  
HETATM   10  C   UNL     1      -9.551   3.824  66.826  1.00  0.00    -0.205 A  
HETATM   11  C   UNL     1      -9.176   3.307  68.060  1.00  0.00    -0.243 A  
HETATM   12  C   UNL     1      -9.536   3.979  69.226  1.00  0.00    -0.260 A  
ENDBRANCH   6   7
ENDBRANCH   5   6
BRANCH   5  13
HETATM   13  O   UNL     1     -10.281   8.184  69.699  1.00  0.00    -0.196 OA 
BRANCH  13  14
HETATM   14  C   UNL     1     -11.345   8.635  70.426  1.00  0.00    -0.187 A  
HETATM   15  C   UNL     1     -13.209   8.437  71.946  1.00  0.00    -0.381 A  
HETATM   16  C   UNL     1     -12.197   7.841  71.192  1.00  0.00    -0.289 A  
HETATM   17  C   UNL     1     -12.498  10.615  71.193  1.00  0.00    -0.523 A  
HETATM   18  C   UNL     1     -11.487  10.021  70.445  1.00  0.00    -0.389 A  
HETATM   19  C   UNL     1     -13.364   9.823  71.940  1.00  0.00    -0.530 A  
ENDBRANCH  13  14
ENDBRANCH   5  13
ENDBRANCH   4   5
ENDBRANCH   2   4
TORSDOF 6
ENDMDL
MODEL      193
REMARK 921   NORMALIZED FREE ENERGY PREDICTED BY IDOCK:   -3.04 KCAL/MOL
REMARK 922        TOTAL FREE ENERGY PREDICTED BY IDOCK:   -4.95 KCAL/MOL
REMARK 923 INTER-LIGAND FREE ENERGY PREDICTED BY IDOCK:   -4.28 KCAL/MOL
REMARK 924 INTRA-LIGAND FREE ENERGY PREDICTED BY IDOCK:   -0.67 KCAL/MOL
REMARK 927      BINDING AFFINITY PREDICTED BY RF-SCORE:    0.00 PKD
ROOT
HETATM    1  C   UNL     1      -7.100  10.906  67.958  1.00  0.00    -0.077 C  
HETATM    2  N   UNL     1      -7.493  10.054  69.090  1.00  0.00    -0.084 NA 
HETATM    3  C   UNL     1      -6.619  10.323  70.235  1.00  0.00    -0.142 C  
ENDROOT
BRANCH   2   4
HETATM    4  C   UNL     1      -8.914  10.329  69.416  1.00  0.00    -0.176 C  
BRANCH   4   5
HETATM    5  C   UNL     1     -10.033   9.299  69.049  1.00  0.00    -0.182 C  
BRANCH   5   6
HETATM    6  O   UNL     1     -10.604   8.706  70.236  1.00  0.00    -0.212 OA 
BRANCH   6   7
HETATM    7  C   UNL     1     -10.179   7.426  70.505  1.00  0.00    -0.193 A  
HETATM    8  C   UNL     1      -9.334   7.067  71.559  1.00  0.00    -0.154 A  
HETATM    9  C   UNL     1     -10.602   6.432  69.620  1.00  0.00    -0.309 A  
HETATM   10  C   UNL     1      -8.982   5.733  71.776  1.00  0.00    -0.143 A  
HETATM   11  C   UNL     1      -9.448   4.744  70.919  1.00  0.00    -0.230 A  
HETATM   12  C   UNL     1     -10.245   5.094  69.831  1.00  0.00    -0.361 A  
ENDBRANCH   6   7
ENDBRANCH   5   6
BRANCH   5  13
HETATM   13  O   UNL     1     -11.039  10.080  68.373  1.00  0.00    -0.237 OA 
BRANCH  13  14
HETATM   14  C   UNL     1     -10.763  10.550  67.121  1.00  0.00    -0.265 A  
HETATM   15  C   UNL     1     -10.465  12.241  65.426  1.00  0.00    -0.302 A  
HETATM   16  C   UNL     1     -10.843  11.883  66.721  1.00  0.00    -0.307 A  
HETATM   17  C   UNL     1      -9.900   9.946  64.946  1.00  0.00    -0.282 A  
HETATM   18  C   UNL     1     -10.273   9.590  66.237  1.00  0.00    -0.290 A  
HETATM   19  C   UNL     1     -10.001  11.272  64.537  1.00  0.00    -0.334 A  
ENDBRANCH  13  14
ENDBRANCH   5  13
ENDBRANCH   4   5
ENDBRANCH   2   4
TORSDOF 6
ENDMDL
MODEL      194
REMARK 921   NORMALIZED FREE ENERGY PREDICTED BY IDOCK:   -3.03 KCAL/MOL
REMARK 922        TOTAL FREE ENERGY PREDICTED BY IDOCK:   -4.95 KCAL/MOL
REMARK 923 INTER-LIGAND FREE ENERGY PREDICTED BY IDOCK:   -4.31 KCAL/MOL
REMARK 924 INTRA-LIGAND FREE ENERGY PREDICTED BY IDOCK:   -0.65 KCAL/MOL
REMARK 927      BINDING AFFINITY PREDICTED BY RF-SCORE:    0.00 PKD
ROOT
HETATM    1  C   UNL     1     -11.841  11.276  69.728  1.00  0.00    -0.364 C  
HETATM    2  N   UNL     1     -12.043  11.317  68.272  1.00  0.00    -0.623 NA 
HETATM    3  C   UNL     1     -11.618  12.620  67.754  1.00  0.00    -0.348 C  
ENDROOT
BRANCH   2   4
HETATM    4  C   UNL     1     -11.269  10.210  67.657  1.00  0.00    -0.095 C  
BRANCH   4   5
HETATM    5  C   UNL     1      -9.747  10.380  67.337  1.00  0.00    -0.163 C  
BRANCH   5   6
HETATM    6  O   UNL     1      -8.937  10.123  68.505  1.00  0.00    -0.120 OA 
BRANCH   6   7
HETATM    7  C   UNL     1      -7.898  11.004  68.694  1.00  0.00    -0.136 A  
HETATM    8  C   UNL     1      -6.991  10.956  69.756  1.00  0.00    -0.121 A  
HETATM    9  C   UNL     1      -7.787  12.042  67.765  1.00  0.00    -0.145 A  
HETATM   10  C   UNL     1      -5.943  11.876  69.848  1.00  0.00    -0.148 A  
HETATM   11  C   UNL     1      -5.810  12.875  68.892  1.00  0.00    -0.075 A  
HETATM   12  C   UNL     1      -6.741  12.969  67.860  1.00  0.00    -0.129 A  
ENDBRANCH   6   7
ENDBRANCH   5   6
BRANCH   5  13
HETATM   13  O   UNL     1      -9.472   9.381  66.334  1.00  0.00    -0.170 OA 
BRANCH  13  14
HETATM   14  C   UNL     1      -9.316   9.786  65.039  1.00  0.00    -0.263 A  
HETATM   15  C   UNL     1      -8.702   9.540  62.719  1.00  0.00    -0.232 A  
HETATM   16  C   UNL     1      -8.737   9.033  64.019  1.00  0.00    -0.115 A  
HETATM   17  C   UNL     1      -9.845  11.532  63.454  1.00  0.00    -0.422 A  
HETATM   18  C   UNL     1      -9.885  11.025  64.749  1.00  0.00    -0.329 A  
HETATM   19  C   UNL     1      -9.248  10.791  62.439  1.00  0.00    -0.307 A  
ENDBRANCH  13  14
ENDBRANCH   5  13
ENDBRANCH   4   5
ENDBRANCH   2   4
TORSDOF 6
ENDMDL
MODEL      195
REMARK 921   NORMALIZED FREE ENERGY PREDICTED BY IDOCK:   -3.03 KCAL/MOL
REMARK 922        TOTAL FREE ENERGY PREDICTED BY IDOCK:   -4.94 KCAL/MOL
REMARK 923 INTER-LIGAND FREE ENERGY PREDICTED BY IDOCK:   -4.09 KCAL/MOL
REMARK 924 INTRA-LIGAND FREE ENERGY PREDICTED BY IDOCK:   -0.85 KCAL/MOL
REMARK 927      BINDING AFFINITY PREDICTED BY RF-SCORE:    0.00 PKD
ROOT
HETATM    1  C   UNL     1     -10.802  13.657  64.340  1.00  0.00    -0.361 C  
HETATM    2  N   UNL     1     -11.295  12.287  64.545  1.00  0.00    -0.316 NA 
HETATM    3  C   UNL     1     -12.455  12.048  63.682  1.00  0.00    -0.525 C  
ENDROOT
BRANCH   2   4
HETATM    4  C   UNL     1     -10.193  11.340  64.247  1.00  0.00    -0.327 C  
BRANCH   4   5
HETATM    5  C   UNL     1      -9.380  10.670  65.404  1.00  0.00    -0.210 C  
BRANCH   5   6
HETATM    6  O   UNL     1      -9.549  11.391  66.644  1.00  0.00    -0.185 OA 
BRANCH   6   7
HETATM    7  C   UNL     1      -8.428  12.057  67.083  1.00  0.00    -0.180 A  
HETATM    8  C   UNL     1      -8.423  13.345  67.625  1.00  0.00    -0.187 A  
HETATM    9  C   UNL     1      -7.209  11.393  66.926  1.00  0.00    -0.144 A  
HETATM   10  C   UNL     1      -7.237  13.931  68.077  1.00  0.00    -0.141 A  
HETATM   11  C   UNL     1      -6.036  13.242  67.962  1.00  0.00    -0.122 A  
HETATM   12  C   UNL     1      -6.018  11.981  67.372  1.00  0.00    -0.130 A  
ENDBRANCH   6   7
ENDBRANCH   5   6
BRANCH   5  13
HETATM   13  O   UNL     1      -9.952   9.352  65.536  1.00  0.00    -0.281 OA 
BRANCH  13  14
HETATM   14  C   UNL     1      -9.376   8.480  66.414  1.00  0.00    -0.213 A  
HETATM   15  C   UNL     1      -7.609   7.090  67.291  1.00  0.00    -0.108 A  
HETATM   16  C   UNL     1      -8.108   7.917  66.283  1.00  0.00    -0.110 A  
HETATM   17  C   UNL     1      -9.628   7.415  68.569  1.00  0.00    -0.146 A  
HETATM   18  C   UNL     1     -10.123   8.242  67.566  1.00  0.00    -0.287 A  
HETATM   19  C   UNL     1      -8.372   6.834  68.429  1.00  0.00    -0.123 A  
ENDBRANCH  13  14
ENDBRANCH   5  13
ENDBRANCH   4   5
ENDBRANCH   2   4
TORSDOF 6
ENDMDL
MODEL      196
REMARK 921   NORMALIZED FREE ENERGY PREDICTED BY IDOCK:   -2.99 KCAL/MOL
REMARK 922        TOTAL FREE ENERGY PREDICTED BY IDOCK:   -4.89 KCAL/MOL
REMARK 923 INTER-LIGAND FREE ENERGY PREDICTED BY IDOCK:   -4.14 KCAL/MOL
REMARK 924 INTRA-LIGAND FREE ENERGY PREDICTED BY IDOCK:   -0.75 KCAL/MOL
REMARK 927      BINDING AFFINITY PREDICTED BY RF-SCORE:    0.00 PKD
ROOT
HETATM    1  C   UNL     1     -11.337   9.557  71.299  1.00  0.00    -0.376 C  
HETATM    2  N   UNL     1     -10.650   8.345  70.825  1.00  0.00    -0.203 NA 
HETATM    3  C   UNL     1     -11.174   7.175  71.533  1.00  0.00    -0.245 C  
ENDROOT
BRANCH   2   4
HETATM    4  C   UNL     1     -10.856   8.230  69.360  1.00  0.00    -0.084 C  
BRANCH   4   5
HETATM    5  C   UNL     1     -10.014   9.093  68.363  1.00  0.00    -0.181 C  
BRANCH   5   6
HETATM    6  O   UNL     1      -9.180   8.259  67.529  1.00  0.00    -0.136 OA 
BRANCH   6   7
HETATM    7  C   UNL     1      -8.421   8.941  66.606  1.00  0.00    -0.119 A  
HETATM    8  C   UNL     1      -7.311   9.734  66.911  1.00  0.00    -0.091 A  
HETATM    9  C   UNL     1      -8.835   8.854  65.275  1.00  0.00    -0.227 A  
HETATM   10  C   UNL     1      -6.578  10.363  65.902  1.00  0.00    -0.123 A  
HETATM   11  C   UNL     1      -6.968  10.230  64.574  1.00  0.00    -0.067 A  
HETATM   12  C   UNL     1      -8.105   9.489  64.262  1.00  0.00    -0.142 A  
ENDBRANCH   6   7
ENDBRANCH   5   6
BRANCH   5  13
HETATM   13  O   UNL     1     -10.994   9.762  67.543  1.00  0.00    -0.275 OA 
BRANCH  13  14
HETATM   14  C   UNL     1     -11.104  11.120  67.641  1.00  0.00    -0.287 A  
HETATM   15  C   UNL     1     -11.684  13.206  68.706  1.00  0.00    -0.363 A  
HETATM   16  C   UNL     1     -11.700  11.810  68.695  1.00  0.00    -0.389 A  
HETATM   17  C   UNL     1     -10.455  13.217  66.631  1.00  0.00    -0.279 A  
HETATM   18  C   UNL     1     -10.467  11.827  66.623  1.00  0.00    -0.259 A  
HETATM   19  C   UNL     1     -11.069  13.909  67.671  1.00  0.00    -0.295 A  
ENDBRANCH  13  14
ENDBRANCH   5  13
ENDBRANCH   4   5
ENDBRANCH   2   4
TORSDOF 6
ENDMDL
MODEL      197
REMARK 921   NORMALIZED FREE ENERGY PREDICTED BY IDOCK:   -2.97 KCAL/MOL
REMARK 922        TOTAL FREE ENERGY PREDICTED BY IDOCK:   -4.87 KCAL/MOL
REMARK 923 INTER-LIGAND FREE ENERGY PREDICTED BY IDOCK:   -4.58 KCAL/MOL
REMARK 924 INTRA-LIGAND FREE ENERGY PREDICTED BY IDOCK:   -0.29 KCAL/MOL
REMARK 927      BINDING AFFINITY PREDICTED BY RF-SCORE:    0.00 PKD
ROOT
HETATM    1  C   UNL     1      -6.342  11.640  68.553  1.00  0.00    -0.052 C  
HETATM    2  N   UNL     1      -7.584  10.939  68.193  1.00  0.00    -0.090 NA 
HETATM    3  C   UNL     1      -8.230  10.429  69.405  1.00  0.00    -0.151 C  
ENDROOT
BRANCH   2   4
HETATM    4  C   UNL     1      -8.465  11.885  67.465  1.00  0.00    -0.161 C  
BRANCH   4   5
HETATM    5  C   UNL     1     -10.020  11.716  67.496  1.00  0.00    -0.187 C  
BRANCH   5   6
HETATM    6  O   UNL     1     -10.685  12.993  67.388  1.00  0.00    -0.242 OA 
BRANCH   6   7
HETATM    7  C   UNL     1     -11.107  13.528  68.583  1.00  0.00    -0.269 A  
HETATM    8  C   UNL     1     -11.866  12.849  69.540  1.00  0.00    -0.383 A  
HETATM    9  C   UNL     1     -10.778  14.865  68.816  1.00  0.00    -0.252 A  
HETATM   10  C   UNL     1     -12.221  13.464  70.744  1.00  0.00    -0.409 A  
HETATM   11  C   UNL     1     -11.846  14.779  70.989  1.00  0.00    -0.383 A  
HETATM   12  C   UNL     1     -11.139  15.485  70.019  1.00  0.00    -0.326 A  
ENDBRANCH   6   7
ENDBRANCH   5   6
BRANCH   5  13
HETATM   13  O   UNL     1     -10.322  10.919  66.333  1.00  0.00    -0.237 OA 
BRANCH  13  14
HETATM   14  C   UNL     1      -9.906   9.618  66.311  1.00  0.00    -0.256 A  
HETATM   15  C   UNL     1      -9.965   7.282  66.913  1.00  0.00    -0.302 A  
HETATM   16  C   UNL     1     -10.437   8.586  67.082  1.00  0.00    -0.370 A  
HETATM   17  C   UNL     1      -8.461   8.041  65.188  1.00  0.00    -0.117 A  
HETATM   18  C   UNL     1      -8.934   9.338  65.354  1.00  0.00    -0.253 A  
HETATM   19  C   UNL     1      -8.973   7.012  65.972  1.00  0.00    -0.135 A  
ENDBRANCH  13  14
ENDBRANCH   5  13
ENDBRANCH   4   5
ENDBRANCH   2   4
TORSDOF 6
ENDMDL
MODEL      198
REMARK 921   NORMALIZED FREE ENERGY PREDICTED BY IDOCK:   -2.97 KCAL/MOL
REMARK 922        TOTAL FREE ENERGY PREDICTED BY IDOCK:   -4.86 KCAL/MOL
REMARK 923 INTER-LIGAND FREE ENERGY PREDICTED BY IDOCK:   -4.63 KCAL/MOL
REMARK 924 INTRA-LIGAND FREE ENERGY PREDICTED BY IDOCK:   -0.23 KCAL/MOL
REMARK 927      BINDING AFFINITY PREDICTED BY RF-SCORE:    0.00 PKD
ROOT
HETATM    1  C   UNL     1     -11.888  12.116  69.653  1.00  0.00    -0.322 C  
HETATM    2  N   UNL     1     -12.053  11.513  68.321  1.00  0.00    -0.575 NA 
HETATM    3  C   UNL     1     -11.888  12.543  67.292  1.00  0.00    -0.311 C  
ENDROOT
BRANCH   2   4
HETATM    4  C   UNL     1     -11.053  10.427  68.168  1.00  0.00    -0.285 C  
BRANCH   4   5
HETATM    5  C   UNL     1      -9.808  10.348  69.112  1.00  0.00    -0.223 C  
BRANCH   5   6
HETATM    6  O   UNL     1      -9.602   9.000  69.590  1.00  0.00    -0.164 OA 
BRANCH   6   7
HETATM    7  C   UNL     1     -10.581   8.530  70.433  1.00  0.00    -0.223 A  
HETATM    8  C   UNL     1     -11.019   9.177  71.592  1.00  0.00    -0.445 A  
HETATM    9  C   UNL     1     -11.136   7.289  70.111  1.00  0.00    -0.281 A  
HETATM   10  C   UNL     1     -12.045   8.640  72.372  1.00  0.00    -0.415 A  
HETATM   11  C   UNL     1     -12.627   7.429  72.017  1.00  0.00    -0.262 A  
HETATM   12  C   UNL     1     -12.161   6.745  70.896  1.00  0.00    -0.386 A  
ENDBRANCH   6   7
ENDBRANCH   5   6
BRANCH   5  13
HETATM   13  O   UNL     1      -8.696  10.736  68.280  1.00  0.00    -0.125 OA 
BRANCH  13  14
HETATM   14  C   UNL     1      -8.201   9.824  67.393  1.00  0.00    -0.114 A  
HETATM   15  C   UNL     1      -8.196   8.501  65.375  1.00  0.00    -0.145 A  
HETATM   16  C   UNL     1      -8.845   9.388  66.236  1.00  0.00    -0.172 A  
HETATM   17  C   UNL     1      -6.257   8.512  66.809  1.00  0.00    -0.055 A  
HETATM   18  C   UNL     1      -6.902   9.399  67.664  1.00  0.00    -0.076 A  
HETATM   19  C   UNL     1      -6.907   8.057  65.665  1.00  0.00    -0.056 A  
ENDBRANCH  13  14
ENDBRANCH   5  13
ENDBRANCH   4   5
ENDBRANCH   2   4
TORSDOF 6
ENDMDL
MODEL      199
REMARK 921   NORMALIZED FREE ENERGY PREDICTED BY IDOCK:   -2.92 KCAL/MOL
REMARK 922        TOTAL FREE ENERGY PREDICTED BY IDOCK:   -4.80 KCAL/MOL
REMARK 923 INTER-LIGAND FREE ENERGY PREDICTED BY IDOCK:   -3.94 KCAL/MOL
REMARK 924 INTRA-LIGAND FREE ENERGY PREDICTED BY IDOCK:   -0.86 KCAL/MOL
REMARK 927      BINDING AFFINITY PREDICTED BY RF-SCORE:    0.00 PKD
ROOT
HETATM    1  C   UNL     1     -11.262  14.252  64.168  1.00  0.00     0.020 C  
HETATM    2  N   UNL     1     -11.504  12.850  64.542  1.00  0.00    -0.327 NA 
HETATM    3  C   UNL     1     -12.307  12.197  63.505  1.00  0.00    -0.574 C  
ENDROOT
BRANCH   2   4
HETATM    4  C   UNL     1     -10.194  12.177  64.719  1.00  0.00    -0.281 C  
BRANCH   4   5
HETATM    5  C   UNL     1      -9.667  11.815  66.147  1.00  0.00    -0.229 C  
BRANCH   5   6
HETATM    6  O   UNL     1     -10.374  12.557  67.166  1.00  0.00    -0.219 OA 
BRANCH   6   7
HETATM    7  C   UNL     1      -9.674  13.614  67.700  1.00  0.00    -0.228 A  
HETATM    8  C   UNL     1     -10.221  14.863  68.008  1.00  0.00    -0.228 A  
HETATM    9  C   UNL     1      -8.306  13.416  67.902  1.00  0.00    -0.166 A  
HETATM   10  C   UNL     1      -9.440  15.869  68.581  1.00  0.00    -0.214 A  
HETATM   11  C   UNL     1      -8.090  15.645  68.825  1.00  0.00    -0.169 A  
HETATM   12  C   UNL     1      -7.519  14.425  68.471  1.00  0.00    -0.122 A  
ENDBRANCH   6   7
ENDBRANCH   5   6
BRANCH   5  13
HETATM   13  O   UNL     1      -9.954  10.409  66.295  1.00  0.00    -0.207 OA 
BRANCH  13  14
HETATM   14  C   UNL     1      -9.589   9.791  67.457  1.00  0.00    -0.150 A  
HETATM   15  C   UNL     1      -8.047   9.025  69.147  1.00  0.00    -0.109 A  
HETATM   16  C   UNL     1      -8.281   9.614  67.903  1.00  0.00    -0.106 A  
HETATM   17  C   UNL     1     -10.423   8.820  69.506  1.00  0.00    -0.222 A  
HETATM   18  C   UNL     1     -10.655   9.410  68.269  1.00  0.00    -0.256 A  
HETATM   19  C   UNL     1      -9.117   8.621  69.944  1.00  0.00    -0.151 A  
ENDBRANCH  13  14
ENDBRANCH   5  13
ENDBRANCH   4   5
ENDBRANCH   2   4
TORSDOF 6
ENDMDL
MODEL      200
REMARK 921   NORMALIZED FREE ENERGY PREDICTED BY IDOCK:   -2.88 KCAL/MOL
REMARK 922        TOTAL FREE ENERGY PREDICTED BY IDOCK:   -4.74 KCAL/MOL
REMARK 923 INTER-LIGAND FREE ENERGY PREDICTED BY IDOCK:   -3.82 KCAL/MOL
REMARK 924 INTRA-LIGAND FREE ENERGY PREDICTED BY IDOCK:   -0.92 KCAL/MOL
REMARK 927      BINDING AFFINITY PREDICTED BY RF-SCORE:    0.00 PKD
ROOT
HETATM    1  C   UNL     1     -11.274   9.643  71.345  1.00  0.00    -0.356 C  
HETATM    2  N   UNL     1     -10.662   8.311  71.227  1.00  0.00    -0.221 NA 
HETATM    3  C   UNL     1     -11.236   7.415  72.234  1.00  0.00    -0.272 C  
ENDROOT
BRANCH   2   4
HETATM    4  C   UNL     1     -10.897   7.805  69.852  1.00  0.00    -0.226 C  
BRANCH   4   5
HETATM    5  C   UNL     1      -9.875   8.102  68.705  1.00  0.00    -0.176 C  
BRANCH   5   6
HETATM    6  O   UNL     1      -9.217   6.893  68.268  1.00  0.00    -0.126 OA 
BRANCH   6   7
HETATM    7  C   UNL     1      -8.196   7.085  67.366  1.00  0.00    -0.119 A  
HETATM    8  C   UNL     1      -8.210   6.652  66.037  1.00  0.00    -0.128 A  
HETATM    9  C   UNL     1      -7.052   7.725  67.849  1.00  0.00    -0.086 A  
HETATM   10  C   UNL     1      -7.138   6.922  65.182  1.00  0.00    -0.067 A  
HETATM   11  C   UNL     1      -6.025   7.603  65.658  1.00  0.00    -0.038 A  
HETATM   12  C   UNL     1      -5.974   7.991  66.995  1.00  0.00    -0.052 A  
ENDBRANCH   6   7
ENDBRANCH   5   6
BRANCH   5  13
HETATM   13  O   UNL     1     -10.680   8.626  67.628  1.00  0.00    -0.224 OA 
BRANCH  13  14
HETATM   14  C   UNL     1     -10.467   9.913  67.226  1.00  0.00    -0.258 A  
HETATM   15  C   UNL     1      -9.420  11.671  65.947  1.00  0.00    -0.246 A  
HETATM   16  C   UNL     1      -9.486  10.329  66.328  1.00  0.00    -0.223 A  
HETATM   17  C   UNL     1     -11.327  12.169  67.336  1.00  0.00    -0.393 A  
HETATM   18  C   UNL     1     -11.395  10.832  67.712  1.00  0.00    -0.354 A  
HETATM   19  C   UNL     1     -10.335  12.591  66.457  1.00  0.00    -0.254 A  
ENDBRANCH  13  14
ENDBRANCH   5  13
ENDBRANCH   4   5
ENDBRANCH   2   4
TORSDOF 6
ENDMDL
MODEL      201
REMARK 921   NORMALIZED FREE ENERGY PREDICTED BY IDOCK:   -2.88 KCAL/MOL
REMARK 922        TOTAL FREE ENERGY PREDICTED BY IDOCK:   -4.74 KCAL/MOL
REMARK 923 INTER-LIGAND FREE ENERGY PREDICTED BY IDOCK:   -4.70 KCAL/MOL
REMARK 924 INTRA-LIGAND FREE ENERGY PREDICTED BY IDOCK:   -0.04 KCAL/MOL
REMARK 927      BINDING AFFINITY PREDICTED BY RF-SCORE:    0.00 PKD
ROOT
HETATM    1  C   UNL     1     -12.890  10.512  70.842  1.00  0.00    -0.394 C  
HETATM    2  N   UNL     1     -12.636   9.406  71.777  1.00  0.00    -0.359 NA 
HETATM    3  C   UNL     1     -13.879   8.667  72.014  1.00  0.00    -0.440 C  
ENDROOT
BRANCH   2   4
HETATM    4  C   UNL     1     -11.587   8.531  71.197  1.00  0.00    -0.281 C  
BRANCH   4   5
HETATM    5  C   UNL     1     -10.095   8.997  71.146  1.00  0.00    -0.295 C  
BRANCH   5   6
HETATM    6  O   UNL     1      -9.287   8.264  72.093  1.00  0.00    -0.185 OA 
BRANCH   6   7
HETATM    7  C   UNL     1      -9.717   6.983  72.348  1.00  0.00    -0.153 A  
HETATM    8  C   UNL     1      -9.588   5.905  71.468  1.00  0.00    -0.175 A  
HETATM    9  C   UNL     1     -10.366   6.776  73.568  1.00  0.00    -0.342 A  
HETATM   10  C   UNL     1     -10.024   4.627  71.828  1.00  0.00    -0.260 A  
HETATM   11  C   UNL     1     -10.624   4.420  73.064  1.00  0.00    -0.267 A  
HETATM   12  C   UNL     1     -10.810   5.497  73.928  1.00  0.00    -0.182 A  
ENDBRANCH   6   7
ENDBRANCH   5   6
BRANCH   5  13
HETATM   13  O   UNL     1      -9.661   8.685  69.806  1.00  0.00    -0.172 OA 
BRANCH  13  14
HETATM   14  C   UNL     1      -9.813   9.636  68.837  1.00  0.00    -0.174 A  
HETATM   15  C   UNL     1      -9.359  11.726  67.720  1.00  0.00    -0.181 A  
HETATM   16  C   UNL     1      -9.167  10.871  68.807  1.00  0.00    -0.187 A  
HETATM   17  C   UNL     1     -10.811  10.101  66.686  1.00  0.00    -0.084 A  
HETATM   18  C   UNL     1     -10.617   9.248  67.767  1.00  0.00    -0.307 A  
HETATM   19  C   UNL     1     -10.186  11.344  66.664  1.00  0.00    -0.258 A  
ENDBRANCH  13  14
ENDBRANCH   5  13
ENDBRANCH   4   5
ENDBRANCH   2   4
TORSDOF 6
ENDMDL
MODEL      202
REMARK 921   NORMALIZED FREE ENERGY PREDICTED BY IDOCK:   -2.86 KCAL/MOL
REMARK 922        TOTAL FREE ENERGY PREDICTED BY IDOCK:   -4.72 KCAL/MOL
REMARK 923 INTER-LIGAND FREE ENERGY PREDICTED BY IDOCK:   -4.31 KCAL/MOL
REMARK 924 INTRA-LIGAND FREE ENERGY PREDICTED BY IDOCK:   -0.40 KCAL/MOL
REMARK 927      BINDING AFFINITY PREDICTED BY RF-SCORE:    0.00 PKD
ROOT
HETATM    1  C   UNL     1      -7.449  10.801  67.457  1.00  0.00    -0.093 C  
HETATM    2  N   UNL     1      -7.011  10.104  68.676  1.00  0.00    -0.061 NA 
HETATM    3  C   UNL     1      -7.021  11.036  69.806  1.00  0.00    -0.090 C  
ENDROOT
BRANCH   2   4
HETATM    4  C   UNL     1      -7.920   8.954  68.912  1.00  0.00    -0.104 C  
BRANCH   4   5
HETATM    5  C   UNL     1      -8.682   8.804  70.270  1.00  0.00    -0.161 C  
BRANCH   5   6
HETATM    6  O   UNL     1     -10.054   8.405  70.055  1.00  0.00    -0.186 OA 
BRANCH   6   7
HETATM    7  C   UNL     1     -10.994   9.308  70.495  1.00  0.00    -0.265 A  
HETATM    8  C   UNL     1     -11.057  10.650  70.110  1.00  0.00    -0.341 A  
HETATM    9  C   UNL     1     -11.920   8.836  71.429  1.00  0.00    -0.367 A  
HETATM   10  C   UNL     1     -12.070  11.487  70.583  1.00  0.00    -0.450 A  
HETATM   11  C   UNL     1     -13.017  10.996  71.474  1.00  0.00    -0.553 A  
HETATM   12  C   UNL     1     -12.933   9.676  71.910  1.00  0.00    -0.527 A  
ENDBRANCH   6   7
ENDBRANCH   5   6
BRANCH   5  13
HETATM   13  O   UNL     1      -7.982   7.753  70.967  1.00  0.00    -0.087 OA 
BRANCH  13  14
HETATM   14  C   UNL     1      -8.588   6.534  71.080  1.00  0.00    -0.134 A  
HETATM   15  C   UNL     1     -10.096   4.910  72.035  1.00  0.00    -0.256 A  
HETATM   16  C   UNL     1      -9.494   6.169  72.074  1.00  0.00    -0.161 A  
HETATM   17  C   UNL     1      -8.911   4.397  69.998  1.00  0.00    -0.126 A  
HETATM   18  C   UNL     1      -8.315   5.653  70.035  1.00  0.00    -0.121 A  
HETATM   19  C   UNL     1      -9.799   4.022  71.002  1.00  0.00    -0.230 A  
ENDBRANCH  13  14
ENDBRANCH   5  13
ENDBRANCH   4   5
ENDBRANCH   2   4
TORSDOF 6
ENDMDL
MODEL      203
REMARK 921   NORMALIZED FREE ENERGY PREDICTED BY IDOCK:   -2.85 KCAL/MOL
REMARK 922        TOTAL FREE ENERGY PREDICTED BY IDOCK:   -4.71 KCAL/MOL
REMARK 923 INTER-LIGAND FREE ENERGY PREDICTED BY IDOCK:   -3.84 KCAL/MOL
REMARK 924 INTRA-LIGAND FREE ENERGY PREDICTED BY IDOCK:   -0.87 KCAL/MOL
REMARK 927      BINDING AFFINITY PREDICTED BY RF-SCORE:    0.00 PKD
ROOT
HETATM    1  C   UNL     1      -9.872  10.365  64.607  1.00  0.00    -0.338 C  
HETATM    2  N   UNL     1      -9.203  10.274  65.914  1.00  0.00    -0.160 NA 
HETATM    3  C   UNL     1      -9.725  11.310  66.807  1.00  0.00    -0.193 C  
ENDROOT
BRANCH   2   4
HETATM    4  C   UNL     1      -9.431   8.915  66.466  1.00  0.00    -0.211 C  
BRANCH   4   5
HETATM    5  C   UNL     1      -9.439   8.672  68.012  1.00  0.00    -0.140 C  
BRANCH   5   6
HETATM    6  O   UNL     1     -10.553   7.838  68.401  1.00  0.00    -0.187 OA 
BRANCH   6   7
HETATM    7  C   UNL     1     -10.890   7.910  69.733  1.00  0.00    -0.202 A  
HETATM    8  C   UNL     1     -10.764   9.050  70.531  1.00  0.00    -0.285 A  
HETATM    9  C   UNL     1     -11.352   6.730  70.321  1.00  0.00    -0.404 A  
HETATM   10  C   UNL     1     -11.165   9.040  71.869  1.00  0.00    -0.438 A  
HETATM   11  C   UNL     1     -11.670   7.875  72.433  1.00  0.00    -0.423 A  
HETATM   12  C   UNL     1     -11.748   6.715  71.665  1.00  0.00    -0.362 A  
ENDBRANCH   6   7
ENDBRANCH   5   6
BRANCH   5  13
HETATM   13  O   UNL     1      -8.204   7.975  68.277  1.00  0.00    -0.120 OA 
BRANCH  13  14
HETATM   14  C   UNL     1      -7.459   8.363  69.353  1.00  0.00    -0.089 A  
HETATM   15  C   UNL     1      -6.464   8.122  71.539  1.00  0.00    -0.044 A  
HETATM   16  C   UNL     1      -7.314   7.645  70.539  1.00  0.00    -0.074 A  
HETATM   17  C   UNL     1      -5.885  10.011  70.156  1.00  0.00    -0.054 A  
HETATM   18  C   UNL     1      -6.729   9.534  69.159  1.00  0.00    -0.049 A  
HETATM   19  C   UNL     1      -5.756   9.308  71.350  1.00  0.00    -0.067 A  
ENDBRANCH  13  14
ENDBRANCH   5  13
ENDBRANCH   4   5
ENDBRANCH   2   4
TORSDOF 6
ENDMDL
MODEL      204
REMARK 921   NORMALIZED FREE ENERGY PREDICTED BY IDOCK:   -2.76 KCAL/MOL
REMARK 922        TOTAL FREE ENERGY PREDICTED BY IDOCK:   -4.59 KCAL/MOL
REMARK 923 INTER-LIGAND FREE ENERGY PREDICTED BY IDOCK:   -4.00 KCAL/MOL
REMARK 924 INTRA-LIGAND FREE ENERGY PREDICTED BY IDOCK:   -0.59 KCAL/MOL
REMARK 927      BINDING AFFINITY PREDICTED BY RF-SCORE:    0.00 PKD
ROOT
HETATM    1  C   UNL     1      -9.425  12.657  65.983  1.00  0.00    -0.135 C  
HETATM    2  N   UNL     1      -9.472  12.544  67.449  1.00  0.00    -0.180 NA 
HETATM    3  C   UNL     1     -10.052  13.763  68.017  1.00  0.00    -0.245 C  
ENDROOT
BRANCH   2   4
HETATM    4  C   UNL     1     -10.272  11.346  67.803  1.00  0.00    -0.181 C  
BRANCH   4   5
HETATM    5  C   UNL     1      -9.856  10.433  69.004  1.00  0.00    -0.212 C  
BRANCH   5   6
HETATM    6  O   UNL     1     -10.613   9.202  69.008  1.00  0.00    -0.222 OA 
BRANCH   6   7
HETATM    7  C   UNL     1     -11.400   9.012  70.120  1.00  0.00    -0.121 A  
HETATM    8  C   UNL     1     -11.646   7.776  70.725  1.00  0.00    -0.270 A  
HETATM    9  C   UNL     1     -12.024  10.148  70.642  1.00  0.00    -0.423 A  
HETATM   10  C   UNL     1     -12.433   7.683  71.876  1.00  0.00    -0.338 A  
HETATM   11  C   UNL     1     -13.010   8.826  72.417  1.00  0.00    -0.442 A  
HETATM   12  C   UNL     1     -12.819  10.056  71.791  1.00  0.00    -0.546 A  
ENDBRANCH   6   7
ENDBRANCH   5   6
BRANCH   5  13
HETATM   13  O   UNL     1      -8.464  10.137  68.770  1.00  0.00    -0.117 OA 
BRANCH  13  14
HETATM   14  C   UNL     1      -7.923   9.041  69.379  1.00  0.00    -0.100 A  
HETATM   15  C   UNL     1      -7.297   7.651  71.249  1.00  0.00    -0.074 A  
HETATM   16  C   UNL     1      -7.809   8.852  70.755  1.00  0.00    -0.135 A  
HETATM   17  C   UNL     1      -7.044   6.822  68.999  1.00  0.00    -0.089 A  
HETATM   18  C   UNL     1      -7.558   8.017  68.507  1.00  0.00    -0.104 A  
HETATM   19  C   UNL     1      -6.908   6.640  70.371  1.00  0.00    -0.062 A  
ENDBRANCH  13  14
ENDBRANCH   5  13
ENDBRANCH   4   5
ENDBRANCH   2   4
TORSDOF 6
ENDMDL
MODEL      205
REMARK 921   NORMALIZED FREE ENERGY PREDICTED BY IDOCK:   -2.74 KCAL/MOL
REMARK 922        TOTAL FREE ENERGY PREDICTED BY IDOCK:   -4.56 KCAL/MOL
REMARK 923 INTER-LIGAND FREE ENERGY PREDICTED BY IDOCK:   -4.27 KCAL/MOL
REMARK 924 INTRA-LIGAND FREE ENERGY PREDICTED BY IDOCK:   -0.28 KCAL/MOL
REMARK 927      BINDING AFFINITY PREDICTED BY RF-SCORE:    0.00 PKD
ROOT
HETATM    1  C   UNL     1      -7.274   6.796  69.114  1.00  0.00    -0.091 C  
HETATM    2  N   UNL     1      -7.630   6.330  67.765  1.00  0.00    -0.099 NA 
HETATM    3  C   UNL     1      -8.657   5.290  67.859  1.00  0.00    -0.103 C  
ENDROOT
BRANCH   2   4
HETATM    4  C   UNL     1      -8.106   7.493  66.976  1.00  0.00    -0.117 C  
BRANCH   4   5
HETATM    5  C   UNL     1      -8.513   8.828  67.684  1.00  0.00    -0.125 C  
BRANCH   5   6
HETATM    6  O   UNL     1      -8.069   9.975  66.926  1.00  0.00    -0.116 OA 
BRANCH   6   7
HETATM    7  C   UNL     1      -9.068  10.655  66.269  1.00  0.00    -0.167 A  
HETATM    8  C   UNL     1      -9.702  11.805  66.748  1.00  0.00    -0.213 A  
HETATM    9  C   UNL     1      -9.495  10.113  65.055  1.00  0.00    -0.330 A  
HETATM   10  C   UNL     1     -10.686  12.450  65.995  1.00  0.00    -0.294 A  
HETATM   11  C   UNL     1     -11.070  11.932  64.764  1.00  0.00    -0.367 A  
HETATM   12  C   UNL     1     -10.486  10.754  64.301  1.00  0.00    -0.330 A  
ENDBRANCH   6   7
ENDBRANCH   5   6
BRANCH   5  13
HETATM   13  O   UNL     1      -9.955   8.801  67.711  1.00  0.00    -0.172 OA 
BRANCH  13  14
HETATM   14  C   UNL     1     -10.584   8.957  68.912  1.00  0.00    -0.165 A  
HETATM   15  C   UNL     1     -11.759  10.170  70.636  1.00  0.00    -0.425 A  
HETATM   16  C   UNL     1     -11.072  10.160  69.420  1.00  0.00    -0.288 A  
HETATM   17  C   UNL     1     -11.495   7.780  70.816  1.00  0.00    -0.285 A  
HETATM   18  C   UNL     1     -10.814   7.769  69.604  1.00  0.00    -0.185 A  
HETATM   19  C   UNL     1     -11.963   8.983  71.336  1.00  0.00    -0.400 A  
ENDBRANCH  13  14
ENDBRANCH   5  13
ENDBRANCH   4   5
ENDBRANCH   2   4
TORSDOF 6
ENDMDL
MODEL      206
REMARK 921   NORMALIZED FREE ENERGY PREDICTED BY IDOCK:   -2.74 KCAL/MOL
REMARK 922        TOTAL FREE ENERGY PREDICTED BY IDOCK:   -4.55 KCAL/MOL
REMARK 923 INTER-LIGAND FREE ENERGY PREDICTED BY IDOCK:   -3.82 KCAL/MOL
REMARK 924 INTRA-LIGAND FREE ENERGY PREDICTED BY IDOCK:   -0.73 KCAL/MOL
REMARK 927      BINDING AFFINITY PREDICTED BY RF-SCORE:    0.00 PKD
ROOT
HETATM    1  C   UNL     1      -8.898   7.059  66.023  1.00  0.00    -0.135 C  
HETATM    2  N   UNL     1     -10.028   7.669  66.739  1.00  0.00    -0.243 NA 
HETATM    3  C   UNL     1     -11.024   6.642  67.053  1.00  0.00    -0.393 C  
ENDROOT
BRANCH   2   4
HETATM    4  C   UNL     1      -9.511   8.318  67.969  1.00  0.00    -0.140 C  
BRANCH   4   5
HETATM    5  C   UNL     1      -9.521   7.560  69.338  1.00  0.00    -0.155 C  
BRANCH   5   6
HETATM    6  O   UNL     1      -8.402   6.651  69.437  1.00  0.00    -0.125 OA 
BRANCH   6   7
HETATM    7  C   UNL     1      -8.739   5.350  69.726  1.00  0.00    -0.106 A  
HETATM    8  C   UNL     1      -9.123   4.883  70.987  1.00  0.00    -0.181 A  
HETATM    9  C   UNL     1      -8.643   4.434  68.676  1.00  0.00    -0.108 A  
HETATM   10  C   UNL     1      -9.482   3.547  71.180  1.00  0.00    -0.229 A  
HETATM   11  C   UNL     1      -9.431   2.653  70.117  1.00  0.00    -0.161 A  
HETATM   12  C   UNL     1      -8.996   3.093  68.869  1.00  0.00    -0.188 A  
ENDBRANCH   6   7
ENDBRANCH   5   6
BRANCH   5  13
HETATM   13  O   UNL     1      -9.383   8.598  70.330  1.00  0.00    -0.157 OA 
BRANCH  13  14
HETATM   14  C   UNL     1      -9.131   8.232  71.621  1.00  0.00    -0.185 A  
HETATM   15  C   UNL     1      -7.794   7.990  73.615  1.00  0.00    -0.234 A  
HETATM   16  C   UNL     1      -7.901   8.337  72.267  1.00  0.00    -0.176 A  
HETATM   17  C   UNL     1     -10.147   7.465  73.675  1.00  0.00    -0.376 A  
HETATM   18  C   UNL     1     -10.254   7.815  72.333  1.00  0.00    -0.305 A  
HETATM   19  C   UNL     1      -8.915   7.548  74.316  1.00  0.00    -0.221 A  
ENDBRANCH  13  14
ENDBRANCH   5  13
ENDBRANCH   4   5
ENDBRANCH   2   4
TORSDOF 6
ENDMDL
MODEL      207
REMARK 921   NORMALIZED FREE ENERGY PREDICTED BY IDOCK:   -2.73 KCAL/MOL
REMARK 922        TOTAL FREE ENERGY PREDICTED BY IDOCK:   -4.54 KCAL/MOL
REMARK 923 INTER-LIGAND FREE ENERGY PREDICTED BY IDOCK:   -4.51 KCAL/MOL
REMARK 924 INTRA-LIGAND FREE ENERGY PREDICTED BY IDOCK:   -0.03 KCAL/MOL
REMARK 927      BINDING AFFINITY PREDICTED BY RF-SCORE:    0.00 PKD
ROOT
HETATM    1  C   UNL     1      -6.137   9.267  64.574  1.00  0.00    -0.072 C  
HETATM    2  N   UNL     1      -7.569   8.996  64.376  1.00  0.00    -0.108 NA 
HETATM    3  C   UNL     1      -7.822   7.561  64.520  1.00  0.00    -0.130 C  
ENDROOT
BRANCH   2   4
HETATM    4  C   UNL     1      -8.339   9.786  65.368  1.00  0.00    -0.139 C  
BRANCH   4   5
HETATM    5  C   UNL     1      -9.616   9.189  66.048  1.00  0.00    -0.272 C  
BRANCH   5   6
HETATM    6  O   UNL     1      -9.552   9.326  67.484  1.00  0.00    -0.142 OA 
BRANCH   6   7
HETATM    7  C   UNL     1     -10.118   8.289  68.189  1.00  0.00    -0.200 A  
HETATM    8  C   UNL     1     -10.339   7.004  67.684  1.00  0.00    -0.270 A  
HETATM    9  C   UNL     1     -10.533   8.576  69.491  1.00  0.00    -0.222 A  
HETATM   10  C   UNL     1     -10.890   6.002  68.486  1.00  0.00    -0.363 A  
HETATM   11  C   UNL     1     -11.254   6.283  69.797  1.00  0.00    -0.499 A  
HETATM   12  C   UNL     1     -11.092   7.574  70.295  1.00  0.00    -0.263 A  
ENDBRANCH   6   7
ENDBRANCH   5   6
BRANCH   5  13
HETATM   13  O   UNL     1     -10.705   9.986  65.539  1.00  0.00     0.063 OA 
BRANCH  13  14
HETATM   14  C   UNL     1     -10.625  11.344  65.656  1.00  0.00    -0.258 A  
HETATM   15  C   UNL     1     -10.278  13.433  66.814  1.00  0.00    -0.259 A  
HETATM   16  C   UNL     1     -10.408  12.043  66.842  1.00  0.00    -0.238 A  
HETATM   17  C   UNL     1     -10.552  13.418  64.418  1.00  0.00    -0.423 A  
HETATM   18  C   UNL     1     -10.678  12.033  64.446  1.00  0.00    -0.369 A  
HETATM   19  C   UNL     1     -10.358  14.120  65.603  1.00  0.00    -0.348 A  
ENDBRANCH  13  14
ENDBRANCH   5  13
ENDBRANCH   4   5
ENDBRANCH   2   4
TORSDOF 6
ENDMDL
MODEL      208
REMARK 921   NORMALIZED FREE ENERGY PREDICTED BY IDOCK:   -2.68 KCAL/MOL
REMARK 922        TOTAL FREE ENERGY PREDICTED BY IDOCK:   -4.48 KCAL/MOL
REMARK 923 INTER-LIGAND FREE ENERGY PREDICTED BY IDOCK:   -4.73 KCAL/MOL
REMARK 924 INTRA-LIGAND FREE ENERGY PREDICTED BY IDOCK:    0.26 KCAL/MOL
REMARK 927      BINDING AFFINITY PREDICTED BY RF-SCORE:    0.00 PKD
ROOT
HETATM    1  C   UNL     1      -6.898   6.931  69.310  1.00  0.00    -0.058 C  
HETATM    2  N   UNL     1      -8.197   6.507  68.764  1.00  0.00    -0.118 NA 
HETATM    3  C   UNL     1      -8.013   5.320  67.925  1.00  0.00    -0.095 C  
ENDROOT
BRANCH   2   4
HETATM    4  C   UNL     1      -9.117   6.234  69.896  1.00  0.00    -0.144 C  
BRANCH   4   5
HETATM    5  C   UNL     1      -9.821   7.407  70.654  1.00  0.00    -0.179 C  
BRANCH   5   6
HETATM    6  O   UNL     1     -11.204   7.530  70.254  1.00  0.00    -0.272 OA 
BRANCH   6   7
HETATM    7  C   UNL     1     -11.847   8.648  70.731  1.00  0.00    -0.171 A  
HETATM    8  C   UNL     1     -12.868   8.639  71.685  1.00  0.00    -0.380 A  
HETATM    9  C   UNL     1     -11.463   9.871  70.175  1.00  0.00    -0.309 A  
HETATM   10  C   UNL     1     -13.441   9.830  72.137  1.00  0.00    -0.491 A  
HETATM   11  C   UNL     1     -13.018  11.046  71.614  1.00  0.00    -0.561 A  
HETATM   12  C   UNL     1     -12.041  11.066  70.622  1.00  0.00    -0.471 A  
ENDBRANCH   6   7
ENDBRANCH   5   6
BRANCH   5  13
HETATM   13  O   UNL     1      -9.758   7.032  72.046  1.00  0.00    -0.156 OA 
BRANCH  13  14
HETATM   14  C   UNL     1      -9.831   5.706  72.363  1.00  0.00    -0.164 A  
HETATM   15  C   UNL     1      -9.010   3.445  72.562  1.00  0.00    -0.115 A  
HETATM   16  C   UNL     1      -8.837   4.760  72.124  1.00  0.00    -0.135 A  
HETATM   17  C   UNL     1     -11.153   4.033  73.501  1.00  0.00    -0.350 A  
HETATM   18  C   UNL     1     -10.977   5.342  73.068  1.00  0.00    -0.348 A  
HETATM   19  C   UNL     1     -10.171   3.081  73.243  1.00  0.00    -0.215 A  
ENDBRANCH  13  14
ENDBRANCH   5  13
ENDBRANCH   4   5
ENDBRANCH   2   4
TORSDOF 6
ENDMDL
MODEL      209
REMARK 921   NORMALIZED FREE ENERGY PREDICTED BY IDOCK:   -2.68 KCAL/MOL
REMARK 922        TOTAL FREE ENERGY PREDICTED BY IDOCK:   -4.47 KCAL/MOL
REMARK 923 INTER-LIGAND FREE ENERGY PREDICTED BY IDOCK:   -4.56 KCAL/MOL
REMARK 924 INTRA-LIGAND FREE ENERGY PREDICTED BY IDOCK:    0.09 KCAL/MOL
REMARK 927      BINDING AFFINITY PREDICTED BY RF-SCORE:    0.00 PKD
ROOT
HETATM    1  C   UNL     1     -10.367  13.125  65.408  1.00  0.00    -0.301 C  
HETATM    2  N   UNL     1     -10.609  14.533  65.756  1.00  0.00    -0.302 NA 
HETATM    3  C   UNL     1     -11.658  14.614  66.775  1.00  0.00    -0.360 C  
ENDROOT
BRANCH   2   4
HETATM    4  C   UNL     1      -9.336  15.124  66.240  1.00  0.00    -0.313 C  
BRANCH   4   5
HETATM    5  C   UNL     1      -9.310  16.550  66.883  1.00  0.00    -0.232 C  
BRANCH   5   6
HETATM    6  O   UNL     1      -8.564  16.549  68.120  1.00  0.00    -0.184 OA 
BRANCH   6   7
HETATM    7  C   UNL     1      -7.524  15.650  68.167  1.00  0.00    -0.124 A  
HETATM    8  C   UNL     1      -6.228  15.900  67.708  1.00  0.00    -0.166 A  
HETATM    9  C   UNL     1      -7.820  14.384  68.678  1.00  0.00    -0.140 A  
HETATM   10  C   UNL     1      -5.224  14.935  67.828  1.00  0.00    -0.029 A  
HETATM   11  C   UNL     1      -5.516  13.696  68.384  1.00  0.00    -0.097 A  
HETATM   12  C   UNL     1      -6.817  13.413  68.793  1.00  0.00    -0.101 A  
ENDBRANCH   6   7
ENDBRANCH   5   6
BRANCH   5  13
HETATM   13  O   UNL     1      -8.629  17.374  65.914  1.00  0.00    -0.525 OA 
BRANCH  13  14
HETATM   14  C   UNL     1      -8.228  18.623  66.292  1.00  0.00    -0.237 A  
HETATM   15  C   UNL     1      -8.427  20.746  67.421  1.00  0.00    -0.217 A  
HETATM   16  C   UNL     1      -8.984  19.523  67.042  1.00  0.00    -0.365 A  
HETATM   17  C   UNL     1      -6.360  20.155  66.330  1.00  0.00    -0.219 A  
HETATM   18  C   UNL     1      -6.913  18.935  65.956  1.00  0.00    -0.294 A  
HETATM   19  C   UNL     1      -7.120  21.065  67.059  1.00  0.00    -0.348 A  
ENDBRANCH  13  14
ENDBRANCH   5  13
ENDBRANCH   4   5
ENDBRANCH   2   4
TORSDOF 6
ENDMDL
MODEL      210
REMARK 921   NORMALIZED FREE ENERGY PREDICTED BY IDOCK:   -2.63 KCAL/MOL
REMARK 922        TOTAL FREE ENERGY PREDICTED BY IDOCK:   -4.40 KCAL/MOL
REMARK 923 INTER-LIGAND FREE ENERGY PREDICTED BY IDOCK:   -3.65 KCAL/MOL
REMARK 924 INTRA-LIGAND FREE ENERGY PREDICTED BY IDOCK:   -0.75 KCAL/MOL
REMARK 927      BINDING AFFINITY PREDICTED BY RF-SCORE:    0.00 PKD
ROOT
HETATM    1  C   UNL     1      -8.234   9.615  65.018  1.00  0.00    -0.136 C  
HETATM    2  N   UNL     1      -9.114   9.722  66.192  1.00  0.00    -0.154 NA 
HETATM    3  C   UNL     1      -9.995   8.553  66.254  1.00  0.00    -0.181 C  
ENDROOT
BRANCH   2   4
HETATM    4  C   UNL     1      -8.268   9.830  67.406  1.00  0.00    -0.114 C  
BRANCH   4   5
HETATM    5  C   UNL     1      -8.682  10.767  68.588  1.00  0.00    -0.152 C  
BRANCH   5   6
HETATM    6  O   UNL     1      -8.586  10.080  69.855  1.00  0.00    -0.194 OA 
BRANCH   6   7
HETATM    7  C   UNL     1      -9.753   9.488  70.281  1.00  0.00    -0.263 A  
HETATM    8  C   UNL     1      -9.856   8.182  70.768  1.00  0.00    -0.201 A  
HETATM    9  C   UNL     1     -10.916  10.253  70.169  1.00  0.00    -0.377 A  
HETATM   10  C   UNL     1     -11.080   7.674  71.211  1.00  0.00    -0.268 A  
HETATM   11  C   UNL     1     -12.223   8.461  71.143  1.00  0.00    -0.248 A  
HETATM   12  C   UNL     1     -12.145   9.744  70.606  1.00  0.00    -0.311 A  
ENDBRANCH   6   7
ENDBRANCH   5   6
BRANCH   5  13
HETATM   13  O   UNL     1      -7.722  11.843  68.554  1.00  0.00    -0.127 OA 
BRANCH  13  14
HETATM   14  C   UNL     1      -8.184  13.127  68.591  1.00  0.00    -0.000 A  
HETATM   15  C   UNL     1      -8.025  15.510  68.932  1.00  0.00    -0.187 A  
HETATM   16  C   UNL     1      -7.454  14.238  69.008  1.00  0.00    -0.102 A  
HETATM   17  C   UNL     1     -10.035  14.562  67.996  1.00  0.00    -0.222 A  
HETATM   18  C   UNL     1      -9.465  13.296  68.069  1.00  0.00    -0.219 A  
HETATM   19  C   UNL     1      -9.317  15.671  68.434  1.00  0.00    -0.195 A  
ENDBRANCH  13  14
ENDBRANCH   5  13
ENDBRANCH   4   5
ENDBRANCH   2   4
TORSDOF 6
ENDMDL
MODEL      211
REMARK 921   NORMALIZED FREE ENERGY PREDICTED BY IDOCK:   -2.62 KCAL/MOL
REMARK 922        TOTAL FREE ENERGY PREDICTED BY IDOCK:   -4.40 KCAL/MOL
REMARK 923 INTER-LIGAND FREE ENERGY PREDICTED BY IDOCK:   -3.56 KCAL/MOL
REMARK 924 INTRA-LIGAND FREE ENERGY PREDICTED BY IDOCK:   -0.84 KCAL/MOL
REMARK 927      BINDING AFFINITY PREDICTED BY RF-SCORE:    0.00 PKD
ROOT
HETATM    1  C   UNL     1     -10.195  10.545  66.123  1.00  0.00    -0.236 C  
HETATM    2  N   UNL     1     -10.157  10.515  67.593  1.00  0.00    -0.173 NA 
HETATM    3  C   UNL     1     -10.791  11.723  68.126  1.00  0.00    -0.217 C  
ENDROOT
BRANCH   2   4
HETATM    4  C   UNL     1     -10.851   9.288  68.056  1.00  0.00    -0.106 C  
BRANCH   4   5
HETATM    5  C   UNL     1     -10.250   8.416  69.208  1.00  0.00    -0.208 C  
BRANCH   5   6
HETATM    6  O   UNL     1     -11.269   7.604  69.832  1.00  0.00    -0.204 OA 
BRANCH   6   7
HETATM    7  C   UNL     1     -11.005   7.244  71.133  1.00  0.00    -0.247 A  
HETATM    8  C   UNL     1     -11.389   6.037  71.724  1.00  0.00    -0.324 A  
HETATM    9  C   UNL     1     -10.340   8.190  71.917  1.00  0.00    -0.300 A  
HETATM   10  C   UNL     1     -11.046   5.742  73.045  1.00  0.00    -0.305 A  
HETATM   11  C   UNL     1     -10.340   6.668  73.803  1.00  0.00    -0.373 A  
HETATM   12  C   UNL     1     -10.001   7.899  73.244  1.00  0.00    -0.331 A  
ENDBRANCH   6   7
ENDBRANCH   5   6
BRANCH   5  13
HETATM   13  O   UNL     1      -9.291   7.560  68.554  1.00  0.00    -0.143 OA 
BRANCH  13  14
HETATM   14  C   UNL     1      -7.979   7.939  68.552  1.00  0.00    -0.121 A  
HETATM   15  C   UNL     1      -5.854   8.492  67.553  1.00  0.00    -0.043 A  
HETATM   16  C   UNL     1      -7.162   8.023  67.426  1.00  0.00    -0.088 A  
HETATM   17  C   UNL     1      -6.191   8.819  69.919  1.00  0.00    -0.034 A  
HETATM   18  C   UNL     1      -7.496   8.355  69.791  1.00  0.00    -0.072 A  
HETATM   19  C   UNL     1      -5.366   8.882  68.799  1.00  0.00    -0.033 A  
ENDBRANCH  13  14
ENDBRANCH   5  13
ENDBRANCH   4   5
ENDBRANCH   2   4
TORSDOF 6
ENDMDL
MODEL      212
REMARK 921   NORMALIZED FREE ENERGY PREDICTED BY IDOCK:   -2.61 KCAL/MOL
REMARK 922        TOTAL FREE ENERGY PREDICTED BY IDOCK:   -4.37 KCAL/MOL
REMARK 923 INTER-LIGAND FREE ENERGY PREDICTED BY IDOCK:   -4.33 KCAL/MOL
REMARK 924 INTRA-LIGAND FREE ENERGY PREDICTED BY IDOCK:   -0.04 KCAL/MOL
REMARK 927      BINDING AFFINITY PREDICTED BY RF-SCORE:    0.00 PKD
ROOT
HETATM    1  C   UNL     1      -6.812   4.857  69.722  1.00  0.00    -0.052 C  
HETATM    2  N   UNL     1      -8.168   4.815  69.154  1.00  0.00    -0.081 NA 
HETATM    3  C   UNL     1      -8.931   3.734  69.783  1.00  0.00    -0.103 C  
ENDROOT
BRANCH   2   4
HETATM    4  C   UNL     1      -8.812   6.134  69.374  1.00  0.00    -0.126 C  
BRANCH   4   5
HETATM    5  C   UNL     1      -9.450   6.921  68.182  1.00  0.00    -0.122 C  
BRANCH   5   6
HETATM    6  O   UNL     1     -10.710   7.513  68.565  1.00  0.00    -0.170 OA 
BRANCH   6   7
HETATM    7  C   UNL     1     -10.886   7.674  69.920  1.00  0.00    -0.235 A  
HETATM    8  C   UNL     1     -10.338   8.710  70.681  1.00  0.00    -0.241 A  
HETATM    9  C   UNL     1     -11.636   6.691  70.570  1.00  0.00    -0.448 A  
HETATM   10  C   UNL     1     -10.599   8.812  72.050  1.00  0.00    -0.414 A  
HETATM   11  C   UNL     1     -11.388   7.857  72.679  1.00  0.00    -0.468 A  
HETATM   12  C   UNL     1     -11.893   6.788  71.943  1.00  0.00    -0.366 A  
ENDBRANCH   6   7
ENDBRANCH   5   6
BRANCH   5  13
HETATM   13  O   UNL     1      -8.501   7.966  67.886  1.00  0.00    -0.125 OA 
BRANCH  13  14
HETATM   14  C   UNL     1      -8.909   9.011  67.108  1.00  0.00    -0.119 A  
HETATM   15  C   UNL     1      -9.906  10.052  65.173  1.00  0.00    -0.388 A  
HETATM   16  C   UNL     1      -9.466   8.904  65.835  1.00  0.00    -0.303 A  
HETATM   17  C   UNL     1      -9.259  11.402  67.064  1.00  0.00    -0.174 A  
HETATM   18  C   UNL     1      -8.825  10.258  67.725  1.00  0.00    -0.125 A  
HETATM   19  C   UNL     1      -9.795  11.300  65.784  1.00  0.00    -0.273 A  
ENDBRANCH  13  14
ENDBRANCH   5  13
ENDBRANCH   4   5
ENDBRANCH   2   4
TORSDOF 6
ENDMDL
MODEL      213
REMARK 921   NORMALIZED FREE ENERGY PREDICTED BY IDOCK:   -2.54 KCAL/MOL
REMARK 922        TOTAL FREE ENERGY PREDICTED BY IDOCK:   -4.29 KCAL/MOL
REMARK 923 INTER-LIGAND FREE ENERGY PREDICTED BY IDOCK:   -3.54 KCAL/MOL
REMARK 924 INTRA-LIGAND FREE ENERGY PREDICTED BY IDOCK:   -0.74 KCAL/MOL
REMARK 927      BINDING AFFINITY PREDICTED BY RF-SCORE:    0.00 PKD
ROOT
HETATM    1  C   UNL     1      -9.918  11.837  66.105  1.00  0.00    -0.226 C  
HETATM    2  N   UNL     1     -10.490  11.829  67.460  1.00  0.00    -0.198 NA 
HETATM    3  C   UNL     1     -11.549  12.837  67.552  1.00  0.00    -0.356 C  
ENDROOT
BRANCH   2   4
HETATM    4  C   UNL     1     -11.010  10.469  67.744  1.00  0.00    -0.313 C  
BRANCH   4   5
HETATM    5  C   UNL     1     -10.056   9.228  67.724  1.00  0.00    -0.204 C  
BRANCH   5   6
HETATM    6  O   UNL     1      -9.624   8.883  69.059  1.00  0.00    -0.155 OA 
BRANCH   6   7
HETATM    7  C   UNL     1      -8.304   9.158  69.328  1.00  0.00    -0.123 A  
HETATM    8  C   UNL     1      -7.788   9.442  70.596  1.00  0.00    -0.178 A  
HETATM    9  C   UNL     1      -7.440   9.195  68.231  1.00  0.00    -0.083 A  
HETATM   10  C   UNL     1      -6.423   9.677  70.780  1.00  0.00    -0.104 A  
HETATM   11  C   UNL     1      -5.562   9.661  69.690  1.00  0.00    -0.033 A  
HETATM   12  C   UNL     1      -6.072   9.437  68.413  1.00  0.00    -0.044 A  
ENDBRANCH   6   7
ENDBRANCH   5   6
BRANCH   5  13
HETATM   13  O   UNL     1     -10.862   8.158  67.190  1.00  0.00    -0.261 OA 
BRANCH  13  14
HETATM   14  C   UNL     1     -10.230   7.107  66.590  1.00  0.00    -0.153 A  
HETATM   15  C   UNL     1      -8.419   5.994  65.450  1.00  0.00    -0.145 A  
HETATM   16  C   UNL     1      -8.986   7.161  65.965  1.00  0.00    -0.141 A  
HETATM   17  C   UNL     1     -10.322   4.723  66.209  1.00  0.00    -0.329 A  
HETATM   18  C   UNL     1     -10.884   5.884  66.726  1.00  0.00    -0.347 A  
HETATM   19  C   UNL     1      -9.090   4.778  65.565  1.00  0.00    -0.152 A  
ENDBRANCH  13  14
ENDBRANCH   5  13
ENDBRANCH   4   5
ENDBRANCH   2   4
TORSDOF 6
ENDMDL
MODEL      214
REMARK 921   NORMALIZED FREE ENERGY PREDICTED BY IDOCK:   -2.50 KCAL/MOL
REMARK 922        TOTAL FREE ENERGY PREDICTED BY IDOCK:   -4.24 KCAL/MOL
REMARK 923 INTER-LIGAND FREE ENERGY PREDICTED BY IDOCK:   -4.85 KCAL/MOL
REMARK 924 INTRA-LIGAND FREE ENERGY PREDICTED BY IDOCK:    0.62 KCAL/MOL
REMARK 927      BINDING AFFINITY PREDICTED BY RF-SCORE:    0.00 PKD
ROOT
HETATM    1  C   UNL     1     -10.810  12.226  64.660  1.00  0.00    -0.308 C  
HETATM    2  N   UNL     1     -11.141  13.538  65.237  1.00  0.00    -0.292 NA 
HETATM    3  C   UNL     1     -12.581  13.612  65.494  1.00  0.00    -0.496 C  
ENDROOT
BRANCH   2   4
HETATM    4  C   UNL     1     -10.357  13.716  66.484  1.00  0.00    -0.282 C  
BRANCH   4   5
HETATM    5  C   UNL     1     -10.193  15.131  67.131  1.00  0.00    -0.247 C  
BRANCH   5   6
HETATM    6  O   UNL     1      -9.605  15.037  68.447  1.00  0.00    -0.200 OA 
BRANCH   6   7
HETATM    7  C   UNL     1      -8.691  14.021  68.600  1.00  0.00    -0.103 A  
HETATM    8  C   UNL     1      -8.927  12.678  68.294  1.00  0.00    -0.176 A  
HETATM    9  C   UNL     1      -7.454  14.374  69.144  1.00  0.00    -0.094 A  
HETATM   10  C   UNL     1      -7.925  11.717  68.450  1.00  0.00    -0.147 A  
HETATM   11  C   UNL     1      -6.680  12.087  68.945  1.00  0.00    -0.093 A  
HETATM   12  C   UNL     1      -6.449  13.412  69.308  1.00  0.00    -0.111 A  
ENDBRANCH   6   7
ENDBRANCH   5   6
BRANCH   5  13
HETATM   13  O   UNL     1      -9.289  15.830  66.252  1.00  0.00    -0.268 OA 
BRANCH  13  14
HETATM   14  C   UNL     1      -9.335  17.195  66.225  1.00  0.00    -0.234 A  
HETATM   15  C   UNL     1     -10.376  19.352  65.933  1.00  0.00    -0.536 A  
HETATM   16  C   UNL     1     -10.438  17.960  65.849  1.00  0.00    -0.253 A  
HETATM   17  C   UNL     1      -8.127  19.209  66.792  1.00  0.00    -0.285 A  
HETATM   18  C   UNL     1      -8.191  17.823  66.712  1.00  0.00    -0.275 A  
HETATM   19  C   UNL     1      -9.219  19.976  66.397  1.00  0.00    -0.453 A  
ENDBRANCH  13  14
ENDBRANCH   5  13
ENDBRANCH   4   5
ENDBRANCH   2   4
TORSDOF 6
ENDMDL
MODEL      215
REMARK 921   NORMALIZED FREE ENERGY PREDICTED BY IDOCK:   -2.44 KCAL/MOL
REMARK 922        TOTAL FREE ENERGY PREDICTED BY IDOCK:   -4.14 KCAL/MOL
REMARK 923 INTER-LIGAND FREE ENERGY PREDICTED BY IDOCK:   -3.35 KCAL/MOL
REMARK 924 INTRA-LIGAND FREE ENERGY PREDICTED BY IDOCK:   -0.79 KCAL/MOL
REMARK 927      BINDING AFFINITY PREDICTED BY RF-SCORE:    0.00 PKD
ROOT
HETATM    1  C   UNL     1      -7.727  11.853  68.182  1.00  0.00    -0.126 C  
HETATM    2  N   UNL     1      -7.407  10.757  67.255  1.00  0.00    -0.093 NA 
HETATM    3  C   UNL     1      -6.666   9.712  67.966  1.00  0.00    -0.062 C  
ENDROOT
BRANCH   2   4
HETATM    4  C   UNL     1      -8.674  10.234  66.688  1.00  0.00    -0.127 C  
BRANCH   4   5
HETATM    5  C   UNL     1      -9.300   8.903  67.222  1.00  0.00    -0.140 C  
BRANCH   5   6
HETATM    6  O   UNL     1     -10.636   9.120  67.725  1.00  0.00    -0.248 OA 
BRANCH   6   7
HETATM    7  C   UNL     1     -10.769   8.989  69.088  1.00  0.00    -0.157 A  
HETATM    8  C   UNL     1     -10.365   7.874  69.828  1.00  0.00    -0.219 A  
HETATM    9  C   UNL     1     -11.397  10.043  69.756  1.00  0.00    -0.281 A  
HETATM   10  C   UNL     1     -10.509   7.843  71.217  1.00  0.00    -0.233 A  
HETATM   11  C   UNL     1     -11.089   8.917  71.879  1.00  0.00    -0.442 A  
HETATM   12  C   UNL     1     -11.548  10.011  71.148  1.00  0.00    -0.460 A  
ENDBRANCH   6   7
ENDBRANCH   5   6
BRANCH   5  13
HETATM   13  O   UNL     1      -9.358   8.039  66.068  1.00  0.00    -0.171 OA 
BRANCH  13  14
HETATM   14  C   UNL     1      -8.652   6.871  66.095  1.00  0.00    -0.143 A  
HETATM   15  C   UNL     1      -8.070   4.674  66.905  1.00  0.00    -0.103 A  
HETATM   16  C   UNL     1      -8.810   5.851  67.031  1.00  0.00    -0.112 A  
HETATM   17  C   UNL     1      -7.040   5.526  64.898  1.00  0.00    -0.061 A  
HETATM   18  C   UNL     1      -7.781   6.696  65.021  1.00  0.00    -0.103 A  
HETATM   19  C   UNL     1      -7.180   4.515  65.844  1.00  0.00    -0.076 A  
ENDBRANCH  13  14
ENDBRANCH   5  13
ENDBRANCH   4   5
ENDBRANCH   2   4
TORSDOF 6
ENDMDL
MODEL      216
REMARK 921   NORMALIZED FREE ENERGY PREDICTED BY IDOCK:   -2.41 KCAL/MOL
REMARK 922        TOTAL FREE ENERGY PREDICTED BY IDOCK:   -4.11 KCAL/MOL
REMARK 923 INTER-LIGAND FREE ENERGY PREDICTED BY IDOCK:   -4.06 KCAL/MOL
REMARK 924 INTRA-LIGAND FREE ENERGY PREDICTED BY IDOCK:   -0.05 KCAL/MOL
REMARK 927      BINDING AFFINITY PREDICTED BY RF-SCORE:    0.00 PKD
ROOT
HETATM    1  C   UNL     1     -12.550  10.805  70.896  1.00  0.00    -0.401 C  
HETATM    2  N   UNL     1     -12.154   9.542  71.537  1.00  0.00    -0.364 NA 
HETATM    3  C   UNL     1     -13.283   8.608  71.520  1.00  0.00    -0.300 C  
ENDROOT
BRANCH   2   4
HETATM    4  C   UNL     1     -10.984   8.991  70.810  1.00  0.00    -0.258 C  
BRANCH   4   5
HETATM    5  C   UNL     1     -11.121   7.703  69.932  1.00  0.00    -0.150 C  
BRANCH   5   6
HETATM    6  O   UNL     1     -11.000   8.016  68.527  1.00  0.00     0.021 OA 
BRANCH   6   7
HETATM    7  C   UNL     1     -10.259   9.141  68.247  1.00  0.00    -0.206 A  
HETATM    8  C   UNL     1      -8.866   9.222  68.323  1.00  0.00    -0.129 A  
HETATM    9  C   UNL     1     -10.978  10.289  67.904  1.00  0.00    -0.350 A  
HETATM   10  C   UNL     1      -8.195  10.400  67.986  1.00  0.00    -0.114 A  
HETATM   11  C   UNL     1      -8.915  11.523  67.598  1.00  0.00    -0.160 A  
HETATM   12  C   UNL     1     -10.307  11.473  67.573  1.00  0.00    -0.220 A  
ENDBRANCH   6   7
ENDBRANCH   5   6
BRANCH   5  13
HETATM   13  O   UNL     1     -10.015   6.869  70.333  1.00  0.00    -0.179 OA 
BRANCH  13  14
HETATM   14  C   UNL     1     -10.082   6.242  71.544  1.00  0.00    -0.190 A  
HETATM   15  C   UNL     1     -11.046   4.800  73.221  1.00  0.00    -0.411 A  
HETATM   16  C   UNL     1     -11.134   5.441  71.984  1.00  0.00    -0.204 A  
HETATM   17  C   UNL     1      -8.849   5.734  73.560  1.00  0.00    -0.122 A  
HETATM   18  C   UNL     1      -8.935   6.370  72.326  1.00  0.00    -0.139 A  
HETATM   19  C   UNL     1      -9.908   4.953  74.011  1.00  0.00    -0.179 A  
ENDBRANCH  13  14
ENDBRANCH   5  13
ENDBRANCH   4   5
ENDBRANCH   2   4
TORSDOF 6
ENDMDL
MODEL      217
REMARK 921   NORMALIZED FREE ENERGY PREDICTED BY IDOCK:   -2.37 KCAL/MOL
REMARK 922        TOTAL FREE ENERGY PREDICTED BY IDOCK:   -4.06 KCAL/MOL
REMARK 923 INTER-LIGAND FREE ENERGY PREDICTED BY IDOCK:   -3.11 KCAL/MOL
REMARK 924 INTRA-LIGAND FREE ENERGY PREDICTED BY IDOCK:   -0.95 KCAL/MOL
REMARK 927      BINDING AFFINITY PREDICTED BY RF-SCORE:    0.00 PKD
ROOT
HETATM    1  C   UNL     1      -8.900   7.148  65.797  1.00  0.00    -0.064 C  
HETATM    2  N   UNL     1     -10.046   7.291  66.707  1.00  0.00    -0.231 NA 
HETATM    3  C   UNL     1     -10.744   6.009  66.825  1.00  0.00    -0.302 C  
ENDROOT
BRANCH   2   4
HETATM    4  C   UNL     1      -9.547   7.760  68.023  1.00  0.00    -0.150 C  
BRANCH   4   5
HETATM    5  C   UNL     1      -9.476   6.786  69.245  1.00  0.00    -0.142 C  
BRANCH   5   6
HETATM    6  O   UNL     1      -8.122   6.339  69.477  1.00  0.00    -0.113 OA 
BRANCH   6   7
HETATM    7  C   UNL     1      -7.871   5.039  69.105  1.00  0.00    -0.080 A  
HETATM    8  C   UNL     1      -8.474   3.913  69.673  1.00  0.00    -0.087 A  
HETATM    9  C   UNL     1      -6.907   4.851  68.112  1.00  0.00    -0.056 A  
HETATM   10  C   UNL     1      -8.182   2.629  69.206  1.00  0.00    -0.071 A  
HETATM   11  C   UNL     1      -7.257   2.455  68.184  1.00  0.00    -0.048 A  
HETATM   12  C   UNL     1      -6.608   3.564  67.647  1.00  0.00    -0.042 A  
ENDBRANCH   6   7
ENDBRANCH   5   6
BRANCH   5  13
HETATM   13  O   UNL     1      -9.918   7.577  70.367  1.00  0.00    -0.184 OA 
BRANCH  13  14
HETATM   14  C   UNL     1     -10.317   6.929  71.501  1.00  0.00    -0.203 A  
HETATM   15  C   UNL     1     -11.319   5.138  72.770  1.00  0.00    -0.311 A  
HETATM   16  C   UNL     1     -11.032   5.733  71.540  1.00  0.00    -0.304 A  
HETATM   17  C   UNL     1     -10.155   6.915  73.912  1.00  0.00    -0.391 A  
HETATM   18  C   UNL     1      -9.865   7.505  72.687  1.00  0.00    -0.242 A  
HETATM   19  C   UNL     1     -10.888   5.732  73.955  1.00  0.00    -0.093 A  
ENDBRANCH  13  14
ENDBRANCH   5  13
ENDBRANCH   4   5
ENDBRANCH   2   4
TORSDOF 6
ENDMDL
MODEL      218
REMARK 921   NORMALIZED FREE ENERGY PREDICTED BY IDOCK:   -2.27 KCAL/MOL
REMARK 922        TOTAL FREE ENERGY PREDICTED BY IDOCK:   -3.92 KCAL/MOL
REMARK 923 INTER-LIGAND FREE ENERGY PREDICTED BY IDOCK:   -3.05 KCAL/MOL
REMARK 924 INTRA-LIGAND FREE ENERGY PREDICTED BY IDOCK:   -0.88 KCAL/MOL
REMARK 927      BINDING AFFINITY PREDICTED BY RF-SCORE:    0.00 PKD
ROOT
HETATM    1  C   UNL     1      -8.701   7.031  65.925  1.00  0.00    -0.126 C  
HETATM    2  N   UNL     1      -9.601   7.954  66.633  1.00  0.00    -0.212 NA 
HETATM    3  C   UNL     1     -10.792   7.229  67.085  1.00  0.00    -0.308 C  
ENDROOT
BRANCH   2   4
HETATM    4  C   UNL     1      -8.863   8.550  67.775  1.00  0.00    -0.137 C  
BRANCH   4   5
HETATM    5  C   UNL     1      -8.522   7.695  69.040  1.00  0.00    -0.132 C  
BRANCH   5   6
HETATM    6  O   UNL     1      -7.094   7.560  69.207  1.00  0.00    -0.072 OA 
BRANCH   6   7
HETATM    7  C   UNL     1      -6.618   6.275  69.094  1.00  0.00    -0.048 A  
HETATM    8  C   UNL     1      -5.826   5.803  68.043  1.00  0.00    -0.013 A  
HETATM    9  C   UNL     1      -7.002   5.379  70.095  1.00  0.00    -0.057 A  
HETATM   10  C   UNL     1      -5.359   4.487  68.029  1.00  0.00    -0.011 A  
HETATM   11  C   UNL     1      -5.705   3.616  69.055  1.00  0.00    -0.022 A  
HETATM   12  C   UNL     1      -6.540   4.057  70.079  1.00  0.00    -0.033 A  
ENDBRANCH   6   7
ENDBRANCH   5   6
BRANCH   5  13
HETATM   13  O   UNL     1      -9.064   8.448  70.145  1.00  0.00    -0.146 OA 
BRANCH  13  14
HETATM   14  C   UNL     1     -10.198   7.986  70.750  1.00  0.00    -0.194 A  
HETATM   15  C   UNL     1     -12.504   8.076  71.456  1.00  0.00    -0.334 A  
HETATM   16  C   UNL     1     -11.394   8.691  70.874  1.00  0.00    -0.314 A  
HETATM   17  C   UNL     1     -11.232   6.050  71.760  1.00  0.00    -0.333 A  
HETATM   18  C   UNL     1     -10.128   6.662  71.177  1.00  0.00    -0.202 A  
HETATM   19  C   UNL     1     -12.420   6.759  71.906  1.00  0.00    -0.355 A  
ENDBRANCH  13  14
ENDBRANCH   5  13
ENDBRANCH   4   5
ENDBRANCH   2   4
TORSDOF 6
ENDMDL
MODEL      219
REMARK 921   NORMALIZED FREE ENERGY PREDICTED BY IDOCK:   -2.25 KCAL/MOL
REMARK 922        TOTAL FREE ENERGY PREDICTED BY IDOCK:   -3.89 KCAL/MOL
REMARK 923 INTER-LIGAND FREE ENERGY PREDICTED BY IDOCK:   -3.86 KCAL/MOL
REMARK 924 INTRA-LIGAND FREE ENERGY PREDICTED BY IDOCK:   -0.02 KCAL/MOL
REMARK 927      BINDING AFFINITY PREDICTED BY RF-SCORE:    0.00 PKD
ROOT
HETATM    1  C   UNL     1      -7.122   4.996  70.096  1.00  0.00    -0.054 C  
HETATM    2  N   UNL     1      -8.154   4.138  69.493  1.00  0.00    -0.059 NA 
HETATM    3  C   UNL     1      -8.092   2.802  70.089  1.00  0.00    -0.041 C  
ENDROOT
BRANCH   2   4
HETATM    4  C   UNL     1      -9.479   4.770  69.711  1.00  0.00    -0.162 C  
BRANCH   4   5
HETATM    5  C   UNL     1     -10.340   5.260  68.501  1.00  0.00    -0.112 C  
BRANCH   5   6
HETATM    6  O   UNL     1     -11.391   6.151  68.936  1.00  0.00    -0.367 OA 
BRANCH   6   7
HETATM    7  C   UNL     1     -11.078   6.920  70.033  1.00  0.00    -0.299 A  
HETATM    8  C   UNL     1     -10.246   8.043  70.013  1.00  0.00    -0.205 A  
HETATM    9  C   UNL     1     -11.609   6.503  71.256  1.00  0.00    -0.381 A  
HETATM   10  C   UNL     1     -10.012   8.785  71.173  1.00  0.00    -0.317 A  
HETATM   11  C   UNL     1     -10.585   8.392  72.376  1.00  0.00    -0.405 A  
HETATM   12  C   UNL     1     -11.370   7.242  72.422  1.00  0.00    -0.324 A  
ENDBRANCH   6   7
ENDBRANCH   5   6
BRANCH   5  13
HETATM   13  O   UNL     1      -9.415   5.984  67.664  1.00  0.00    -0.113 OA 
BRANCH  13  14
HETATM   14  C   UNL     1      -9.267   5.587  66.366  1.00  0.00    -0.150 A  
HETATM   15  C   UNL     1      -8.198   5.496  64.205  1.00  0.00    -0.120 A  
HETATM   16  C   UNL     1      -8.280   6.035  65.490  1.00  0.00    -0.142 A  
HETATM   17  C   UNL     1     -10.066   4.047  64.684  1.00  0.00    -0.215 A  
HETATM   18  C   UNL     1     -10.144   4.581  65.965  1.00  0.00    -0.282 A  
HETATM   19  C   UNL     1      -9.095   4.509  63.800  1.00  0.00    -0.113 A  
ENDBRANCH  13  14
ENDBRANCH   5  13
ENDBRANCH   4   5
ENDBRANCH   2   4
TORSDOF 6
ENDMDL
MODEL      220
REMARK 921   NORMALIZED FREE ENERGY PREDICTED BY IDOCK:   -2.19 KCAL/MOL
REMARK 922        TOTAL FREE ENERGY PREDICTED BY IDOCK:   -3.81 KCAL/MOL
REMARK 923 INTER-LIGAND FREE ENERGY PREDICTED BY IDOCK:   -3.90 KCAL/MOL
REMARK 924 INTRA-LIGAND FREE ENERGY PREDICTED BY IDOCK:    0.08 KCAL/MOL
REMARK 927      BINDING AFFINITY PREDICTED BY RF-SCORE:    0.00 PKD
ROOT
HETATM    1  C   UNL     1      -9.830  11.817  66.130  1.00  0.00    -0.229 C  
HETATM    2  N   UNL     1     -10.479  11.573  67.427  1.00  0.00    -0.202 NA 
HETATM    3  C   UNL     1     -11.537  12.563  67.642  1.00  0.00    -0.355 C  
ENDROOT
BRANCH   2   4
HETATM    4  C   UNL     1     -11.020  10.191  67.431  1.00  0.00    -0.229 C  
BRANCH   4   5
HETATM    5  C   UNL     1     -10.065   8.959  67.567  1.00  0.00    -0.227 C  
BRANCH   5   6
HETATM    6  O   UNL     1     -10.789   7.786  67.999  1.00  0.00    -0.115 OA 
BRANCH   6   7
HETATM    7  C   UNL     1     -10.870   7.627  69.363  1.00  0.00    -0.127 A  
HETATM    8  C   UNL     1     -11.301   6.465  70.009  1.00  0.00    -0.496 A  
HETATM    9  C   UNL     1     -10.533   8.737  70.140  1.00  0.00    -0.230 A  
HETATM   10  C   UNL     1     -11.319   6.382  71.404  1.00  0.00    -0.354 A  
HETATM   11  C   UNL     1     -10.933   7.476  72.169  1.00  0.00    -0.293 A  
HETATM   12  C   UNL     1     -10.556   8.659  71.538  1.00  0.00    -0.352 A  
ENDBRANCH   6   7
ENDBRANCH   5   6
BRANCH   5  13
HETATM   13  O   UNL     1      -9.556   8.744  66.235  1.00  0.00    -0.223 OA 
BRANCH  13  14
HETATM   14  C   UNL     1      -8.206   8.630  66.068  1.00  0.00    -0.127 A  
HETATM   15  C   UNL     1      -5.893   9.245  66.380  1.00  0.00    -0.058 A  
HETATM   16  C   UNL     1      -7.251   9.515  66.565  1.00  0.00    -0.089 A  
HETATM   17  C   UNL     1      -6.448   7.197  65.232  1.00  0.00    -0.047 A  
HETATM   18  C   UNL     1      -7.799   7.465  65.420  1.00  0.00    -0.118 A  
HETATM   19  C   UNL     1      -5.493   8.091  65.708  1.00  0.00    -0.029 A  
ENDBRANCH  13  14
ENDBRANCH   5  13
ENDBRANCH   4   5
ENDBRANCH   2   4
TORSDOF 6
ENDMDL
MODEL      221
REMARK 921   NORMALIZED FREE ENERGY PREDICTED BY IDOCK:   -2.13 KCAL/MOL
REMARK 922        TOTAL FREE ENERGY PREDICTED BY IDOCK:   -3.74 KCAL/MOL
REMARK 923 INTER-LIGAND FREE ENERGY PREDICTED BY IDOCK:   -3.10 KCAL/MOL
REMARK 924 INTRA-LIGAND FREE ENERGY PREDICTED BY IDOCK:   -0.63 KCAL/MOL
REMARK 927      BINDING AFFINITY PREDICTED BY RF-SCORE:    0.00 PKD
ROOT
HETATM    1  C   UNL     1      -8.901   7.605  65.844  1.00  0.00    -0.130 C  
HETATM    2  N   UNL     1      -9.558   7.378  67.141  1.00  0.00    -0.149 NA 
HETATM    3  C   UNL     1     -10.845   6.711  66.930  1.00  0.00    -0.345 C  
ENDROOT
BRANCH   2   4
HETATM    4  C   UNL     1      -8.656   6.560  67.989  1.00  0.00    -0.118 C  
BRANCH   4   5
HETATM    5  C   UNL     1      -9.236   5.510  68.993  1.00  0.00    -0.119 C  
BRANCH   5   6
HETATM    6  O   UNL     1      -8.476   4.282  68.960  1.00  0.00    -0.080 OA 
BRANCH   6   7
HETATM    7  C   UNL     1      -8.742   3.410  69.990  1.00  0.00    -0.072 A  
HETATM    8  C   UNL     1      -9.877   2.599  70.080  1.00  0.00     0.203 A  
HETATM    9  C   UNL     1      -7.815   3.380  71.034  1.00  0.00    -0.051 A  
HETATM   10  C   UNL     1     -10.047   1.716  71.148  1.00  0.00     0.014 A  
HETATM   11  C   UNL     1      -9.095   1.656  72.158  1.00  0.00    -0.110 A  
HETATM   12  C   UNL     1      -7.987   2.500  72.110  1.00  0.00    -0.054 A  
ENDBRANCH   6   7
ENDBRANCH   5   6
BRANCH   5  13
HETATM   13  O   UNL     1      -9.092   6.127  70.289  1.00  0.00    -0.150 OA 
BRANCH  13  14
HETATM   14  C   UNL     1     -10.038   7.028  70.687  1.00  0.00    -0.191 A  
HETATM   15  C   UNL     1     -10.893   9.215  71.240  1.00  0.00    -0.402 A  
HETATM   16  C   UNL     1      -9.821   8.388  70.899  1.00  0.00    -0.223 A  
HETATM   17  C   UNL     1     -12.395   7.331  71.126  1.00  0.00    -0.381 A  
HETATM   18  C   UNL     1     -11.327   6.509  70.783  1.00  0.00    -0.399 A  
HETATM   19  C   UNL     1     -12.177   8.686  71.361  1.00  0.00    -0.348 A  
ENDBRANCH  13  14
ENDBRANCH   5  13
ENDBRANCH   4   5
ENDBRANCH   2   4
TORSDOF 6
ENDMDL
MODEL      222
REMARK 921   NORMALIZED FREE ENERGY PREDICTED BY IDOCK:   -2.04 KCAL/MOL
REMARK 922        TOTAL FREE ENERGY PREDICTED BY IDOCK:   -3.61 KCAL/MOL
REMARK 923 INTER-LIGAND FREE ENERGY PREDICTED BY IDOCK:   -2.98 KCAL/MOL
REMARK 924 INTRA-LIGAND FREE ENERGY PREDICTED BY IDOCK:   -0.63 KCAL/MOL
REMARK 927      BINDING AFFINITY PREDICTED BY RF-SCORE:    0.00 PKD
ROOT
HETATM    1  C   UNL     1      -7.072   3.755  72.068  1.00  0.00    -0.049 C  
HETATM    2  N   UNL     1      -8.178   4.603  71.598  1.00  0.00    -0.102 NA 
HETATM    3  C   UNL     1      -9.430   4.170  72.224  1.00  0.00    -0.133 C  
ENDROOT
BRANCH   2   4
HETATM    4  C   UNL     1      -7.864   6.014  71.933  1.00  0.00    -0.106 C  
BRANCH   4   5
HETATM    5  C   UNL     1      -8.843   7.167  71.534  1.00  0.00    -0.127 C  
BRANCH   5   6
HETATM    6  O   UNL     1      -9.628   7.599  72.668  1.00  0.00    -0.153 OA 
BRANCH   6   7
HETATM    7  C   UNL     1     -10.968   7.771  72.412  1.00  0.00    -0.311 A  
HETATM    8  C   UNL     1     -11.574   8.992  72.101  1.00  0.00    -0.348 A  
HETATM    9  C   UNL     1     -11.772   6.634  72.518  1.00  0.00    -0.200 A  
HETATM   10  C   UNL     1     -12.940   9.066  71.821  1.00  0.00    -0.436 A  
HETATM   11  C   UNL     1     -13.724   7.920  71.880  1.00  0.00    -0.366 A  
HETATM   12  C   UNL     1     -13.144   6.707  72.245  1.00  0.00     0.121 A  
ENDBRANCH   6   7
ENDBRANCH   5   6
BRANCH   5  13
HETATM   13  O   UNL     1      -7.984   8.245  71.109  1.00  0.00    -0.086 OA 
BRANCH  13  14
HETATM   14  C   UNL     1      -8.201   8.803  69.882  1.00  0.00    -0.118 A  
HETATM   15  C   UNL     1      -9.531   9.728  68.093  1.00  0.00    -0.146 A  
HETATM   16  C   UNL     1      -9.450   9.092  69.334  1.00  0.00    -0.159 A  
HETATM   17  C   UNL     1      -7.124   9.810  67.968  1.00  0.00    -0.079 A  
HETATM   18  C   UNL     1      -7.044   9.180  69.205  1.00  0.00    -0.062 A  
HETATM   19  C   UNL     1      -8.369  10.080  67.408  1.00  0.00    -0.118 A  
ENDBRANCH  13  14
ENDBRANCH   5  13
ENDBRANCH   4   5
ENDBRANCH   2   4
TORSDOF 6
ENDMDL
MODEL      223
REMARK 921   NORMALIZED FREE ENERGY PREDICTED BY IDOCK:   -1.96 KCAL/MOL
REMARK 922        TOTAL FREE ENERGY PREDICTED BY IDOCK:   -3.50 KCAL/MOL
REMARK 923 INTER-LIGAND FREE ENERGY PREDICTED BY IDOCK:   -3.43 KCAL/MOL
REMARK 924 INTRA-LIGAND FREE ENERGY PREDICTED BY IDOCK:   -0.07 KCAL/MOL
REMARK 927      BINDING AFFINITY PREDICTED BY RF-SCORE:    0.00 PKD
ROOT
HETATM    1  C   UNL     1     -11.063  12.513  64.591  1.00  0.00    -0.306 C  
HETATM    2  N   UNL     1     -10.918  13.369  65.779  1.00  0.00    -0.277 NA 
HETATM    3  C   UNL     1     -12.227  13.559  66.410  1.00  0.00    -0.400 C  
ENDROOT
BRANCH   2   4
HETATM    4  C   UNL     1      -9.956  12.726  66.707  1.00  0.00    -0.237 C  
BRANCH   4   5
HETATM    5  C   UNL     1      -9.103  13.587  67.697  1.00  0.00    -0.205 C  
BRANCH   5   6
HETATM    6  O   UNL     1      -8.537  12.769  68.744  1.00  0.00     0.001 OA 
BRANCH   6   7
HETATM    7  C   UNL     1      -7.850  11.662  68.305  1.00  0.00    -0.136 A  
HETATM    8  C   UNL     1      -8.364  10.363  68.265  1.00  0.00    -0.119 A  
HETATM    9  C   UNL     1      -6.525  11.868  67.913  1.00  0.00    -0.068 A  
HETATM   10  C   UNL     1      -7.602   9.302  67.770  1.00  0.00    -0.084 A  
HETATM   11  C   UNL     1      -6.301   9.525  67.336  1.00  0.00    -0.065 A  
HETATM   12  C   UNL     1      -5.756  10.804  67.422  1.00  0.00    -0.045 A  
ENDBRANCH   6   7
ENDBRANCH   5   6
BRANCH   5  13
HETATM   13  O   UNL     1      -8.040  14.128  66.886  1.00  0.00    -0.092 OA 
BRANCH  13  14
HETATM   14  C   UNL     1      -7.827  15.477  66.911  1.00  0.00    -0.194 A  
HETATM   15  C   UNL     1      -8.330  17.790  66.444  1.00  0.00    -0.281 A  
HETATM   16  C   UNL     1      -8.620  16.434  66.281  1.00  0.00    -0.375 A  
HETATM   17  C   UNL     1      -6.479  17.230  67.886  1.00  0.00    -0.161 A  
HETATM   18  C   UNL     1      -6.771  15.880  67.727  1.00  0.00    -0.178 A  
HETATM   19  C   UNL     1      -7.256  18.187  67.240  1.00  0.00    -0.211 A  
ENDBRANCH  13  14
ENDBRANCH   5  13
ENDBRANCH   4   5
ENDBRANCH   2   4
TORSDOF 6
ENDMDL
