MODEL        1
REMARK 921   NORMALIZED FREE ENERGY PREDICTED BY IDOCK:   -6.44 KCAL/MOL
REMARK 922        TOTAL FREE ENERGY PREDICTED BY IDOCK:   -6.96 KCAL/MOL
REMARK 923 INTER-LIGAND FREE ENERGY PREDICTED BY IDOCK:   -7.57 KCAL/MOL
REMARK 924 INTRA-LIGAND FREE ENERGY PREDICTED BY IDOCK:    0.61 KCAL/MOL
REMARK 927      BINDING AFFINITY PREDICTED BY RF-SCORE:    0.00 PKD
ROOT
HETATM    1  C   UNL     1      -9.673  18.335  65.982  1.00  0.00    -0.114 C  
HETATM    2  C   UNL     1     -11.001  18.777  65.720  1.00  0.00     0.044 C  
HETATM    3  C   UNL     1     -10.572  18.692  67.139  1.00  0.00    -0.468 C  
HETATM    4  C   UNL     1      -8.551  18.376  67.379  1.00  0.00    -0.257 C  
HETATM    5  C   UNL     1      -8.926  14.150  68.579  1.00  0.00    -0.174 C  
HETATM    6  C   UNL     1     -10.337  14.605  68.138  1.00  0.00    -0.230 C  
HETATM    7  C   UNL     1      -9.321  19.498  67.520  1.00  0.00    -0.403 C  
HETATM    8  C   UNL     1      -9.872  18.847  69.167  1.00  0.00    -0.292 C  
HETATM    9  C   UNL     1     -11.330  14.289  69.333  1.00  0.00    -0.325 C  
HETATM   10  C   UNL     1     -12.393  13.233  69.075  1.00  0.00     0.020 C  
HETATM   11  O   UNL     1     -11.792  10.962  68.560  1.00  0.00    -0.464 OA 
HETATM   12  C   UNL     1      -9.047  20.966  67.221  1.00  0.00    -0.236 C  
HETATM   13  C   UNL     1     -11.810  12.143  68.240  1.00  0.00    -0.301 C  
HETATM   14  C   UNL     1     -11.304  12.589  66.932  1.00  0.00    -0.383 C  
HETATM   15  C   UNL     1      -9.968  17.126  69.193  1.00  0.00    -0.218 C  
HETATM   16  C   UNL     1     -10.376  16.176  67.870  1.00  0.00    -0.277 C  
HETATM   17  C   UNL     1      -9.697  16.576  66.442  1.00  0.00    -0.305 C  
HETATM   18  C   UNL     1     -10.336  15.769  65.316  1.00  0.00    -0.387 C  
HETATM   19  C   UNL     1     -10.111  14.265  65.509  1.00  0.00    -0.370 C  
HETATM   20  C   UNL     1     -10.669  13.565  64.254  1.00  0.00    -0.324 C  
HETATM   21  C   UNL     1     -10.669  13.776  66.851  1.00  0.00    -0.280 C  
ENDROOT
BRANCH   4  22
HETATM   22  C   UNL     1      -7.446  18.650  68.531  1.00  0.00    -0.302 C  
HETATM   23  C   UNL     1      -6.768  17.473  69.203  1.00  0.00    -0.243 C  
HETATM   24  O   UNL     1      -7.027  19.769  68.865  1.00  0.00    -0.322 OA 
ENDBRANCH   4  22
BRANCH   4  25
HETATM   25  O   UNL     1      -7.522  18.991  66.351  1.00  0.00    -0.236 OA 
BRANCH  25  26
HETATM   26  C   UNL     1      -6.540  18.288  65.736  1.00  0.00    -0.282 C  
HETATM   27  O   UNL     1      -6.273  17.116  65.944  1.00  0.00    -0.125 OA 
HETATM   28  C   UNL     1      -5.876  19.154  64.699  1.00  0.00    -0.319 C  
ENDBRANCH  25  26
ENDBRANCH   4  25
TORSDOF 3
ENDMDL
MODEL        2
REMARK 921   NORMALIZED FREE ENERGY PREDICTED BY IDOCK:   -5.87 KCAL/MOL
REMARK 922        TOTAL FREE ENERGY PREDICTED BY IDOCK:   -6.29 KCAL/MOL
REMARK 923 INTER-LIGAND FREE ENERGY PREDICTED BY IDOCK:   -6.71 KCAL/MOL
REMARK 924 INTRA-LIGAND FREE ENERGY PREDICTED BY IDOCK:    0.42 KCAL/MOL
REMARK 927      BINDING AFFINITY PREDICTED BY RF-SCORE:    0.00 PKD
ROOT
HETATM    1  C   UNL     1     -11.151   7.126  71.257  1.00  0.00    -0.275 C  
HETATM    2  C   UNL     1     -12.390   6.628  70.764  1.00  0.00    -0.218 C  
HETATM    3  C   UNL     1     -11.206   6.530  69.873  1.00  0.00    -0.456 C  
HETATM    4  C   UNL     1      -9.423   6.960  70.809  1.00  0.00    -0.165 C  
HETATM    5  C   UNL     1      -8.903  10.913  68.930  1.00  0.00    -0.143 C  
HETATM    6  C   UNL     1     -10.315  10.423  68.532  1.00  0.00    -0.197 C  
HETATM    7  C   UNL     1      -9.992   5.773  70.436  1.00  0.00    -0.257 C  
HETATM    8  C   UNL     1      -9.451   6.123  68.697  1.00  0.00    -0.128 C  
HETATM    9  C   UNL     1     -10.406  10.478  66.950  1.00  0.00    -0.293 C  
HETATM   10  C   UNL     1     -11.389  11.477  66.357  1.00  0.00    -0.246 C  
HETATM   11  O   UNL     1     -11.142  13.839  66.737  1.00  0.00    -0.300 OA 
HETATM   12  C   UNL     1      -9.988   4.393  71.079  1.00  0.00    -0.242 C  
HETATM   13  C   UNL     1     -11.379  12.722  67.178  1.00  0.00    -0.314 C  
HETATM   14  C   UNL     1     -11.751  12.519  68.587  1.00  0.00    -0.368 C  
HETATM   15  C   UNL     1      -9.467   7.808  68.332  1.00  0.00    -0.148 C  
HETATM   16  C   UNL     1     -10.548   8.913  68.985  1.00  0.00    -0.203 C  
HETATM   17  C   UNL     1     -10.851   8.787  70.584  1.00  0.00    -0.273 C  
HETATM   18  C   UNL     1     -12.007   9.704  70.969  1.00  0.00    -0.427 C  
HETATM   19  C   UNL     1     -11.671  11.174  70.695  1.00  0.00    -0.310 C  
HETATM   20  C   UNL     1     -12.840  12.012  71.248  1.00  0.00    -0.364 C  
HETATM   21  C   UNL     1     -11.318  11.410  69.222  1.00  0.00    -0.355 C  
ENDROOT
BRANCH   4  22
HETATM   22  C   UNL     1      -7.860   6.599  70.586  1.00  0.00    -0.106 C  
HETATM   23  C   UNL     1      -6.875   7.716  70.306  1.00  0.00    -0.047 C  
HETATM   24  O   UNL     1      -7.363   5.469  70.712  1.00  0.00    -0.077 OA 
ENDBRANCH   4  22
BRANCH   4  25
HETATM   25  O   UNL     1      -9.213   6.588  72.330  1.00  0.00    -0.138 OA 
BRANCH  25  26
HETATM   26  C   UNL     1      -8.642   7.406  73.247  1.00  0.00    -0.145 C  
HETATM   27  O   UNL     1      -8.623   8.625  73.192  1.00  0.00    -0.393 OA 
HETATM   28  C   UNL     1      -8.100   6.585  74.386  1.00  0.00    -0.126 C  
ENDBRANCH  25  26
ENDBRANCH   4  25
TORSDOF 3
ENDMDL
MODEL        3
REMARK 921   NORMALIZED FREE ENERGY PREDICTED BY IDOCK:   -5.78 KCAL/MOL
REMARK 922        TOTAL FREE ENERGY PREDICTED BY IDOCK:   -6.19 KCAL/MOL
REMARK 923 INTER-LIGAND FREE ENERGY PREDICTED BY IDOCK:   -6.63 KCAL/MOL
REMARK 924 INTRA-LIGAND FREE ENERGY PREDICTED BY IDOCK:    0.44 KCAL/MOL
REMARK 927      BINDING AFFINITY PREDICTED BY RF-SCORE:    0.00 PKD
ROOT
HETATM    1  C   UNL     1      -9.991   9.845  69.764  1.00  0.00    -0.275 C  
HETATM    2  C   UNL     1     -11.274   9.329  70.104  1.00  0.00    -0.237 C  
HETATM    3  C   UNL     1     -10.661   8.866  68.833  1.00  0.00    -0.188 C  
HETATM    4  C   UNL     1      -8.684   9.404  68.620  1.00  0.00    -0.131 C  
HETATM    5  C   UNL     1      -9.425  12.547  65.619  1.00  0.00    -0.014 C  
HETATM    6  C   UNL     1     -10.813  12.083  66.117  1.00  0.00    -0.325 C  
HETATM    7  C   UNL     1      -9.274   8.213  68.946  1.00  0.00    -0.147 C  
HETATM    8  C   UNL     1      -9.663   7.975  67.149  1.00  0.00    -0.255 C  
HETATM    9  C   UNL     1     -11.657  11.665  64.840  1.00  0.00    -0.155 C  
HETATM   10  C   UNL     1     -12.874  12.520  64.518  1.00  0.00    -0.352 C  
HETATM   11  O   UNL     1     -12.651  14.856  63.994  1.00  0.00    -0.832 OA 
HETATM   12  C   UNL     1      -8.860   7.096  69.894  1.00  0.00    -0.142 C  
HETATM   13  C   UNL     1     -12.563  13.948  64.810  1.00  0.00    -0.295 C  
HETATM   14  C   UNL     1     -12.196  14.213  66.211  1.00  0.00    -0.474 C  
HETATM   15  C   UNL     1      -9.976   9.466  66.342  1.00  0.00    -0.346 C  
HETATM   16  C   UNL     1     -10.688  10.805  67.061  1.00  0.00    -0.320 C  
HETATM   17  C   UNL     1     -10.175  11.194  68.561  1.00  0.00    -0.209 C  
HETATM   18  C   UNL     1     -11.068  12.280  69.152  1.00  0.00    -0.261 C  
HETATM   19  C   UNL     1     -11.014  13.564  68.317  1.00  0.00    -0.280 C  
HETATM   20  C   UNL     1     -11.831  14.627  69.078  1.00  0.00    -0.346 C  
HETATM   21  C   UNL     1     -11.431  13.314  66.864  1.00  0.00    -0.376 C  
ENDROOT
BRANCH   4  22
HETATM   22  C   UNL     1      -7.399   8.860  67.797  1.00  0.00    -0.085 C  
HETATM   23  C   UNL     1      -6.783   9.734  66.724  1.00  0.00    -0.079 C  
HETATM   24  O   UNL     1      -6.800   7.799  68.030  1.00  0.00    -0.067 OA 
ENDBRANCH   4  22
BRANCH   4  25
HETATM   25  O   UNL     1      -7.742   9.491  69.885  1.00  0.00    -0.095 OA 
BRANCH  25  26
HETATM   26  C   UNL     1      -6.791  10.438  70.068  1.00  0.00    -0.151 C  
HETATM   27  O   UNL     1      -6.842  11.582  69.647  1.00  0.00    -0.114 OA 
HETATM   28  C   UNL     1      -5.692   9.886  70.935  1.00  0.00    -0.083 C  
ENDBRANCH  25  26
ENDBRANCH   4  25
TORSDOF 3
ENDMDL
MODEL        4
REMARK 921   NORMALIZED FREE ENERGY PREDICTED BY IDOCK:   -5.76 KCAL/MOL
REMARK 922        TOTAL FREE ENERGY PREDICTED BY IDOCK:   -6.16 KCAL/MOL
REMARK 923 INTER-LIGAND FREE ENERGY PREDICTED BY IDOCK:   -6.92 KCAL/MOL
REMARK 924 INTRA-LIGAND FREE ENERGY PREDICTED BY IDOCK:    0.76 KCAL/MOL
REMARK 927      BINDING AFFINITY PREDICTED BY RF-SCORE:    0.00 PKD
ROOT
HETATM    1  C   UNL     1      -8.408  13.320  67.394  1.00  0.00    -0.193 C  
HETATM    2  C   UNL     1      -7.655  13.257  68.600  1.00  0.00    -0.094 C  
HETATM    3  C   UNL     1      -9.111  13.531  68.711  1.00  0.00     0.090 C  
HETATM    4  C   UNL     1     -10.143  13.260  66.950  1.00  0.00    -0.250 C  
HETATM    5  C   UNL     1     -10.707  17.554  66.128  1.00  0.00    -0.098 C  
HETATM    6  C   UNL     1      -9.759  17.464  67.347  1.00  0.00    -0.269 C  
HETATM    7  C   UNL     1     -10.047  12.490  68.077  1.00  0.00    -0.220 C  
HETATM    8  C   UNL     1     -11.251  13.638  68.898  1.00  0.00    -0.309 C  
HETATM    9  C   UNL     1     -10.399  18.333  68.509  1.00  0.00    -0.341 C  
HETATM   10  C   UNL     1      -9.630  19.576  68.933  1.00  0.00    -0.460 C  
HETATM   11  O   UNL     1      -9.219  21.372  67.388  1.00  0.00     0.006 OA 
HETATM   12  C   UNL     1     -10.017  10.982  68.282  1.00  0.00    -0.190 C  
HETATM   13  C   UNL     1      -9.023  20.213  67.729  1.00  0.00    -0.275 C  
HETATM   14  C   UNL     1      -8.090  19.346  66.992  1.00  0.00    -0.290 C  
HETATM   15  C   UNL     1     -11.085  15.264  68.349  1.00  0.00    -0.289 C  
HETATM   16  C   UNL     1      -9.636  15.962  67.869  1.00  0.00    -0.215 C  
HETATM   17  C   UNL     1      -8.662  15.058  66.924  1.00  0.00    -0.285 C  
HETATM   18  C   UNL     1      -7.307  15.741  66.767  1.00  0.00    -0.076 C  
HETATM   19  C   UNL     1      -7.445  17.106  66.084  1.00  0.00    -0.295 C  
HETATM   20  C   UNL     1      -6.017  17.636  65.850  1.00  0.00    -0.176 C  
HETATM   21  C   UNL     1      -8.385  18.036  66.861  1.00  0.00    -0.263 C  
ENDROOT
BRANCH   4  22
HETATM   22  C   UNL     1     -11.670  12.932  66.520  1.00  0.00    -0.393 C  
HETATM   23  C   UNL     1     -12.445  13.948  65.705  1.00  0.00    -0.530 C  
HETATM   24  O   UNL     1     -12.255  11.858  66.728  1.00  0.00    -0.489 OA 
ENDBRANCH   4  22
BRANCH   4  25
HETATM   25  O   UNL     1      -9.696  12.141  65.929  1.00  0.00    -0.241 OA 
BRANCH  25  26
HETATM   26  C   UNL     1      -9.917  12.189  64.593  1.00  0.00    -0.202 C  
HETATM   27  O   UNL     1      -9.815  13.185  63.896  1.00  0.00    -0.157 OA 
HETATM   28  C   UNL     1     -10.235  10.809  64.086  1.00  0.00    -0.412 C  
ENDBRANCH  25  26
ENDBRANCH   4  25
TORSDOF 3
ENDMDL
MODEL        5
REMARK 921   NORMALIZED FREE ENERGY PREDICTED BY IDOCK:   -5.68 KCAL/MOL
REMARK 922        TOTAL FREE ENERGY PREDICTED BY IDOCK:   -6.06 KCAL/MOL
REMARK 923 INTER-LIGAND FREE ENERGY PREDICTED BY IDOCK:   -7.50 KCAL/MOL
REMARK 924 INTRA-LIGAND FREE ENERGY PREDICTED BY IDOCK:    1.44 KCAL/MOL
REMARK 927      BINDING AFFINITY PREDICTED BY RF-SCORE:    0.00 PKD
ROOT
HETATM    1  C   UNL     1     -10.800  14.339  68.325  1.00  0.00    -0.256 C  
HETATM    2  C   UNL     1     -10.070  15.054  69.316  1.00  0.00    -0.236 C  
HETATM    3  C   UNL     1      -9.308  14.146  68.421  1.00  0.00    -0.208 C  
HETATM    4  C   UNL     1     -10.402  13.438  66.827  1.00  0.00    -0.263 C  
HETATM    5  C   UNL     1     -10.887   9.359  68.427  1.00  0.00    -0.156 C  
HETATM    6  C   UNL     1     -10.235  10.195  69.553  1.00  0.00    -0.258 C  
HETATM    7  C   UNL     1      -9.442  14.409  66.913  1.00  0.00    -0.268 C  
HETATM    8  C   UNL     1      -8.165  13.064  66.955  1.00  0.00    -0.071 C  
HETATM    9  C   UNL     1      -8.912   9.441  69.996  1.00  0.00    -0.234 C  
HETATM   10  C   UNL     1      -8.889   8.876  71.408  1.00  0.00    -0.283 C  
HETATM   11  O   UNL     1     -10.456   7.188  72.098  1.00  0.00    -0.202 OA 
HETATM   12  C   UNL     1      -9.269  15.739  66.194  1.00  0.00    -0.385 C  
HETATM   13  C   UNL     1     -10.239   8.339  71.744  1.00  0.00    -0.230 C  
HETATM   14  C   UNL     1     -11.318   9.337  71.686  1.00  0.00    -0.467 C  
HETATM   15  C   UNL     1      -8.733  11.645  67.753  1.00  0.00    -0.152 C  
HETATM   16  C   UNL     1      -9.823  11.643  69.029  1.00  0.00     0.032 C  
HETATM   17  C   UNL     1     -11.106  12.642  68.900  1.00  0.00    -0.307 C  
HETATM   18  C   UNL     1     -11.867  12.687  70.222  1.00  0.00    -0.295 C  
HETATM   19  C   UNL     1     -12.415  11.306  70.600  1.00  0.00    -0.439 C  
HETATM   20  C   UNL     1     -13.276  11.496  71.863  1.00  0.00    -0.479 C  
HETATM   21  C   UNL     1     -11.297  10.261  70.703  1.00  0.00    -0.431 C  
ENDROOT
BRANCH   4  22
HETATM   22  C   UNL     1     -10.087  12.867  65.345  1.00  0.00    -0.251 C  
HETATM   23  C   UNL     1     -10.236  11.383  65.076  1.00  0.00    -0.333 C  
HETATM   24  O   UNL     1      -9.810  13.563  64.356  1.00  0.00    -0.175 OA 
ENDBRANCH   4  22
BRANCH   4  25
HETATM   25  O   UNL     1     -11.512  14.343  66.160  1.00  0.00    -0.343 OA 
BRANCH  25  26
HETATM   26  C   UNL     1     -12.483  13.881  65.336  1.00  0.00    -0.501 C  
HETATM   27  O   UNL     1     -13.167  12.891  65.534  1.00  0.00    -0.340 OA 
HETATM   28  C   UNL     1     -12.643  14.821  64.171  1.00  0.00     0.029 C  
ENDBRANCH  25  26
ENDBRANCH   4  25
TORSDOF 3
ENDMDL
MODEL        6
REMARK 921   NORMALIZED FREE ENERGY PREDICTED BY IDOCK:   -5.50 KCAL/MOL
REMARK 922        TOTAL FREE ENERGY PREDICTED BY IDOCK:   -5.85 KCAL/MOL
REMARK 923 INTER-LIGAND FREE ENERGY PREDICTED BY IDOCK:   -6.24 KCAL/MOL
REMARK 924 INTRA-LIGAND FREE ENERGY PREDICTED BY IDOCK:    0.39 KCAL/MOL
REMARK 927      BINDING AFFINITY PREDICTED BY RF-SCORE:    0.00 PKD
ROOT
HETATM    1  C   UNL     1     -10.626   7.417  70.301  1.00  0.00    -0.241 C  
HETATM    2  C   UNL     1     -11.883   6.865  69.925  1.00  0.00    -0.137 C  
HETATM    3  C   UNL     1     -10.836   6.970  68.876  1.00  0.00    -0.203 C  
HETATM    4  C   UNL     1      -8.973   7.457  69.608  1.00  0.00    -0.141 C  
HETATM    5  C   UNL     1      -9.026  11.619  68.157  1.00  0.00    -0.182 C  
HETATM    6  C   UNL     1     -10.441  11.049  67.899  1.00  0.00    -0.223 C  
HETATM    7  C   UNL     1      -9.501   6.270  69.177  1.00  0.00    -0.139 C  
HETATM    8  C   UNL     1      -9.245   6.852  67.435  1.00  0.00    -0.130 C  
HETATM    9  C   UNL     1     -10.763  11.264  66.361  1.00  0.00    -0.320 C  
HETATM   10  C   UNL     1     -11.892  12.228  66.029  1.00  0.00    -0.409 C  
HETATM   11  O   UNL     1     -11.770  14.548  66.650  1.00  0.00    -0.372 OA 
HETATM   12  C   UNL     1      -9.302   4.836  69.645  1.00  0.00    -0.198 C  
HETATM   13  C   UNL     1     -11.856  13.374  66.983  1.00  0.00    -0.394 C  
HETATM   14  C   UNL     1     -12.005  12.989  68.396  1.00  0.00    -0.309 C  
HETATM   15  C   UNL     1      -9.438   8.558  67.277  1.00  0.00    -0.199 C  
HETATM   16  C   UNL     1     -10.492   9.484  68.197  1.00  0.00    -0.268 C  
HETATM   17  C   UNL     1     -10.551   9.161  69.795  1.00  0.00    -0.240 C  
HETATM   18  C   UNL     1     -11.704   9.924  70.440  1.00  0.00    -0.333 C  
HETATM   19  C   UNL     1     -11.521  11.439  70.299  1.00  0.00    -0.244 C  
HETATM   20  C   UNL     1     -12.657  12.104  71.101  1.00  0.00    -0.360 C  
HETATM   21  C   UNL     1     -11.403  11.862  68.830  1.00  0.00    -0.330 C  
ENDROOT
BRANCH   4  22
HETATM   22  C   UNL     1      -7.436   7.265  69.134  1.00  0.00    -0.093 C  
HETATM   23  C   UNL     1      -6.580   8.489  68.883  1.00  0.00    -0.053 C  
HETATM   24  O   UNL     1      -6.851   6.175  69.036  1.00  0.00    -0.061 OA 
ENDBRANCH   4  22
BRANCH   4  25
HETATM   25  O   UNL     1      -8.519   6.945  71.031  1.00  0.00    -0.128 OA 
BRANCH  25  26
HETATM   26  C   UNL     1      -7.875   7.705  71.949  1.00  0.00    -0.088 C  
HETATM   27  O   UNL     1      -8.067   8.894  72.143  1.00  0.00    -0.369 OA 
HETATM   28  C   UNL     1      -6.935   6.842  72.747  1.00  0.00    -0.075 C  
ENDBRANCH  25  26
ENDBRANCH   4  25
TORSDOF 3
ENDMDL
MODEL        7
REMARK 921   NORMALIZED FREE ENERGY PREDICTED BY IDOCK:   -5.42 KCAL/MOL
REMARK 922        TOTAL FREE ENERGY PREDICTED BY IDOCK:   -5.76 KCAL/MOL
REMARK 923 INTER-LIGAND FREE ENERGY PREDICTED BY IDOCK:   -6.21 KCAL/MOL
REMARK 924 INTRA-LIGAND FREE ENERGY PREDICTED BY IDOCK:    0.45 KCAL/MOL
REMARK 927      BINDING AFFINITY PREDICTED BY RF-SCORE:    0.00 PKD
ROOT
HETATM    1  C   UNL     1      -7.917   8.676  66.984  1.00  0.00    -0.096 C  
HETATM    2  C   UNL     1      -6.614   9.075  66.570  1.00  0.00    -0.067 C  
HETATM    3  C   UNL     1      -7.174   9.711  67.790  1.00  0.00    -0.085 C  
HETATM    4  C   UNL     1      -8.896   8.816  68.478  1.00  0.00    -0.138 C  
HETATM    5  C   UNL     1     -11.604  12.022  67.127  1.00  0.00    -0.387 C  
HETATM    6  C   UNL     1     -10.208  12.358  66.551  1.00  0.00    -0.244 C  
HETATM    7  C   UNL     1      -7.602   8.758  68.917  1.00  0.00    -0.091 C  
HETATM    8  C   UNL     1      -7.851  10.418  69.705  1.00  0.00    -0.138 C  
HETATM    9  C   UNL     1      -9.851  13.833  67.010  1.00  0.00    -0.251 C  
HETATM   10  C   UNL     1      -9.743  14.881  65.912  1.00  0.00    -0.366 C  
HETATM   11  O   UNL     1     -11.633  15.433  64.530  1.00  0.00    -0.397 OA 
HETATM   12  C   UNL     1      -6.782   7.629  69.527  1.00  0.00    -0.036 C  
HETATM   13  C   UNL     1     -10.787  14.620  64.880  1.00  0.00    -0.419 C  
HETATM   14  C   UNL     1     -10.687  13.299  64.240  1.00  0.00    -0.408 C  
HETATM   15  C   UNL     1      -8.934  11.415  68.806  1.00  0.00    -0.086 C  
HETATM   16  C   UNL     1      -9.095  11.379  67.136  1.00  0.00    -0.164 C  
HETATM   17  C   UNL     1      -9.135   9.907  66.433  1.00  0.00    -0.179 C  
HETATM   18  C   UNL     1      -9.057  10.051  64.917  1.00  0.00    -0.265 C  
HETATM   19  C   UNL     1     -10.252  10.839  64.367  1.00  0.00    -0.432 C  
HETATM   20  C   UNL     1     -10.145  10.800  62.830  1.00  0.00    -0.136 C  
HETATM   21  C   UNL     1     -10.348  12.234  64.996  1.00  0.00    -0.321 C  
ENDROOT
BRANCH   4  22
HETATM   22  C   UNL     1      -9.675   8.695  69.894  1.00  0.00    -0.173 C  
HETATM   23  C   UNL     1     -11.072   9.268  70.022  1.00  0.00    -0.228 C  
HETATM   24  O   UNL     1      -9.256   8.083  70.888  1.00  0.00    -0.146 OA 
ENDBRANCH   4  22
BRANCH   4  25
HETATM   25  O   UNL     1      -9.102   7.259  68.318  1.00  0.00    -0.135 OA 
BRANCH  25  26
HETATM   26  C   UNL     1     -10.277   6.672  67.984  1.00  0.00    -0.167 C  
HETATM   27  O   UNL     1     -11.002   7.015  67.065  1.00  0.00    -0.375 OA 
HETATM   28  C   UNL     1     -10.515   5.481  68.874  1.00  0.00    -0.282 C  
ENDBRANCH  25  26
ENDBRANCH   4  25
TORSDOF 3
ENDMDL
MODEL        8
REMARK 921   NORMALIZED FREE ENERGY PREDICTED BY IDOCK:   -5.35 KCAL/MOL
REMARK 922        TOTAL FREE ENERGY PREDICTED BY IDOCK:   -5.67 KCAL/MOL
REMARK 923 INTER-LIGAND FREE ENERGY PREDICTED BY IDOCK:   -6.07 KCAL/MOL
REMARK 924 INTRA-LIGAND FREE ENERGY PREDICTED BY IDOCK:    0.40 KCAL/MOL
REMARK 927      BINDING AFFINITY PREDICTED BY RF-SCORE:    0.00 PKD
ROOT
HETATM    1  C   UNL     1      -6.550   9.869  66.960  1.00  0.00    -0.070 C  
HETATM    2  C   UNL     1      -5.508  10.644  66.378  1.00  0.00    -0.077 C  
HETATM    3  C   UNL     1      -6.294  11.262  67.477  1.00  0.00    -0.068 C  
HETATM    4  C   UNL     1      -7.527   9.939  68.461  1.00  0.00    -0.082 C  
HETATM    5  C   UNL     1     -11.267  11.444  66.675  1.00  0.00    -0.298 C  
HETATM    6  C   UNL     1     -10.112  12.164  65.941  1.00  0.00    -0.270 C  
HETATM    7  C   UNL     1      -6.324  10.491  68.806  1.00  0.00    -0.047 C  
HETATM    8  C   UNL     1      -7.227  12.049  69.247  1.00  0.00     0.067 C  
HETATM    9  C   UNL     1     -10.379  13.723  66.055  1.00  0.00    -0.311 C  
HETATM   10  C   UNL     1     -10.681  14.460  64.759  1.00  0.00    -0.423 C  
HETATM   11  O   UNL     1     -12.612  13.908  63.435  1.00  0.00    -0.853 OA 
HETATM   12  C   UNL     1      -5.131   9.938  69.574  1.00  0.00    -0.035 C  
HETATM   13  C   UNL     1     -11.518  13.590  63.883  1.00  0.00    -0.250 C  
HETATM   14  C   UNL     1     -10.889  12.308  63.526  1.00  0.00    -0.508 C  
HETATM   15  C   UNL     1      -8.603  12.317  68.243  1.00  0.00    -0.172 C  
HETATM   16  C   UNL     1      -8.709  11.855  66.633  1.00  0.00    -0.185 C  
HETATM   17  C   UNL     1      -8.149  10.369  66.257  1.00  0.00    -0.136 C  
HETATM   18  C   UNL     1      -8.111  10.195  64.742  1.00  0.00    -0.153 C  
HETATM   19  C   UNL     1      -9.512  10.309  64.130  1.00  0.00    -0.358 C  
HETATM   20  C   UNL     1      -9.374   9.978  62.632  1.00  0.00    -0.296 C  
HETATM   21  C   UNL     1     -10.166  11.656  64.460  1.00  0.00    -0.337 C  
ENDROOT
BRANCH   4  22
HETATM   22  C   UNL     1      -8.215   9.837  69.924  1.00  0.00    -0.183 C  
HETATM   23  C   UNL     1      -9.726   9.789  70.030  1.00  0.00    -0.292 C  
HETATM   24  O   UNL     1      -7.601   9.704  70.993  1.00  0.00    -0.326 OA 
ENDBRANCH   4  22
BRANCH   4  25
HETATM   25  O   UNL     1      -7.093   8.431  68.644  1.00  0.00    -0.069 OA 
BRANCH  25  26
HETATM   26  C   UNL     1      -7.926   7.372  68.504  1.00  0.00    -0.124 C  
HETATM   27  O   UNL     1      -8.857   7.303  67.719  1.00  0.00    -0.125 OA 
HETATM   28  C   UNL     1      -7.480   6.258  69.413  1.00  0.00    -0.093 C  
ENDBRANCH  25  26
ENDBRANCH   4  25
TORSDOF 3
ENDMDL
MODEL        9
REMARK 921   NORMALIZED FREE ENERGY PREDICTED BY IDOCK:   -5.28 KCAL/MOL
REMARK 922        TOTAL FREE ENERGY PREDICTED BY IDOCK:   -5.60 KCAL/MOL
REMARK 923 INTER-LIGAND FREE ENERGY PREDICTED BY IDOCK:   -5.99 KCAL/MOL
REMARK 924 INTRA-LIGAND FREE ENERGY PREDICTED BY IDOCK:    0.39 KCAL/MOL
REMARK 927      BINDING AFFINITY PREDICTED BY RF-SCORE:    0.00 PKD
ROOT
HETATM    1  C   UNL     1      -9.850   7.185  68.929  1.00  0.00    -0.156 C  
HETATM    2  C   UNL     1     -11.097   6.572  68.623  1.00  0.00    -0.348 C  
HETATM    3  C   UNL     1     -10.195   6.899  67.489  1.00  0.00    -0.249 C  
HETATM    4  C   UNL     1      -8.300   7.457  68.071  1.00  0.00    -0.124 C  
HETATM    5  C   UNL     1      -8.839  11.745  67.199  1.00  0.00    -0.173 C  
HETATM    6  C   UNL     1     -10.227  11.086  67.023  1.00  0.00    -0.250 C  
HETATM    7  C   UNL     1      -8.785   6.290  67.547  1.00  0.00    -0.105 C  
HETATM    8  C   UNL     1      -8.783   7.102  65.880  1.00  0.00    -0.146 C  
HETATM    9  C   UNL     1     -10.747  11.458  65.572  1.00  0.00    -0.313 C  
HETATM   10  C   UNL     1     -11.977  12.350  65.496  1.00  0.00    -0.453 C  
HETATM   11  O   UNL     1     -11.956  14.578  66.401  1.00  0.00    -0.392 OA 
HETATM   12  C   UNL     1      -8.423   4.833  67.797  1.00  0.00    -0.103 C  
HETATM   13  C   UNL     1     -11.913  13.368  66.583  1.00  0.00    -0.399 C  
HETATM   14  C   UNL     1     -11.863  12.801  67.940  1.00  0.00    -0.392 C  
HETATM   15  C   UNL     1      -9.122   8.790  65.971  1.00  0.00    -0.265 C  
HETATM   16  C   UNL     1     -10.125   9.498  67.115  1.00  0.00    -0.290 C  
HETATM   17  C   UNL     1      -9.967   8.977  68.654  1.00  0.00    -0.187 C  
HETATM   18  C   UNL     1     -11.090   9.548  69.515  1.00  0.00    -0.168 C  
HETATM   19  C   UNL     1     -11.039  11.079  69.557  1.00  0.00    -0.322 C  
HETATM   20  C   UNL     1     -12.118  11.535  70.559  1.00  0.00    -0.472 C  
HETATM   21  C   UNL     1     -11.130  11.688  68.153  1.00  0.00    -0.298 C  
ENDROOT
BRANCH   4  22
HETATM   22  C   UNL     1      -6.821   7.464  67.411  1.00  0.00    -0.078 C  
HETATM   23  C   UNL     1      -6.096   8.783  67.231  1.00  0.00    -0.055 C  
HETATM   24  O   UNL     1      -6.170   6.452  67.109  1.00  0.00    -0.033 OA 
ENDBRANCH   4  22
BRANCH   4  25
HETATM   25  O   UNL     1      -7.641   6.818  69.356  1.00  0.00    -0.092 OA 
BRANCH  25  26
HETATM   26  C   UNL     1      -6.935   7.512  70.281  1.00  0.00    -0.055 C  
HETATM   27  O   UNL     1      -7.187   8.644  70.660  1.00  0.00    -0.047 OA 
HETATM   28  C   UNL     1      -5.834   6.644  70.828  1.00  0.00    -0.027 C  
ENDBRANCH  25  26
ENDBRANCH   4  25
TORSDOF 3
ENDMDL
MODEL       10
REMARK 921   NORMALIZED FREE ENERGY PREDICTED BY IDOCK:   -5.23 KCAL/MOL
REMARK 922        TOTAL FREE ENERGY PREDICTED BY IDOCK:   -5.53 KCAL/MOL
REMARK 923 INTER-LIGAND FREE ENERGY PREDICTED BY IDOCK:   -6.13 KCAL/MOL
REMARK 924 INTRA-LIGAND FREE ENERGY PREDICTED BY IDOCK:    0.60 KCAL/MOL
REMARK 927      BINDING AFFINITY PREDICTED BY RF-SCORE:    0.00 PKD
ROOT
HETATM    1  C   UNL     1     -10.605  11.035  68.896  1.00  0.00    -0.239 C  
HETATM    2  C   UNL     1     -12.016  10.910  68.748  1.00  0.00    -0.230 C  
HETATM    3  C   UNL     1     -11.183  10.800  67.523  1.00  0.00    -0.346 C  
HETATM    4  C   UNL     1      -9.164  10.653  67.902  1.00  0.00    -0.148 C  
HETATM    5  C   UNL     1      -8.198  14.764  66.635  1.00  0.00     0.092 C  
HETATM    6  C   UNL     1      -9.741  14.657  66.632  1.00  0.00    -0.283 C  
HETATM    7  C   UNL     1     -10.093   9.717  67.538  1.00  0.00    -0.247 C  
HETATM    8  C   UNL     1      -9.975  10.354  65.801  1.00  0.00    -0.334 C  
HETATM    9  C   UNL     1     -10.242  15.096  65.193  1.00  0.00    -0.386 C  
HETATM   10  C   UNL     1     -11.065  16.374  65.117  1.00  0.00    -0.176 C  
HETATM   11  O   UNL     1     -10.139  18.491  65.784  1.00  0.00    -0.537 OA 
HETATM   12  C   UNL     1     -10.261   8.250  67.909  1.00  0.00    -0.276 C  
HETATM   13  C   UNL     1     -10.519  17.367  66.087  1.00  0.00    -0.284 C  
HETATM   14  C   UNL     1     -10.533  16.916  67.487  1.00  0.00    -0.328 C  
HETATM   15  C   UNL     1      -9.665  12.049  65.743  1.00  0.00    -0.254 C  
HETATM   16  C   UNL     1     -10.214  13.155  66.880  1.00  0.00    -0.245 C  
HETATM   17  C   UNL     1     -10.092  12.719  68.447  1.00  0.00    -0.226 C  
HETATM   18  C   UNL     1     -10.831  13.723  69.326  1.00  0.00    -0.141 C  
HETATM   19  C   UNL     1     -10.223  15.126  69.207  1.00  0.00    -0.251 C  
HETATM   20  C   UNL     1     -10.948  16.017  70.234  1.00  0.00    -0.360 C  
HETATM   21  C   UNL     1     -10.237  15.628  67.758  1.00  0.00    -0.252 C  
ENDROOT
BRANCH   4  22
HETATM   22  C   UNL     1      -7.863  10.065  67.136  1.00  0.00    -0.099 C  
HETATM   23  C   UNL     1      -6.714  10.996  66.806  1.00  0.00    -0.128 C  
HETATM   24  O   UNL     1      -7.677   8.869  66.862  1.00  0.00    -0.096 OA 
ENDBRANCH   4  22
BRANCH   4  25
HETATM   25  O   UNL     1      -8.649   9.904  69.193  1.00  0.00    -0.135 OA 
BRANCH  25  26
HETATM   26  C   UNL     1      -7.584  10.296  69.933  1.00  0.00    -0.143 C  
HETATM   27  O   UNL     1      -7.144  11.432  69.992  1.00  0.00     0.021 OA 
HETATM   28  C   UNL     1      -7.069   9.129  70.732  1.00  0.00    -0.103 C  
ENDBRANCH  25  26
ENDBRANCH   4  25
TORSDOF 3
ENDMDL
MODEL       11
REMARK 921   NORMALIZED FREE ENERGY PREDICTED BY IDOCK:   -5.20 KCAL/MOL
REMARK 922        TOTAL FREE ENERGY PREDICTED BY IDOCK:   -5.50 KCAL/MOL
REMARK 923 INTER-LIGAND FREE ENERGY PREDICTED BY IDOCK:   -5.99 KCAL/MOL
REMARK 924 INTRA-LIGAND FREE ENERGY PREDICTED BY IDOCK:    0.50 KCAL/MOL
REMARK 927      BINDING AFFINITY PREDICTED BY RF-SCORE:    0.00 PKD
ROOT
HETATM    1  C   UNL     1      -8.977   9.270  64.804  1.00  0.00    -0.217 C  
HETATM    2  C   UNL     1      -8.423   9.741  63.580  1.00  0.00    -0.184 C  
HETATM    3  C   UNL     1      -7.621   9.929  64.816  1.00  0.00    -0.139 C  
HETATM    4  C   UNL     1      -8.359   8.913  66.448  1.00  0.00    -0.116 C  
HETATM    5  C   UNL     1      -9.954  12.484  68.481  1.00  0.00    -0.170 C  
HETATM    6  C   UNL     1      -9.490  12.950  67.082  1.00  0.00    -0.229 C  
HETATM    7  C   UNL     1      -7.302   8.658  65.618  1.00  0.00    -0.084 C  
HETATM    8  C   UNL     1      -6.337   9.944  66.541  1.00  0.00    -0.070 C  
HETATM    9  C   UNL     1      -8.484  14.157  67.296  1.00  0.00    -0.228 C  
HETATM   10  C   UNL     1      -8.935  15.519  66.789  1.00  0.00    -0.295 C  
HETATM   11  O   UNL     1     -10.899  16.588  67.676  1.00  0.00    -0.326 OA 
HETATM   12  C   UNL     1      -6.716   7.358  65.084  1.00  0.00    -0.044 C  
HETATM   13  C   UNL     1     -10.398  15.674  67.034  1.00  0.00    -0.289 C  
HETATM   14  C   UNL     1     -11.232  14.658  66.372  1.00  0.00    -0.336 C  
HETATM   15  C   UNL     1      -7.335  11.231  67.109  1.00  0.00    -0.130 C  
HETATM   16  C   UNL     1      -8.707  11.789  66.320  1.00  0.00    -0.106 C  
HETATM   17  C   UNL     1      -9.716  10.659  65.714  1.00  0.00    -0.272 C  
HETATM   18  C   UNL     1     -10.780  11.322  64.845  1.00  0.00    -0.337 C  
HETATM   19  C   UNL     1     -11.641  12.295  65.659  1.00  0.00    -0.433 C  
HETATM   20  C   UNL     1     -12.760  12.793  64.724  1.00  0.00    -0.469 C  
HETATM   21  C   UNL     1     -10.790  13.384  66.324  1.00  0.00    -0.294 C  
ENDROOT
BRANCH   4  22
HETATM   22  C   UNL     1      -7.767   8.332  67.839  1.00  0.00    -0.103 C  
HETATM   23  C   UNL     1      -8.220   8.942  69.150  1.00  0.00    -0.118 C  
HETATM   24  O   UNL     1      -7.019   7.347  67.939  1.00  0.00    -0.068 OA 
ENDBRANCH   4  22
BRANCH   4  25
HETATM   25  O   UNL     1      -9.077   7.518  66.259  1.00  0.00    -0.163 OA 
BRANCH  25  26
HETATM   26  C   UNL     1     -10.252   7.176  66.841  1.00  0.00    -0.260 C  
HETATM   27  O   UNL     1     -11.029   7.951  67.374  1.00  0.00    -0.173 OA 
HETATM   28  C   UNL     1     -10.490   5.701  66.664  1.00  0.00    -0.340 C  
ENDBRANCH  25  26
ENDBRANCH   4  25
TORSDOF 3
ENDMDL
MODEL       12
REMARK 921   NORMALIZED FREE ENERGY PREDICTED BY IDOCK:   -5.19 KCAL/MOL
REMARK 922        TOTAL FREE ENERGY PREDICTED BY IDOCK:   -5.49 KCAL/MOL
REMARK 923 INTER-LIGAND FREE ENERGY PREDICTED BY IDOCK:   -5.89 KCAL/MOL
REMARK 924 INTRA-LIGAND FREE ENERGY PREDICTED BY IDOCK:    0.40 KCAL/MOL
REMARK 927      BINDING AFFINITY PREDICTED BY RF-SCORE:    0.00 PKD
ROOT
HETATM    1  C   UNL     1      -7.901   8.175  70.802  1.00  0.00    -0.089 C  
HETATM    2  C   UNL     1      -7.558   8.826  72.021  1.00  0.00    -0.022 C  
HETATM    3  C   UNL     1      -8.964   8.381  71.852  1.00  0.00    -0.280 C  
HETATM    4  C   UNL     1      -9.259   7.161  70.218  1.00  0.00    -0.156 C  
HETATM    5  C   UNL     1     -11.286  10.218  67.772  1.00  0.00    -0.262 C  
HETATM    6  C   UNL     1     -10.765  10.944  69.035  1.00  0.00    -0.262 C  
HETATM    7  C   UNL     1      -9.173   6.887  71.556  1.00  0.00    -0.151 C  
HETATM    8  C   UNL     1     -10.918   7.488  71.736  1.00  0.00    -0.268 C  
HETATM    9  C   UNL     1     -12.002  11.683  69.698  1.00  0.00    -0.390 C  
HETATM   10  C   UNL     1     -11.963  13.204  69.705  1.00  0.00    -0.382 C  
HETATM   11  O   UNL     1     -11.915  14.457  67.653  1.00  0.00    -0.377 OA 
HETATM   12  C   UNL     1      -8.584   5.709  72.319  1.00  0.00    -0.129 C  
HETATM   13  C   UNL     1     -11.363  13.686  68.428  1.00  0.00    -0.295 C  
HETATM   14  C   UNL     1      -9.992  13.211  68.187  1.00  0.00    -0.234 C  
HETATM   15  C   UNL     1     -11.290   8.762  70.635  1.00  0.00    -0.289 C  
HETATM   16  C   UNL     1     -10.186   9.906  70.097  1.00  0.00    -0.326 C  
HETATM   17  C   UNL     1      -8.705   9.361  69.684  1.00  0.00    -0.172 C  
HETATM   18  C   UNL     1      -7.766  10.538  69.436  1.00  0.00    -0.157 C  
HETATM   19  C   UNL     1      -8.258  11.411  68.276  1.00  0.00    -0.150 C  
HETATM   20  C   UNL     1      -7.171  12.474  68.024  1.00  0.00    -0.105 C  
HETATM   21  C   UNL     1      -9.672  11.946  68.529  1.00  0.00    -0.173 C  
ENDROOT
BRANCH   4  22
HETATM   22  C   UNL     1     -10.330   6.031  69.772  1.00  0.00    -0.228 C  
HETATM   23  C   UNL     1     -11.135   6.233  68.504  1.00  0.00    -0.397 C  
HETATM   24  O   UNL     1     -10.496   4.942  70.342  1.00  0.00    -0.221 OA 
ENDBRANCH   4  22
BRANCH   4  25
HETATM   25  O   UNL     1      -8.126   6.163  69.756  1.00  0.00    -0.114 OA 
BRANCH  25  26
HETATM   26  C   UNL     1      -7.777   5.944  68.466  1.00  0.00    -0.094 C  
HETATM   27  O   UNL     1      -7.784   6.783  67.580  1.00  0.00    -0.106 OA 
HETATM   28  C   UNL     1      -7.305   4.524  68.306  1.00  0.00    -0.065 C  
ENDBRANCH  25  26
ENDBRANCH   4  25
TORSDOF 3
ENDMDL
MODEL       13
REMARK 921   NORMALIZED FREE ENERGY PREDICTED BY IDOCK:   -5.19 KCAL/MOL
REMARK 922        TOTAL FREE ENERGY PREDICTED BY IDOCK:   -5.49 KCAL/MOL
REMARK 923 INTER-LIGAND FREE ENERGY PREDICTED BY IDOCK:   -6.14 KCAL/MOL
REMARK 924 INTRA-LIGAND FREE ENERGY PREDICTED BY IDOCK:    0.65 KCAL/MOL
REMARK 927      BINDING AFFINITY PREDICTED BY RF-SCORE:    0.00 PKD
ROOT
HETATM    1  C   UNL     1      -8.050   8.149  67.031  1.00  0.00    -0.108 C  
HETATM    2  C   UNL     1      -6.698   8.473  66.725  1.00  0.00    -0.061 C  
HETATM    3  C   UNL     1      -7.279   9.048  67.965  1.00  0.00    -0.080 C  
HETATM    4  C   UNL     1      -9.104   8.243  68.477  1.00  0.00    -0.136 C  
HETATM    5  C   UNL     1     -11.468  11.765  67.275  1.00  0.00    -0.373 C  
HETATM    6  C   UNL     1     -10.018  12.031  66.807  1.00  0.00    -0.218 C  
HETATM    7  C   UNL     1      -7.847   8.041  68.978  1.00  0.00    -0.109 C  
HETATM    8  C   UNL     1      -8.014   9.643  69.896  1.00  0.00    -0.174 C  
HETATM    9  C   UNL     1      -9.575  13.428  67.414  1.00  0.00    -0.223 C  
HETATM   10  C   UNL     1      -9.321  14.553  66.421  1.00  0.00    -0.300 C  
HETATM   11  O   UNL     1     -11.075  15.374  64.995  1.00  0.00    -0.388 OA 
HETATM   12  C   UNL     1      -7.155   6.801  69.527  1.00  0.00    -0.072 C  
HETATM   13  C   UNL     1     -10.318  14.467  65.316  1.00  0.00    -0.410 C  
HETATM   14  C   UNL     1     -10.282  13.201  64.566  1.00  0.00    -0.333 C  
HETATM   15  C   UNL     1      -8.960  10.798  69.034  1.00  0.00    -0.141 C  
HETATM   16  C   UNL     1      -9.021  10.918  67.361  1.00  0.00    -0.136 C  
HETATM   17  C   UNL     1      -9.133   9.519  66.528  1.00  0.00    -0.185 C  
HETATM   18  C   UNL     1      -8.953   9.784  65.037  1.00  0.00    -0.247 C  
HETATM   19  C   UNL     1     -10.048  10.712  64.497  1.00  0.00    -0.421 C  
HETATM   20  C   UNL     1      -9.852  10.794  62.970  1.00  0.00    -0.344 C  
HETATM   21  C   UNL     1     -10.073  12.052  65.241  1.00  0.00    -0.289 C  
ENDROOT
BRANCH   4  22
HETATM   22  C   UNL     1      -9.974   8.067  69.832  1.00  0.00    -0.189 C  
HETATM   23  C   UNL     1     -11.247   8.871  70.005  1.00  0.00    -0.120 C  
HETATM   24  O   UNL     1      -9.734   7.248  70.733  1.00  0.00    -0.172 OA 
ENDBRANCH   4  22
BRANCH   4  25
HETATM   25  O   UNL     1      -9.421   6.727  68.168  1.00  0.00    -0.123 OA 
BRANCH  25  26
HETATM   26  C   UNL     1     -10.396   6.304  67.328  1.00  0.00    -0.216 C  
HETATM   27  O   UNL     1     -11.375   6.952  66.998  1.00  0.00    -0.304 OA 
HETATM   28  C   UNL     1     -10.050   4.936  66.804  1.00  0.00    -0.269 C  
ENDBRANCH  25  26
ENDBRANCH   4  25
TORSDOF 3
ENDMDL
MODEL       14
REMARK 921   NORMALIZED FREE ENERGY PREDICTED BY IDOCK:   -5.15 KCAL/MOL
REMARK 922        TOTAL FREE ENERGY PREDICTED BY IDOCK:   -5.44 KCAL/MOL
REMARK 923 INTER-LIGAND FREE ENERGY PREDICTED BY IDOCK:   -6.37 KCAL/MOL
REMARK 924 INTRA-LIGAND FREE ENERGY PREDICTED BY IDOCK:    0.93 KCAL/MOL
REMARK 927      BINDING AFFINITY PREDICTED BY RF-SCORE:    0.00 PKD
ROOT
HETATM    1  C   UNL     1     -11.809  12.273  68.267  1.00  0.00    -0.367 C  
HETATM    2  C   UNL     1     -11.909  11.964  69.653  1.00  0.00    -0.406 C  
HETATM    3  C   UNL     1     -10.804  12.860  69.226  1.00  0.00    -0.040 C  
HETATM    4  C   UNL     1     -10.965  13.504  67.276  1.00  0.00    -0.280 C  
HETATM    5  C   UNL     1      -7.750  10.922  65.715  1.00  0.00    -0.036 C  
HETATM    6  C   UNL     1      -7.983  10.492  67.182  1.00  0.00    -0.116 C  
HETATM    7  C   UNL     1     -11.217  14.131  68.466  1.00  0.00    -0.285 C  
HETATM    8  C   UNL     1      -9.389  14.377  68.661  1.00  0.00    -0.188 C  
HETATM    9  C   UNL     1      -6.583  10.569  67.924  1.00  0.00    -0.061 C  
HETATM   10  C   UNL     1      -5.992   9.251  68.404  1.00  0.00    -0.045 C  
HETATM   11  O   UNL     1      -5.427   7.503  66.851  1.00  0.00    -0.025 OA 
HETATM   12  C   UNL     1     -12.273  15.147  68.880  1.00  0.00    -0.138 C  
HETATM   13  C   UNL     1      -6.281   8.188  67.398  1.00  0.00    -0.055 C  
HETATM   14  C   UNL     1      -7.714   7.965  67.150  1.00  0.00    -0.101 C  
HETATM   15  C   UNL     1      -8.476  13.085  67.977  1.00  0.00    -0.181 C  
HETATM   16  C   UNL     1      -8.985  11.487  67.922  1.00  0.00    -0.159 C  
HETATM   17  C   UNL     1     -10.539  11.224  67.499  1.00  0.00    -0.257 C  
HETATM   18  C   UNL     1     -10.897   9.757  67.715  1.00  0.00    -0.306 C  
HETATM   19  C   UNL     1     -10.038   8.837  66.840  1.00  0.00    -0.348 C  
HETATM   20  C   UNL     1     -10.578   7.407  67.030  1.00  0.00    -0.414 C  
HETATM   21  C   UNL     1      -8.542   9.030  67.114  1.00  0.00    -0.119 C  
ENDROOT
BRANCH   4  22
HETATM   22  C   UNL     1     -10.435  14.764  66.406  1.00  0.00    -0.293 C  
HETATM   23  C   UNL     1      -9.670  14.509  65.123  1.00  0.00     0.016 C  
HETATM   24  O   UNL     1     -10.680  15.955  66.654  1.00  0.00    -0.316 OA 
ENDBRANCH   4  22
BRANCH   4  25
HETATM   25  O   UNL     1     -12.386  13.756  66.635  1.00  0.00    -0.418 OA 
BRANCH  25  26
HETATM   26  C   UNL     1     -12.656  13.669  65.310  1.00  0.00    -0.469 C  
HETATM   27  O   UNL     1     -13.036  14.589  64.605  1.00  0.00    -0.550 OA 
HETATM   28  C   UNL     1     -12.342  12.280  64.824  1.00  0.00    -0.416 C  
ENDBRANCH  25  26
ENDBRANCH   4  25
TORSDOF 3
ENDMDL
MODEL       15
REMARK 921   NORMALIZED FREE ENERGY PREDICTED BY IDOCK:   -5.07 KCAL/MOL
REMARK 922        TOTAL FREE ENERGY PREDICTED BY IDOCK:   -5.35 KCAL/MOL
REMARK 923 INTER-LIGAND FREE ENERGY PREDICTED BY IDOCK:   -5.97 KCAL/MOL
REMARK 924 INTRA-LIGAND FREE ENERGY PREDICTED BY IDOCK:    0.62 KCAL/MOL
REMARK 927      BINDING AFFINITY PREDICTED BY RF-SCORE:    0.00 PKD
ROOT
HETATM    1  C   UNL     1     -10.926  11.414  67.354  1.00  0.00    -0.326 C  
HETATM    2  C   UNL     1     -11.389  11.728  66.045  1.00  0.00    -0.335 C  
HETATM    3  C   UNL     1      -9.943  11.430  66.211  1.00  0.00    -0.259 C  
HETATM    4  C   UNL     1      -9.459  10.662  68.059  1.00  0.00    -0.158 C  
HETATM    5  C   UNL     1      -7.555  14.344  69.559  1.00  0.00     0.083 C  
HETATM    6  C   UNL     1      -8.203  14.709  68.203  1.00  0.00    -0.142 C  
HETATM    7  C   UNL     1      -9.598  10.069  66.834  1.00  0.00    -0.219 C  
HETATM    8  C   UNL     1      -7.920  10.723  66.389  1.00  0.00    -0.151 C  
HETATM    9  C   UNL     1      -7.070  15.347  67.294  1.00  0.00    -0.206 C  
HETATM   10  C   UNL     1      -7.233  16.815  66.931  1.00  0.00    -0.258 C  
HETATM   11  O   UNL     1      -7.269  18.519  68.628  1.00  0.00    -0.270 OA 
HETATM   12  C   UNL     1     -10.130   8.705  66.416  1.00  0.00    -0.294 C  
HETATM   13  C   UNL     1      -7.798  17.550  68.100  1.00  0.00    -0.244 C  
HETATM   14  C   UNL     1      -9.111  17.058  68.547  1.00  0.00    -0.259 C  
HETATM   15  C   UNL     1      -7.592  12.245  67.128  1.00  0.00    -0.118 C  
HETATM   16  C   UNL     1      -8.754  13.410  67.461  1.00  0.00    -0.205 C  
HETATM   17  C   UNL     1     -10.160  12.884  68.099  1.00  0.00    -0.240 C  
HETATM   18  C   UNL     1     -11.176  14.021  68.131  1.00  0.00    -0.299 C  
HETATM   19  C   UNL     1     -10.694  15.178  69.013  1.00  0.00    -0.239 C  
HETATM   20  C   UNL     1     -11.848  16.197  69.086  1.00  0.00    -0.182 C  
HETATM   21  C   UNL     1      -9.345  15.729  68.537  1.00  0.00    -0.198 C  
ENDROOT
BRANCH   4  22
HETATM   22  C   UNL     1      -8.277   9.746  68.680  1.00  0.00    -0.106 C  
HETATM   23  C   UNL     1      -7.403  10.310  69.781  1.00  0.00    -0.167 C  
HETATM   24  O   UNL     1      -8.067   8.558  68.388  1.00  0.00    -0.119 OA 
ENDBRANCH   4  22
BRANCH   4  25
HETATM   25  O   UNL     1     -10.479   9.731  68.826  1.00  0.00    -0.202 OA 
BRANCH  25  26
HETATM   26  C   UNL     1     -10.862   9.911  70.114  1.00  0.00    -0.304 C  
HETATM   27  O   UNL     1     -11.359  10.928  70.568  1.00  0.00    -0.290 OA 
HETATM   28  C   UNL     1     -10.648   8.636  70.884  1.00  0.00    -0.265 C  
ENDBRANCH  25  26
ENDBRANCH   4  25
TORSDOF 3
ENDMDL
MODEL       16
REMARK 921   NORMALIZED FREE ENERGY PREDICTED BY IDOCK:   -5.04 KCAL/MOL
REMARK 922        TOTAL FREE ENERGY PREDICTED BY IDOCK:   -5.31 KCAL/MOL
REMARK 923 INTER-LIGAND FREE ENERGY PREDICTED BY IDOCK:   -5.75 KCAL/MOL
REMARK 924 INTRA-LIGAND FREE ENERGY PREDICTED BY IDOCK:    0.44 KCAL/MOL
REMARK 927      BINDING AFFINITY PREDICTED BY RF-SCORE:    0.00 PKD
ROOT
HETATM    1  C   UNL     1      -7.752  11.416  66.620  1.00  0.00    -0.129 C  
HETATM    2  C   UNL     1      -6.928  12.240  67.436  1.00  0.00    -0.151 C  
HETATM    3  C   UNL     1      -6.632  10.785  67.408  1.00  0.00    -0.071 C  
HETATM    4  C   UNL     1      -7.656   9.758  65.945  1.00  0.00    -0.103 C  
HETATM    5  C   UNL     1     -10.496   7.818  68.702  1.00  0.00    -0.199 C  
HETATM    6  C   UNL     1      -9.694   8.836  69.547  1.00  0.00    -0.172 C  
HETATM    7  C   UNL     1      -6.355  10.176  66.024  1.00  0.00    -0.094 C  
HETATM    8  C   UNL     1      -6.020   8.740  67.148  1.00  0.00    -0.053 C  
HETATM    9  C   UNL     1      -9.071   8.047  70.773  1.00  0.00    -0.151 C  
HETATM   10  C   UNL     1      -9.585   8.418  72.156  1.00  0.00    -0.367 C  
HETATM   11  O   UNL     1     -11.899   8.128  72.742  1.00  0.00    -0.389 OA 
HETATM   12  C   UNL     1      -5.384  10.691  64.971  1.00  0.00    -0.148 C  
HETATM   13  C   UNL     1     -11.047   8.701  72.076  1.00  0.00    -0.367 C  
HETATM   14  C   UNL     1     -11.401   9.800  71.164  1.00  0.00    -0.459 C  
HETATM   15  C   UNL     1      -7.379   8.346  68.133  1.00  0.00    -0.096 C  
HETATM   16  C   UNL     1      -8.494   9.462  68.705  1.00  0.00    -0.119 C  
HETATM   17  C   UNL     1      -9.006  10.596  67.649  1.00  0.00    -0.139 C  
HETATM   18  C   UNL     1      -9.830  11.653  68.378  1.00  0.00    -0.202 C  
HETATM   19  C   UNL     1     -11.083  11.043  69.016  1.00  0.00    -0.301 C  
HETATM   20  C   UNL     1     -11.904  12.211  69.596  1.00  0.00    -0.391 C  
HETATM   21  C   UNL     1     -10.729   9.922  70.000  1.00  0.00    -0.338 C  
ENDROOT
BRANCH   4  22
HETATM   22  C   UNL     1      -7.456   8.382  65.114  1.00  0.00    -0.084 C  
HETATM   23  C   UNL     1      -8.395   7.221  65.366  1.00  0.00    -0.127 C  
HETATM   24  O   UNL     1      -6.633   8.214  64.200  1.00  0.00    -0.065 OA 
ENDBRANCH   4  22
BRANCH   4  25
HETATM   25  O   UNL     1      -7.985  10.455  64.566  1.00  0.00    -0.156 OA 
BRANCH  25  26
HETATM   26  C   UNL     1      -9.182  10.378  63.936  1.00  0.00    -0.266 C  
HETATM   27  O   UNL     1     -10.268  10.313  64.487  1.00  0.00    -0.314 OA 
HETATM   28  C   UNL     1      -8.973  10.463  62.447  1.00  0.00    -0.297 C  
ENDBRANCH  25  26
ENDBRANCH   4  25
TORSDOF 3
ENDMDL
MODEL       17
REMARK 921   NORMALIZED FREE ENERGY PREDICTED BY IDOCK:   -5.01 KCAL/MOL
REMARK 922        TOTAL FREE ENERGY PREDICTED BY IDOCK:   -5.28 KCAL/MOL
REMARK 923 INTER-LIGAND FREE ENERGY PREDICTED BY IDOCK:   -5.73 KCAL/MOL
REMARK 924 INTRA-LIGAND FREE ENERGY PREDICTED BY IDOCK:    0.45 KCAL/MOL
REMARK 927      BINDING AFFINITY PREDICTED BY RF-SCORE:    0.00 PKD
ROOT
HETATM    1  C   UNL     1      -9.801  12.896  64.848  1.00  0.00    -0.048 C  
HETATM    2  C   UNL     1     -10.381  12.221  63.737  1.00  0.00    -0.464 C  
HETATM    3  C   UNL     1     -11.213  12.378  64.958  1.00  0.00    -0.354 C  
HETATM    4  C   UNL     1     -10.404  13.656  66.355  1.00  0.00    -0.286 C  
HETATM    5  C   UNL     1      -9.176  10.486  69.162  1.00  0.00    -0.183 C  
HETATM    6  C   UNL     1      -9.664   9.770  67.881  1.00  0.00    -0.168 C  
HETATM    7  C   UNL     1     -11.422  13.817  65.456  1.00  0.00    -0.319 C  
HETATM    8  C   UNL     1     -12.515  12.852  66.602  1.00  0.00     0.185 C  
HETATM    9  C   UNL     1     -10.781   8.732  68.317  1.00  0.00    -0.121 C  
HETATM   10  C   UNL     1     -10.452   7.258  68.131  1.00  0.00    -0.244 C  
HETATM   11  O   UNL     1      -8.608   6.239  69.291  1.00  0.00    -0.123 OA 
HETATM   12  C   UNL     1     -11.878  15.015  64.635  1.00  0.00    -0.378 C  
HETATM   13  C   UNL     1      -9.013   7.032  68.451  1.00  0.00    -0.122 C  
HETATM   14  C   UNL     1      -8.079   7.802  67.614  1.00  0.00    -0.124 C  
HETATM   15  C   UNL     1     -11.649  11.637  67.466  1.00  0.00    -0.345 C  
HETATM   16  C   UNL     1     -10.324  10.802  66.862  1.00  0.00    -0.290 C  
HETATM   17  C   UNL     1      -9.207  11.679  66.060  1.00  0.00    -0.218 C  
HETATM   18  C   UNL     1      -8.198  10.751  65.390  1.00  0.00    -0.077 C  
HETATM   19  C   UNL     1      -7.443   9.907  66.423  1.00  0.00    -0.101 C  
HETATM   20  C   UNL     1      -6.363   9.121  65.655  1.00  0.00    -0.067 C  
HETATM   21  C   UNL     1      -8.400   9.068  67.278  1.00  0.00    -0.111 C  
ENDROOT
BRANCH   4  22
HETATM   22  C   UNL     1     -10.959  14.576  67.568  1.00  0.00    -0.293 C  
HETATM   23  C   UNL     1     -10.571  14.235  68.993  1.00  0.00    -0.243 C  
HETATM   24  O   UNL     1     -11.621  15.616  67.429  1.00  0.00    -0.168 OA 
ENDBRANCH   4  22
BRANCH   4  25
HETATM   25  O   UNL     1      -9.557  14.907  65.894  1.00  0.00    -0.314 OA 
BRANCH  25  26
HETATM   26  C   UNL     1      -8.442  15.351  66.523  1.00  0.00    -0.213 C  
HETATM   27  O   UNL     1      -7.656  14.654  67.143  1.00  0.00    -0.181 OA 
HETATM   28  C   UNL     1      -8.279  16.826  66.276  1.00  0.00    -0.359 C  
ENDBRANCH  25  26
ENDBRANCH   4  25
TORSDOF 3
ENDMDL
MODEL       18
REMARK 921   NORMALIZED FREE ENERGY PREDICTED BY IDOCK:   -4.97 KCAL/MOL
REMARK 922        TOTAL FREE ENERGY PREDICTED BY IDOCK:   -5.24 KCAL/MOL
REMARK 923 INTER-LIGAND FREE ENERGY PREDICTED BY IDOCK:   -5.88 KCAL/MOL
REMARK 924 INTRA-LIGAND FREE ENERGY PREDICTED BY IDOCK:    0.65 KCAL/MOL
REMARK 927      BINDING AFFINITY PREDICTED BY RF-SCORE:    0.00 PKD
ROOT
HETATM    1  C   UNL     1      -5.779  17.648  67.067  1.00  0.00    -0.174 C  
HETATM    2  C   UNL     1      -5.128  17.265  65.861  1.00  0.00     0.095 C  
HETATM    3  C   UNL     1      -6.339  18.118  65.748  1.00  0.00    -0.297 C  
HETATM    4  C   UNL     1      -6.985  18.884  67.547  1.00  0.00    -0.202 C  
HETATM    5  C   UNL     1     -10.474  16.213  67.910  1.00  0.00    -0.290 C  
HETATM    6  C   UNL     1      -9.666  15.712  66.691  1.00  0.00    -0.266 C  
HETATM    7  C   UNL     1      -6.301  19.453  66.508  1.00  0.00    -0.192 C  
HETATM    8  C   UNL     1      -7.908  19.580  65.591  1.00  0.00    -0.024 C  
HETATM    9  C   UNL     1     -10.658  15.662  65.455  1.00  0.00    -0.436 C  
HETATM   10  C   UNL     1     -10.969  14.287  64.884  1.00  0.00    -0.413 C  
HETATM   11  O   UNL     1     -12.050  12.603  66.219  1.00  0.00    -0.523 OA 
HETATM   12  C   UNL     1      -5.200  20.503  66.466  1.00  0.00    -0.182 C  
HETATM   13  C   UNL     1     -11.070  13.304  66.001  1.00  0.00    -0.283 C  
HETATM   14  C   UNL     1      -9.847  13.180  66.810  1.00  0.00    -0.251 C  
HETATM   15  C   UNL     1      -8.978  18.278  65.958  1.00  0.00     0.020 C  
HETATM   16  C   UNL     1      -8.483  16.719  66.332  1.00  0.00    -0.338 C  
HETATM   17  C   UNL     1      -7.218  16.574  67.351  1.00  0.00    -0.178 C  
HETATM   18  C   UNL     1      -6.758  15.120  67.408  1.00  0.00    -0.134 C  
HETATM   19  C   UNL     1      -7.865  14.204  67.942  1.00  0.00    -0.157 C  
HETATM   20  C   UNL     1      -7.251  12.799  68.091  1.00  0.00    -0.115 C  
HETATM   21  C   UNL     1      -9.135  14.292  67.087  1.00  0.00    -0.237 C  
ENDROOT
BRANCH   4  22
HETATM   22  C   UNL     1      -7.855  20.159  68.038  1.00  0.00    -0.206 C  
HETATM   23  C   UNL     1      -9.115  19.928  68.848  1.00  0.00    -0.089 C  
HETATM   24  O   UNL     1      -7.531  21.346  67.883  1.00  0.00    -0.086 OA 
ENDBRANCH   4  22
BRANCH   4  25
HETATM   25  O   UNL     1      -5.944  19.256  68.674  1.00  0.00    -0.209 OA 
BRANCH  25  26
HETATM   26  C   UNL     1      -6.004  18.808  69.952  1.00  0.00    -0.228 C  
HETATM   27  O   UNL     1      -6.107  17.640  70.287  1.00  0.00    -0.142 OA 
HETATM   28  C   UNL     1      -5.850  19.968  70.898  1.00  0.00    -0.347 C  
ENDBRANCH  25  26
ENDBRANCH   4  25
TORSDOF 3
ENDMDL
MODEL       19
REMARK 921   NORMALIZED FREE ENERGY PREDICTED BY IDOCK:   -4.97 KCAL/MOL
REMARK 922        TOTAL FREE ENERGY PREDICTED BY IDOCK:   -5.23 KCAL/MOL
REMARK 923 INTER-LIGAND FREE ENERGY PREDICTED BY IDOCK:   -6.75 KCAL/MOL
REMARK 924 INTRA-LIGAND FREE ENERGY PREDICTED BY IDOCK:    1.52 KCAL/MOL
REMARK 927      BINDING AFFINITY PREDICTED BY RF-SCORE:    0.00 PKD
ROOT
HETATM    1  C   UNL     1     -11.734  12.292  68.201  1.00  0.00    -0.408 C  
HETATM    2  C   UNL     1     -11.812  12.035  69.599  1.00  0.00    -0.401 C  
HETATM    3  C   UNL     1     -10.676  12.860  69.113  1.00  0.00    -0.060 C  
HETATM    4  C   UNL     1     -10.857  13.445  67.146  1.00  0.00    -0.276 C  
HETATM    5  C   UNL     1      -7.817  10.654  65.596  1.00  0.00    -0.123 C  
HETATM    6  C   UNL     1      -8.031  10.285  67.082  1.00  0.00    -0.114 C  
HETATM    7  C   UNL     1     -11.045  14.123  68.320  1.00  0.00    -0.274 C  
HETATM    8  C   UNL     1      -9.203  14.284  68.460  1.00  0.00    -0.197 C  
HETATM    9  C   UNL     1      -6.609  10.316  67.785  1.00  0.00    -0.066 C  
HETATM   10  C   UNL     1      -6.072   8.988  68.295  1.00  0.00    -0.053 C  
HETATM   11  O   UNL     1      -5.635   7.163  66.791  1.00  0.00    -0.021 OA 
HETATM   12  C   UNL     1     -12.038  15.204  68.724  1.00  0.00    -0.199 C  
HETATM   13  C   UNL     1      -6.440   7.908  67.335  1.00  0.00    -0.056 C  
HETATM   14  C   UNL     1      -7.889   7.749  67.131  1.00  0.00    -0.113 C  
HETATM   15  C   UNL     1      -8.374  12.925  67.798  1.00  0.00    -0.178 C  
HETATM   16  C   UNL     1      -8.962  11.353  67.811  1.00  0.00    -0.147 C  
HETATM   17  C   UNL     1     -10.538  11.156  67.438  1.00  0.00    -0.272 C  
HETATM   18  C   UNL     1     -10.963   9.717  67.713  1.00  0.00    -0.203 C  
HETATM   19  C   UNL     1     -10.174   8.726  66.849  1.00  0.00    -0.357 C  
HETATM   20  C   UNL     1     -10.778   7.331  67.102  1.00  0.00    -0.413 C  
HETATM   21  C   UNL     1      -8.663   8.852  67.078  1.00  0.00    -0.130 C  
ENDROOT
BRANCH   4  22
HETATM   22  C   UNL     1     -10.290  14.647  66.220  1.00  0.00    -0.294 C  
HETATM   23  C   UNL     1     -10.515  16.083  66.649  1.00  0.00    -0.304 C  
HETATM   24  O   UNL     1      -9.591  14.497  65.205  1.00  0.00    -0.156 OA 
ENDBRANCH   4  22
BRANCH   4  25
HETATM   25  O   UNL     1     -12.281  13.747  66.533  1.00  0.00    -0.435 OA 
BRANCH  25  26
HETATM   26  C   UNL     1     -12.572  13.697  65.211  1.00  0.00    -0.469 C  
HETATM   27  O   UNL     1     -12.906  14.648  64.525  1.00  0.00    -0.579 OA 
HETATM   28  C   UNL     1     -12.346  12.300  64.699  1.00  0.00    -0.449 C  
ENDBRANCH  25  26
ENDBRANCH   4  25
TORSDOF 3
ENDMDL
MODEL       20
REMARK 921   NORMALIZED FREE ENERGY PREDICTED BY IDOCK:   -4.93 KCAL/MOL
REMARK 922        TOTAL FREE ENERGY PREDICTED BY IDOCK:   -5.19 KCAL/MOL
REMARK 923 INTER-LIGAND FREE ENERGY PREDICTED BY IDOCK:   -5.60 KCAL/MOL
REMARK 924 INTRA-LIGAND FREE ENERGY PREDICTED BY IDOCK:    0.41 KCAL/MOL
REMARK 927      BINDING AFFINITY PREDICTED BY RF-SCORE:    0.00 PKD
ROOT
HETATM    1  C   UNL     1      -9.789   7.087  67.981  1.00  0.00    -0.156 C  
HETATM    2  C   UNL     1     -11.033   6.661  67.436  1.00  0.00    -0.434 C  
HETATM    3  C   UNL     1     -10.138   7.463  66.563  1.00  0.00    -0.176 C  
HETATM    4  C   UNL     1      -8.245   7.724  67.331  1.00  0.00    -0.123 C  
HETATM    5  C   UNL     1      -8.821  11.951  68.443  1.00  0.00    -0.159 C  
HETATM    6  C   UNL     1     -10.205  11.425  67.995  1.00  0.00    -0.201 C  
HETATM    7  C   UNL     1      -8.723   6.904  66.346  1.00  0.00    -0.147 C  
HETATM    8  C   UNL     1      -8.734   8.369  65.209  1.00  0.00    -0.148 C  
HETATM    9  C   UNL     1     -10.733  12.396  66.857  1.00  0.00    -0.269 C  
HETATM   10  C   UNL     1     -11.970  13.218  67.183  1.00  0.00    -0.400 C  
HETATM   11  O   UNL     1     -11.963  14.817  68.980  1.00  0.00    -0.305 OA 
HETATM   12  C   UNL     1      -8.349   5.490  65.926  1.00  0.00    -0.125 C  
HETATM   13  C   UNL     1     -11.910  13.652  68.609  1.00  0.00    -0.374 C  
HETATM   14  C   UNL     1     -11.849  12.544  69.576  1.00  0.00    -0.375 C  
HETATM   15  C   UNL     1      -9.085   9.840  66.037  1.00  0.00    -0.201 C  
HETATM   16  C   UNL     1     -10.090   9.961  67.376  1.00  0.00    -0.254 C  
HETATM   17  C   UNL     1      -9.922   8.815  68.526  1.00  0.00    -0.200 C  
HETATM   18  C   UNL     1     -11.045   8.937  69.551  1.00  0.00    -0.015 C  
HETATM   19  C   UNL     1     -11.006  10.293  70.265  1.00  0.00    -0.375 C  
HETATM   20  C   UNL     1     -12.084  10.250  71.366  1.00  0.00    -0.457 C  
HETATM   21  C   UNL     1     -11.108  11.458  69.275  1.00  0.00    -0.313 C  
ENDROOT
BRANCH   4  22
HETATM   22  C   UNL     1      -6.769   8.035  66.742  1.00  0.00    -0.064 C  
HETATM   23  C   UNL     1      -6.086   9.338  67.103  1.00  0.00    -0.057 C  
HETATM   24  O   UNL     1      -6.087   7.244  66.072  1.00  0.00    -0.036 OA 
ENDBRANCH   4  22
BRANCH   4  25
HETATM   25  O   UNL     1      -7.576   6.588  68.202  1.00  0.00    -0.099 OA 
BRANCH  25  26
HETATM   26  C   UNL     1      -6.868   6.808  69.336  1.00  0.00    -0.061 C  
HETATM   27  O   UNL     1      -7.155   7.618  70.202  1.00  0.00    -0.057 OA 
HETATM   28  C   UNL     1      -5.712   5.847  69.402  1.00  0.00    -0.015 C  
ENDBRANCH  25  26
ENDBRANCH   4  25
TORSDOF 3
ENDMDL
MODEL       21
REMARK 921   NORMALIZED FREE ENERGY PREDICTED BY IDOCK:   -4.93 KCAL/MOL
REMARK 922        TOTAL FREE ENERGY PREDICTED BY IDOCK:   -5.19 KCAL/MOL
REMARK 923 INTER-LIGAND FREE ENERGY PREDICTED BY IDOCK:   -5.71 KCAL/MOL
REMARK 924 INTRA-LIGAND FREE ENERGY PREDICTED BY IDOCK:    0.52 KCAL/MOL
REMARK 927      BINDING AFFINITY PREDICTED BY RF-SCORE:    0.00 PKD
ROOT
HETATM    1  C   UNL     1     -11.435  14.253  66.369  1.00  0.00    -0.361 C  
HETATM    2  C   UNL     1     -12.757  13.770  66.151  1.00  0.00    -0.335 C  
HETATM    3  C   UNL     1     -12.096  13.412  67.432  1.00  0.00    -0.338 C  
HETATM    4  C   UNL     1     -10.345  14.440  67.779  1.00  0.00    -0.238 C  
HETATM    5  C   UNL     1      -7.682  11.028  66.939  1.00  0.00    -0.140 C  
HETATM    6  C   UNL     1      -9.110  10.572  66.557  1.00  0.00    -0.175 C  
HETATM    7  C   UNL     1     -11.604  14.586  68.294  1.00  0.00    -0.358 C  
HETATM    8  C   UNL     1     -11.264  13.135  69.396  1.00  0.00    -0.210 C  
HETATM    9  C   UNL     1      -9.403   9.228  67.346  1.00  0.00    -0.153 C  
HETATM   10  C   UNL     1      -9.571   7.968  66.509  1.00  0.00    -0.295 C  
HETATM   11  O   UNL     1      -7.779   7.140  65.136  1.00  0.00    -0.101 OA 
HETATM   12  C   UNL     1     -12.399  15.817  68.709  1.00  0.00     0.282 C  
HETATM   13  C   UNL     1      -8.612   8.006  65.368  1.00  0.00    -0.114 C  
HETATM   14  C   UNL     1      -8.786   9.159  64.470  1.00  0.00    -0.192 C  
HETATM   15  C   UNL     1     -10.231  11.972  68.650  1.00  0.00    -0.189 C  
HETATM   16  C   UNL     1     -10.196  11.650  67.004  1.00  0.00    -0.240 C  
HETATM   17  C   UNL     1     -10.237  12.937  66.002  1.00  0.00    -0.293 C  
HETATM   18  C   UNL     1     -10.425  12.471  64.562  1.00  0.00    -0.366 C  
HETATM   19  C   UNL     1      -9.259  11.588  64.103  1.00  0.00     0.073 C  
HETATM   20  C   UNL     1      -9.480  11.296  62.606  1.00  0.00    -0.279 C  
HETATM   21  C   UNL     1      -9.088  10.360  65.005  1.00  0.00    -0.237 C  
ENDROOT
BRANCH   4  22
HETATM   22  C   UNL     1      -9.466  14.864  69.072  1.00  0.00    -0.196 C  
HETATM   23  C   UNL     1      -8.007  14.460  69.141  1.00  0.00    -0.002 C  
HETATM   24  O   UNL     1      -9.864  15.584  70.000  1.00  0.00    -0.283 OA 
ENDBRANCH   4  22
BRANCH   4  25
HETATM   25  O   UNL     1     -10.182  15.928  67.275  1.00  0.00    -0.265 OA 
BRANCH  25  26
HETATM   26  C   UNL     1      -9.070  16.416  66.675  1.00  0.00    -0.250 C  
HETATM   27  O   UNL     1      -8.237  15.751  66.081  1.00  0.00    -0.179 OA 
HETATM   28  C   UNL     1      -9.055  17.917  66.787  1.00  0.00    -0.276 C  
ENDBRANCH  25  26
ENDBRANCH   4  25
TORSDOF 3
ENDMDL
MODEL       22
REMARK 921   NORMALIZED FREE ENERGY PREDICTED BY IDOCK:   -4.91 KCAL/MOL
REMARK 922        TOTAL FREE ENERGY PREDICTED BY IDOCK:   -5.16 KCAL/MOL
REMARK 923 INTER-LIGAND FREE ENERGY PREDICTED BY IDOCK:   -6.37 KCAL/MOL
REMARK 924 INTRA-LIGAND FREE ENERGY PREDICTED BY IDOCK:    1.21 KCAL/MOL
REMARK 927      BINDING AFFINITY PREDICTED BY RF-SCORE:    0.00 PKD
ROOT
HETATM    1  C   UNL     1     -10.081  16.152  65.384  1.00  0.00    -0.220 C  
HETATM    2  C   UNL     1     -11.410  16.182  64.876  1.00  0.00    -0.201 C  
HETATM    3  C   UNL     1     -11.224  16.427  66.329  1.00  0.00     0.349 C  
HETATM    4  C   UNL     1      -9.258  16.698  66.880  1.00  0.00    -0.227 C  
HETATM    5  C   UNL     1      -8.810  12.754  68.796  1.00  0.00     0.178 C  
HETATM    6  C   UNL     1     -10.192  12.747  68.101  1.00  0.00    -0.241 C  
HETATM    7  C   UNL     1     -10.286  17.584  66.708  1.00  0.00    -0.314 C  
HETATM    8  C   UNL     1     -10.940  17.064  68.363  1.00  0.00    -0.263 C  
HETATM    9  C   UNL     1     -11.270  12.360  69.198  1.00  0.00    -0.295 C  
HETATM   10  C   UNL     1     -11.989  11.033  69.009  1.00  0.00    -0.364 C  
HETATM   11  O   UNL     1     -10.782   8.953  69.012  1.00  0.00    -0.209 OA 
HETATM   12  C   UNL     1     -10.325  19.010  66.175  1.00  0.00    -0.537 C  
HETATM   13  C   UNL     1     -11.028  10.025  68.476  1.00  0.00    -0.209 C  
HETATM   14  C   UNL     1     -10.426  10.389  67.183  1.00  0.00    -0.311 C  
HETATM   15  C   UNL     1     -10.624  15.402  68.701  1.00  0.00    -0.239 C  
HETATM   16  C   UNL     1     -10.559  14.192  67.539  1.00  0.00    -0.257 C  
HETATM   17  C   UNL     1      -9.761  14.540  66.160  1.00  0.00    -0.340 C  
HETATM   18  C   UNL     1      -9.985  13.434  65.134  1.00  0.00    -0.190 C  
HETATM   19  C   UNL     1      -9.444  12.089  65.634  1.00  0.00    -0.150 C  
HETATM   20  C   UNL     1      -9.593  11.087  64.473  1.00  0.00    -0.299 C  
HETATM   21  C   UNL     1     -10.089  11.676  66.962  1.00  0.00    -0.234 C  
ENDROOT
BRANCH   4  22
HETATM   22  C   UNL     1      -8.465  17.426  68.091  1.00  0.00    -0.241 C  
HETATM   23  C   UNL     1      -7.694  16.580  69.085  1.00  0.00    -0.205 C  
HETATM   24  O   UNL     1      -8.356  18.653  68.237  1.00  0.00    -0.303 OA 
ENDBRANCH   4  22
BRANCH   4  25
HETATM   25  O   UNL     1      -8.245  17.404  65.894  1.00  0.00    -0.537 OA 
BRANCH  25  26
HETATM   26  C   UNL     1      -6.897  17.293  65.972  1.00  0.00    -0.100 C  
HETATM   27  O   UNL     1      -6.290  16.306  66.352  1.00  0.00    -0.107 OA 
HETATM   28  C   UNL     1      -6.258  18.550  65.447  1.00  0.00    -0.307 C  
ENDBRANCH  25  26
ENDBRANCH   4  25
TORSDOF 3
ENDMDL
MODEL       23
REMARK 921   NORMALIZED FREE ENERGY PREDICTED BY IDOCK:   -4.85 KCAL/MOL
REMARK 922        TOTAL FREE ENERGY PREDICTED BY IDOCK:   -5.09 KCAL/MOL
REMARK 923 INTER-LIGAND FREE ENERGY PREDICTED BY IDOCK:   -5.51 KCAL/MOL
REMARK 924 INTRA-LIGAND FREE ENERGY PREDICTED BY IDOCK:    0.41 KCAL/MOL
REMARK 927      BINDING AFFINITY PREDICTED BY RF-SCORE:    0.00 PKD
ROOT
HETATM    1  C   UNL     1      -7.540  10.688  68.280  1.00  0.00    -0.097 C  
HETATM    2  C   UNL     1      -7.543  10.709  69.704  1.00  0.00    -0.100 C  
HETATM    3  C   UNL     1      -8.845  10.511  69.016  1.00  0.00    -0.174 C  
HETATM    4  C   UNL     1      -8.671  10.157  66.995  1.00  0.00    -0.132 C  
HETATM    5  C   UNL     1     -10.080  14.144  65.747  1.00  0.00    -0.352 C  
HETATM    6  C   UNL     1      -9.925  14.197  67.285  1.00  0.00    -0.249 C  
HETATM    7  C   UNL     1      -8.927   9.321  68.047  1.00  0.00    -0.128 C  
HETATM    8  C   UNL     1     -10.675   9.940  68.042  1.00  0.00    -0.296 C  
HETATM    9  C   UNL     1     -11.312  14.683  67.882  1.00  0.00    -0.332 C  
HETATM   10  C   UNL     1     -11.319  16.038  68.573  1.00  0.00    -0.382 C  
HETATM   11  O   UNL     1     -10.776  18.049  67.372  1.00  0.00    -0.390 OA 
HETATM   12  C   UNL     1      -8.523   7.880  68.326  1.00  0.00    -0.124 C  
HETATM   13  C   UNL     1     -10.423  16.972  67.832  1.00  0.00    -0.354 C  
HETATM   14  C   UNL     1      -9.023  16.527  67.749  1.00  0.00    -0.202 C  
HETATM   15  C   UNL     1     -10.785  11.593  67.568  1.00  0.00    -0.257 C  
HETATM   16  C   UNL     1      -9.612  12.752  67.881  1.00  0.00    -0.211 C  
HETATM   17  C   UNL     1      -8.060  12.309  67.645  1.00  0.00    -0.165 C  
HETATM   18  C   UNL     1      -7.123  13.386  68.184  1.00  0.00    -0.116 C  
HETATM   19  C   UNL     1      -7.321  14.718  67.451  1.00  0.00    -0.214 C  
HETATM   20  C   UNL     1      -6.237  15.681  67.972  1.00  0.00    -0.149 C  
HETATM   21  C   UNL     1      -8.767  15.216  67.561  1.00  0.00    -0.188 C  
ENDROOT
BRANCH   4  22
HETATM   22  C   UNL     1      -9.557   9.436  65.846  1.00  0.00    -0.270 C  
HETATM   23  C   UNL     1     -10.027  10.247  64.655  1.00  0.00    -0.377 C  
HETATM   24  O   UNL     1      -9.823   8.225  65.805  1.00  0.00     0.034 OA 
ENDBRANCH   4  22
BRANCH   4  25
HETATM   25  O   UNL     1      -7.429   9.361  66.430  1.00  0.00    -0.092 OA 
BRANCH  25  26
HETATM   26  C   UNL     1      -6.741   9.705  65.315  1.00  0.00    -0.088 C  
HETATM   27  O   UNL     1      -6.397  10.837  65.018  1.00  0.00    -0.034 OA 
HETATM   28  C   UNL     1      -6.398   8.466  64.533  1.00  0.00    -0.066 C  
ENDBRANCH  25  26
ENDBRANCH   4  25
TORSDOF 3
ENDMDL
MODEL       24
REMARK 921   NORMALIZED FREE ENERGY PREDICTED BY IDOCK:   -4.78 KCAL/MOL
REMARK 922        TOTAL FREE ENERGY PREDICTED BY IDOCK:   -5.01 KCAL/MOL
REMARK 923 INTER-LIGAND FREE ENERGY PREDICTED BY IDOCK:   -6.19 KCAL/MOL
REMARK 924 INTRA-LIGAND FREE ENERGY PREDICTED BY IDOCK:    1.18 KCAL/MOL
REMARK 927      BINDING AFFINITY PREDICTED BY RF-SCORE:    0.00 PKD
ROOT
HETATM    1  C   UNL     1     -11.021   7.208  69.401  1.00  0.00    -0.189 C  
HETATM    2  C   UNL     1     -10.999   6.051  68.573  1.00  0.00    -0.350 C  
HETATM    3  C   UNL     1      -9.886   6.225  69.542  1.00  0.00    -0.183 C  
HETATM    4  C   UNL     1     -10.203   7.735  70.906  1.00  0.00    -0.199 C  
HETATM    5  C   UNL     1      -7.344  10.554  69.085  1.00  0.00    -0.109 C  
HETATM    6  C   UNL     1      -7.453   9.354  68.115  1.00  0.00    -0.079 C  
HETATM    7  C   UNL     1     -10.289   6.374  71.017  1.00  0.00    -0.247 C  
HETATM    8  C   UNL     1      -8.439   6.320  71.129  1.00  0.00    -0.124 C  
HETATM    9  C   UNL     1      -5.982   8.816  67.864  1.00  0.00    -0.050 C  
HETATM   10  C   UNL     1      -5.434   8.963  66.452  1.00  0.00    -0.034 C  
HETATM   11  O   UNL     1      -5.149  11.129  65.448  1.00  0.00    -0.247 OA 
HETATM   12  C   UNL     1     -11.227   5.473  71.809  1.00  0.00    -0.165 C  
HETATM   13  C   UNL     1      -5.895  10.260  65.879  1.00  0.00    -0.088 C  
HETATM   14  C   UNL     1      -7.358  10.401  65.801  1.00  0.00    -0.147 C  
HETATM   15  C   UNL     1      -7.689   7.558  70.193  1.00  0.00    -0.089 C  
HETATM   16  C   UNL     1      -8.306   8.171  68.757  1.00  0.00    -0.126 C  
HETATM   17  C   UNL     1      -9.909   8.471  68.716  1.00  0.00    -0.180 C  
HETATM   18  C   UNL     1     -10.340   8.803  67.290  1.00  0.00    -0.360 C  
HETATM   19  C   UNL     1      -9.638  10.064  66.773  1.00  0.00    -0.228 C  
HETATM   20  C   UNL     1     -10.249  10.384  65.395  1.00  0.00    -0.329 C  
HETATM   21  C   UNL     1      -8.112   9.920  66.811  1.00  0.00    -0.117 C  
ENDROOT
BRANCH   4  22
HETATM   22  C   UNL     1      -9.683   8.102  72.396  1.00  0.00    -0.269 C  
HETATM   23  C   UNL     1     -10.229   7.333  73.582  1.00  0.00    -0.393 C  
HETATM   24  O   UNL     1      -8.789   8.921  72.658  1.00  0.00    -0.358 OA 
ENDBRANCH   4  22
BRANCH   4  25
HETATM   25  O   UNL     1     -11.663   8.050  71.420  1.00  0.00    -0.275 OA 
BRANCH  25  26
HETATM   26  C   UNL     1     -12.196   9.293  71.498  1.00  0.00    -0.362 C  
HETATM   27  O   UNL     1     -11.743  10.291  70.961  1.00  0.00    -0.349 OA 
HETATM   28  C   UNL     1     -13.476   9.243  72.287  1.00  0.00    -0.548 C  
ENDBRANCH  25  26
ENDBRANCH   4  25
TORSDOF 3
ENDMDL
MODEL       25
REMARK 921   NORMALIZED FREE ENERGY PREDICTED BY IDOCK:   -4.77 KCAL/MOL
REMARK 922        TOTAL FREE ENERGY PREDICTED BY IDOCK:   -5.00 KCAL/MOL
REMARK 923 INTER-LIGAND FREE ENERGY PREDICTED BY IDOCK:   -5.45 KCAL/MOL
REMARK 924 INTRA-LIGAND FREE ENERGY PREDICTED BY IDOCK:    0.45 KCAL/MOL
REMARK 927      BINDING AFFINITY PREDICTED BY RF-SCORE:    0.00 PKD
ROOT
HETATM    1  C   UNL     1      -7.775   7.601  70.928  1.00  0.00    -0.088 C  
HETATM    2  C   UNL     1      -6.892   8.671  71.246  1.00  0.00    -0.075 C  
HETATM    3  C   UNL     1      -8.349   8.964  71.224  1.00  0.00    -0.223 C  
HETATM    4  C   UNL     1      -9.531   7.283  71.094  1.00  0.00    -0.156 C  
HETATM    5  C   UNL     1     -10.656   7.886  66.874  1.00  0.00    -0.333 C  
HETATM    6  C   UNL     1      -9.576   8.946  67.194  1.00  0.00    -0.225 C  
HETATM    7  C   UNL     1      -9.227   8.103  72.146  1.00  0.00    -0.258 C  
HETATM    8  C   UNL     1     -10.453   9.323  71.478  1.00  0.00    -0.385 C  
HETATM    9  C   UNL     1     -10.177  10.363  66.812  1.00  0.00    -0.282 C  
HETATM   10  C   UNL     1      -9.509  11.099  65.660  1.00  0.00    -0.252 C  
HETATM   11  O   UNL     1      -9.472  10.168  63.444  1.00  0.00    -0.290 OA 
HETATM   12  C   UNL     1      -9.008   7.824  73.626  1.00  0.00    -0.335 C  
HETATM   13  C   UNL     1      -9.113  10.115  64.612  1.00  0.00    -0.227 C  
HETATM   14  C   UNL     1      -8.175   9.081  65.078  1.00  0.00    -0.154 C  
HETATM   15  C   UNL     1     -10.531   9.300  69.756  1.00  0.00    -0.235 C  
HETATM   16  C   UNL     1      -9.230   8.963  68.750  1.00  0.00    -0.140 C  
HETATM   17  C   UNL     1      -8.270   7.717  69.183  1.00  0.00    -0.130 C  
HETATM   18  C   UNL     1      -7.025   7.686  68.302  1.00  0.00    -0.072 C  
HETATM   19  C   UNL     1      -7.389   7.476  66.828  1.00  0.00    -0.092 C  
HETATM   20  C   UNL     1      -6.063   7.320  66.058  1.00  0.00    -0.037 C  
HETATM   21  C   UNL     1      -8.335   8.568  66.316  1.00  0.00    -0.118 C  
ENDROOT
BRANCH   4  22
HETATM   22  C   UNL     1     -11.050   6.880  71.487  1.00  0.00    -0.244 C  
HETATM   23  C   UNL     1     -12.014   6.470  70.392  1.00  0.00    -0.295 C  
HETATM   24  O   UNL     1     -11.488   6.790  72.644  1.00  0.00    -0.247 OA 
ENDBRANCH   4  22
BRANCH   4  25
HETATM   25  O   UNL     1      -9.077   5.935  71.780  1.00  0.00    -0.142 OA 
BRANCH  25  26
HETATM   26  C   UNL     1      -9.095   4.723  71.175  1.00  0.00    -0.137 C  
HETATM   27  O   UNL     1      -8.776   4.506  70.018  1.00  0.00    -0.078 OA 
HETATM   28  C   UNL     1      -9.498   3.669  72.171  1.00  0.00    -0.196 C  
ENDBRANCH  25  26
ENDBRANCH   4  25
TORSDOF 3
ENDMDL
MODEL       26
REMARK 921   NORMALIZED FREE ENERGY PREDICTED BY IDOCK:   -4.71 KCAL/MOL
REMARK 922        TOTAL FREE ENERGY PREDICTED BY IDOCK:   -4.93 KCAL/MOL
REMARK 923 INTER-LIGAND FREE ENERGY PREDICTED BY IDOCK:   -6.13 KCAL/MOL
REMARK 924 INTRA-LIGAND FREE ENERGY PREDICTED BY IDOCK:    1.21 KCAL/MOL
REMARK 927      BINDING AFFINITY PREDICTED BY RF-SCORE:    0.00 PKD
ROOT
HETATM    1  C   UNL     1      -9.854  13.791  68.702  1.00  0.00    -0.158 C  
HETATM    2  C   UNL     1     -10.691  14.154  69.794  1.00  0.00     0.094 C  
HETATM    3  C   UNL     1     -11.164  14.484  68.426  1.00  0.00    -0.290 C  
HETATM    4  C   UNL     1     -10.049  13.613  66.929  1.00  0.00    -0.260 C  
HETATM    5  C   UNL     1      -7.998  17.324  65.721  1.00  0.00     0.201 C  
HETATM    6  C   UNL     1      -8.791  17.662  67.005  1.00  0.00    -0.256 C  
HETATM    7  C   UNL     1     -11.279  13.306  67.445  1.00  0.00    -0.316 C  
HETATM    8  C   UNL     1     -11.985  14.703  66.450  1.00  0.00    -0.274 C  
HETATM    9  C   UNL     1      -9.712  18.911  66.675  1.00  0.00    -0.380 C  
HETATM   10  C   UNL     1      -9.397  20.204  67.413  1.00  0.00    -0.513 C  
HETATM   11  O   UNL     1      -7.274  21.302  67.146  1.00  0.00    -0.475 OA 
HETATM   12  C   UNL     1     -11.981  11.977  67.684  1.00  0.00    -0.149 C  
HETATM   13  C   UNL     1      -7.918  20.343  67.550  1.00  0.00    -0.291 C  
HETATM   14  C   UNL     1      -7.274  19.245  68.288  1.00  0.00    -0.317 C  
HETATM   15  C   UNL     1     -10.877  16.012  66.277  1.00  0.00    -0.166 C  
HETATM   16  C   UNL     1      -9.739  16.453  67.430  1.00  0.00    -0.238 C  
HETATM   17  C   UNL     1      -8.912  15.242  68.146  1.00  0.00    -0.173 C  
HETATM   18  C   UNL     1      -8.093  15.789  69.311  1.00  0.00    -0.241 C  
HETATM   19  C   UNL     1      -7.057  16.814  68.835  1.00  0.00    -0.215 C  
HETATM   20  C   UNL     1      -6.201  17.188  70.061  1.00  0.00    -0.036 C  
HETATM   21  C   UNL     1      -7.716  17.985  68.097  1.00  0.00    -0.274 C  
ENDROOT
BRANCH   4  22
HETATM   22  C   UNL     1     -10.283  13.188  65.384  1.00  0.00    -0.290 C  
HETATM   23  C   UNL     1     -11.246  12.063  65.063  1.00  0.00    -0.374 C  
HETATM   24  O   UNL     1      -9.798  13.771  64.402  1.00  0.00    -0.134 OA 
ENDBRANCH   4  22
BRANCH   4  25
HETATM   25  O   UNL     1      -9.402  12.189  67.144  1.00  0.00    -0.184 OA 
BRANCH  25  26
HETATM   26  C   UNL     1      -8.112  11.883  66.865  1.00  0.00    -0.146 C  
HETATM   27  O   UNL     1      -7.149  12.592  67.107  1.00  0.00    -0.136 OA 
HETATM   28  C   UNL     1      -8.040  10.500  66.276  1.00  0.00    -0.142 C  
ENDBRANCH  25  26
ENDBRANCH   4  25
TORSDOF 3
ENDMDL
MODEL       27
REMARK 921   NORMALIZED FREE ENERGY PREDICTED BY IDOCK:   -4.65 KCAL/MOL
REMARK 922        TOTAL FREE ENERGY PREDICTED BY IDOCK:   -4.85 KCAL/MOL
REMARK 923 INTER-LIGAND FREE ENERGY PREDICTED BY IDOCK:   -5.78 KCAL/MOL
REMARK 924 INTRA-LIGAND FREE ENERGY PREDICTED BY IDOCK:    0.93 KCAL/MOL
REMARK 927      BINDING AFFINITY PREDICTED BY RF-SCORE:    0.00 PKD
ROOT
HETATM    1  C   UNL     1      -9.441   8.586  68.741  1.00  0.00    -0.143 C  
HETATM    2  C   UNL     1     -10.593   7.751  68.703  1.00  0.00    -0.152 C  
HETATM    3  C   UNL     1      -9.786   7.868  67.461  1.00  0.00    -0.221 C  
HETATM    4  C   UNL     1      -7.977   8.815  67.732  1.00  0.00    -0.106 C  
HETATM    5  C   UNL     1      -9.176  12.579  65.775  1.00  0.00     0.111 C  
HETATM    6  C   UNL     1     -10.456  11.718  65.885  1.00  0.00    -0.296 C  
HETATM    7  C   UNL     1      -8.300   7.494  67.579  1.00  0.00    -0.117 C  
HETATM    8  C   UNL     1      -8.474   7.804  65.759  1.00  0.00    -0.155 C  
HETATM    9  C   UNL     1     -11.072  11.599  64.428  1.00  0.00    -0.382 C  
HETATM   10  C   UNL     1     -12.423  12.261  64.203  1.00  0.00    -0.530 C  
HETATM   11  O   UNL     1     -12.704  14.635  64.469  1.00  0.00    -0.619 OA 
HETATM   12  C   UNL     1      -7.718   6.226  68.186  1.00  0.00    -0.104 C  
HETATM   13  C   UNL     1     -12.476  13.541  64.968  1.00  0.00    -0.417 C  
HETATM   14  C   UNL     1     -12.297  13.385  66.420  1.00  0.00    -0.381 C  
HETATM   15  C   UNL     1      -9.056   9.389  65.415  1.00  0.00    -0.280 C  
HETATM   16  C   UNL     1     -10.116  10.246  66.395  1.00  0.00    -0.296 C  
HETATM   17  C   UNL     1      -9.832  10.199  68.001  1.00  0.00    -0.169 C  
HETATM   18  C   UNL     1     -10.998  10.831  68.755  1.00  0.00    -0.295 C  
HETATM   19  C   UNL     1     -11.174  12.307  68.378  1.00  0.00    -0.311 C  
HETATM   20  C   UNL     1     -12.275  12.874  69.295  1.00  0.00    -0.115 C  
HETATM   21  C   UNL     1     -11.401  12.483  66.872  1.00  0.00    -0.383 C  
ENDROOT
BRANCH   4  22
HETATM   22  C   UNL     1      -6.538   8.836  66.989  1.00  0.00    -0.062 C  
HETATM   23  C   UNL     1      -6.039  10.130  66.377  1.00  0.00    -0.070 C  
HETATM   24  O   UNL     1      -5.742   7.885  66.948  1.00  0.00    -0.031 OA 
ENDBRANCH   4  22
BRANCH   4  25
HETATM   25  O   UNL     1      -7.189   8.652  69.090  1.00  0.00    -0.062 OA 
BRANCH  25  26
HETATM   26  C   UNL     1      -6.328   9.570  69.591  1.00  0.00    -0.040 C  
HETATM   27  O   UNL     1      -5.191   9.340  69.970  1.00  0.00    -0.028 OA 
HETATM   28  C   UNL     1      -6.961  10.934  69.540  1.00  0.00    -0.131 C  
ENDBRANCH  25  26
ENDBRANCH   4  25
TORSDOF 3
ENDMDL
MODEL       28
REMARK 921   NORMALIZED FREE ENERGY PREDICTED BY IDOCK:   -4.64 KCAL/MOL
REMARK 922        TOTAL FREE ENERGY PREDICTED BY IDOCK:   -4.84 KCAL/MOL
REMARK 923 INTER-LIGAND FREE ENERGY PREDICTED BY IDOCK:   -5.63 KCAL/MOL
REMARK 924 INTRA-LIGAND FREE ENERGY PREDICTED BY IDOCK:    0.79 KCAL/MOL
REMARK 927      BINDING AFFINITY PREDICTED BY RF-SCORE:    0.00 PKD
ROOT
HETATM    1  C   UNL     1      -9.954  10.721  66.103  1.00  0.00    -0.283 C  
HETATM    2  C   UNL     1     -11.280  10.874  65.608  1.00  0.00     0.189 C  
HETATM    3  C   UNL     1     -10.912  11.626  66.835  1.00  0.00    -0.342 C  
HETATM    4  C   UNL     1      -8.896  11.597  67.255  1.00  0.00    -0.164 C  
HETATM    5  C   UNL     1      -9.209   8.775  70.628  1.00  0.00    -0.233 C  
HETATM    6  C   UNL     1     -10.610   8.834  69.976  1.00  0.00    -0.232 C  
HETATM    7  C   UNL     1      -9.701  12.565  66.719  1.00  0.00    -0.234 C  
HETATM    8  C   UNL     1     -10.307  12.932  68.433  1.00  0.00    -0.249 C  
HETATM    9  C   UNL     1     -11.647   9.202  71.119  1.00  0.00    -0.386 C  
HETATM   10  C   UNL     1     -12.669   8.134  71.482  1.00  0.00    -0.327 C  
HETATM   11  O   UNL     1     -11.983   6.001  72.356  1.00  0.00    -0.302 OA 
HETATM   12  C   UNL     1      -9.455  13.618  65.648  1.00  0.00     0.086 C  
HETATM   13  C   UNL     1     -12.020   6.793  71.423  1.00  0.00    -0.355 C  
HETATM   14  C   UNL     1     -11.468   6.446  70.104  1.00  0.00    -0.484 C  
HETATM   15  C   UNL     1     -10.358  11.524  69.427  1.00  0.00     0.083 C  
HETATM   16  C   UNL     1     -10.680   9.975  68.866  1.00  0.00    -0.243 C  
HETATM   17  C   UNL     1      -9.950   9.530  67.476  1.00  0.00    -0.235 C  
HETATM   18  C   UNL     1     -10.516   8.199  66.992  1.00  0.00    -0.396 C  
HETATM   19  C   UNL     1     -10.260   7.080  68.007  1.00  0.00    -0.217 C  
HETATM   20  C   UNL     1     -10.741   5.768  67.358  1.00  0.00    -0.332 C  
HETATM   21  C   UNL     1     -10.862   7.408  69.378  1.00  0.00    -0.184 C  
ENDROOT
BRANCH   4  22
HETATM   22  C   UNL     1      -7.851  12.526  68.072  1.00  0.00    -0.147 C  
HETATM   23  C   UNL     1      -7.039  11.916  69.197  1.00  0.00    -0.053 C  
HETATM   24  O   UNL     1      -7.582  13.706  67.799  1.00  0.00    -0.131 OA 
ENDBRANCH   4  22
BRANCH   4  25
HETATM   25  O   UNL     1      -7.839  11.572  66.081  1.00  0.00    -0.034 OA 
BRANCH  25  26
HETATM   26  C   UNL     1      -6.630  10.966  66.152  1.00  0.00    -0.108 C  
HETATM   27  O   UNL     1      -5.551  11.526  66.045  1.00  0.00    -0.233 OA 
HETATM   28  C   UNL     1      -6.817   9.505  66.459  1.00  0.00    -0.083 C  
ENDBRANCH  25  26
ENDBRANCH   4  25
TORSDOF 3
ENDMDL
MODEL       29
REMARK 921   NORMALIZED FREE ENERGY PREDICTED BY IDOCK:   -4.62 KCAL/MOL
REMARK 922        TOTAL FREE ENERGY PREDICTED BY IDOCK:   -4.82 KCAL/MOL
REMARK 923 INTER-LIGAND FREE ENERGY PREDICTED BY IDOCK:   -5.21 KCAL/MOL
REMARK 924 INTRA-LIGAND FREE ENERGY PREDICTED BY IDOCK:    0.39 KCAL/MOL
REMARK 927      BINDING AFFINITY PREDICTED BY RF-SCORE:    0.00 PKD
ROOT
HETATM    1  C   UNL     1      -7.552   8.071  70.531  1.00  0.00    -0.076 C  
HETATM    2  C   UNL     1      -6.804   8.927  71.388  1.00  0.00    -0.086 C  
HETATM    3  C   UNL     1      -8.255   8.776  71.663  1.00  0.00    -0.171 C  
HETATM    4  C   UNL     1      -9.152   7.266  70.588  1.00  0.00    -0.157 C  
HETATM    5  C   UNL     1     -11.271   9.941  67.796  1.00  0.00    -0.075 C  
HETATM    6  C   UNL     1     -10.331  10.840  68.633  1.00  0.00    -0.208 C  
HETATM    7  C   UNL     1      -8.757   7.342  71.895  1.00  0.00    -0.127 C  
HETATM    8  C   UNL     1     -10.281   8.341  72.241  1.00  0.00    -0.375 C  
HETATM    9  C   UNL     1     -11.221  11.983  69.278  1.00  0.00    -0.291 C  
HETATM   10  C   UNL     1     -10.953  13.404  68.806  1.00  0.00    -0.290 C  
HETATM   11  O   UNL     1     -11.263  14.029  66.504  1.00  0.00    -0.309 OA 
HETATM   12  C   UNL     1      -8.171   6.306  72.845  1.00  0.00    -0.115 C  
HETATM   13  C   UNL     1     -10.648  13.387  67.346  1.00  0.00    -0.251 C  
HETATM   14  C   UNL     1      -9.477  12.573  66.983  1.00  0.00    -0.217 C  
HETATM   15  C   UNL     1     -10.735   9.329  70.903  1.00  0.00    -0.371 C  
HETATM   16  C   UNL     1      -9.654  10.017  69.819  1.00  0.00    -0.249 C  
HETATM   17  C   UNL     1      -8.435   9.067  69.295  1.00  0.00    -0.128 C  
HETATM   18  C   UNL     1      -7.430   9.899  68.505  1.00  0.00    -0.082 C  
HETATM   19  C   UNL     1      -8.074  10.522  67.261  1.00  0.00    -0.115 C  
HETATM   20  C   UNL     1      -6.945  11.213  66.471  1.00  0.00    -0.126 C  
HETATM   21  C   UNL     1      -9.273  11.405  67.625  1.00  0.00    -0.158 C  
ENDROOT
BRANCH   4  22
HETATM   22  C   UNL     1     -10.461   6.325  70.747  1.00  0.00    -0.222 C  
HETATM   23  C   UNL     1     -11.567   6.413  69.716  1.00  0.00    -0.397 C  
HETATM   24  O   UNL     1     -10.608   5.450  71.615  1.00  0.00    -0.227 OA 
ENDBRANCH   4  22
BRANCH   4  25
HETATM   25  O   UNL     1      -8.346   5.956  70.231  1.00  0.00    -0.118 OA 
BRANCH  25  26
HETATM   26  C   UNL     1      -8.398   5.327  69.033  1.00  0.00    -0.095 C  
HETATM   27  O   UNL     1      -8.508   5.877  67.949  1.00  0.00    -0.108 OA 
HETATM   28  C   UNL     1      -8.222   3.845  69.234  1.00  0.00    -0.072 C  
ENDBRANCH  25  26
ENDBRANCH   4  25
TORSDOF 3
ENDMDL
MODEL       30
REMARK 921   NORMALIZED FREE ENERGY PREDICTED BY IDOCK:   -4.60 KCAL/MOL
REMARK 922        TOTAL FREE ENERGY PREDICTED BY IDOCK:   -4.80 KCAL/MOL
REMARK 923 INTER-LIGAND FREE ENERGY PREDICTED BY IDOCK:   -5.26 KCAL/MOL
REMARK 924 INTRA-LIGAND FREE ENERGY PREDICTED BY IDOCK:    0.45 KCAL/MOL
REMARK 927      BINDING AFFINITY PREDICTED BY RF-SCORE:    0.00 PKD
ROOT
HETATM    1  C   UNL     1      -8.253  10.295  68.330  1.00  0.00    -0.114 C  
HETATM    2  C   UNL     1      -7.406  10.830  69.341  1.00  0.00    -0.128 C  
HETATM    3  C   UNL     1      -7.062   9.494  68.792  1.00  0.00    -0.068 C  
HETATM    4  C   UNL     1      -8.142   8.981  67.115  1.00  0.00    -0.106 C  
HETATM    5  C   UNL     1     -10.722   6.049  69.160  1.00  0.00    -0.399 C  
HETATM    6  C   UNL     1      -9.903   6.756  70.266  1.00  0.00    -0.185 C  
HETATM    7  C   UNL     1      -6.855   9.419  67.271  1.00  0.00    -0.084 C  
HETATM    8  C   UNL     1      -6.395   7.704  67.805  1.00  0.00    -0.050 C  
HETATM    9  C   UNL     1      -9.172   5.627  71.106  1.00  0.00    -0.169 C  
HETATM   10  C   UNL     1      -9.607   5.467  72.556  1.00  0.00    -0.167 C  
HETATM   11  O   UNL     1     -11.865   4.861  73.118  1.00  0.00    -0.279 OA 
HETATM   12  C   UNL     1      -5.975  10.321  66.417  1.00  0.00    -0.069 C  
HETATM   13  C   UNL     1     -11.080   5.677  72.653  1.00  0.00    -0.282 C  
HETATM   14  C   UNL     1     -11.533   7.002  72.200  1.00  0.00    -0.312 C  
HETATM   15  C   UNL     1      -7.671   6.917  68.657  1.00  0.00    -0.113 C  
HETATM   16  C   UNL     1      -8.785   7.701  69.637  1.00  0.00    -0.136 C  
HETATM   17  C   UNL     1      -9.405   9.100  69.070  1.00  0.00    -0.151 C  
HETATM   18  C   UNL     1     -10.217   9.790  70.161  1.00  0.00    -0.328 C  
HETATM   19  C   UNL     1     -11.402   8.927  70.608  1.00  0.00    -0.299 C  
HETATM   20  C   UNL     1     -12.225   9.774  71.599  1.00  0.00    -0.488 C  
HETATM   21  C   UNL     1     -10.944   7.556  71.120  1.00  0.00    -0.264 C  
ENDROOT
BRANCH   4  22
HETATM   22  C   UNL     1      -7.948   7.992  65.847  1.00  0.00    -0.107 C  
HETATM   23  C   UNL     1      -8.847   6.780  65.709  1.00  0.00    -0.088 C  
HETATM   24  O   UNL     1      -7.166   8.186  64.905  1.00  0.00    -0.076 OA 
ENDBRANCH   4  22
BRANCH   4  25
HETATM   25  O   UNL     1      -8.587  10.092  66.084  1.00  0.00    -0.134 OA 
BRANCH  25  26
HETATM   26  C   UNL     1      -9.816  10.165  65.519  1.00  0.00    -0.298 C  
HETATM   27  O   UNL     1     -10.874  10.004  66.105  1.00  0.00     0.021 OA 
HETATM   28  C   UNL     1      -9.682  10.551  64.071  1.00  0.00    -0.383 C  
ENDBRANCH  25  26
ENDBRANCH   4  25
TORSDOF 3
ENDMDL
MODEL       31
REMARK 921   NORMALIZED FREE ENERGY PREDICTED BY IDOCK:   -4.60 KCAL/MOL
REMARK 922        TOTAL FREE ENERGY PREDICTED BY IDOCK:   -4.80 KCAL/MOL
REMARK 923 INTER-LIGAND FREE ENERGY PREDICTED BY IDOCK:   -5.19 KCAL/MOL
REMARK 924 INTRA-LIGAND FREE ENERGY PREDICTED BY IDOCK:    0.39 KCAL/MOL
REMARK 927      BINDING AFFINITY PREDICTED BY RF-SCORE:    0.00 PKD
ROOT
HETATM    1  C   UNL     1      -9.632   6.562  67.282  1.00  0.00    -0.148 C  
HETATM    2  C   UNL     1     -10.944   6.244  66.831  1.00  0.00    -0.404 C  
HETATM    3  C   UNL     1     -10.805   7.336  67.829  1.00  0.00    -0.214 C  
HETATM    4  C   UNL     1      -8.859   7.932  68.143  1.00  0.00    -0.125 C  
HETATM    5  C   UNL     1      -8.466   6.016  72.094  1.00  0.00    -0.124 C  
HETATM    6  C   UNL     1      -9.825   5.553  71.517  1.00  0.00    -0.221 C  
HETATM    7  C   UNL     1      -9.883   8.501  67.436  1.00  0.00    -0.244 C  
HETATM    8  C   UNL     1     -10.589   9.097  69.044  1.00  0.00    -0.219 C  
HETATM    9  C   UNL     1     -10.938   5.901  72.592  1.00  0.00    -0.305 C  
HETATM   10  C   UNL     1     -11.648   4.724  73.245  1.00  0.00    -0.286 C  
HETATM   11  O   UNL     1     -10.437   3.115  74.559  1.00  0.00    -0.173 OA 
HETATM   12  C   UNL     1      -9.907   9.294  66.137  1.00  0.00    -0.363 C  
HETATM   13  C   UNL     1     -10.667   3.623  73.470  1.00  0.00    -0.217 C  
HETATM   14  C   UNL     1     -10.024   3.126  72.243  1.00  0.00    -0.236 C  
HETATM   15  C   UNL     1     -10.282   8.004  70.341  1.00  0.00    -0.201 C  
HETATM   16  C   UNL     1     -10.176   6.337  70.175  1.00  0.00    -0.237 C  
HETATM   17  C   UNL     1      -9.334   5.778  68.894  1.00  0.00    -0.141 C  
HETATM   18  C   UNL     1      -9.523   4.270  68.764  1.00  0.00    -0.230 C  
HETATM   19  C   UNL     1      -8.995   3.531  70.000  1.00  0.00    -0.171 C  
HETATM   20  C   UNL     1      -9.105   2.023  69.701  1.00  0.00    -0.167 C  
HETATM   21  C   UNL     1      -9.683   4.010  71.283  1.00  0.00    -0.255 C  
ENDROOT
BRANCH   4  22
HETATM   22  C   UNL     1      -8.108   9.268  68.667  1.00  0.00    -0.105 C  
HETATM   23  C   UNL     1      -7.244   9.192  69.910  1.00  0.00    -0.062 C  
HETATM   24  O   UNL     1      -8.104  10.361  68.080  1.00  0.00    -0.107 OA 
ENDBRANCH   4  22
BRANCH   4  25
HETATM   25  O   UNL     1      -7.816   7.902  66.957  1.00  0.00    -0.105 OA 
BRANCH  25  26
HETATM   26  C   UNL     1      -6.540   7.460  67.070  1.00  0.00    -0.061 C  
HETATM   27  O   UNL     1      -6.177   6.515  67.751  1.00  0.00    -0.028 OA 
HETATM   28  C   UNL     1      -5.647   8.266  66.165  1.00  0.00    -0.035 C  
ENDBRANCH  25  26
ENDBRANCH   4  25
TORSDOF 3
ENDMDL
MODEL       32
REMARK 921   NORMALIZED FREE ENERGY PREDICTED BY IDOCK:   -4.55 KCAL/MOL
REMARK 922        TOTAL FREE ENERGY PREDICTED BY IDOCK:   -4.74 KCAL/MOL
REMARK 923 INTER-LIGAND FREE ENERGY PREDICTED BY IDOCK:   -5.49 KCAL/MOL
REMARK 924 INTRA-LIGAND FREE ENERGY PREDICTED BY IDOCK:    0.75 KCAL/MOL
REMARK 927      BINDING AFFINITY PREDICTED BY RF-SCORE:    0.00 PKD
ROOT
HETATM    1  C   UNL     1     -10.176  12.578  65.401  1.00  0.00    -0.303 C  
HETATM    2  C   UNL     1     -10.880  11.540  64.729  1.00  0.00    -0.360 C  
HETATM    3  C   UNL     1     -11.212  11.785  66.156  1.00  0.00    -0.363 C  
HETATM    4  C   UNL     1     -10.389  13.514  66.915  1.00  0.00    -0.265 C  
HETATM    5  C   UNL     1      -7.298  11.487  69.318  1.00  0.00    -0.009 C  
HETATM    6  C   UNL     1      -7.972  10.391  68.460  1.00  0.00    -0.114 C  
HETATM    7  C   UNL     1     -11.661  13.211  66.513  1.00  0.00    -0.433 C  
HETATM    8  C   UNL     1     -11.900  12.321  68.122  1.00  0.00    -0.372 C  
HETATM    9  C   UNL     1      -8.469   9.256  69.449  1.00  0.00    -0.137 C  
HETATM   10  C   UNL     1      -7.790   7.900  69.327  1.00  0.00    -0.115 C  
HETATM   11  O   UNL     1      -5.432   7.649  69.724  1.00  0.00    -0.023 OA 
HETATM   12  C   UNL     1     -12.734  14.037  65.817  1.00  0.00    -0.487 C  
HETATM   13  C   UNL     1      -6.341   8.100  69.040  1.00  0.00    -0.040 C  
HETATM   14  C   UNL     1      -6.068   8.844  67.800  1.00  0.00    -0.051 C  
HETATM   15  C   UNL     1     -10.446  11.586  68.687  1.00  0.00    -0.224 C  
HETATM   16  C   UNL     1      -9.246  10.965  67.692  1.00  0.00    -0.155 C  
HETATM   17  C   UNL     1      -8.832  11.861  66.393  1.00  0.00    -0.152 C  
HETATM   18  C   UNL     1      -7.904  11.062  65.482  1.00  0.00     0.121 C  
HETATM   19  C   UNL     1      -6.601  10.691  66.199  1.00  0.00    -0.130 C  
HETATM   20  C   UNL     1      -5.690  10.019  65.154  1.00  0.00    -0.091 C  
HETATM   21  C   UNL     1      -6.866   9.882  67.474  1.00  0.00    -0.081 C  
ENDROOT
BRANCH   4  22
HETATM   22  C   UNL     1     -10.717  14.541  68.123  1.00  0.00    -0.239 C  
HETATM   23  C   UNL     1      -9.661  14.808  69.176  1.00  0.00    -0.133 C  
HETATM   24  O   UNL     1     -11.753  15.217  68.223  1.00  0.00    -0.343 OA 
ENDBRANCH   4  22
BRANCH   4  25
HETATM   25  O   UNL     1     -10.204  14.780  65.989  1.00  0.00    -0.275 OA 
BRANCH  25  26
HETATM   26  C   UNL     1      -9.250  15.725  66.166  1.00  0.00    -0.350 C  
HETATM   27  O   UNL     1      -8.073  15.506  66.404  1.00  0.00    -0.168 OA 
HETATM   28  C   UNL     1      -9.846  17.090  65.947  1.00  0.00    -0.202 C  
ENDBRANCH  25  26
ENDBRANCH   4  25
TORSDOF 3
ENDMDL
MODEL       33
REMARK 921   NORMALIZED FREE ENERGY PREDICTED BY IDOCK:   -4.55 KCAL/MOL
REMARK 922        TOTAL FREE ENERGY PREDICTED BY IDOCK:   -4.73 KCAL/MOL
REMARK 923 INTER-LIGAND FREE ENERGY PREDICTED BY IDOCK:   -5.24 KCAL/MOL
REMARK 924 INTRA-LIGAND FREE ENERGY PREDICTED BY IDOCK:    0.50 KCAL/MOL
REMARK 927      BINDING AFFINITY PREDICTED BY RF-SCORE:    0.00 PKD
ROOT
HETATM    1  C   UNL     1      -8.700  10.486  69.288  1.00  0.00    -0.135 C  
HETATM    2  C   UNL     1      -7.474  10.332  69.994  1.00  0.00    -0.143 C  
HETATM    3  C   UNL     1      -7.443  10.168  68.518  1.00  0.00    -0.086 C  
HETATM    4  C   UNL     1      -9.184  10.747  67.581  1.00  0.00    -0.147 C  
HETATM    5  C   UNL     1     -10.577   6.654  66.718  1.00  0.00    -0.315 C  
HETATM    6  C   UNL     1      -9.329   6.509  67.620  1.00  0.00    -0.118 C  
HETATM    7  C   UNL     1      -7.963  11.355  67.692  1.00  0.00    -0.123 C  
HETATM    8  C   UNL     1      -7.336  10.214  66.371  1.00  0.00    -0.108 C  
HETATM    9  C   UNL     1      -8.311   5.553  66.868  1.00  0.00    -0.108 C  
HETATM   10  C   UNL     1      -8.031   4.207  67.521  1.00  0.00    -0.091 C  
HETATM   11  O   UNL     1      -9.785   2.596  67.852  1.00  0.00    -0.113 OA 
HETATM   12  C   UNL     1      -7.561  12.817  67.831  1.00  0.00    -0.138 C  
HETATM   13  C   UNL     1      -9.290   3.682  68.123  1.00  0.00    -0.180 C  
HETATM   14  C   UNL     1      -9.879   4.556  69.150  1.00  0.00    -0.222 C  
HETATM   15  C   UNL     1      -8.088   8.664  66.431  1.00  0.00    -0.100 C  
HETATM   16  C   UNL     1      -8.612   7.915  67.839  1.00  0.00    -0.125 C  
HETATM   17  C   UNL     1      -9.401   8.850  68.918  1.00  0.00    -0.140 C  
HETATM   18  C   UNL     1      -9.606   8.083  70.221  1.00  0.00    -0.171 C  
HETATM   19  C   UNL     1     -10.466   6.833  70.004  1.00  0.00    -0.241 C  
HETATM   20  C   UNL     1     -10.725   6.221  71.395  1.00  0.00    -0.297 C  
HETATM   21  C   UNL     1      -9.846   5.892  68.964  1.00  0.00    -0.193 C  
ENDROOT
BRANCH   4  22
HETATM   22  C   UNL     1      -9.612  11.251  66.103  1.00  0.00    -0.214 C  
HETATM   23  C   UNL     1     -10.416  10.329  65.210  1.00  0.00    -0.099 C  
HETATM   24  O   UNL     1      -9.412  12.390  65.652  1.00  0.00    -0.168 OA 
ENDBRANCH   4  22
BRANCH   4  25
HETATM   25  O   UNL     1     -10.036  11.946  68.156  1.00  0.00    -0.185 OA 
BRANCH  25  26
HETATM   26  C   UNL     1     -11.390  11.980  68.183  1.00  0.00    -0.291 C  
HETATM   27  O   UNL     1     -12.117  11.027  68.409  1.00  0.00    -0.594 OA 
HETATM   28  C   UNL     1     -11.861  13.393  67.965  1.00  0.00    -0.392 C  
ENDBRANCH  25  26
ENDBRANCH   4  25
TORSDOF 3
ENDMDL
MODEL       34
REMARK 921   NORMALIZED FREE ENERGY PREDICTED BY IDOCK:   -4.50 KCAL/MOL
REMARK 922        TOTAL FREE ENERGY PREDICTED BY IDOCK:   -4.68 KCAL/MOL
REMARK 923 INTER-LIGAND FREE ENERGY PREDICTED BY IDOCK:   -5.43 KCAL/MOL
REMARK 924 INTRA-LIGAND FREE ENERGY PREDICTED BY IDOCK:    0.74 KCAL/MOL
REMARK 927      BINDING AFFINITY PREDICTED BY RF-SCORE:    0.00 PKD
ROOT
HETATM    1  C   UNL     1     -11.459  14.873  67.026  1.00  0.00    -0.333 C  
HETATM    2  C   UNL     1     -11.800  15.264  65.700  1.00  0.00     0.155 C  
HETATM    3  C   UNL     1     -10.599  14.408  65.877  1.00  0.00    -0.312 C  
HETATM    4  C   UNL     1     -10.405  13.631  67.775  1.00  0.00    -0.241 C  
HETATM    5  C   UNL     1      -7.102  16.290  68.981  1.00  0.00    -0.196 C  
HETATM    6  C   UNL     1      -7.593  16.801  67.606  1.00  0.00    -0.183 C  
HETATM    7  C   UNL     1     -10.820  13.069  66.598  1.00  0.00    -0.291 C  
HETATM    8  C   UNL     1      -9.041  12.943  66.094  1.00  0.00     0.063 C  
HETATM    9  C   UNL     1      -6.333  16.853  66.644  1.00  0.00    -0.214 C  
HETATM   10  C   UNL     1      -5.892  18.231  66.173  1.00  0.00    -0.216 C  
HETATM   11  O   UNL     1      -5.161  19.905  67.738  1.00  0.00    -0.174 OA 
HETATM   12  C   UNL     1     -11.881  12.023  66.287  1.00  0.00    -0.225 C  
HETATM   13  C   UNL     1      -6.061  19.208  67.288  1.00  0.00    -0.178 C  
HETATM   14  C   UNL     1      -7.442  19.331  67.779  1.00  0.00    -0.289 C  
HETATM   15  C   UNL     1      -8.089  14.239  66.714  1.00  0.00     0.210 C  
HETATM   16  C   UNL     1      -8.656  15.799  66.968  1.00  0.00    -0.247 C  
HETATM   17  C   UNL     1     -10.129  15.942  67.653  1.00  0.00    -0.242 C  
HETATM   18  C   UNL     1     -10.587  17.396  67.607  1.00  0.00    -0.350 C  
HETATM   19  C   UNL     1      -9.639  18.307  68.396  1.00  0.00    -0.350 C  
HETATM   20  C   UNL     1     -10.269  19.713  68.401  1.00  0.00    -0.553 C  
HETATM   21  C   UNL     1      -8.201  18.220  67.871  1.00  0.00    -0.261 C  
ENDROOT
BRANCH   4  22
HETATM   22  C   UNL     1      -9.681  12.351  68.453  1.00  0.00    -0.189 C  
HETATM   23  C   UNL     1      -8.372  12.546  69.192  1.00  0.00     0.582 C  
HETATM   24  O   UNL     1     -10.155  11.206  68.501  1.00  0.00    -0.186 OA 
ENDBRANCH   4  22
BRANCH   4  25
HETATM   25  O   UNL     1     -11.688  13.257  68.616  1.00  0.00    -0.299 OA 
BRANCH  25  26
HETATM   26  C   UNL     1     -11.866  13.570  69.922  1.00  0.00    -0.316 C  
HETATM   27  O   UNL     1     -11.641  14.658  70.425  1.00  0.00    -0.269 OA 
HETATM   28  C   UNL     1     -12.456  12.390  70.647  1.00  0.00    -0.320 C  
ENDBRANCH  25  26
ENDBRANCH   4  25
TORSDOF 3
ENDMDL
MODEL       35
REMARK 921   NORMALIZED FREE ENERGY PREDICTED BY IDOCK:   -4.49 KCAL/MOL
REMARK 922        TOTAL FREE ENERGY PREDICTED BY IDOCK:   -4.67 KCAL/MOL
REMARK 923 INTER-LIGAND FREE ENERGY PREDICTED BY IDOCK:   -5.10 KCAL/MOL
REMARK 924 INTRA-LIGAND FREE ENERGY PREDICTED BY IDOCK:    0.43 KCAL/MOL
REMARK 927      BINDING AFFINITY PREDICTED BY RF-SCORE:    0.00 PKD
ROOT
HETATM    1  C   UNL     1      -8.849   7.831  66.715  1.00  0.00    -0.154 C  
HETATM    2  C   UNL     1      -9.878   6.972  66.236  1.00  0.00    -0.010 C  
HETATM    3  C   UNL     1     -10.286   8.273  66.827  1.00  0.00    -0.361 C  
HETATM    4  C   UNL     1      -8.716   9.561  67.164  1.00  0.00    -0.132 C  
HETATM    5  C   UNL     1      -8.682   9.047  71.542  1.00  0.00    -0.145 C  
HETATM    6  C   UNL     1      -9.684   8.007  70.988  1.00  0.00    -0.185 C  
HETATM    7  C   UNL     1      -9.675   9.530  66.189  1.00  0.00    -0.324 C  
HETATM    8  C   UNL     1     -10.864  10.260  67.411  1.00  0.00    -0.336 C  
HETATM    9  C   UNL     1     -11.061   8.230  71.743  1.00  0.00    -0.342 C  
HETATM   10  C   UNL     1     -11.529   7.105  72.654  1.00  0.00    -0.274 C  
HETATM   11  O   UNL     1     -10.232   6.431  74.564  1.00  0.00    -0.342 OA 
HETATM   12  C   UNL     1      -9.636   9.882  64.708  1.00  0.00    -0.339 C  
HETATM   13  C   UNL     1     -10.350   6.513  73.348  1.00  0.00    -0.260 C  
HETATM   14  C   UNL     1      -9.334   5.953  72.443  1.00  0.00    -0.149 C  
HETATM   15  C   UNL     1     -10.553   9.735  69.023  1.00  0.00    -0.238 C  
HETATM   16  C   UNL     1      -9.938   8.227  69.430  1.00  0.00    -0.188 C  
HETATM   17  C   UNL     1      -8.706   7.666  68.519  1.00  0.00    -0.128 C  
HETATM   18  C   UNL     1      -8.419   6.210  68.871  1.00  0.00    -0.118 C  
HETATM   19  C   UNL     1      -7.991   6.062  70.335  1.00  0.00    -0.107 C  
HETATM   20  C   UNL     1      -7.592   4.587  70.539  1.00  0.00    -0.053 C  
HETATM   21  C   UNL     1      -9.056   6.605  71.295  1.00  0.00    -0.151 C  
ENDROOT
BRANCH   4  22
HETATM   22  C   UNL     1      -8.518  11.163  67.307  1.00  0.00    -0.137 C  
HETATM   23  C   UNL     1      -7.923  11.725  68.582  1.00  0.00    -0.116 C  
HETATM   24  O   UNL     1      -8.735  11.991  66.409  1.00  0.00    -0.176 OA 
ENDBRANCH   4  22
BRANCH   4  25
HETATM   25  O   UNL     1      -7.471   9.571  66.192  1.00  0.00    -0.098 OA 
BRANCH  25  26
HETATM   26  C   UNL     1      -6.185   9.704  66.595  1.00  0.00    -0.065 C  
HETATM   27  O   UNL     1      -5.677   9.124  67.541  1.00  0.00    -0.041 OA 
HETATM   28  C   UNL     1      -5.454  10.621  65.652  1.00  0.00    -0.131 C  
ENDBRANCH  25  26
ENDBRANCH   4  25
TORSDOF 3
ENDMDL
MODEL       36
REMARK 921   NORMALIZED FREE ENERGY PREDICTED BY IDOCK:   -4.48 KCAL/MOL
REMARK 922        TOTAL FREE ENERGY PREDICTED BY IDOCK:   -4.66 KCAL/MOL
REMARK 923 INTER-LIGAND FREE ENERGY PREDICTED BY IDOCK:   -5.11 KCAL/MOL
REMARK 924 INTRA-LIGAND FREE ENERGY PREDICTED BY IDOCK:    0.45 KCAL/MOL
REMARK 927      BINDING AFFINITY PREDICTED BY RF-SCORE:    0.00 PKD
ROOT
HETATM    1  C   UNL     1     -10.429   9.499  70.955  1.00  0.00    -0.382 C  
HETATM    2  C   UNL     1     -11.594  10.179  70.503  1.00  0.00    -0.411 C  
HETATM    3  C   UNL     1     -11.404   8.773  70.063  1.00  0.00    -0.040 C  
HETATM    4  C   UNL     1      -9.882   7.795  71.046  1.00  0.00    -0.174 C  
HETATM    5  C   UNL     1      -7.069   7.880  67.653  1.00  0.00    -0.083 C  
HETATM    6  C   UNL     1      -8.279   8.749  67.239  1.00  0.00    -0.104 C  
HETATM    7  C   UNL     1     -11.242   7.730  71.180  1.00  0.00    -0.285 C  
HETATM    8  C   UNL     1     -11.285   6.664  69.663  1.00  0.00    -0.397 C  
HETATM    9  C   UNL     1      -8.813   8.185  65.856  1.00  0.00    -0.194 C  
HETATM   10  C   UNL     1      -8.678   9.101  64.648  1.00  0.00    -0.199 C  
HETATM   11  O   UNL     1      -6.521   9.832  63.876  1.00  0.00    -0.107 OA 
HETATM   12  C   UNL     1     -12.139   7.537  72.395  1.00  0.00    -0.216 C  
HETATM   13  C   UNL     1      -7.389   9.846  64.739  1.00  0.00    -0.136 C  
HETATM   14  C   UNL     1      -7.256  10.681  65.943  1.00  0.00    -0.119 C  
HETATM   15  C   UNL     1     -10.053   7.082  68.532  1.00  0.00    -0.171 C  
HETATM   16  C   UNL     1      -9.460   8.635  68.303  1.00  0.00    -0.150 C  
HETATM   17  C   UNL     1      -9.168   9.515  69.646  1.00  0.00    -0.212 C  
HETATM   18  C   UNL     1      -8.853  10.958  69.265  1.00  0.00     0.020 C  
HETATM   19  C   UNL     1      -7.594  11.045  68.395  1.00  0.00    -0.108 C  
HETATM   20  C   UNL     1      -7.292  12.542  68.192  1.00  0.00    -0.110 C  
HETATM   21  C   UNL     1      -7.731  10.211  67.115  1.00  0.00    -0.092 C  
ENDROOT
BRANCH   4  22
HETATM   22  C   UNL     1      -9.496   6.258  71.384  1.00  0.00    -0.156 C  
HETATM   23  C   UNL     1      -8.264   5.647  70.749  1.00  0.00    -0.118 C  
HETATM   24  O   UNL     1     -10.085   5.539  72.207  1.00  0.00    -0.174 OA 
ENDBRANCH   4  22
BRANCH   4  25
HETATM   25  O   UNL     1      -9.568   8.127  72.558  1.00  0.00    -0.219 OA 
BRANCH  25  26
HETATM   26  C   UNL     1      -8.322   8.201  73.084  1.00  0.00    -0.204 C  
HETATM   27  O   UNL     1      -7.361   8.732  72.551  1.00  0.00    -0.323 OA 
HETATM   28  C   UNL     1      -8.319   7.594  74.461  1.00  0.00    -0.245 C  
ENDBRANCH  25  26
ENDBRANCH   4  25
TORSDOF 3
ENDMDL
MODEL       37
REMARK 921   NORMALIZED FREE ENERGY PREDICTED BY IDOCK:   -4.40 KCAL/MOL
REMARK 922        TOTAL FREE ENERGY PREDICTED BY IDOCK:   -4.56 KCAL/MOL
REMARK 923 INTER-LIGAND FREE ENERGY PREDICTED BY IDOCK:   -5.03 KCAL/MOL
REMARK 924 INTRA-LIGAND FREE ENERGY PREDICTED BY IDOCK:    0.47 KCAL/MOL
REMARK 927      BINDING AFFINITY PREDICTED BY RF-SCORE:    0.00 PKD
ROOT
HETATM    1  C   UNL     1      -8.703  11.571  66.027  1.00  0.00    -0.095 C  
HETATM    2  C   UNL     1      -8.832  10.775  64.854  1.00  0.00    -0.176 C  
HETATM    3  C   UNL     1     -10.071  11.095  65.609  1.00  0.00    -0.304 C  
HETATM    4  C   UNL     1      -9.808  12.521  67.071  1.00  0.00    -0.217 C  
HETATM    5  C   UNL     1     -10.017   9.699  70.452  1.00  0.00    -0.330 C  
HETATM    6  C   UNL     1      -9.997   8.839  69.166  1.00  0.00    -0.193 C  
HETATM    7  C   UNL     1     -10.368  12.587  65.824  1.00  0.00    -0.288 C  
HETATM    8  C   UNL     1     -11.888  11.790  66.524  1.00  0.00    -0.011 C  
HETATM    9  C   UNL     1     -11.260   7.882  69.218  1.00  0.00     0.242 C  
HETATM   10  C   UNL     1     -10.981   6.391  69.338  1.00  0.00    -0.421 C  
HETATM   11  O   UNL     1      -9.828   5.490  71.246  1.00  0.00    -0.164 OA 
HETATM   12  C   UNL     1     -10.377  13.684  64.768  1.00  0.00    -0.414 C  
HETATM   13  C   UNL     1      -9.809   6.181  70.236  1.00  0.00    -0.169 C  
HETATM   14  C   UNL     1      -8.570   6.826  69.773  1.00  0.00    -0.141 C  
HETATM   15  C   UNL     1     -11.523  10.675  67.788  1.00  0.00    -0.219 C  
HETATM   16  C   UNL     1     -10.125   9.750  67.864  1.00  0.00    -0.212 C  
HETATM   17  C   UNL     1      -8.725  10.502  67.496  1.00  0.00    -0.125 C  
HETATM   18  C   UNL     1      -7.595   9.481  67.394  1.00  0.00    -0.095 C  
HETATM   19  C   UNL     1      -7.374   8.757  68.727  1.00  0.00    -0.083 C  
HETATM   20  C   UNL     1      -6.131   7.864  68.550  1.00  0.00    -0.040 C  
HETATM   21  C   UNL     1      -8.646   8.047  69.205  1.00  0.00    -0.137 C  
ENDROOT
BRANCH   4  22
HETATM   22  C   UNL     1     -10.740  13.592  67.851  1.00  0.00    -0.247 C  
HETATM   23  C   UNL     1     -11.018  13.395  69.327  1.00  0.00    -0.159 C  
HETATM   24  O   UNL     1     -11.191  14.637  67.358  1.00  0.00    -0.317 OA 
ENDBRANCH   4  22
BRANCH   4  25
HETATM   25  O   UNL     1      -8.767  13.691  66.864  1.00  0.00    -0.214 OA 
BRANCH  25  26
HETATM   26  C   UNL     1      -7.858  14.080  67.790  1.00  0.00    -0.171 C  
HETATM   27  O   UNL     1      -7.423  13.383  68.691  1.00  0.00    -0.114 OA 
HETATM   28  C   UNL     1      -7.409  15.486  67.492  1.00  0.00    -0.216 C  
ENDBRANCH  25  26
ENDBRANCH   4  25
TORSDOF 3
ENDMDL
MODEL       38
REMARK 921   NORMALIZED FREE ENERGY PREDICTED BY IDOCK:   -4.40 KCAL/MOL
REMARK 922        TOTAL FREE ENERGY PREDICTED BY IDOCK:   -4.56 KCAL/MOL
REMARK 923 INTER-LIGAND FREE ENERGY PREDICTED BY IDOCK:   -5.04 KCAL/MOL
REMARK 924 INTRA-LIGAND FREE ENERGY PREDICTED BY IDOCK:    0.49 KCAL/MOL
REMARK 927      BINDING AFFINITY PREDICTED BY RF-SCORE:    0.00 PKD
ROOT
HETATM    1  C   UNL     1      -8.295   9.388  69.002  1.00  0.00    -0.124 C  
HETATM    2  C   UNL     1      -7.581  10.026  70.055  1.00  0.00    -0.182 C  
HETATM    3  C   UNL     1      -7.034   8.749  69.528  1.00  0.00    -0.055 C  
HETATM    4  C   UNL     1      -7.947   8.106  67.798  1.00  0.00    -0.127 C  
HETATM    5  C   UNL     1     -10.223   4.850  69.710  1.00  0.00    -0.284 C  
HETATM    6  C   UNL     1      -9.565   5.654  70.856  1.00  0.00    -0.212 C  
HETATM    7  C   UNL     1      -6.739   8.708  68.020  1.00  0.00    -0.069 C  
HETATM    8  C   UNL     1      -6.086   7.066  68.583  1.00  0.00    -0.027 C  
HETATM    9  C   UNL     1      -8.737   4.627  71.737  1.00  0.00    -0.134 C  
HETATM   10  C   UNL     1      -9.223   4.405  73.162  1.00  0.00    -0.129 C  
HETATM   11  O   UNL     1     -11.409   3.505  73.604  1.00  0.00    -0.220 OA 
HETATM   12  C   UNL     1      -5.942   9.722  67.213  1.00  0.00    -0.051 C  
HETATM   13  C   UNL     1     -10.714   4.419  73.180  1.00  0.00    -0.220 C  
HETATM   14  C   UNL     1     -11.313   5.675  72.700  1.00  0.00    -0.356 C  
HETATM   15  C   UNL     1      -7.290   6.114  69.368  1.00  0.00    -0.091 C  
HETATM   16  C   UNL     1      -8.549   6.741  70.285  1.00  0.00    -0.140 C  
HETATM   17  C   UNL     1      -9.317   8.048  69.682  1.00  0.00    -0.156 C  
HETATM   18  C   UNL     1     -10.269   8.621  70.727  1.00  0.00    -0.250 C  
HETATM   19  C   UNL     1     -11.353   7.607  71.112  1.00  0.00    -0.286 C  
HETATM   20  C   UNL     1     -12.331   8.334  72.055  1.00  0.00    -0.395 C  
HETATM   21  C   UNL     1     -10.746   6.306  71.651  1.00  0.00    -0.284 C  
ENDROOT
BRANCH   4  22
HETATM   22  C   UNL     1      -7.558   7.156  66.545  1.00  0.00    -0.092 C  
HETATM   23  C   UNL     1      -8.344   5.883  66.308  1.00  0.00    -0.117 C  
HETATM   24  O   UNL     1      -6.705   7.425  65.684  1.00  0.00    -0.047 OA 
ENDBRANCH   4  22
BRANCH   4  25
HETATM   25  O   UNL     1      -8.479   9.153  66.742  1.00  0.00    -0.120 OA 
BRANCH  25  26
HETATM   26  C   UNL     1      -9.702   9.102  66.161  1.00  0.00    -0.287 C  
HETATM   27  O   UNL     1     -10.641   8.427  66.549  1.00  0.00    -0.204 OA 
HETATM   28  C   UNL     1      -9.750  10.065  65.005  1.00  0.00    -0.386 C  
ENDBRANCH  25  26
ENDBRANCH   4  25
TORSDOF 3
ENDMDL
MODEL       39
REMARK 921   NORMALIZED FREE ENERGY PREDICTED BY IDOCK:   -4.37 KCAL/MOL
REMARK 922        TOTAL FREE ENERGY PREDICTED BY IDOCK:   -4.53 KCAL/MOL
REMARK 923 INTER-LIGAND FREE ENERGY PREDICTED BY IDOCK:   -4.94 KCAL/MOL
REMARK 924 INTRA-LIGAND FREE ENERGY PREDICTED BY IDOCK:    0.41 KCAL/MOL
REMARK 927      BINDING AFFINITY PREDICTED BY RF-SCORE:    0.00 PKD
ROOT
HETATM    1  C   UNL     1      -8.098   9.958  70.105  1.00  0.00    -0.169 C  
HETATM    2  C   UNL     1      -6.808   9.872  70.698  1.00  0.00    -0.087 C  
HETATM    3  C   UNL     1      -7.020   9.167  69.409  1.00  0.00    -0.052 C  
HETATM    4  C   UNL     1      -8.798   9.641  68.485  1.00  0.00    -0.124 C  
HETATM    5  C   UNL     1     -10.792   5.823  69.425  1.00  0.00    -0.393 C  
HETATM    6  C   UNL     1      -9.450   5.815  70.193  1.00  0.00    -0.195 C  
HETATM    7  C   UNL     1      -7.510  10.030  68.236  1.00  0.00    -0.079 C  
HETATM    8  C   UNL     1      -7.233   8.390  67.415  1.00  0.00    -0.088 C  
HETATM    9  C   UNL     1      -8.680   4.490  69.785  1.00  0.00    -0.111 C  
HETATM   10  C   UNL     1      -8.470   3.458  70.883  1.00  0.00    -0.099 C  
HETATM   11  O   UNL     1     -10.336   2.410  71.979  1.00  0.00    -0.130 OA 
HETATM   12  C   UNL     1      -6.918  11.347  67.754  1.00  0.00    -0.076 C  
HETATM   13  C   UNL     1      -9.678   3.418  71.757  1.00  0.00    -0.166 C  
HETATM   14  C   UNL     1      -9.995   4.698  72.409  1.00  0.00    -0.228 C  
HETATM   15  C   UNL     1      -8.149   7.126  68.146  1.00  0.00    -0.124 C  
HETATM   16  C   UNL     1      -8.542   7.058  69.776  1.00  0.00    -0.141 C  
HETATM   17  C   UNL     1      -9.040   8.447  70.471  1.00  0.00    -0.163 C  
HETATM   18  C   UNL     1      -9.138   8.268  71.983  1.00  0.00    -0.267 C  
HETATM   19  C   UNL     1     -10.166   7.193  72.354  1.00  0.00    -0.214 C  
HETATM   20  C   UNL     1     -10.284   7.197  73.890  1.00  0.00    -0.358 C  
HETATM   21  C   UNL     1      -9.828   5.841  71.713  1.00  0.00    -0.200 C  
ENDROOT
BRANCH   4  22
HETATM   22  C   UNL     1      -9.381   9.624  66.974  1.00  0.00    -0.147 C  
HETATM   23  C   UNL     1     -10.511   8.676  66.626  1.00  0.00    -0.239 C  
HETATM   24  O   UNL     1      -9.035  10.397  66.067  1.00  0.00    -0.151 OA 
ENDBRANCH   4  22
BRANCH   4  25
HETATM   25  O   UNL     1      -9.402  11.095  68.620  1.00  0.00    -0.184 OA 
BRANCH  25  26
HETATM   26  C   UNL     1     -10.706  11.362  68.871  1.00  0.00    -0.210 C  
HETATM   27  O   UNL     1     -11.451  10.675  69.549  1.00  0.00    -0.250 OA 
HETATM   28  C   UNL     1     -11.078  12.680  68.246  1.00  0.00    -0.295 C  
ENDBRANCH  25  26
ENDBRANCH   4  25
TORSDOF 3
ENDMDL
MODEL       40
REMARK 921   NORMALIZED FREE ENERGY PREDICTED BY IDOCK:   -4.36 KCAL/MOL
REMARK 922        TOTAL FREE ENERGY PREDICTED BY IDOCK:   -4.51 KCAL/MOL
REMARK 923 INTER-LIGAND FREE ENERGY PREDICTED BY IDOCK:   -4.92 KCAL/MOL
REMARK 924 INTRA-LIGAND FREE ENERGY PREDICTED BY IDOCK:    0.41 KCAL/MOL
REMARK 927      BINDING AFFINITY PREDICTED BY RF-SCORE:    0.00 PKD
ROOT
HETATM    1  C   UNL     1      -7.887   8.048  69.875  1.00  0.00    -0.102 C  
HETATM    2  C   UNL     1      -7.630   8.503  71.199  1.00  0.00    -0.104 C  
HETATM    3  C   UNL     1      -9.046   8.273  70.814  1.00  0.00    -0.168 C  
HETATM    4  C   UNL     1      -9.269   7.299  69.013  1.00  0.00    -0.139 C  
HETATM    5  C   UNL     1     -10.583  10.860  66.771  1.00  0.00    -0.313 C  
HETATM    6  C   UNL     1     -10.147  11.361  68.168  1.00  0.00    -0.200 C  
HETATM    7  C   UNL     1      -9.390   6.864  70.305  1.00  0.00    -0.162 C  
HETATM    8  C   UNL     1     -11.059   7.670  70.362  1.00  0.00    -0.270 C  
HETATM    9  C   UNL     1     -11.362  12.178  68.777  1.00  0.00    -0.339 C  
HETATM   10  C   UNL     1     -11.144  13.669  68.987  1.00  0.00    -0.295 C  
HETATM   11  O   UNL     1     -10.681  15.131  67.134  1.00  0.00    -0.296 OA 
HETATM   12  C   UNL     1      -9.050   5.538  70.970  1.00  0.00    -0.163 C  
HETATM   13  C   UNL     1     -10.331  14.210  67.860  1.00  0.00    -0.234 C  
HETATM   14  C   UNL     1      -9.006  13.585  67.717  1.00  0.00    -0.201 C  
HETATM   15  C   UNL     1     -11.132   9.100  69.401  1.00  0.00    -0.027 C  
HETATM   16  C   UNL     1      -9.839  10.139  69.145  1.00  0.00    -0.225 C  
HETATM   17  C   UNL     1      -8.392   9.451  68.836  1.00  0.00    -0.120 C  
HETATM   18  C   UNL     1      -7.296  10.512  68.853  1.00  0.00    -0.098 C  
HETATM   19  C   UNL     1      -7.525  11.570  67.768  1.00  0.00    -0.101 C  
HETATM   20  C   UNL     1      -6.296  12.500  67.783  1.00  0.00    -0.121 C  
HETATM   21  C   UNL     1      -8.886  12.258  67.926  1.00  0.00    -0.178 C  
ENDROOT
BRANCH   4  22
HETATM   22  C   UNL     1     -10.400   6.382  68.304  1.00  0.00    -0.191 C  
HETATM   23  C   UNL     1     -11.033   6.854  67.011  1.00  0.00    -0.404 C  
HETATM   24  O   UNL     1     -10.745   5.253  68.686  1.00  0.00    -0.105 OA 
ENDBRANCH   4  22
BRANCH   4  25
HETATM   25  O   UNL     1      -8.213   6.217  68.557  1.00  0.00    -0.111 OA 
BRANCH  25  26
HETATM   26  C   UNL     1      -7.665   6.155  67.319  1.00  0.00    -0.094 C  
HETATM   27  O   UNL     1      -7.473   7.108  66.582  1.00  0.00    -0.084 OA 
HETATM   28  C   UNL     1      -7.260   4.736  67.020  1.00  0.00    -0.077 C  
ENDBRANCH  25  26
ENDBRANCH   4  25
TORSDOF 3
ENDMDL
MODEL       41
REMARK 921   NORMALIZED FREE ENERGY PREDICTED BY IDOCK:   -4.31 KCAL/MOL
REMARK 922        TOTAL FREE ENERGY PREDICTED BY IDOCK:   -4.45 KCAL/MOL
REMARK 923 INTER-LIGAND FREE ENERGY PREDICTED BY IDOCK:   -4.94 KCAL/MOL
REMARK 924 INTRA-LIGAND FREE ENERGY PREDICTED BY IDOCK:    0.49 KCAL/MOL
REMARK 927      BINDING AFFINITY PREDICTED BY RF-SCORE:    0.00 PKD
ROOT
HETATM    1  C   UNL     1      -8.516   7.523  71.351  1.00  0.00    -0.115 C  
HETATM    2  C   UNL     1      -9.085   8.243  72.439  1.00  0.00    -0.307 C  
HETATM    3  C   UNL     1     -10.016   7.639  71.452  1.00  0.00    -0.203 C  
HETATM    4  C   UNL     1      -9.103   6.347  70.132  1.00  0.00    -0.154 C  
HETATM    5  C   UNL     1      -9.268   9.086  66.682  1.00  0.00    -0.211 C  
HETATM    6  C   UNL     1      -9.736   9.902  67.909  1.00  0.00    -0.162 C  
HETATM    7  C   UNL     1      -9.884   6.123  71.233  1.00  0.00    -0.204 C  
HETATM    8  C   UNL     1     -11.367   6.531  70.198  1.00  0.00    -0.463 C  
HETATM    9  C   UNL     1     -11.154  10.518  67.555  1.00  0.00    -0.358 C  
HETATM   10  C   UNL     1     -11.231  12.033  67.442  1.00  0.00    -0.368 C  
HETATM   11  O   UNL     1      -9.952  13.223  65.789  1.00  0.00    -0.283 OA 
HETATM   12  C   UNL     1      -9.850   5.041  72.303  1.00  0.00    -0.214 C  
HETATM   13  C   UNL     1      -9.982  12.542  66.805  1.00  0.00    -0.228 C  
HETATM   14  C   UNL     1      -8.751  12.216  67.544  1.00  0.00    -0.173 C  
HETATM   15  C   UNL     1     -11.024   7.723  69.000  1.00  0.00     0.056 C  
HETATM   16  C   UNL     1      -9.913   8.967  69.188  1.00  0.00    -0.192 C  
HETATM   17  C   UNL     1      -8.483   8.578  69.872  1.00  0.00    -0.125 C  
HETATM   18  C   UNL     1      -7.688   9.845  70.173  1.00  0.00    -0.188 C  
HETATM   19  C   UNL     1      -7.370  10.624  68.891  1.00  0.00    -0.099 C  
HETATM   20  C   UNL     1      -6.452  11.794  69.294  1.00  0.00    -0.107 C  
HETATM   21  C   UNL     1      -8.645  11.005  68.129  1.00  0.00    -0.140 C  
ENDROOT
BRANCH   4  22
HETATM   22  C   UNL     1      -9.554   5.092  69.213  1.00  0.00    -0.160 C  
HETATM   23  C   UNL     1      -9.462   5.208  67.705  1.00  0.00    -0.145 C  
HETATM   24  O   UNL     1      -9.896   3.980  69.643  1.00  0.00    -0.210 OA 
ENDBRANCH   4  22
BRANCH   4  25
HETATM   25  O   UNL     1      -7.877   5.468  70.599  1.00  0.00    -0.090 OA 
BRANCH  25  26
HETATM   26  C   UNL     1      -6.701   5.378  69.932  1.00  0.00    -0.051 C  
HETATM   27  O   UNL     1      -6.331   6.132  69.046  1.00  0.00    -0.037 OA 
HETATM   28  C   UNL     1      -5.885   4.249  70.501  1.00  0.00    -0.014 C  
ENDBRANCH  25  26
ENDBRANCH   4  25
TORSDOF 3
ENDMDL
MODEL       42
REMARK 921   NORMALIZED FREE ENERGY PREDICTED BY IDOCK:   -4.29 KCAL/MOL
REMARK 922        TOTAL FREE ENERGY PREDICTED BY IDOCK:   -4.43 KCAL/MOL
REMARK 923 INTER-LIGAND FREE ENERGY PREDICTED BY IDOCK:   -4.94 KCAL/MOL
REMARK 924 INTRA-LIGAND FREE ENERGY PREDICTED BY IDOCK:    0.51 KCAL/MOL
REMARK 927      BINDING AFFINITY PREDICTED BY RF-SCORE:    0.00 PKD
ROOT
HETATM    1  C   UNL     1      -9.784  10.810  67.076  1.00  0.00    -0.205 C  
HETATM    2  C   UNL     1     -10.169  11.004  65.719  1.00  0.00    -0.316 C  
HETATM    3  C   UNL     1      -8.720  11.071  66.039  1.00  0.00    -0.192 C  
HETATM    4  C   UNL     1      -8.260  10.442  67.945  1.00  0.00    -0.106 C  
HETATM    5  C   UNL     1      -7.486  14.476  69.545  1.00  0.00    -0.027 C  
HETATM    6  C   UNL     1      -8.058  14.673  68.122  1.00  0.00    -0.137 C  
HETATM    7  C   UNL     1      -8.119   9.836  66.726  1.00  0.00    -0.120 C  
HETATM    8  C   UNL     1      -6.616  10.884  66.441  1.00  0.00    -0.134 C  
HETATM    9  C   UNL     1      -7.026  15.573  67.320  1.00  0.00    -0.206 C  
HETATM   10  C   UNL     1      -7.505  16.957  66.907  1.00  0.00    -0.254 C  
HETATM   11  O   UNL     1      -8.136  18.595  68.551  1.00  0.00    -0.324 OA 
HETATM   12  C   UNL     1      -8.253   8.384  66.288  1.00  0.00    -0.111 C  
HETATM   13  C   UNL     1      -8.353  17.527  67.994  1.00  0.00    -0.241 C  
HETATM   14  C   UNL     1      -9.544  16.725  68.315  1.00  0.00    -0.244 C  
HETATM   15  C   UNL     1      -6.751  12.439  67.173  1.00  0.00    -0.084 C  
HETATM   16  C   UNL     1      -8.191  13.280  67.358  1.00  0.00    -0.185 C  
HETATM   17  C   UNL     1      -9.485  12.422  67.860  1.00  0.00    -0.198 C  
HETATM   18  C   UNL     1     -10.746  13.274  67.761  1.00  0.00    -0.256 C  
HETATM   19  C   UNL     1     -10.658  14.512  68.660  1.00  0.00    -0.255 C  
HETATM   20  C   UNL     1     -12.028  15.215  68.590  1.00  0.00    -0.270 C  
HETATM   21  C   UNL     1      -9.443  15.380  68.313  1.00  0.00    -0.200 C  
ENDROOT
BRANCH   4  22
HETATM   22  C   UNL     1      -6.961   9.843  68.705  1.00  0.00    -0.062 C  
HETATM   23  C   UNL     1      -6.410  10.571  69.915  1.00  0.00    -0.104 C  
HETATM   24  O   UNL     1      -6.408   8.766  68.433  1.00  0.00    -0.053 OA 
ENDBRANCH   4  22
BRANCH   4  25
HETATM   25  O   UNL     1      -9.096   9.286  68.625  1.00  0.00    -0.132 OA 
BRANCH  25  26
HETATM   26  C   UNL     1      -9.613   9.349  69.875  1.00  0.00    -0.212 C  
HETATM   27  O   UNL     1     -10.219  10.299  70.343  1.00  0.00    -0.161 OA 
HETATM   28  C   UNL     1      -9.392   8.036  70.577  1.00  0.00    -0.155 C  
ENDBRANCH  25  26
ENDBRANCH   4  25
TORSDOF 3
ENDMDL
MODEL       43
REMARK 921   NORMALIZED FREE ENERGY PREDICTED BY IDOCK:   -4.27 KCAL/MOL
REMARK 922        TOTAL FREE ENERGY PREDICTED BY IDOCK:   -4.40 KCAL/MOL
REMARK 923 INTER-LIGAND FREE ENERGY PREDICTED BY IDOCK:   -5.03 KCAL/MOL
REMARK 924 INTRA-LIGAND FREE ENERGY PREDICTED BY IDOCK:    0.63 KCAL/MOL
REMARK 927      BINDING AFFINITY PREDICTED BY RF-SCORE:    0.00 PKD
ROOT
HETATM    1  C   UNL     1      -7.335   9.707  67.558  1.00  0.00    -0.090 C  
HETATM    2  C   UNL     1      -6.657   8.539  67.108  1.00  0.00    -0.058 C  
HETATM    3  C   UNL     1      -8.128   8.600  66.910  1.00  0.00    -0.098 C  
HETATM    4  C   UNL     1      -8.939  10.457  67.281  1.00  0.00    -0.135 C  
HETATM    5  C   UNL     1     -10.798   9.343  71.120  1.00  0.00    -0.427 C  
HETATM    6  C   UNL     1      -9.927   8.139  70.691  1.00  0.00    -0.204 C  
HETATM    7  C   UNL     1      -8.655   9.804  66.112  1.00  0.00    -0.138 C  
HETATM    8  C   UNL     1     -10.197   8.803  66.361  1.00  0.00    -0.256 C  
HETATM    9  C   UNL     1     -10.862   6.858  70.685  1.00  0.00    -0.280 C  
HETATM   10  C   UNL     1     -10.548   5.779  71.711  1.00  0.00    -0.293 C  
HETATM   11  O   UNL     1     -10.657   6.235  74.069  1.00  0.00    -0.280 OA 
HETATM   12  C   UNL     1      -8.158  10.300  64.762  1.00  0.00    -0.151 C  
HETATM   13  C   UNL     1     -10.120   6.424  72.986  1.00  0.00    -0.189 C  
HETATM   14  C   UNL     1      -8.927   7.276  72.862  1.00  0.00    -0.168 C  
HETATM   15  C   UNL     1     -10.531   8.515  68.028  1.00  0.00    -0.249 C  
HETATM   16  C   UNL     1      -9.358   8.338  69.215  1.00  0.00    -0.155 C  
HETATM   17  C   UNL     1      -8.105   9.381  69.172  1.00  0.00    -0.107 C  
HETATM   18  C   UNL     1      -7.031   8.948  70.165  1.00  0.00    -0.043 C  
HETATM   19  C   UNL     1      -7.564   8.953  71.603  1.00  0.00    -0.058 C  
HETATM   20  C   UNL     1      -6.369   8.642  72.524  1.00  0.00    -0.071 C  
HETATM   21  C   UNL     1      -8.784   8.039  71.758  1.00  0.00    -0.178 C  
ENDROOT
BRANCH   4  22
HETATM   22  C   UNL     1     -10.262  11.274  66.827  1.00  0.00    -0.226 C  
HETATM   23  C   UNL     1     -11.243  11.740  67.884  1.00  0.00    -0.331 C  
HETATM   24  O   UNL     1     -10.511  11.641  65.669  1.00  0.00    -0.250 OA 
ENDBRANCH   4  22
BRANCH   4  25
HETATM   25  O   UNL     1      -8.113  11.765  66.961  1.00  0.00    -0.158 OA 
BRANCH  25  26
HETATM   26  C   UNL     1      -7.976  12.811  67.811  1.00  0.00    -0.157 C  
HETATM   27  O   UNL     1      -7.481  12.757  68.925  1.00  0.00    -0.078 OA 
HETATM   28  C   UNL     1      -8.459  14.069  67.141  1.00  0.00    -0.207 C  
ENDBRANCH  25  26
ENDBRANCH   4  25
TORSDOF 3
ENDMDL
MODEL       44
REMARK 921   NORMALIZED FREE ENERGY PREDICTED BY IDOCK:   -4.26 KCAL/MOL
REMARK 922        TOTAL FREE ENERGY PREDICTED BY IDOCK:   -4.39 KCAL/MOL
REMARK 923 INTER-LIGAND FREE ENERGY PREDICTED BY IDOCK:   -5.67 KCAL/MOL
REMARK 924 INTRA-LIGAND FREE ENERGY PREDICTED BY IDOCK:    1.28 KCAL/MOL
REMARK 927      BINDING AFFINITY PREDICTED BY RF-SCORE:    0.00 PKD
ROOT
HETATM    1  C   UNL     1      -9.926  12.876  64.794  1.00  0.00    -0.151 C  
HETATM    2  C   UNL     1     -10.763  12.496  63.707  1.00  0.00    -0.483 C  
HETATM    3  C   UNL     1     -11.344  12.446  65.073  1.00  0.00    -0.363 C  
HETATM    4  C   UNL     1     -10.167  13.335  66.509  1.00  0.00    -0.283 C  
HETATM    5  C   UNL     1      -8.815   9.560  68.340  1.00  0.00    -0.124 C  
HETATM    6  C   UNL     1      -9.596   9.170  67.064  1.00  0.00    -0.223 C  
HETATM    7  C   UNL     1     -11.304  13.755  65.876  1.00  0.00    -0.311 C  
HETATM    8  C   UNL     1     -12.275  12.646  67.000  1.00  0.00    -0.008 C  
HETATM    9  C   UNL     1     -10.725   8.143  67.496  1.00  0.00    -0.227 C  
HETATM   10  C   UNL     1     -10.596   6.724  66.962  1.00  0.00    -0.405 C  
HETATM   11  O   UNL     1      -8.699   5.354  67.515  1.00  0.00    -0.109 OA 
HETATM   12  C   UNL     1     -11.765  15.131  65.413  1.00  0.00    -0.092 C  
HETATM   13  C   UNL     1      -9.157   6.335  66.944  1.00  0.00    -0.128 C  
HETATM   14  C   UNL     1      -8.307   7.199  66.109  1.00  0.00    -0.133 C  
HETATM   15  C   UNL     1     -11.408  11.217  67.422  1.00  0.00    -0.329 C  
HETATM   16  C   UNL     1     -10.310  10.440  66.417  1.00  0.00    -0.278 C  
HETATM   17  C   UNL     1      -9.263  11.389  65.601  1.00  0.00    -0.209 C  
HETATM   18  C   UNL     1      -8.496  10.558  64.577  1.00  0.00    -0.133 C  
HETATM   19  C   UNL     1      -7.666   9.461  65.255  1.00  0.00    -0.108 C  
HETATM   20  C   UNL     1      -6.831   8.785  64.151  1.00  0.00    -0.082 C  
HETATM   21  C   UNL     1      -8.543   8.528  66.099  1.00  0.00    -0.154 C  
ENDROOT
BRANCH   4  22
HETATM   22  C   UNL     1     -10.394  14.010  67.964  1.00  0.00    -0.240 C  
HETATM   23  C   UNL     1     -11.132  15.330  68.061  1.00  0.00    -0.312 C  
HETATM   24  O   UNL     1     -10.087  13.490  69.048  1.00  0.00    -0.076 OA 
ENDBRANCH   4  22
BRANCH   4  25
HETATM   25  O   UNL     1      -9.284  14.594  66.148  1.00  0.00    -0.264 OA 
BRANCH  25  26
HETATM   26  C   UNL     1      -8.093  14.886  66.725  1.00  0.00     0.027 C  
HETATM   27  O   UNL     1      -7.340  14.076  67.240  1.00  0.00    -0.152 OA 
HETATM   28  C   UNL     1      -7.806  16.355  66.569  1.00  0.00    -0.323 C  
ENDBRANCH  25  26
ENDBRANCH   4  25
TORSDOF 3
ENDMDL
MODEL       45
REMARK 921   NORMALIZED FREE ENERGY PREDICTED BY IDOCK:   -4.26 KCAL/MOL
REMARK 922        TOTAL FREE ENERGY PREDICTED BY IDOCK:   -4.39 KCAL/MOL
REMARK 923 INTER-LIGAND FREE ENERGY PREDICTED BY IDOCK:   -4.83 KCAL/MOL
REMARK 924 INTRA-LIGAND FREE ENERGY PREDICTED BY IDOCK:    0.44 KCAL/MOL
REMARK 927      BINDING AFFINITY PREDICTED BY RF-SCORE:    0.00 PKD
ROOT
HETATM    1  C   UNL     1      -9.475   7.618  67.405  1.00  0.00    -0.175 C  
HETATM    2  C   UNL     1     -10.778   7.332  66.908  1.00  0.00    -0.346 C  
HETATM    3  C   UNL     1     -10.664   8.317  68.014  1.00  0.00    -0.111 C  
HETATM    4  C   UNL     1      -8.730   8.901  68.410  1.00  0.00    -0.134 C  
HETATM    5  C   UNL     1      -8.353   6.596  72.149  1.00  0.00    -0.105 C  
HETATM    6  C   UNL     1      -9.699   6.178  71.512  1.00  0.00    -0.182 C  
HETATM    7  C   UNL     1      -9.754   9.527  67.753  1.00  0.00    -0.176 C  
HETATM    8  C   UNL     1     -10.484   9.947  69.405  1.00  0.00    -0.250 C  
HETATM    9  C   UNL     1     -10.827   6.401  72.604  1.00  0.00    -0.270 C  
HETATM   10  C   UNL     1     -11.529   5.155  73.124  1.00  0.00    -0.348 C  
HETATM   11  O   UNL     1     -10.311   3.434  74.281  1.00  0.00    -0.160 OA 
HETATM   12  C   UNL     1      -9.775  10.449  66.542  1.00  0.00    -0.241 C  
HETATM   13  C   UNL     1     -10.536   4.048  73.247  1.00  0.00    -0.189 C  
HETATM   14  C   UNL     1      -9.874   3.687  71.983  1.00  0.00    -0.244 C  
HETATM   15  C   UNL     1     -10.176   8.731  70.587  1.00  0.00    -0.247 C  
HETATM   16  C   UNL     1     -10.047   7.091  70.253  1.00  0.00    -0.198 C  
HETATM   17  C   UNL     1      -9.184   6.676  68.932  1.00  0.00    -0.130 C  
HETATM   18  C   UNL     1      -9.352   5.187  68.646  1.00  0.00    -0.164 C  
HETATM   19  C   UNL     1      -8.827   4.333  69.805  1.00  0.00    -0.133 C  
HETATM   20  C   UNL     1      -8.914   2.862  69.352  1.00  0.00    -0.171 C  
HETATM   21  C   UNL     1      -9.535   4.669  71.123  1.00  0.00    -0.220 C  
ENDROOT
BRANCH   4  22
HETATM   22  C   UNL     1      -8.002  10.185  69.077  1.00  0.00    -0.115 C  
HETATM   23  C   UNL     1      -7.116   9.988  70.290  1.00  0.00    -0.156 C  
HETATM   24  O   UNL     1      -8.033  11.339  68.622  1.00  0.00    -0.133 OA 
ENDBRANCH   4  22
BRANCH   4  25
HETATM   25  O   UNL     1      -7.674   9.006  67.240  1.00  0.00    -0.094 OA 
BRANCH  25  26
HETATM   26  C   UNL     1      -6.372   8.647  67.348  1.00  0.00    -0.057 C  
HETATM   27  O   UNL     1      -5.950   7.703  67.995  1.00  0.00    -0.037 OA 
HETATM   28  C   UNL     1      -5.529   9.547  66.485  1.00  0.00    -0.045 C  
ENDBRANCH  25  26
ENDBRANCH   4  25
TORSDOF 3
ENDMDL
MODEL       46
REMARK 921   NORMALIZED FREE ENERGY PREDICTED BY IDOCK:   -4.24 KCAL/MOL
REMARK 922        TOTAL FREE ENERGY PREDICTED BY IDOCK:   -4.37 KCAL/MOL
REMARK 923 INTER-LIGAND FREE ENERGY PREDICTED BY IDOCK:   -4.78 KCAL/MOL
REMARK 924 INTRA-LIGAND FREE ENERGY PREDICTED BY IDOCK:    0.40 KCAL/MOL
REMARK 927      BINDING AFFINITY PREDICTED BY RF-SCORE:    0.00 PKD
ROOT
HETATM    1  C   UNL     1      -9.568   8.929  70.266  1.00  0.00    -0.212 C  
HETATM    2  C   UNL     1     -10.315   9.773  69.397  1.00  0.00    -0.232 C  
HETATM    3  C   UNL     1     -10.884   8.439  69.718  1.00  0.00    -0.184 C  
HETATM    4  C   UNL     1      -9.898   7.459  71.237  1.00  0.00    -0.176 C  
HETATM    5  C   UNL     1      -7.883   4.542  68.616  1.00  0.00    -0.075 C  
HETATM    6  C   UNL     1      -8.573   5.563  67.682  1.00  0.00    -0.108 C  
HETATM    7  C   UNL     1     -11.090   8.129  71.209  1.00  0.00    -0.287 C  
HETATM    8  C   UNL     1     -11.846   6.641  70.401  1.00  0.00    -0.407 C  
HETATM    9  C   UNL     1      -9.496   4.744  66.686  1.00  0.00    -0.161 C  
HETATM   10  C   UNL     1      -9.106   4.774  65.215  1.00  0.00    -0.155 C  
HETATM   11  O   UNL     1      -6.992   3.902  64.472  1.00  0.00    -0.048 OA 
HETATM   12  C   UNL     1     -11.793   9.002  72.239  1.00  0.00    -0.306 C  
HETATM   13  C   UNL     1      -7.620   4.743  65.101  1.00  0.00    -0.077 C  
HETATM   14  C   UNL     1      -6.939   5.869  65.761  1.00  0.00    -0.065 C  
HETATM   15  C   UNL     1     -10.733   5.813  69.378  1.00  0.00    -0.397 C  
HETATM   16  C   UNL     1      -9.506   6.558  68.508  1.00  0.00    -0.121 C  
HETATM   17  C   UNL     1      -8.647   7.706  69.287  1.00  0.00    -0.136 C  
HETATM   18  C   UNL     1      -7.735   8.432  68.302  1.00  0.00    -0.106 C  
HETATM   19  C   UNL     1      -6.721   7.473  67.668  1.00  0.00    -0.067 C  
HETATM   20  C   UNL     1      -5.770   8.330  66.810  1.00  0.00    -0.044 C  
HETATM   21  C   UNL     1      -7.415   6.314  66.942  1.00  0.00    -0.087 C  
ENDROOT
BRANCH   4  22
HETATM   22  C   UNL     1     -10.253   6.307  72.319  1.00  0.00    -0.187 C  
HETATM   23  C   UNL     1      -9.543   4.971  72.239  1.00  0.00    -0.184 C  
HETATM   24  O   UNL     1     -11.012   6.450  73.290  1.00  0.00    -0.253 OA 
ENDBRANCH   4  22
BRANCH   4  25
HETATM   25  O   UNL     1      -9.259   8.275  72.428  1.00  0.00    -0.206 OA 
BRANCH  25  26
HETATM   26  C   UNL     1      -8.042   8.021  72.966  1.00  0.00    -0.168 C  
HETATM   27  O   UNL     1      -7.056   7.661  72.345  1.00  0.00    -0.069 OA 
HETATM   28  C   UNL     1      -8.071   8.322  74.440  1.00  0.00    -0.259 C  
ENDBRANCH  25  26
ENDBRANCH   4  25
TORSDOF 3
ENDMDL
MODEL       47
REMARK 921   NORMALIZED FREE ENERGY PREDICTED BY IDOCK:   -4.21 KCAL/MOL
REMARK 922        TOTAL FREE ENERGY PREDICTED BY IDOCK:   -4.34 KCAL/MOL
REMARK 923 INTER-LIGAND FREE ENERGY PREDICTED BY IDOCK:   -4.85 KCAL/MOL
REMARK 924 INTRA-LIGAND FREE ENERGY PREDICTED BY IDOCK:    0.51 KCAL/MOL
REMARK 927      BINDING AFFINITY PREDICTED BY RF-SCORE:    0.00 PKD
ROOT
HETATM    1  C   UNL     1      -7.628   5.966  71.243  1.00  0.00    -0.104 C  
HETATM    2  C   UNL     1      -6.442   6.754  71.274  1.00  0.00    -0.042 C  
HETATM    3  C   UNL     1      -7.521   7.096  72.235  1.00  0.00    -0.084 C  
HETATM    4  C   UNL     1      -9.024   5.692  72.333  1.00  0.00    -0.134 C  
HETATM    5  C   UNL     1     -11.990   8.098  70.130  1.00  0.00     0.424 C  
HETATM    6  C   UNL     1     -10.650   8.866  70.039  1.00  0.00    -0.234 C  
HETATM    7  C   UNL     1      -7.979   5.967  73.172  1.00  0.00    -0.108 C  
HETATM    8  C   UNL     1      -8.947   7.413  73.814  1.00  0.00    -0.275 C  
HETATM    9  C   UNL     1     -10.912  10.337  70.571  1.00  0.00    -0.343 C  
HETATM   10  C   UNL     1     -10.780  11.463  69.556  1.00  0.00    -0.098 C  
HETATM   11  O   UNL     1     -12.209  11.571  67.626  1.00  0.00    -0.513 OA 
HETATM   12  C   UNL     1      -7.097   5.070  74.030  1.00  0.00    -0.082 C  
HETATM   13  C   UNL     1     -11.316  11.005  68.242  1.00  0.00    -0.299 C  
HETATM   14  C   UNL     1     -10.631   9.827  67.687  1.00  0.00    -0.333 C  
HETATM   15  C   UNL     1      -9.934   8.134  72.598  1.00  0.00    -0.371 C  
HETATM   16  C   UNL     1      -9.541   8.198  70.968  1.00  0.00    -0.189 C  
HETATM   17  C   UNL     1      -8.918   6.842  70.309  1.00  0.00    -0.152 C  
HETATM   18  C   UNL     1      -8.411   7.133  68.900  1.00  0.00    -0.126 C  
HETATM   19  C   UNL     1      -9.548   7.592  67.980  1.00  0.00    -0.156 C  
HETATM   20  C   UNL     1      -8.955   7.717  66.563  1.00  0.00    -0.191 C  
HETATM   21  C   UNL     1     -10.248   8.842  68.525  1.00  0.00    -0.220 C  
ENDROOT
BRANCH   4  22
HETATM   22  C   UNL     1     -10.137   5.233  73.416  1.00  0.00    -0.180 C  
HETATM   23  C   UNL     1     -11.594   5.176  73.003  1.00  0.00    -0.301 C  
HETATM   24  O   UNL     1      -9.891   4.828  74.563  1.00  0.00    -0.150 OA 
ENDBRANCH   4  22
BRANCH   4  25
HETATM   25  O   UNL     1      -8.696   4.160  72.133  1.00  0.00    -0.104 OA 
BRANCH  25  26
HETATM   26  C   UNL     1      -9.392   3.327  71.321  1.00  0.00    -0.136 C  
HETATM   27  O   UNL     1      -9.811   3.609  70.211  1.00  0.00    -0.174 OA 
HETATM   28  C   UNL     1      -9.504   1.973  71.968  1.00  0.00    -0.174 C  
ENDBRANCH  25  26
ENDBRANCH   4  25
TORSDOF 3
ENDMDL
MODEL       48
REMARK 921   NORMALIZED FREE ENERGY PREDICTED BY IDOCK:   -4.21 KCAL/MOL
REMARK 922        TOTAL FREE ENERGY PREDICTED BY IDOCK:   -4.34 KCAL/MOL
REMARK 923 INTER-LIGAND FREE ENERGY PREDICTED BY IDOCK:   -4.78 KCAL/MOL
REMARK 924 INTRA-LIGAND FREE ENERGY PREDICTED BY IDOCK:    0.45 KCAL/MOL
REMARK 927      BINDING AFFINITY PREDICTED BY RF-SCORE:    0.00 PKD
ROOT
HETATM    1  C   UNL     1     -10.435   7.078  69.569  1.00  0.00    -0.235 C  
HETATM    2  C   UNL     1     -11.532   6.455  68.909  1.00  0.00    -0.148 C  
HETATM    3  C   UNL     1     -10.184   5.862  68.712  1.00  0.00    -0.243 C  
HETATM    4  C   UNL     1      -8.747   6.629  69.973  1.00  0.00    -0.141 C  
HETATM    5  C   UNL     1      -6.724   9.041  66.887  1.00  0.00    -0.072 C  
HETATM    6  C   UNL     1      -8.008   8.482  66.231  1.00  0.00    -0.102 C  
HETATM    7  C   UNL     1      -9.433   5.445  69.987  1.00  0.00    -0.212 C  
HETATM    8  C   UNL     1      -8.296   4.834  68.656  1.00  0.00    -0.083 C  
HETATM    9  C   UNL     1      -7.571   7.725  64.908  1.00  0.00    -0.102 C  
HETATM   10  C   UNL     1      -8.043   8.324  63.592  1.00  0.00    -0.126 C  
HETATM   11  O   UNL     1      -7.375  10.535  62.922  1.00  0.00    -0.132 OA 
HETATM   12  C   UNL     1      -9.965   4.588  71.127  1.00  0.00    -0.257 C  
HETATM   13  C   UNL     1      -8.000   9.812  63.687  1.00  0.00    -0.144 C  
HETATM   14  C   UNL     1      -8.841  10.374  64.755  1.00  0.00    -0.211 C  
HETATM   15  C   UNL     1      -7.790   6.095  67.594  1.00  0.00    -0.105 C  
HETATM   16  C   UNL     1      -8.727   7.426  67.185  1.00  0.00    -0.121 C  
HETATM   17  C   UNL     1      -9.547   8.148  68.397  1.00  0.00    -0.155 C  
HETATM   18  C   UNL     1     -10.512   9.184  67.830  1.00  0.00    -0.306 C  
HETATM   19  C   UNL     1      -9.765  10.292  67.078  1.00  0.00    -0.217 C  
HETATM   20  C   UNL     1     -10.814  11.346  66.676  1.00  0.00    -0.339 C  
HETATM   21  C   UNL     1      -8.913   9.726  65.936  1.00  0.00    -0.189 C  
ENDROOT
BRANCH   4  22
HETATM   22  C   UNL     1      -7.329   6.135  70.579  1.00  0.00    -0.085 C  
HETATM   23  C   UNL     1      -6.063   6.877  70.201  1.00  0.00    -0.024 C  
HETATM   24  O   UNL     1      -7.187   5.231  71.417  1.00  0.00    -0.069 OA 
ENDBRANCH   4  22
BRANCH   4  25
HETATM   25  O   UNL     1      -9.131   7.077  71.439  1.00  0.00    -0.147 OA 
BRANCH  25  26
HETATM   26  C   UNL     1      -8.696   8.214  72.031  1.00  0.00    -0.164 C  
HETATM   27  O   UNL     1      -8.312   9.214  71.446  1.00  0.00    -0.321 OA 
HETATM   28  C   UNL     1      -8.827   8.086  73.525  1.00  0.00    -0.333 C  
ENDBRANCH  25  26
ENDBRANCH   4  25
TORSDOF 3
ENDMDL
MODEL       49
REMARK 921   NORMALIZED FREE ENERGY PREDICTED BY IDOCK:   -4.20 KCAL/MOL
REMARK 922        TOTAL FREE ENERGY PREDICTED BY IDOCK:   -4.33 KCAL/MOL
REMARK 923 INTER-LIGAND FREE ENERGY PREDICTED BY IDOCK:   -5.25 KCAL/MOL
REMARK 924 INTRA-LIGAND FREE ENERGY PREDICTED BY IDOCK:    0.92 KCAL/MOL
REMARK 927      BINDING AFFINITY PREDICTED BY RF-SCORE:    0.00 PKD
ROOT
HETATM    1  C   UNL     1      -8.378  10.395  68.375  1.00  0.00    -0.119 C  
HETATM    2  C   UNL     1      -9.279  10.476  69.474  1.00  0.00    -0.072 C  
HETATM    3  C   UNL     1      -9.753   9.791  68.244  1.00  0.00    -0.160 C  
HETATM    4  C   UNL     1      -8.266   9.436  66.865  1.00  0.00    -0.116 C  
HETATM    5  C   UNL     1      -9.539  12.585  64.054  1.00  0.00     0.225 C  
HETATM    6  C   UNL     1     -10.405  12.758  65.325  1.00  0.00    -0.313 C  
HETATM    7  C   UNL     1      -8.900   8.611  67.752  1.00  0.00    -0.137 C  
HETATM    8  C   UNL     1     -10.341   8.554  66.586  1.00  0.00    -0.303 C  
HETATM    9  C   UNL     1     -11.923  12.734  64.868  1.00  0.00    -0.451 C  
HETATM   10  C   UNL     1     -12.710  14.024  65.050  1.00  0.00    -0.359 C  
HETATM   11  O   UNL     1     -12.072  16.041  63.907  1.00  0.00    -0.880 OA 
HETATM   12  C   UNL     1      -8.409   7.427  68.574  1.00  0.00    -0.126 C  
HETATM   13  C   UNL     1     -11.825  15.185  64.746  1.00  0.00    -0.291 C  
HETATM   14  C   UNL     1     -10.630  15.274  65.600  1.00  0.00    -0.377 C  
HETATM   15  C   UNL     1     -10.548  10.034  65.726  1.00  0.00     0.049 C  
HETATM   16  C   UNL     1     -10.179  11.551  66.342  1.00  0.00    -0.261 C  
HETATM   17  C   UNL     1      -8.777  11.690  67.163  1.00  0.00    -0.164 C  
HETATM   18  C   UNL     1      -8.702  13.055  67.841  1.00  0.00    -0.189 C  
HETATM   19  C   UNL     1      -8.728  14.192  66.812  1.00  0.00    -0.148 C  
HETATM   20  C   UNL     1      -8.505  15.503  67.590  1.00  0.00    -0.177 C  
HETATM   21  C   UNL     1      -9.988  14.137  65.940  1.00  0.00    -0.331 C  
ENDROOT
BRANCH   4  22
HETATM   22  C   UNL     1      -8.011   8.395  65.651  1.00  0.00    -0.115 C  
HETATM   23  C   UNL     1      -7.584   8.925  64.297  1.00  0.00    -0.115 C  
HETATM   24  O   UNL     1      -8.051   7.159  65.751  1.00  0.00    -0.115 OA 
ENDBRANCH   4  22
BRANCH   4  25
HETATM   25  O   UNL     1      -6.795   9.119  67.344  1.00  0.00    -0.075 OA 
BRANCH  25  26
HETATM   26  C   UNL     1      -5.773  10.009  67.322  1.00  0.00    -0.046 C  
HETATM   27  O   UNL     1      -5.461  10.703  66.368  1.00  0.00    -0.057 OA 
HETATM   28  C   UNL     1      -5.126  10.066  68.679  1.00  0.00    -0.032 C  
ENDBRANCH  25  26
ENDBRANCH   4  25
TORSDOF 3
ENDMDL
MODEL       50
REMARK 921   NORMALIZED FREE ENERGY PREDICTED BY IDOCK:   -4.16 KCAL/MOL
REMARK 922        TOTAL FREE ENERGY PREDICTED BY IDOCK:   -4.28 KCAL/MOL
REMARK 923 INTER-LIGAND FREE ENERGY PREDICTED BY IDOCK:   -4.78 KCAL/MOL
REMARK 924 INTRA-LIGAND FREE ENERGY PREDICTED BY IDOCK:    0.50 KCAL/MOL
REMARK 927      BINDING AFFINITY PREDICTED BY RF-SCORE:    0.00 PKD
ROOT
HETATM    1  C   UNL     1      -7.758  10.721  66.708  1.00  0.00    -0.136 C  
HETATM    2  C   UNL     1      -6.951   9.725  66.090  1.00  0.00    -0.095 C  
HETATM    3  C   UNL     1      -8.404   9.449  66.221  1.00  0.00    -0.117 C  
HETATM    4  C   UNL     1      -9.510  11.083  66.809  1.00  0.00    -0.182 C  
HETATM    5  C   UNL     1     -10.182   9.674  70.932  1.00  0.00    -0.303 C  
HETATM    6  C   UNL     1      -9.179   8.687  70.291  1.00  0.00    -0.178 C  
HETATM    7  C   UNL     1      -9.351  10.482  65.590  1.00  0.00    -0.242 C  
HETATM    8  C   UNL     1     -10.535   9.167  66.144  1.00  0.00     0.112 C  
HETATM    9  C   UNL     1      -9.780   7.228  70.457  1.00  0.00    -0.176 C  
HETATM   10  C   UNL     1      -9.014   6.273  71.360  1.00  0.00    -0.139 C  
HETATM   11  O   UNL     1      -8.703   6.750  73.696  1.00  0.00    -0.127 OA 
HETATM   12  C   UNL     1      -9.286  11.045  64.177  1.00  0.00    -0.235 C  
HETATM   13  C   UNL     1      -8.473   7.028  72.526  1.00  0.00    -0.112 C  
HETATM   14  C   UNL     1      -7.559   8.124  72.166  1.00  0.00    -0.142 C  
HETATM   15  C   UNL     1     -10.421   8.852  67.836  1.00  0.00    -0.281 C  
HETATM   16  C   UNL     1      -9.008   8.972  68.732  1.00  0.00    -0.137 C  
HETATM   17  C   UNL     1      -8.062  10.270  68.442  1.00  0.00    -0.109 C  
HETATM   18  C   UNL     1      -6.727  10.113  69.164  1.00  0.00    -0.056 C  
HETATM   19  C   UNL     1      -6.918  10.034  70.683  1.00  0.00    -0.031 C  
HETATM   20  C   UNL     1      -5.512  10.022  71.312  1.00  0.00    -0.075 C  
HETATM   21  C   UNL     1      -7.837   8.872  71.079  1.00  0.00    -0.164 C  
ENDROOT
BRANCH   4  22
HETATM   22  C   UNL     1     -11.049  11.571  66.678  1.00  0.00    -0.295 C  
HETATM   23  C   UNL     1     -11.874  11.767  67.934  1.00  0.00    -0.289 C  
HETATM   24  O   UNL     1     -11.608  11.892  65.618  1.00  0.00    -0.317 OA 
ENDBRANCH   4  22
BRANCH   4  25
HETATM   25  O   UNL     1      -9.091  12.535  66.350  1.00  0.00    -0.208 OA 
BRANCH  25  26
HETATM   26  C   UNL     1      -9.250  13.652  67.101  1.00  0.00    -0.244 C  
HETATM   27  O   UNL     1      -8.990  13.748  68.289  1.00  0.00    -0.181 OA 
HETATM   28  C   UNL     1      -9.727  14.781  66.227  1.00  0.00    -0.326 C  
ENDBRANCH  25  26
ENDBRANCH   4  25
TORSDOF 3
ENDMDL
MODEL       51
REMARK 921   NORMALIZED FREE ENERGY PREDICTED BY IDOCK:   -4.15 KCAL/MOL
REMARK 922        TOTAL FREE ENERGY PREDICTED BY IDOCK:   -4.26 KCAL/MOL
REMARK 923 INTER-LIGAND FREE ENERGY PREDICTED BY IDOCK:   -4.66 KCAL/MOL
REMARK 924 INTRA-LIGAND FREE ENERGY PREDICTED BY IDOCK:    0.40 KCAL/MOL
REMARK 927      BINDING AFFINITY PREDICTED BY RF-SCORE:    0.00 PKD
ROOT
HETATM    1  C   UNL     1      -8.046  10.572  69.278  1.00  0.00    -0.152 C  
HETATM    2  C   UNL     1      -6.874  10.633  70.083  1.00  0.00    -0.119 C  
HETATM    3  C   UNL     1      -6.817   9.813  68.846  1.00  0.00    -0.054 C  
HETATM    4  C   UNL     1      -8.436  10.074  67.600  1.00  0.00    -0.114 C  
HETATM    5  C   UNL     1     -10.319   6.201  68.541  1.00  0.00    -0.248 C  
HETATM    6  C   UNL     1      -9.130   6.357  69.519  1.00  0.00    -0.138 C  
HETATM    7  C   UNL     1      -7.151  10.540  67.534  1.00  0.00    -0.089 C  
HETATM    8  C   UNL     1      -6.635   8.867  66.923  1.00  0.00    -0.061 C  
HETATM    9  C   UNL     1      -8.221   5.067  69.367  1.00  0.00    -0.082 C  
HETATM   10  C   UNL     1      -8.138   4.145  70.575  1.00  0.00    -0.056 C  
HETATM   11  O   UNL     1     -10.096   3.047  71.437  1.00  0.00    -0.090 OA 
HETATM   12  C   UNL     1      -6.568  11.856  67.038  1.00  0.00    -0.128 C  
HETATM   13  C   UNL     1      -9.474   4.081  71.236  1.00  0.00    -0.163 C  
HETATM   14  C   UNL     1      -9.978   5.381  71.706  1.00  0.00    -0.235 C  
HETATM   15  C   UNL     1      -7.582   7.598  67.605  1.00  0.00    -0.109 C  
HETATM   16  C   UNL     1      -8.244   7.629  69.147  1.00  0.00    -0.130 C  
HETATM   17  C   UNL     1      -8.940   9.027  69.620  1.00  0.00    -0.153 C  
HETATM   18  C   UNL     1      -9.286   8.961  71.104  1.00  0.00    -0.324 C  
HETATM   19  C   UNL     1     -10.293   7.843  71.396  1.00  0.00    -0.234 C  
HETATM   20  C   UNL     1     -10.674   7.960  72.884  1.00  0.00    -0.440 C  
HETATM   21  C   UNL     1      -9.766   6.475  70.946  1.00  0.00    -0.190 C  
ENDROOT
BRANCH   4  22
HETATM   22  C   UNL     1      -8.747   9.892  66.021  1.00  0.00    -0.137 C  
HETATM   23  C   UNL     1      -9.785   8.878  65.583  1.00  0.00    -0.107 C  
HETATM   24  O   UNL     1      -8.263  10.585  65.114  1.00  0.00    -0.161 OA 
ENDBRANCH   4  22
BRANCH   4  25
HETATM   25  O   UNL     1      -9.144  11.483  67.500  1.00  0.00    -0.161 OA 
BRANCH  25  26
HETATM   26  C   UNL     1     -10.485  11.664  67.449  1.00  0.00    -0.210 C  
HETATM   27  O   UNL     1     -11.316  10.954  67.991  1.00  0.00    -0.291 OA 
HETATM   28  C   UNL     1     -10.794  12.922  66.681  1.00  0.00    -0.288 C  
ENDBRANCH  25  26
ENDBRANCH   4  25
TORSDOF 3
ENDMDL
MODEL       52
REMARK 921   NORMALIZED FREE ENERGY PREDICTED BY IDOCK:   -4.13 KCAL/MOL
REMARK 922        TOTAL FREE ENERGY PREDICTED BY IDOCK:   -4.24 KCAL/MOL
REMARK 923 INTER-LIGAND FREE ENERGY PREDICTED BY IDOCK:   -4.66 KCAL/MOL
REMARK 924 INTRA-LIGAND FREE ENERGY PREDICTED BY IDOCK:    0.42 KCAL/MOL
REMARK 927      BINDING AFFINITY PREDICTED BY RF-SCORE:    0.00 PKD
ROOT
HETATM    1  C   UNL     1      -7.088   6.424  67.071  1.00  0.00    -0.073 C  
HETATM    2  C   UNL     1      -6.034   7.294  67.468  1.00  0.00    -0.034 C  
HETATM    3  C   UNL     1      -6.420   6.209  68.406  1.00  0.00    -0.053 C  
HETATM    4  C   UNL     1      -7.703   4.821  67.587  1.00  0.00    -0.086 C  
HETATM    5  C   UNL     1     -11.275   6.216  69.762  1.00  0.00    -0.494 C  
HETATM    6  C   UNL     1     -10.156   7.243  70.057  1.00  0.00    -0.192 C  
HETATM    7  C   UNL     1      -6.361   4.778  67.849  1.00  0.00    -0.037 C  
HETATM    8  C   UNL     1      -6.774   4.478  69.631  1.00  0.00    -0.041 C  
HETATM    9  C   UNL     1     -10.028   7.363  71.633  1.00  0.00    -0.193 C  
HETATM   10  C   UNL     1     -10.406   8.703  72.247  1.00  0.00    -0.376 C  
HETATM   11  O   UNL     1     -12.636   9.579  72.046  1.00  0.00    -0.379 OA 
HETATM   12  C   UNL     1      -5.199   4.127  67.111  1.00  0.00    -0.012 C  
HETATM   13  C   UNL     1     -11.578   9.265  71.517  1.00  0.00    -0.382 C  
HETATM   14  C   UNL     1     -11.346   9.487  70.081  1.00  0.00    -0.241 C  
HETATM   15  C   UNL     1      -8.223   5.278  70.113  1.00  0.00    -0.091 C  
HETATM   16  C   UNL     1      -8.753   6.742  69.488  1.00  0.00    -0.133 C  
HETATM   17  C   UNL     1      -8.637   6.937  67.872  1.00  0.00    -0.122 C  
HETATM   18  C   UNL     1      -8.944   8.384  67.498  1.00  0.00    -0.142 C  
HETATM   19  C   UNL     1     -10.374   8.771  67.890  1.00  0.00    -0.281 C  
HETATM   20  C   UNL     1     -10.619  10.191  67.342  1.00  0.00    -0.329 C  
HETATM   21  C   UNL     1     -10.621   8.583  69.392  1.00  0.00    -0.203 C  
ENDROOT
BRANCH   4  22
HETATM   22  C   UNL     1      -8.089   3.272  67.858  1.00  0.00    -0.079 C  
HETATM   23  C   UNL     1      -9.513   2.918  68.236  1.00  0.00    -0.217 C  
HETATM   24  O   UNL     1      -7.325   2.308  67.698  1.00  0.00    -0.054 OA 
ENDBRANCH   4  22
BRANCH   4  25
HETATM   25  O   UNL     1      -7.600   4.448  66.055  1.00  0.00    -0.084 OA 
BRANCH  25  26
HETATM   26  C   UNL     1      -8.665   4.212  65.251  1.00  0.00    -0.122 C  
HETATM   27  O   UNL     1      -9.696   4.863  65.234  1.00  0.00    -0.131 OA 
HETATM   28  C   UNL     1      -8.352   3.066  64.327  1.00  0.00    -0.086 C  
ENDBRANCH  25  26
ENDBRANCH   4  25
TORSDOF 3
ENDMDL
MODEL       53
REMARK 921   NORMALIZED FREE ENERGY PREDICTED BY IDOCK:   -4.09 KCAL/MOL
REMARK 922        TOTAL FREE ENERGY PREDICTED BY IDOCK:   -4.20 KCAL/MOL
REMARK 923 INTER-LIGAND FREE ENERGY PREDICTED BY IDOCK:   -5.05 KCAL/MOL
REMARK 924 INTRA-LIGAND FREE ENERGY PREDICTED BY IDOCK:    0.85 KCAL/MOL
REMARK 927      BINDING AFFINITY PREDICTED BY RF-SCORE:    0.00 PKD
ROOT
HETATM    1  C   UNL     1      -8.451  14.008  68.505  1.00  0.00    -0.143 C  
HETATM    2  C   UNL     1      -7.114  14.210  68.061  1.00  0.00    -0.148 C  
HETATM    3  C   UNL     1      -8.182  14.170  67.030  1.00  0.00    -0.097 C  
HETATM    4  C   UNL     1     -10.089  14.218  67.807  1.00  0.00    -0.231 C  
HETATM    5  C   UNL     1     -10.965   9.967  67.032  1.00  0.00    -0.119 C  
HETATM    6  C   UNL     1      -9.467  10.171  66.704  1.00  0.00    -0.211 C  
HETATM    7  C   UNL     1      -9.328  15.180  67.201  1.00  0.00    -0.223 C  
HETATM    8  C   UNL     1      -9.743  14.402  65.569  1.00  0.00    -0.214 C  
HETATM    9  C   UNL     1      -9.234   9.654  65.223  1.00  0.00    -0.295 C  
HETATM   10  C   UNL     1      -8.346   8.429  65.061  1.00  0.00    -0.169 C  
HETATM   11  O   UNL     1      -8.950   6.316  66.038  1.00  0.00    -0.156 OA 
HETATM   12  C   UNL     1      -9.204  16.679  67.435  1.00  0.00    -0.216 C  
HETATM   13  C   UNL     1      -8.605   7.482  66.183  1.00  0.00    -0.149 C  
HETATM   14  C   UNL     1      -8.346   8.042  67.519  1.00  0.00    -0.123 C  
HETATM   15  C   UNL     1      -9.925  12.692  65.685  1.00  0.00    -0.253 C  
HETATM   16  C   UNL     1      -9.074  11.715  66.752  1.00  0.00    -0.186 C  
HETATM   17  C   UNL     1      -8.911  12.264  68.280  1.00  0.00    -0.182 C  
HETATM   18  C   UNL     1      -7.934  11.381  69.050  1.00  0.00    -0.026 C  
HETATM   19  C   UNL     1      -8.442   9.938  69.148  1.00  0.00    -0.148 C  
HETATM   20  C   UNL     1      -7.458   9.178  70.058  1.00  0.00    -0.077 C  
HETATM   21  C   UNL     1      -8.681   9.326  67.763  1.00  0.00    -0.120 C  
ENDROOT
BRANCH   4  22
HETATM   22  C   UNL     1     -11.559  14.660  67.291  1.00  0.00    -0.387 C  
HETATM   23  C   UNL     1     -12.521  13.599  66.796  1.00  0.00    -0.241 C  
HETATM   24  O   UNL     1     -12.017  15.812  67.344  1.00  0.00     0.206 OA 
ENDBRANCH   4  22
BRANCH   4  25
HETATM   25  O   UNL     1     -10.391  15.032  69.127  1.00  0.00    -0.234 OA 
BRANCH  25  26
HETATM   26  C   UNL     1     -11.270  14.645  70.082  1.00  0.00    -0.184 C  
HETATM   27  O   UNL     1     -11.690  13.510  70.238  1.00  0.00    -0.266 OA 
HETATM   28  C   UNL     1     -11.595  15.816  70.970  1.00  0.00    -0.453 C  
ENDBRANCH  25  26
ENDBRANCH   4  25
TORSDOF 3
ENDMDL
MODEL       54
REMARK 921   NORMALIZED FREE ENERGY PREDICTED BY IDOCK:   -3.98 KCAL/MOL
REMARK 922        TOTAL FREE ENERGY PREDICTED BY IDOCK:   -4.07 KCAL/MOL
REMARK 923 INTER-LIGAND FREE ENERGY PREDICTED BY IDOCK:   -4.50 KCAL/MOL
REMARK 924 INTRA-LIGAND FREE ENERGY PREDICTED BY IDOCK:    0.43 KCAL/MOL
REMARK 927      BINDING AFFINITY PREDICTED BY RF-SCORE:    0.00 PKD
ROOT
HETATM    1  C   UNL     1     -10.756   7.209  68.480  1.00  0.00    -0.191 C  
HETATM    2  C   UNL     1     -11.380   6.255  69.333  1.00  0.00    -0.448 C  
HETATM    3  C   UNL     1     -10.000   6.686  69.675  1.00  0.00    -0.191 C  
HETATM    4  C   UNL     1      -9.340   8.303  68.584  1.00  0.00    -0.143 C  
HETATM    5  C   UNL     1      -6.600   5.988  66.021  1.00  0.00    -0.048 C  
HETATM    6  C   UNL     1      -7.402   4.955  66.846  1.00  0.00    -0.085 C  
HETATM    7  C   UNL     1      -9.790   8.196  69.871  1.00  0.00    -0.186 C  
HETATM    8  C   UNL     1      -8.129   7.515  70.337  1.00  0.00    -0.111 C  
HETATM    9  C   UNL     1      -6.353   4.023  67.584  1.00  0.00    -0.037 C  
HETATM   10  C   UNL     1      -6.322   2.562  67.160  1.00  0.00    -0.032 C  
HETATM   11  O   UNL     1      -5.767   1.933  64.906  1.00  0.00    -0.012 OA 
HETATM   12  C   UNL     1     -10.614   9.132  70.744  1.00  0.00    -0.324 C  
HETATM   13  C   UNL     1      -6.539   2.474  65.687  1.00  0.00    -0.031 C  
HETATM   14  C   UNL     1      -7.818   3.039  65.230  1.00  0.00    -0.082 C  
HETATM   15  C   UNL     1      -7.421   6.587  69.068  1.00  0.00    -0.095 C  
HETATM   16  C   UNL     1      -8.289   5.674  67.960  1.00  0.00    -0.100 C  
HETATM   17  C   UNL     1      -9.631   6.358  67.334  1.00  0.00    -0.133 C  
HETATM   18  C   UNL     1     -10.415   5.326  66.529  1.00  0.00    -0.354 C  
HETATM   19  C   UNL     1      -9.595   4.797  65.347  1.00  0.00    -0.152 C  
HETATM   20  C   UNL     1     -10.526   3.880  64.531  1.00  0.00    -0.221 C  
HETATM   21  C   UNL     1      -8.275   4.168  65.810  1.00  0.00    -0.109 C  
ENDROOT
BRANCH   4  22
HETATM   22  C   UNL     1      -8.242   9.479  68.770  1.00  0.00    -0.112 C  
HETATM   23  C   UNL     1      -7.132   9.625  67.749  1.00  0.00    -0.081 C  
HETATM   24  O   UNL     1      -8.275  10.352  69.651  1.00  0.00    -0.155 OA 
ENDBRANCH   4  22
BRANCH   4  25
HETATM   25  O   UNL     1     -10.355   9.425  68.131  1.00  0.00    -0.191 OA 
BRANCH  25  26
HETATM   26  C   UNL     1     -10.406   9.955  66.885  1.00  0.00    -0.235 C  
HETATM   27  O   UNL     1     -10.062   9.387  65.861  1.00  0.00    -0.296 OA 
HETATM   28  C   UNL     1     -11.023  11.326  66.946  1.00  0.00    -0.348 C  
ENDBRANCH  25  26
ENDBRANCH   4  25
TORSDOF 3
ENDMDL
MODEL       55
REMARK 921   NORMALIZED FREE ENERGY PREDICTED BY IDOCK:   -3.93 KCAL/MOL
REMARK 922        TOTAL FREE ENERGY PREDICTED BY IDOCK:   -4.01 KCAL/MOL
REMARK 923 INTER-LIGAND FREE ENERGY PREDICTED BY IDOCK:   -4.43 KCAL/MOL
REMARK 924 INTRA-LIGAND FREE ENERGY PREDICTED BY IDOCK:    0.42 KCAL/MOL
REMARK 927      BINDING AFFINITY PREDICTED BY RF-SCORE:    0.00 PKD
ROOT
HETATM    1  C   UNL     1     -10.225  10.668  68.254  1.00  0.00    -0.187 C  
HETATM    2  C   UNL     1     -10.901  11.636  69.050  1.00  0.00    -0.247 C  
HETATM    3  C   UNL     1      -9.421  11.564  69.161  1.00  0.00     0.185 C  
HETATM    4  C   UNL     1      -8.536  10.380  67.728  1.00  0.00    -0.122 C  
HETATM    5  C   UNL     1      -7.616   7.038  70.452  1.00  0.00    -0.090 C  
HETATM    6  C   UNL     1      -8.487   8.031  71.257  1.00  0.00    -0.138 C  
HETATM    7  C   UNL     1      -8.633  11.739  67.854  1.00  0.00    -0.156 C  
HETATM    8  C   UNL     1      -7.274  11.663  69.113  1.00  0.00    -0.064 C  
HETATM    9  C   UNL     1      -7.692   8.390  72.582  1.00  0.00    -0.136 C  
HETATM   10  C   UNL     1      -8.309   7.927  73.894  1.00  0.00    -0.300 C  
HETATM   11  O   UNL     1      -8.645   5.590  74.354  1.00  0.00    -0.115 OA 
HETATM   12  C   UNL     1      -8.794  12.849  66.825  1.00  0.00    -0.152 C  
HETATM   13  C   UNL     1      -8.928   6.584  73.698  1.00  0.00    -0.126 C  
HETATM   14  C   UNL     1      -9.987   6.550  72.677  1.00  0.00    -0.185 C  
HETATM   15  C   UNL     1      -7.317  10.210  70.040  1.00  0.00    -0.172 C  
HETATM   16  C   UNL     1      -8.720   9.382  70.444  1.00  0.00    -0.278 C  
HETATM   17  C   UNL     1      -9.837   9.210  69.267  1.00  0.00    -0.175 C  
HETATM   18  C   UNL     1     -11.127   8.643  69.851  1.00  0.00    -0.119 C  
HETATM   19  C   UNL     1     -10.902   7.252  70.458  1.00  0.00    -0.262 C  
HETATM   20  C   UNL     1     -12.285   6.722  70.884  1.00  0.00    -0.386 C  
HETATM   21  C   UNL     1      -9.829   7.278  71.552  1.00  0.00    -0.182 C  
ENDROOT
BRANCH   4  22
HETATM   22  C   UNL     1      -7.080  10.269  67.029  1.00  0.00    -0.090 C  
HETATM   23  C   UNL     1      -6.273   8.996  67.194  1.00  0.00    -0.059 C  
HETATM   24  O   UNL     1      -6.583  11.120  66.276  1.00  0.00    -0.126 OA 
ENDBRANCH   4  22
BRANCH   4  25
HETATM   25  O   UNL     1      -9.155  10.289  66.277  1.00  0.00    -0.149 OA 
BRANCH  25  26
HETATM   26  C   UNL     1      -9.225   9.152  65.544  1.00  0.00    -0.224 C  
HETATM   27  O   UNL     1      -9.396   8.031  65.992  1.00  0.00    -0.171 OA 
HETATM   28  C   UNL     1      -9.135   9.492  64.080  1.00  0.00    -0.203 C  
ENDBRANCH  25  26
ENDBRANCH   4  25
TORSDOF 3
ENDMDL
MODEL       56
REMARK 921   NORMALIZED FREE ENERGY PREDICTED BY IDOCK:   -3.84 KCAL/MOL
REMARK 922        TOTAL FREE ENERGY PREDICTED BY IDOCK:   -3.90 KCAL/MOL
REMARK 923 INTER-LIGAND FREE ENERGY PREDICTED BY IDOCK:   -4.51 KCAL/MOL
REMARK 924 INTRA-LIGAND FREE ENERGY PREDICTED BY IDOCK:    0.61 KCAL/MOL
REMARK 927      BINDING AFFINITY PREDICTED BY RF-SCORE:    0.00 PKD
ROOT
HETATM    1  C   UNL     1     -10.549   9.942  67.529  1.00  0.00    -0.333 C  
HETATM    2  C   UNL     1     -11.378   9.738  68.668  1.00  0.00     0.024 C  
HETATM    3  C   UNL     1      -9.959  10.108  68.907  1.00  0.00    -0.207 C  
HETATM    4  C   UNL     1      -8.961  10.708  67.209  1.00  0.00    -0.136 C  
HETATM    5  C   UNL     1      -6.585   7.018  66.794  1.00  0.00    -0.055 C  
HETATM    6  C   UNL     1      -7.602   6.756  67.928  1.00  0.00    -0.107 C  
HETATM    7  C   UNL     1      -9.481  11.416  68.257  1.00  0.00    -0.187 C  
HETATM    8  C   UNL     1      -7.999  10.921  69.256  1.00  0.00    -0.076 C  
HETATM    9  C   UNL     1      -6.780   6.291  69.202  1.00  0.00    -0.056 C  
HETATM   10  C   UNL     1      -7.002   4.861  69.672  1.00  0.00    -0.053 C  
HETATM   11  O   UNL     1      -6.472   2.990  68.258  1.00  0.00    -0.035 OA 
HETATM   12  C   UNL     1     -10.155  12.779  68.333  1.00  0.00    -0.226 C  
HETATM   13  C   UNL     1      -7.164   3.973  68.485  1.00  0.00    -0.055 C  
HETATM   14  C   UNL     1      -8.294   4.332  67.612  1.00  0.00    -0.098 C  
HETATM   15  C   UNL     1      -7.418   9.353  68.836  1.00  0.00    -0.074 C  
HETATM   16  C   UNL     1      -8.389   8.088  68.312  1.00  0.00    -0.123 C  
HETATM   17  C   UNL     1      -9.551   8.454  67.227  1.00  0.00    -0.215 C  
HETATM   18  C   UNL     1     -10.476   7.257  67.029  1.00  0.00    -0.398 C  
HETATM   19  C   UNL     1      -9.715   6.047  66.475  1.00  0.00    -0.183 C  
HETATM   20  C   UNL     1     -10.762   4.955  66.183  1.00  0.00    -0.243 C  
HETATM   21  C   UNL     1      -8.558   5.636  67.393  1.00  0.00    -0.109 C  
ENDROOT
BRANCH   4  22
HETATM   22  C   UNL     1      -7.673  11.628  66.865  1.00  0.00    -0.147 C  
HETATM   23  C   UNL     1      -6.519  11.027  66.087  1.00  0.00    -0.082 C  
HETATM   24  O   UNL     1      -7.576  12.840  67.111  1.00  0.00    -0.132 OA 
ENDBRANCH   4  22
BRANCH   4  25
HETATM   25  O   UNL     1      -9.727  11.486  66.068  1.00  0.00    -0.212 OA 
BRANCH  25  26
HETATM   26  C   UNL     1      -9.791  11.083  64.776  1.00  0.00    -0.276 C  
HETATM   27  O   UNL     1      -9.437   9.994  64.356  1.00  0.00    -0.277 OA 
HETATM   28  C   UNL     1     -10.438  12.159  63.946  1.00  0.00    -0.442 C  
ENDBRANCH  25  26
ENDBRANCH   4  25
TORSDOF 3
ENDMDL
MODEL       57
REMARK 921   NORMALIZED FREE ENERGY PREDICTED BY IDOCK:   -3.80 KCAL/MOL
REMARK 922        TOTAL FREE ENERGY PREDICTED BY IDOCK:   -3.86 KCAL/MOL
REMARK 923 INTER-LIGAND FREE ENERGY PREDICTED BY IDOCK:   -4.35 KCAL/MOL
REMARK 924 INTRA-LIGAND FREE ENERGY PREDICTED BY IDOCK:    0.49 KCAL/MOL
REMARK 927      BINDING AFFINITY PREDICTED BY RF-SCORE:    0.00 PKD
ROOT
HETATM    1  C   UNL     1      -7.254  10.896  68.239  1.00  0.00    -0.084 C  
HETATM    2  C   UNL     1      -6.527  11.170  69.432  1.00  0.00    -0.100 C  
HETATM    3  C   UNL     1      -7.687  10.246  69.529  1.00  0.00    -0.167 C  
HETATM    4  C   UNL     1      -8.438   9.662  67.703  1.00  0.00    -0.125 C  
HETATM    5  C   UNL     1     -12.059  12.167  67.918  1.00  0.00    -0.027 C  
HETATM    6  C   UNL     1     -11.181  12.566  69.127  1.00  0.00    -0.297 C  
HETATM    7  C   UNL     1      -7.650   9.013  68.614  1.00  0.00    -0.092 C  
HETATM    8  C   UNL     1      -9.172   8.695  69.624  1.00  0.00    -0.157 C  
HETATM    9  C   UNL     1     -12.073  12.418  70.429  1.00  0.00    -0.381 C  
HETATM   10  C   UNL     1     -12.400  13.699  71.181  1.00  0.00    -0.403 C  
HETATM   11  O   UNL     1     -13.655  15.467  70.141  1.00  0.00     0.078 OA 
HETATM   12  C   UNL     1      -6.503   8.025  68.449  1.00  0.00    -0.058 C  
HETATM   13  C   UNL     1     -12.632  14.799  70.201  1.00  0.00    -0.271 C  
HETATM   14  C   UNL     1     -11.482  15.081  69.326  1.00  0.00    -0.326 C  
HETATM   15  C   UNL     1     -10.324   9.971  69.495  1.00  0.00    -0.256 C  
HETATM   16  C   UNL     1      -9.930  11.588  69.275  1.00  0.00     0.154 C  
HETATM   17  C   UNL     1      -8.756  11.918  68.192  1.00  0.00    -0.173 C  
HETATM   18  C   UNL     1      -8.367  13.390  68.276  1.00  0.00    -0.160 C  
HETATM   19  C   UNL     1      -9.553  14.302  67.938  1.00  0.00    -0.221 C  
HETATM   20  C   UNL     1      -9.015  15.746  67.914  1.00  0.00    -0.180 C  
HETATM   21  C   UNL     1     -10.746  14.048  68.866  1.00  0.00    -0.265 C  
ENDROOT
BRANCH   4  22
HETATM   22  C   UNL     1      -9.286   8.408  67.127  1.00  0.00    -0.153 C  
HETATM   23  C   UNL     1     -10.726   8.619  66.705  1.00  0.00    -0.086 C  
HETATM   24  O   UNL     1      -8.828   7.275  66.912  1.00  0.00    -0.124 OA 
ENDBRANCH   4  22
BRANCH   4  25
HETATM   25  O   UNL     1      -7.473   9.479  66.467  1.00  0.00    -0.092 OA 
BRANCH  25  26
HETATM   26  C   UNL     1      -7.770   9.858  65.200  1.00  0.00    -0.131 C  
HETATM   27  O   UNL     1      -8.546  10.747  64.892  1.00  0.00    -0.168 OA 
HETATM   28  C   UNL     1      -6.938   9.063  64.230  1.00  0.00    -0.090 C  
ENDBRANCH  25  26
ENDBRANCH   4  25
TORSDOF 3
ENDMDL
MODEL       58
REMARK 921   NORMALIZED FREE ENERGY PREDICTED BY IDOCK:   -3.77 KCAL/MOL
REMARK 922        TOTAL FREE ENERGY PREDICTED BY IDOCK:   -3.82 KCAL/MOL
REMARK 923 INTER-LIGAND FREE ENERGY PREDICTED BY IDOCK:   -4.57 KCAL/MOL
REMARK 924 INTRA-LIGAND FREE ENERGY PREDICTED BY IDOCK:    0.75 KCAL/MOL
REMARK 927      BINDING AFFINITY PREDICTED BY RF-SCORE:    0.00 PKD
ROOT
HETATM    1  C   UNL     1      -9.716   9.693  68.017  1.00  0.00    -0.167 C  
HETATM    2  C   UNL     1     -10.882  10.076  67.295  1.00  0.00    -0.284 C  
HETATM    3  C   UNL     1     -10.997   8.926  68.228  1.00  0.00     0.063 C  
HETATM    4  C   UNL     1      -9.362   8.685  69.456  1.00  0.00    -0.153 C  
HETATM    5  C   UNL     1      -7.767   5.158  67.346  1.00  0.00    -0.092 C  
HETATM    6  C   UNL     1      -8.942   5.685  66.489  1.00  0.00    -0.126 C  
HETATM    7  C   UNL     1     -10.609   9.196  69.690  1.00  0.00    -0.237 C  
HETATM    8  C   UNL     1     -11.246   7.456  69.778  1.00  0.00    -0.110 C  
HETATM    9  C   UNL     1      -9.943   4.476  66.265  1.00  0.00    -0.268 C  
HETATM   10  C   UNL     1     -10.093   3.971  64.838  1.00  0.00    -0.214 C  
HETATM   11  O   UNL     1      -8.221   3.053  63.639  1.00  0.00    -0.084 OA 
HETATM   12  C   UNL     1     -11.094  10.337  70.573  1.00  0.00    -0.381 C  
HETATM   13  C   UNL     1      -8.767   4.018  64.158  1.00  0.00    -0.116 C  
HETATM   14  C   UNL     1      -8.170   5.362  64.090  1.00  0.00    -0.127 C  
HETATM   15  C   UNL     1     -10.393   6.392  68.724  1.00  0.00    -0.232 C  
HETATM   16  C   UNL     1      -9.733   6.842  67.248  1.00  0.00    -0.184 C  
HETATM   17  C   UNL     1      -8.937   8.266  67.204  1.00  0.00    -0.154 C  
HETATM   18  C   UNL     1      -8.600   8.630  65.761  1.00  0.00    -0.184 C  
HETATM   19  C   UNL     1      -7.677   7.586  65.122  1.00  0.00    -0.111 C  
HETATM   20  C   UNL     1      -7.290   8.122  63.731  1.00  0.00    -0.101 C  
HETATM   21  C   UNL     1      -8.301   6.186  65.150  1.00  0.00    -0.129 C  
ENDROOT
BRANCH   4  22
HETATM   22  C   UNL     1      -9.063   8.012  70.899  1.00  0.00    -0.148 C  
HETATM   23  C   UNL     1      -8.087   6.855  70.989  1.00  0.00    -0.106 C  
HETATM   24  O   UNL     1      -9.506   8.422  71.983  1.00  0.00    -0.214 OA 
ENDBRANCH   4  22
BRANCH   4  25
HETATM   25  O   UNL     1      -8.553   9.945  69.961  1.00  0.00    -0.203 OA 
BRANCH  25  26
HETATM   26  C   UNL     1      -7.222   9.950  70.213  1.00  0.00    -0.154 C  
HETATM   27  O   UNL     1      -6.709  10.147  71.302  1.00  0.00    -0.308 OA 
HETATM   28  C   UNL     1      -6.472   9.602  68.955  1.00  0.00    -0.045 C  
ENDBRANCH  25  26
ENDBRANCH   4  25
TORSDOF 3
ENDMDL
MODEL       59
REMARK 921   NORMALIZED FREE ENERGY PREDICTED BY IDOCK:   -3.75 KCAL/MOL
REMARK 922        TOTAL FREE ENERGY PREDICTED BY IDOCK:   -3.80 KCAL/MOL
REMARK 923 INTER-LIGAND FREE ENERGY PREDICTED BY IDOCK:   -4.22 KCAL/MOL
REMARK 924 INTRA-LIGAND FREE ENERGY PREDICTED BY IDOCK:    0.42 KCAL/MOL
REMARK 927      BINDING AFFINITY PREDICTED BY RF-SCORE:    0.00 PKD
ROOT
HETATM    1  C   UNL     1      -8.965   8.052  70.095  1.00  0.00    -0.150 C  
HETATM    2  C   UNL     1      -9.841   8.679  71.025  1.00  0.00    -0.267 C  
HETATM    3  C   UNL     1     -10.194   8.760  69.584  1.00  0.00    -0.210 C  
HETATM    4  C   UNL     1      -9.054   7.539  68.380  1.00  0.00    -0.133 C  
HETATM    5  C   UNL     1      -6.637  10.794  66.649  1.00  0.00    -0.112 C  
HETATM    6  C   UNL     1      -7.486  11.431  67.774  1.00  0.00    -0.100 C  
HETATM    7  C   UNL     1     -10.336   7.421  68.844  1.00  0.00    -0.214 C  
HETATM    8  C   UNL     1     -10.860   8.634  67.544  1.00  0.00    -0.087 C  
HETATM    9  C   UNL     1      -8.280  12.647  67.135  1.00  0.00    -0.159 C  
HETATM   10  C   UNL     1      -7.912  14.037  67.632  1.00  0.00    -0.186 C  
HETATM   11  O   UNL     1      -5.696  14.920  67.332  1.00  0.00    -0.342 OA 
HETATM   12  C   UNL     1     -11.156   6.214  69.278  1.00  0.00    -0.463 C  
HETATM   13  C   UNL     1      -6.440  14.104  67.860  1.00  0.00    -0.165 C  
HETATM   14  C   UNL     1      -5.936  13.136  68.847  1.00  0.00    -0.079 C  
HETATM   15  C   UNL     1      -9.642   9.808  67.212  1.00  0.00    -0.194 C  
HETATM   16  C   UNL     1      -8.553  10.395  68.346  1.00  0.00    -0.128 C  
HETATM   17  C   UNL     1      -7.875   9.300  69.348  1.00  0.00    -0.083 C  
HETATM   18  C   UNL     1      -7.095  10.013  70.448  1.00  0.00    -0.131 C  
HETATM   19  C   UNL     1      -5.951  10.853  69.869  1.00  0.00    -0.089 C  
HETATM   20  C   UNL     1      -5.152  11.407  71.065  1.00  0.00    -0.122 C  
HETATM   21  C   UNL     1      -6.464  11.894  68.867  1.00  0.00    -0.082 C  
ENDROOT
BRANCH   4  22
HETATM   22  C   UNL     1      -9.217   6.830  66.933  1.00  0.00    -0.144 C  
HETATM   23  C   UNL     1      -8.270   7.209  65.812  1.00  0.00    -0.132 C  
HETATM   24  O   UNL     1     -10.014   5.917  66.671  1.00  0.00    -0.158 OA 
ENDBRANCH   4  22
BRANCH   4  25
HETATM   25  O   UNL     1      -8.539   6.146  68.919  1.00  0.00    -0.120 OA 
BRANCH  25  26
HETATM   26  C   UNL     1      -7.298   5.650  68.695  1.00  0.00    -0.079 C  
HETATM   27  O   UNL     1      -6.258   6.281  68.783  1.00  0.00    -0.033 OA 
HETATM   28  C   UNL     1      -7.392   4.178  68.395  1.00  0.00    -0.059 C  
ENDBRANCH  25  26
ENDBRANCH   4  25
TORSDOF 3
ENDMDL
MODEL       60
REMARK 921   NORMALIZED FREE ENERGY PREDICTED BY IDOCK:   -3.71 KCAL/MOL
REMARK 922        TOTAL FREE ENERGY PREDICTED BY IDOCK:   -3.75 KCAL/MOL
REMARK 923 INTER-LIGAND FREE ENERGY PREDICTED BY IDOCK:   -5.09 KCAL/MOL
REMARK 924 INTRA-LIGAND FREE ENERGY PREDICTED BY IDOCK:    1.33 KCAL/MOL
REMARK 927      BINDING AFFINITY PREDICTED BY RF-SCORE:    0.00 PKD
ROOT
HETATM    1  C   UNL     1      -9.432  13.350  68.138  1.00  0.00    -0.218 C  
HETATM    2  C   UNL     1      -8.262  14.160  68.173  1.00  0.00    -0.149 C  
HETATM    3  C   UNL     1      -8.877  13.898  66.847  1.00  0.00    -0.210 C  
HETATM    4  C   UNL     1     -10.734  13.015  66.953  1.00  0.00    -0.262 C  
HETATM    5  C   UNL     1      -9.374   9.021  65.674  1.00  0.00    -0.289 C  
HETATM    6  C   UNL     1      -8.099   9.874  65.871  1.00  0.00    -0.121 C  
HETATM    7  C   UNL     1     -10.352  14.302  66.691  1.00  0.00    -0.279 C  
HETATM    8  C   UNL     1      -9.918  13.765  64.970  1.00  0.00    -0.211 C  
HETATM    9  C   UNL     1      -7.269   9.802  64.522  1.00  0.00    -0.128 C  
HETATM   10  C   UNL     1      -5.920   9.100  64.587  1.00  0.00    -0.065 C  
HETATM   11  O   UNL     1      -5.756   6.775  65.180  1.00  0.00    -0.029 OA 
HETATM   12  C   UNL     1     -10.979  15.644  67.044  1.00  0.00    -0.261 C  
HETATM   13  C   UNL     1      -6.022   7.926  65.501  1.00  0.00    -0.038 C  
HETATM   14  C   UNL     1      -6.411   8.264  66.879  1.00  0.00    -0.056 C  
HETATM   15  C   UNL     1      -9.340  12.142  64.914  1.00  0.00     0.243 C  
HETATM   16  C   UNL     1      -8.466  11.402  66.141  1.00  0.00    -0.105 C  
HETATM   17  C   UNL     1      -8.984  11.652  67.667  1.00  0.00    -0.166 C  
HETATM   18  C   UNL     1      -7.964  11.106  68.661  1.00  0.00    -0.145 C  
HETATM   19  C   UNL     1      -7.779   9.593  68.498  1.00  0.00    -0.081 C  
HETATM   20  C   UNL     1      -6.846   9.131  69.633  1.00  0.00    -0.054 C  
HETATM   21  C   UNL     1      -7.336   9.226  67.077  1.00  0.00    -0.091 C  
ENDROOT
BRANCH   4  22
HETATM   22  C   UNL     1     -12.047  12.918  66.008  1.00  0.00    -0.422 C  
HETATM   23  C   UNL     1     -12.859  14.169  65.738  1.00  0.00    -0.363 C  
HETATM   24  O   UNL     1     -12.412  11.903  65.396  1.00  0.00    -0.285 OA 
ENDBRANCH   4  22
BRANCH   4  25
HETATM   25  O   UNL     1     -11.712  13.356  68.146  1.00  0.00    -0.320 OA 
BRANCH  25  26
HETATM   26  C   UNL     1     -12.138  12.459  69.067  1.00  0.00    -0.136 C  
HETATM   27  O   UNL     1     -12.273  11.262  68.879  1.00  0.00    -0.494 OA 
HETATM   28  C   UNL     1     -12.350  13.155  70.385  1.00  0.00    -0.351 C  
ENDBRANCH  25  26
ENDBRANCH   4  25
TORSDOF 3
ENDMDL
MODEL       61
REMARK 921   NORMALIZED FREE ENERGY PREDICTED BY IDOCK:   -3.69 KCAL/MOL
REMARK 922        TOTAL FREE ENERGY PREDICTED BY IDOCK:   -3.72 KCAL/MOL
REMARK 923 INTER-LIGAND FREE ENERGY PREDICTED BY IDOCK:   -4.45 KCAL/MOL
REMARK 924 INTRA-LIGAND FREE ENERGY PREDICTED BY IDOCK:    0.73 KCAL/MOL
REMARK 927      BINDING AFFINITY PREDICTED BY RF-SCORE:    0.00 PKD
ROOT
HETATM    1  C   UNL     1      -8.713  16.406  69.454  1.00  0.00     0.011 C  
HETATM    2  C   UNL     1      -7.726  15.973  70.384  1.00  0.00     1.582 C  
HETATM    3  C   UNL     1      -7.792  15.273  69.076  1.00  0.00    -0.184 C  
HETATM    4  C   UNL     1      -9.010  16.200  67.698  1.00  0.00    -0.191 C  
HETATM    5  C   UNL     1     -12.279  13.256  67.981  1.00  0.00    -0.118 C  
HETATM    6  C   UNL     1     -11.268  12.894  69.094  1.00  0.00    -0.293 C  
HETATM    7  C   UNL     1      -7.649  16.156  67.826  1.00  0.00    -0.154 C  
HETATM    8  C   UNL     1      -7.689  14.455  67.090  1.00  0.00    -0.065 C  
HETATM    9  C   UNL     1     -10.874  11.371  68.897  1.00  0.00    -0.259 C  
HETATM   10  C   UNL     1     -11.305  10.408  69.994  1.00  0.00    -0.384 C  
HETATM   11  O   UNL     1     -13.630  10.065  70.506  1.00  0.00    -0.104 OA 
HETATM   12  C   UNL     1      -6.565  17.189  67.550  1.00  0.00    -0.161 C  
HETATM   13  C   UNL     1     -12.653  10.804  70.493  1.00  0.00    -0.336 C  
HETATM   14  C   UNL     1     -12.716  12.164  71.051  1.00  0.00    -0.322 C  
HETATM   15  C   UNL     1      -9.118  13.590  67.515  1.00  0.00    -0.214 C  
HETATM   16  C   UNL     1      -9.939  13.765  68.969  1.00  0.00     0.052 C  
HETATM   17  C   UNL     1     -10.144  15.287  69.518  1.00  0.00    -0.261 C  
HETATM   18  C   UNL     1     -10.698  15.259  70.939  1.00  0.00    -0.126 C  
HETATM   19  C   UNL     1     -12.072  14.580  70.989  1.00  0.00    -0.409 C  
HETATM   20  C   UNL     1     -12.595  14.734  72.430  1.00  0.00    -0.421 C  
HETATM   21  C   UNL     1     -12.017  13.147  70.447  1.00  0.00    -0.343 C  
ENDROOT
BRANCH   4  22
HETATM   22  C   UNL     1      -9.136  16.250  66.084  1.00  0.00    -0.341 C  
HETATM   23  C   UNL     1     -10.276  15.517  65.407  1.00  0.00    -0.409 C  
HETATM   24  O   UNL     1      -8.414  16.923  65.333  1.00  0.00     0.076 OA 
ENDBRANCH   4  22
BRANCH   4  25
HETATM   25  O   UNL     1      -9.139  17.774  67.681  1.00  0.00    -0.242 OA 
BRANCH  25  26
HETATM   26  C   UNL     1     -10.312  18.448  67.755  1.00  0.00    -0.405 C  
HETATM   27  O   UNL     1     -11.400  18.012  67.416  1.00  0.00     0.139 OA 
HETATM   28  C   UNL     1     -10.081  19.793  68.389  1.00  0.00    -0.568 C  
ENDBRANCH  25  26
ENDBRANCH   4  25
TORSDOF 3
ENDMDL
MODEL       62
REMARK 921   NORMALIZED FREE ENERGY PREDICTED BY IDOCK:   -3.68 KCAL/MOL
REMARK 922        TOTAL FREE ENERGY PREDICTED BY IDOCK:   -3.72 KCAL/MOL
REMARK 923 INTER-LIGAND FREE ENERGY PREDICTED BY IDOCK:   -4.20 KCAL/MOL
REMARK 924 INTRA-LIGAND FREE ENERGY PREDICTED BY IDOCK:    0.48 KCAL/MOL
REMARK 927      BINDING AFFINITY PREDICTED BY RF-SCORE:    0.00 PKD
ROOT
HETATM    1  C   UNL     1     -11.511  15.836  68.041  1.00  0.00    -0.264 C  
HETATM    2  C   UNL     1     -12.362  15.314  69.055  1.00  0.00    -0.049 C  
HETATM    3  C   UNL     1     -10.896  15.202  69.263  1.00  0.00    -0.255 C  
HETATM    4  C   UNL     1      -9.780  16.286  67.913  1.00  0.00    -0.233 C  
HETATM    5  C   UNL     1      -8.417  12.793  65.594  1.00  0.00     1.468 C  
HETATM    6  C   UNL     1      -9.466  12.266  66.601  1.00  0.00    -0.227 C  
HETATM    7  C   UNL     1     -10.103  16.518  69.223  1.00  0.00    -0.270 C  
HETATM    8  C   UNL     1      -8.793  15.297  69.704  1.00  0.00    -0.110 C  
HETATM    9  C   UNL     1      -8.787  11.089  67.419  1.00  0.00    -0.138 C  
HETATM   10  C   UNL     1      -9.363   9.696  67.215  1.00  0.00    -0.163 C  
HETATM   11  O   UNL     1      -9.326   8.638  65.055  1.00  0.00     0.060 OA 
HETATM   12  C   UNL     1     -10.409  17.799  69.985  1.00  0.00     0.847 C  
HETATM   13  C   UNL     1      -9.747   9.528  65.784  1.00  0.00    -0.287 C  
HETATM   14  C   UNL     1     -10.750  10.494  65.309  1.00  0.00    -0.019 C  
HETATM   15  C   UNL     1      -8.629  14.023  68.554  1.00  0.00    -0.147 C  
HETATM   16  C   UNL     1      -9.890  13.402  67.637  1.00  0.00    -0.226 C  
HETATM   17  C   UNL     1     -10.922  14.482  66.981  1.00  0.00    -0.312 C  
HETATM   18  C   UNL     1     -12.121  13.756  66.377  1.00  0.00    -0.483 C  
HETATM   19  C   UNL     1     -11.692  12.811  65.250  1.00  0.00    -0.403 C  
HETATM   20  C   UNL     1     -12.983  12.246  64.624  1.00  0.00     0.015 C  
HETATM   21  C   UNL     1     -10.676  11.772  65.737  1.00  0.00    -0.328 C  
ENDROOT
BRANCH   4  22
HETATM   22  C   UNL     1      -8.302  16.947  67.870  1.00  0.00    -0.198 C  
HETATM   23  C   UNL     1      -7.316  16.487  66.816  1.00  0.00    -0.274 C  
HETATM   24  O   UNL     1      -7.918  17.884  68.587  1.00  0.00    -0.290 OA 
ENDBRANCH   4  22
BRANCH   4  25
HETATM   25  O   UNL     1     -10.326  17.656  67.348  1.00  0.00    -0.335 OA 
BRANCH  25  26
HETATM   26  C   UNL     1     -10.380  17.975  66.032  1.00  0.00    -0.331 C  
HETATM   27  O   UNL     1     -10.438  17.176  65.113  1.00  0.00    -0.666 OA 
HETATM   28  C   UNL     1     -10.433  19.472  65.880  1.00  0.00    -0.585 C  
ENDBRANCH  25  26
ENDBRANCH   4  25
TORSDOF 3
ENDMDL
MODEL       63
REMARK 921   NORMALIZED FREE ENERGY PREDICTED BY IDOCK:   -3.63 KCAL/MOL
REMARK 922        TOTAL FREE ENERGY PREDICTED BY IDOCK:   -3.66 KCAL/MOL
REMARK 923 INTER-LIGAND FREE ENERGY PREDICTED BY IDOCK:   -4.67 KCAL/MOL
REMARK 924 INTRA-LIGAND FREE ENERGY PREDICTED BY IDOCK:    1.01 KCAL/MOL
REMARK 927      BINDING AFFINITY PREDICTED BY RF-SCORE:    0.00 PKD
ROOT
HETATM    1  C   UNL     1     -12.417  13.352  66.459  1.00  0.00    -0.255 C  
HETATM    2  C   UNL     1     -13.321  14.306  65.912  1.00  0.00     0.812 C  
HETATM    3  C   UNL     1     -12.087  14.008  65.142  1.00  0.00    -0.418 C  
HETATM    4  C   UNL     1     -11.038  12.382  65.848  1.00  0.00    -0.313 C  
HETATM    5  C   UNL     1      -7.788  14.737  67.671  1.00  0.00    -0.191 C  
HETATM    6  C   UNL     1      -8.859  15.754  67.211  1.00  0.00    -0.212 C  
HETATM    7  C   UNL     1     -11.860  12.535  64.765  1.00  0.00    -0.440 C  
HETATM    8  C   UNL     1     -10.458  13.374  63.888  1.00  0.00     0.173 C  
HETATM    9  C   UNL     1      -8.135  16.812  66.277  1.00  0.00    -0.365 C  
HETATM   10  C   UNL     1      -8.060  18.240  66.796  1.00  0.00    -0.268 C  
HETATM   11  O   UNL     1      -6.889  18.766  68.829  1.00  0.00    -0.265 OA 
HETATM   12  C   UNL     1     -12.855  11.594  64.099  1.00  0.00     0.122 C  
HETATM   13  C   UNL     1      -7.828  18.217  68.269  1.00  0.00    -0.293 C  
HETATM   14  C   UNL     1      -8.876  17.524  69.034  1.00  0.00    -0.033 C  
HETATM   15  C   UNL     1      -9.454  14.271  64.964  1.00  0.00     0.663 C  
HETATM   16  C   UNL     1      -9.997  15.041  66.353  1.00  0.00    -0.295 C  
HETATM   17  C   UNL     1     -11.048  14.214  67.288  1.00  0.00    -0.315 C  
HETATM   18  C   UNL     1     -11.611  15.126  68.373  1.00  0.00    -0.356 C  
HETATM   19  C   UNL     1     -10.504  15.643  69.299  1.00  0.00    -0.247 C  
HETATM   20  C   UNL     1     -11.196  16.429  70.429  1.00  0.00    -0.253 C  
HETATM   21  C   UNL     1      -9.422  16.402  68.522  1.00  0.00    -0.227 C  
ENDROOT
BRANCH   4  22
HETATM   22  C   UNL     1      -9.983  11.310  65.246  1.00  0.00    -0.253 C  
HETATM   23  C   UNL     1      -8.612  11.185  65.879  1.00  0.00    -0.135 C  
HETATM   24  O   UNL     1     -10.230  10.497  64.342  1.00  0.00    -0.346 OA 
ENDBRANCH   4  22
BRANCH   4  25
HETATM   25  O   UNL     1     -11.805  11.156  66.484  1.00  0.00    -0.135 OA 
BRANCH  25  26
HETATM   26  C   UNL     1     -11.405  10.497  67.598  1.00  0.00    -0.154 C  
HETATM   27  O   UNL     1     -10.714   9.491  67.615  1.00  0.00    -0.274 OA 
HETATM   28  C   UNL     1     -11.881  11.237  68.819  1.00  0.00    -0.396 C  
ENDBRANCH  25  26
ENDBRANCH   4  25
TORSDOF 3
ENDMDL
MODEL       64
REMARK 921   NORMALIZED FREE ENERGY PREDICTED BY IDOCK:   -3.62 KCAL/MOL
REMARK 922        TOTAL FREE ENERGY PREDICTED BY IDOCK:   -3.64 KCAL/MOL
REMARK 923 INTER-LIGAND FREE ENERGY PREDICTED BY IDOCK:   -4.23 KCAL/MOL
REMARK 924 INTRA-LIGAND FREE ENERGY PREDICTED BY IDOCK:    0.59 KCAL/MOL
REMARK 927      BINDING AFFINITY PREDICTED BY RF-SCORE:    0.00 PKD
ROOT
HETATM    1  C   UNL     1      -9.871   4.783  70.515  1.00  0.00    -0.301 C  
HETATM    2  C   UNL     1      -9.286   3.488  70.581  1.00  0.00    -0.207 C  
HETATM    3  C   UNL     1      -8.409   4.654  70.862  1.00  0.00    -0.097 C  
HETATM    4  C   UNL     1      -9.431   6.429  71.074  1.00  0.00    -0.171 C  
HETATM    5  C   UNL     1      -8.211   8.084  67.174  1.00  0.00    -0.117 C  
HETATM    6  C   UNL     1      -7.718   6.618  67.200  1.00  0.00    -0.100 C  
HETATM    7  C   UNL     1      -8.865   5.589  71.993  1.00  0.00    -0.137 C  
HETATM    8  C   UNL     1      -7.213   6.304  71.548  1.00  0.00    -0.083 C  
HETATM    9  C   UNL     1      -6.163   6.638  66.889  1.00  0.00    -0.040 C  
HETATM   10  C   UNL     1      -5.720   5.990  65.585  1.00  0.00    -0.024 C  
HETATM   11  O   UNL     1      -6.474   6.829  63.461  1.00  0.00    -0.041 OA 
HETATM   12  C   UNL     1      -9.281   5.190  73.402  1.00  0.00    -0.130 C  
HETATM   13  C   UNL     1      -6.729   6.281  64.525  1.00  0.00    -0.042 C  
HETATM   14  C   UNL     1      -8.082   5.787  64.826  1.00  0.00    -0.132 C  
HETATM   15  C   UNL     1      -7.119   6.756  69.887  1.00  0.00    -0.071 C  
HETATM   16  C   UNL     1      -7.922   5.969  68.641  1.00  0.00    -0.104 C  
HETATM   17  C   UNL     1      -9.475   5.551  68.916  1.00  0.00    -0.165 C  
HETATM   18  C   UNL     1      -9.982   4.657  67.788  1.00  0.00    -0.150 C  
HETATM   19  C   UNL     1      -9.950   5.386  66.440  1.00  0.00    -0.218 C  
HETATM   20  C   UNL     1     -10.610   4.449  65.409  1.00  0.00    -0.192 C  
HETATM   21  C   UNL     1      -8.539   5.874  66.092  1.00  0.00    -0.137 C  
ENDROOT
BRANCH   4  22
HETATM   22  C   UNL     1      -9.179   7.851  71.806  1.00  0.00    -0.150 C  
HETATM   23  C   UNL     1      -9.099   9.112  70.968  1.00  0.00    -0.305 C  
HETATM   24  O   UNL     1      -9.129   8.023  73.033  1.00  0.00    -0.211 OA 
ENDBRANCH   4  22
BRANCH   4  25
HETATM   25  O   UNL     1     -10.877   6.444  71.710  1.00  0.00    -0.227 OA 
BRANCH  25  26
HETATM   26  C   UNL     1     -11.950   7.062  71.160  1.00  0.00    -0.356 C  
HETATM   27  O   UNL     1     -12.358   6.893  70.022  1.00  0.00    -0.038 OA 
HETATM   28  C   UNL     1     -12.609   7.938  72.191  1.00  0.00    -0.283 C  
ENDBRANCH  25  26
ENDBRANCH   4  25
TORSDOF 3
ENDMDL
MODEL       65
REMARK 921   NORMALIZED FREE ENERGY PREDICTED BY IDOCK:   -3.55 KCAL/MOL
REMARK 922        TOTAL FREE ENERGY PREDICTED BY IDOCK:   -3.56 KCAL/MOL
REMARK 923 INTER-LIGAND FREE ENERGY PREDICTED BY IDOCK:   -4.00 KCAL/MOL
REMARK 924 INTRA-LIGAND FREE ENERGY PREDICTED BY IDOCK:    0.44 KCAL/MOL
REMARK 927      BINDING AFFINITY PREDICTED BY RF-SCORE:    0.00 PKD
ROOT
HETATM    1  C   UNL     1     -10.562   6.889  69.414  1.00  0.00    -0.254 C  
HETATM    2  C   UNL     1     -11.859   6.653  69.950  1.00  0.00    -0.238 C  
HETATM    3  C   UNL     1     -10.900   7.421  70.784  1.00  0.00    -0.257 C  
HETATM    4  C   UNL     1      -9.196   7.991  69.778  1.00  0.00    -0.149 C  
HETATM    5  C   UNL     1      -6.553   5.051  71.728  1.00  0.00    -0.036 C  
HETATM    6  C   UNL     1      -7.993   4.709  72.177  1.00  0.00    -0.101 C  
HETATM    7  C   UNL     1     -10.312   8.690  70.148  1.00  0.00    -0.219 C  
HETATM    8  C   UNL     1      -9.624   8.772  71.868  1.00  0.00    -0.372 C  
HETATM    9  C   UNL     1      -7.999   4.686  73.763  1.00  0.00    -0.105 C  
HETATM   10  C   UNL     1      -8.261   3.341  74.425  1.00  0.00    -0.069 C  
HETATM   11  O   UNL     1      -6.773   1.481  74.092  1.00  0.00    -0.019 OA 
HETATM   12  C   UNL     1     -11.079   9.819  69.471  1.00  0.00    -0.226 C  
HETATM   13  C   UNL     1      -7.593   2.267  73.635  1.00  0.00    -0.042 C  
HETATM   14  C   UNL     1      -8.050   2.169  72.239  1.00  0.00    -0.053 C  
HETATM   15  C   UNL     1      -8.707   7.370  72.275  1.00  0.00    -0.138 C  
HETATM   16  C   UNL     1      -9.024   5.826  71.699  1.00  0.00    -0.141 C  
HETATM   17  C   UNL     1      -9.386   5.693  70.113  1.00  0.00    -0.188 C  
HETATM   18  C   UNL     1      -9.863   4.277  69.804  1.00  0.00    -0.258 C  
HETATM   19  C   UNL     1      -8.770   3.243  70.098  1.00  0.00    -0.126 C  
HETATM   20  C   UNL     1      -9.305   1.879  69.619  1.00  0.00    -0.158 C  
HETATM   21  C   UNL     1      -8.309   3.305  71.559  1.00  0.00    -0.080 C  
ENDROOT
BRANCH   4  22
HETATM   22  C   UNL     1      -8.079   9.155  69.921  1.00  0.00    -0.122 C  
HETATM   23  C   UNL     1      -6.643   8.772  70.216  1.00  0.00    -0.040 C  
HETATM   24  O   UNL     1      -8.278  10.363  69.720  1.00  0.00    -0.138 OA 
ENDBRANCH   4  22
BRANCH   4  25
HETATM   25  O   UNL     1      -9.261   8.347  68.240  1.00  0.00    -0.135 OA 
BRANCH  25  26
HETATM   26  C   UNL     1      -8.355   7.938  67.320  1.00  0.00    -0.122 C  
HETATM   27  O   UNL     1      -7.909   6.807  67.221  1.00  0.00    -0.106 OA 
HETATM   28  C   UNL     1      -8.038   9.076  66.387  1.00  0.00    -0.110 C  
ENDBRANCH  25  26
ENDBRANCH   4  25
TORSDOF 3
ENDMDL
MODEL       66
REMARK 921   NORMALIZED FREE ENERGY PREDICTED BY IDOCK:   -3.44 KCAL/MOL
REMARK 922        TOTAL FREE ENERGY PREDICTED BY IDOCK:   -3.43 KCAL/MOL
REMARK 923 INTER-LIGAND FREE ENERGY PREDICTED BY IDOCK:   -4.19 KCAL/MOL
REMARK 924 INTRA-LIGAND FREE ENERGY PREDICTED BY IDOCK:    0.76 KCAL/MOL
REMARK 927      BINDING AFFINITY PREDICTED BY RF-SCORE:    0.00 PKD
ROOT
HETATM    1  C   UNL     1      -8.018   8.460  66.793  1.00  0.00    -0.098 C  
HETATM    2  C   UNL     1      -9.015   8.516  65.778  1.00  0.00    -0.229 C  
HETATM    3  C   UNL     1      -8.742   9.760  66.543  1.00  0.00    -0.139 C  
HETATM    4  C   UNL     1      -7.063   9.652  67.731  1.00  0.00    -0.081 C  
HETATM    5  C   UNL     1      -9.263   9.326  71.538  1.00  0.00    -0.006 C  
HETATM    6  C   UNL     1     -10.320   9.230  70.413  1.00  0.00    -0.291 C  
HETATM    7  C   UNL     1      -7.289  10.261  66.527  1.00  0.00    -0.113 C  
HETATM    8  C   UNL     1      -8.153  11.624  67.440  1.00  0.00    -0.153 C  
HETATM    9  C   UNL     1     -11.417  10.339  70.700  1.00  0.00    -0.435 C  
HETATM   10  C   UNL     1     -12.813   9.844  71.046  1.00  0.00    -0.417 C  
HETATM   11  O   UNL     1     -13.206   8.503  73.004  1.00  0.00    -0.161 OA 
HETATM   12  C   UNL     1      -6.402  10.467  65.307  1.00  0.00    -0.080 C  
HETATM   13  C   UNL     1     -12.704   8.621  71.894  1.00  0.00    -0.366 C  
HETATM   14  C   UNL     1     -11.985   7.506  71.257  1.00  0.00    -0.333 C  
HETATM   15  C   UNL     1      -8.973  11.055  68.846  1.00  0.00    -0.123 C  
HETATM   16  C   UNL     1      -9.673   9.536  68.989  1.00  0.00    -0.170 C  
HETATM   17  C   UNL     1      -8.812   8.273  68.417  1.00  0.00    -0.137 C  
HETATM   18  C   UNL     1      -9.671   7.013  68.417  1.00  0.00    -0.139 C  
HETATM   19  C   UNL     1     -10.118   6.640  69.835  1.00  0.00    -0.198 C  
HETATM   20  C   UNL     1     -10.851   5.289  69.733  1.00  0.00    -0.022 C  
HETATM   21  C   UNL     1     -10.902   7.778  70.500  1.00  0.00    -0.245 C  
ENDROOT
BRANCH   4  22
HETATM   22  C   UNL     1      -6.010  10.699  68.378  1.00  0.00    -0.046 C  
HETATM   23  C   UNL     1      -5.812  10.716  69.881  1.00  0.00    -0.067 C  
HETATM   24  O   UNL     1      -5.265  11.452  67.733  1.00  0.00    -0.043 OA 
ENDBRANCH   4  22
BRANCH   4  25
HETATM   25  O   UNL     1      -5.815   8.799  67.271  1.00  0.00    -0.042 OA 
BRANCH  25  26
HETATM   26  C   UNL     1      -5.456   7.612  67.816  1.00  0.00    -0.031 C  
HETATM   27  O   UNL     1      -5.449   7.355  69.008  1.00  0.00    -0.018 OA 
HETATM   28  C   UNL     1      -5.136   6.632  66.719  1.00  0.00    -0.009 C  
ENDBRANCH  25  26
ENDBRANCH   4  25
TORSDOF 3
ENDMDL
MODEL       67
REMARK 921   NORMALIZED FREE ENERGY PREDICTED BY IDOCK:   -3.43 KCAL/MOL
REMARK 922        TOTAL FREE ENERGY PREDICTED BY IDOCK:   -3.42 KCAL/MOL
REMARK 923 INTER-LIGAND FREE ENERGY PREDICTED BY IDOCK:   -3.84 KCAL/MOL
REMARK 924 INTRA-LIGAND FREE ENERGY PREDICTED BY IDOCK:    0.42 KCAL/MOL
REMARK 927      BINDING AFFINITY PREDICTED BY RF-SCORE:    0.00 PKD
ROOT
HETATM    1  C   UNL     1      -9.390   6.340  67.975  1.00  0.00    -0.114 C  
HETATM    2  C   UNL     1      -9.245   6.036  66.592  1.00  0.00    -0.151 C  
HETATM    3  C   UNL     1      -8.014   6.071  67.421  1.00  0.00    -0.102 C  
HETATM    4  C   UNL     1      -8.378   6.179  69.445  1.00  0.00    -0.116 C  
HETATM    5  C   UNL     1      -7.227  10.415  69.854  1.00  0.00    -0.157 C  
HETATM    6  C   UNL     1      -7.228  10.107  68.338  1.00  0.00    -0.076 C  
HETATM    7  C   UNL     1      -7.992   5.140  68.644  1.00  0.00    -0.086 C  
HETATM    8  C   UNL     1      -6.273   5.835  68.662  1.00  0.00    -0.029 C  
HETATM    9  C   UNL     1      -5.805  10.517  67.772  1.00  0.00    -0.044 C  
HETATM   10  C   UNL     1      -5.770  11.677  66.789  1.00  0.00    -0.139 C  
HETATM   11  O   UNL     1      -6.493  13.877  67.435  1.00  0.00    -0.299 OA 
HETATM   12  C   UNL     1      -8.321   3.653  68.672  1.00  0.00    -0.093 C  
HETATM   13  C   UNL     1      -6.765  12.706  67.208  1.00  0.00    -0.100 C  
HETATM   14  C   UNL     1      -8.152  12.217  67.265  1.00  0.00    -0.182 C  
HETATM   15  C   UNL     1      -6.263   7.557  68.748  1.00  0.00    -0.032 C  
HETATM   16  C   UNL     1      -7.434   8.550  68.068  1.00  0.00    -0.097 C  
HETATM   17  C   UNL     1      -8.988   8.090  68.259  1.00  0.00    -0.132 C  
HETATM   18  C   UNL     1      -9.899   8.963  67.403  1.00  0.00    -0.247 C  
HETATM   19  C   UNL     1      -9.817  10.436  67.821  1.00  0.00    -0.193 C  
HETATM   20  C   UNL     1     -10.873  11.195  66.994  1.00  0.00    -0.338 C  
HETATM   21  C   UNL     1      -8.384  10.972  67.729  1.00  0.00    -0.118 C  
ENDROOT
BRANCH   4  22
HETATM   22  C   UNL     1      -7.590   5.788  70.805  1.00  0.00    -0.092 C  
HETATM   23  C   UNL     1      -7.207   6.883  71.780  1.00  0.00    -0.079 C  
HETATM   24  O   UNL     1      -7.338   4.631  71.177  1.00  0.00    -0.059 OA 
ENDBRANCH   4  22
BRANCH   4  25
HETATM   25  O   UNL     1      -9.645   5.467  70.065  1.00  0.00    -0.151 OA 
BRANCH  25  26
HETATM   26  C   UNL     1     -10.466   6.029  70.984  1.00  0.00    -0.229 C  
HETATM   27  O   UNL     1     -10.869   7.181  70.963  1.00  0.00    -0.234 OA 
HETATM   28  C   UNL     1     -10.868   4.993  71.999  1.00  0.00    -0.150 C  
ENDBRANCH  25  26
ENDBRANCH   4  25
TORSDOF 3
ENDMDL
MODEL       68
REMARK 921   NORMALIZED FREE ENERGY PREDICTED BY IDOCK:   -3.33 KCAL/MOL
REMARK 922        TOTAL FREE ENERGY PREDICTED BY IDOCK:   -3.31 KCAL/MOL
REMARK 923 INTER-LIGAND FREE ENERGY PREDICTED BY IDOCK:   -5.41 KCAL/MOL
REMARK 924 INTRA-LIGAND FREE ENERGY PREDICTED BY IDOCK:    2.10 KCAL/MOL
REMARK 927      BINDING AFFINITY PREDICTED BY RF-SCORE:    0.00 PKD
ROOT
HETATM    1  C   UNL     1      -8.703  12.484  68.204  1.00  0.00    -0.190 C  
HETATM    2  C   UNL     1      -7.336  12.739  67.902  1.00  0.00    -0.120 C  
HETATM    3  C   UNL     1      -8.224  12.339  66.781  1.00  0.00    -0.058 C  
HETATM    4  C   UNL     1     -10.225  12.333  67.269  1.00  0.00    -0.210 C  
HETATM    5  C   UNL     1     -10.604   7.944  67.437  1.00  0.00    -0.342 C  
HETATM    6  C   UNL     1      -9.096   8.246  67.267  1.00  0.00    -0.157 C  
HETATM    7  C   UNL     1      -9.465  13.216  66.552  1.00  0.00    -0.246 C  
HETATM    8  C   UNL     1      -9.554  12.045  65.117  1.00  0.00    -0.091 C  
HETATM    9  C   UNL     1      -8.593   7.438  65.998  1.00  0.00    -0.162 C  
HETATM   10  C   UNL     1      -7.589   6.324  66.254  1.00  0.00    -0.090 C  
HETATM   11  O   UNL     1      -8.154   4.431  67.626  1.00  0.00    -0.097 OA 
HETATM   12  C   UNL     1      -9.507  14.733  66.431  1.00  0.00    -0.328 C  
HETATM   13  C   UNL     1      -7.937   5.632  67.528  1.00  0.00    -0.102 C  
HETATM   14  C   UNL     1      -7.936   6.507  68.711  1.00  0.00    -0.111 C  
HETATM   15  C   UNL     1      -9.605  10.396  65.618  1.00  0.00    -0.281 C  
HETATM   16  C   UNL     1      -8.848   9.796  66.991  1.00  0.00    -0.145 C  
HETATM   17  C   UNL     1      -8.972  10.692  68.349  1.00  0.00    -0.149 C  
HETATM   18  C   UNL     1      -8.054  10.131  69.430  1.00  0.00    -0.163 C  
HETATM   19  C   UNL     1      -8.445   8.697  69.807  1.00  0.00    -0.129 C  
HETATM   20  C   UNL     1      -7.552   8.287  70.994  1.00  0.00    -0.081 C  
HETATM   21  C   UNL     1      -8.414   7.763  68.592  1.00  0.00    -0.129 C  
ENDROOT
BRANCH   4  22
HETATM   22  C   UNL     1     -11.630  12.468  66.474  1.00  0.00    -0.388 C  
HETATM   23  C   UNL     1     -12.290  13.827  66.360  1.00  0.00    -0.460 C  
HETATM   24  O   UNL     1     -12.191  11.549  65.857  1.00  0.00     0.044 OA 
ENDBRANCH   4  22
BRANCH   4  25
HETATM   25  O   UNL     1     -10.796  13.383  68.302  1.00  0.00    -0.240 OA 
BRANCH  25  26
HETATM   26  C   UNL     1     -11.667  13.084  69.296  1.00  0.00    -0.320 C  
HETATM   27  O   UNL     1     -12.505  13.843  69.752  1.00  0.00    -0.311 OA 
HETATM   28  C   UNL     1     -11.492  11.645  69.702  1.00  0.00    -0.359 C  
ENDBRANCH  25  26
ENDBRANCH   4  25
TORSDOF 3
ENDMDL
MODEL       69
REMARK 921   NORMALIZED FREE ENERGY PREDICTED BY IDOCK:   -3.30 KCAL/MOL
REMARK 922        TOTAL FREE ENERGY PREDICTED BY IDOCK:   -3.27 KCAL/MOL
REMARK 923 INTER-LIGAND FREE ENERGY PREDICTED BY IDOCK:   -4.04 KCAL/MOL
REMARK 924 INTRA-LIGAND FREE ENERGY PREDICTED BY IDOCK:    0.77 KCAL/MOL
REMARK 927      BINDING AFFINITY PREDICTED BY RF-SCORE:    0.00 PKD
ROOT
HETATM    1  C   UNL     1      -8.485   6.725  72.461  1.00  0.00    -0.122 C  
HETATM    2  C   UNL     1      -8.894   8.013  72.909  1.00  0.00    -0.287 C  
HETATM    3  C   UNL     1      -9.930   7.129  72.316  1.00  0.00    -0.193 C  
HETATM    4  C   UNL     1      -9.302   5.190  72.027  1.00  0.00    -0.137 C  
HETATM    5  C   UNL     1      -8.920   5.521  67.647  1.00  0.00    -0.108 C  
HETATM    6  C   UNL     1      -9.209   6.948  68.169  1.00  0.00    -0.126 C  
HETATM    7  C   UNL     1     -10.108   5.753  72.978  1.00  0.00    -0.198 C  
HETATM    8  C   UNL     1     -11.481   5.759  71.732  1.00  0.00    -0.199 C  
HETATM    9  C   UNL     1     -10.475   7.491  67.383  1.00  0.00    -0.367 C  
HETATM   10  C   UNL     1     -10.244   8.673  66.453  1.00  0.00    -0.224 C  
HETATM   11  O   UNL     1      -8.756   8.503  64.571  1.00  0.00    -0.094 OA 
HETATM   12  C   UNL     1     -10.291   5.464  74.461  1.00  0.00    -0.272 C  
HETATM   13  C   UNL     1      -8.920   8.520  65.784  1.00  0.00    -0.182 C  
HETATM   14  C   UNL     1      -7.778   8.458  66.711  1.00  0.00    -0.091 C  
HETATM   15  C   UNL     1     -10.908   6.002  70.124  1.00  0.00    -0.409 C  
HETATM   16  C   UNL     1      -9.568   6.930  69.722  1.00  0.00    -0.154 C  
HETATM   17  C   UNL     1      -8.244   6.753  70.660  1.00  0.00    -0.120 C  
HETATM   18  C   UNL     1      -7.209   7.815  70.306  1.00  0.00    -0.062 C  
HETATM   19  C   UNL     1      -6.744   7.680  68.851  1.00  0.00    -0.050 C  
HETATM   20  C   UNL     1      -5.607   8.701  68.648  1.00  0.00    -0.037 C  
HETATM   21  C   UNL     1      -7.917   7.782  67.869  1.00  0.00    -0.125 C  
ENDROOT
BRANCH   4  22
HETATM   22  C   UNL     1      -9.999   3.733  71.899  1.00  0.00    -0.160 C  
HETATM   23  C   UNL     1      -9.806   2.928  70.631  1.00  0.00     0.031 C  
HETATM   24  O   UNL     1     -10.626   3.161  72.805  1.00  0.00    -0.153 OA 
ENDBRANCH   4  22
BRANCH   4  25
HETATM   25  O   UNL     1      -8.277   4.527  73.029  1.00  0.00    -0.098 OA 
BRANCH  25  26
HETATM   26  C   UNL     1      -7.376   3.574  72.686  1.00  0.00    -0.050 C  
HETATM   27  O   UNL     1      -7.389   2.417  73.073  1.00  0.00    -0.038 OA 
HETATM   28  C   UNL     1      -6.398   4.141  71.693  1.00  0.00    -0.018 C  
ENDBRANCH  25  26
ENDBRANCH   4  25
TORSDOF 3
ENDMDL
MODEL       70
REMARK 921   NORMALIZED FREE ENERGY PREDICTED BY IDOCK:   -3.28 KCAL/MOL
REMARK 922        TOTAL FREE ENERGY PREDICTED BY IDOCK:   -3.25 KCAL/MOL
REMARK 923 INTER-LIGAND FREE ENERGY PREDICTED BY IDOCK:   -3.98 KCAL/MOL
REMARK 924 INTRA-LIGAND FREE ENERGY PREDICTED BY IDOCK:    0.73 KCAL/MOL
REMARK 927      BINDING AFFINITY PREDICTED BY RF-SCORE:    0.00 PKD
ROOT
HETATM    1  C   UNL     1      -9.489   9.782  66.647  1.00  0.00    -0.220 C  
HETATM    2  C   UNL     1     -10.801  10.052  67.128  1.00  0.00    -0.240 C  
HETATM    3  C   UNL     1      -9.674  10.203  68.083  1.00  0.00    -0.155 C  
HETATM    4  C   UNL     1      -7.817  10.123  67.196  1.00  0.00    -0.099 C  
HETATM    5  C   UNL     1      -6.827   6.083  68.659  1.00  0.00    -0.070 C  
HETATM    6  C   UNL     1      -8.306   6.333  69.035  1.00  0.00    -0.117 C  
HETATM    7  C   UNL     1      -8.557  11.173  67.668  1.00  0.00    -0.126 C  
HETATM    8  C   UNL     1      -8.034  10.700  69.383  1.00  0.00    -0.118 C  
HETATM    9  C   UNL     1      -8.444   6.087  70.596  1.00  0.00    -0.133 C  
HETATM   10  C   UNL     1      -9.301   4.905  71.026  1.00  0.00    -0.209 C  
HETATM   11  O   UNL     1      -8.721   2.656  70.405  1.00  0.00    -0.063 OA 
HETATM   12  C   UNL     1      -8.719  12.606  67.179  1.00  0.00    -0.201 C  
HETATM   13  C   UNL     1      -9.092   3.775  70.076  1.00  0.00    -0.124 C  
HETATM   14  C   UNL     1      -9.439   4.087  68.680  1.00  0.00    -0.220 C  
HETATM   15  C   UNL     1      -7.831   8.997  69.562  1.00  0.00    -0.094 C  
HETATM   16  C   UNL     1      -8.727   7.842  68.738  1.00  0.00    -0.128 C  
HETATM   17  C   UNL     1      -8.988   8.109  67.150  1.00  0.00    -0.154 C  
HETATM   18  C   UNL     1      -9.994   7.097  66.609  1.00  0.00    -0.234 C  
HETATM   19  C   UNL     1      -9.469   5.663  66.738  1.00  0.00    -0.150 C  
HETATM   20  C   UNL     1     -10.492   4.747  66.039  1.00  0.00    -0.332 C  
HETATM   21  C   UNL     1      -9.140   5.308  68.193  1.00  0.00    -0.120 C  
ENDROOT
BRANCH   4  22
HETATM   22  C   UNL     1      -6.327  10.658  67.536  1.00  0.00    -0.057 C  
HETATM   23  C   UNL     1      -5.233   9.657  67.851  1.00  0.00    -0.036 C  
HETATM   24  O   UNL     1      -5.964  11.843  67.477  1.00  0.00    -0.072 OA 
ENDBRANCH   4  22
BRANCH   4  25
HETATM   25  O   UNL     1      -7.606  10.690  65.738  1.00  0.00    -0.149 OA 
BRANCH  25  26
HETATM   26  C   UNL     1      -7.222   9.945  64.673  1.00  0.00    -0.137 C  
HETATM   27  O   UNL     1      -6.339   9.103  64.682  1.00  0.00    -0.069 OA 
HETATM   28  C   UNL     1      -8.102  10.261  63.494  1.00  0.00    -0.152 C  
ENDBRANCH  25  26
ENDBRANCH   4  25
TORSDOF 3
ENDMDL
MODEL       71
REMARK 921   NORMALIZED FREE ENERGY PREDICTED BY IDOCK:   -3.25 KCAL/MOL
REMARK 922        TOTAL FREE ENERGY PREDICTED BY IDOCK:   -3.21 KCAL/MOL
REMARK 923 INTER-LIGAND FREE ENERGY PREDICTED BY IDOCK:   -4.64 KCAL/MOL
REMARK 924 INTRA-LIGAND FREE ENERGY PREDICTED BY IDOCK:    1.42 KCAL/MOL
REMARK 927      BINDING AFFINITY PREDICTED BY RF-SCORE:    0.00 PKD
ROOT
HETATM    1  C   UNL     1      -9.275   5.348  70.260  1.00  0.00    -0.185 C  
HETATM    2  C   UNL     1     -10.345   4.728  69.555  1.00  0.00    -0.053 C  
HETATM    3  C   UNL     1      -9.260   5.348  68.752  1.00  0.00    -0.148 C  
HETATM    4  C   UNL     1      -7.617   5.902  69.864  1.00  0.00    -0.080 C  
HETATM    5  C   UNL     1      -8.446  10.229  69.713  1.00  0.00    -0.082 C  
HETATM    6  C   UNL     1      -9.675   9.527  69.090  1.00  0.00    -0.178 C  
HETATM    7  C   UNL     1      -7.836   4.840  69.029  1.00  0.00    -0.072 C  
HETATM    8  C   UNL     1      -7.563   5.983  67.594  1.00  0.00    -0.090 C  
HETATM    9  C   UNL     1      -9.903  10.160  67.654  1.00  0.00    -0.201 C  
HETATM   10  C   UNL     1     -11.182  10.960  67.456  1.00  0.00    -0.364 C  
HETATM   11  O   UNL     1     -11.619  12.944  68.743  1.00  0.00    -0.268 OA 
HETATM   12  C   UNL     1      -7.371   3.391  69.078  1.00  0.00    -0.049 C  
HETATM   13  C   UNL     1     -11.477  11.729  68.699  1.00  0.00    -0.288 C  
HETATM   14  C   UNL     1     -11.660  10.894  69.897  1.00  0.00    -0.410 C  
HETATM   15  C   UNL     1      -8.107   7.586  67.919  1.00  0.00    -0.119 C  
HETATM   16  C   UNL     1      -9.412   7.966  68.903  1.00  0.00    -0.150 C  
HETATM   17  C   UNL     1      -9.536   7.146  70.308  1.00  0.00    -0.169 C  
HETATM   18  C   UNL     1     -10.879   7.443  70.968  1.00  0.00    -0.254 C  
HETATM   19  C   UNL     1     -11.017   8.932  71.309  1.00  0.00    -0.363 C  
HETATM   20  C   UNL     1     -12.334   9.091  72.092  1.00  0.00    -0.442 C  
HETATM   21  C   UNL     1     -10.868   9.814  70.064  1.00  0.00    -0.319 C  
ENDROOT
BRANCH   4  22
HETATM   22  C   UNL     1      -6.040   6.150  69.589  1.00  0.00    -0.026 C  
HETATM   23  C   UNL     1      -5.150   4.968  69.263  1.00  0.00     0.000 C  
HETATM   24  O   UNL     1      -5.492   7.261  69.535  1.00  0.00    -0.015 OA 
ENDBRANCH   4  22
BRANCH   4  25
HETATM   25  O   UNL     1      -7.186   5.053  71.125  1.00  0.00    -0.059 OA 
BRANCH  25  26
HETATM   26  C   UNL     1      -7.277   5.485  72.406  1.00  0.00    -0.093 C  
HETATM   27  O   UNL     1      -7.207   6.648  72.767  1.00  0.00    -0.080 OA 
HETATM   28  C   UNL     1      -7.552   4.315  73.312  1.00  0.00    -0.081 C  
ENDBRANCH  25  26
ENDBRANCH   4  25
TORSDOF 3
ENDMDL
MODEL       72
REMARK 921   NORMALIZED FREE ENERGY PREDICTED BY IDOCK:   -3.13 KCAL/MOL
REMARK 922        TOTAL FREE ENERGY PREDICTED BY IDOCK:   -3.06 KCAL/MOL
REMARK 923 INTER-LIGAND FREE ENERGY PREDICTED BY IDOCK:   -3.95 KCAL/MOL
REMARK 924 INTRA-LIGAND FREE ENERGY PREDICTED BY IDOCK:    0.89 KCAL/MOL
REMARK 927      BINDING AFFINITY PREDICTED BY RF-SCORE:    0.00 PKD
ROOT
HETATM    1  C   UNL     1      -8.892   9.335  65.107  1.00  0.00    -0.238 C  
HETATM    2  C   UNL     1      -8.569   9.855  63.822  1.00  0.00    -0.205 C  
HETATM    3  C   UNL     1      -7.446   9.419  64.690  1.00  0.00    -0.108 C  
HETATM    4  C   UNL     1      -8.045   8.378  66.363  1.00  0.00    -0.104 C  
HETATM    5  C   UNL     1      -7.267  11.660  69.201  1.00  0.00    -0.064 C  
HETATM    6  C   UNL     1      -7.073  12.252  67.785  1.00  0.00    -0.114 C  
HETATM    7  C   UNL     1      -7.493   7.963  65.181  1.00  0.00    -0.082 C  
HETATM    8  C   UNL     1      -5.845   8.527  65.816  1.00  0.00    -0.047 C  
HETATM    9  C   UNL     1      -5.629  12.906  67.741  1.00  0.00    -0.130 C  
HETATM   10  C   UNL     1      -5.570  14.418  67.580  1.00  0.00     0.039 C  
HETATM   11  O   UNL     1      -6.525  15.882  69.231  1.00  0.00    -0.138 OA 
HETATM   12  C   UNL     1      -7.711   6.715  64.337  1.00  0.00    -0.113 C  
HETATM   13  C   UNL     1      -6.680  15.038  68.359  1.00  0.00    -0.111 C  
HETATM   14  C   UNL     1      -8.024  14.603  67.947  1.00  0.00    -0.149 C  
HETATM   15  C   UNL     1      -5.973   9.908  66.841  1.00  0.00    -0.055 C  
HETATM   16  C   UNL     1      -7.130  11.112  66.673  1.00  0.00    -0.141 C  
HETATM   17  C   UNL     1      -8.657  10.626  66.364  1.00  0.00    -0.151 C  
HETATM   18  C   UNL     1      -9.528  11.830  66.020  1.00  0.00    -0.245 C  
HETATM   19  C   UNL     1      -9.604  12.818  67.190  1.00  0.00    -0.219 C  
HETATM   20  C   UNL     1     -10.613  13.911  66.789  1.00  0.00    -0.277 C  
HETATM   21  C   UNL     1      -8.214  13.311  67.607  1.00  0.00    -0.179 C  
ENDROOT
BRANCH   4  22
HETATM   22  C   UNL     1      -7.389   7.292  67.371  1.00  0.00    -0.092 C  
HETATM   23  C   UNL     1      -7.129   7.682  68.812  1.00  0.00    -0.080 C  
HETATM   24  O   UNL     1      -7.151   6.108  67.087  1.00  0.00    -0.067 OA 
ENDBRANCH   4  22
BRANCH   4  25
HETATM   25  O   UNL     1      -9.317   7.443  66.306  1.00  0.00    -0.169 OA 
BRANCH  25  26
HETATM   26  C   UNL     1     -10.189   7.273  67.328  1.00  0.00    -0.253 C  
HETATM   27  O   UNL     1     -10.642   6.204  67.701  1.00  0.00    -0.206 OA 
HETATM   28  C   UNL     1     -10.459   8.601  67.984  1.00  0.00    -0.254 C  
ENDBRANCH  25  26
ENDBRANCH   4  25
TORSDOF 3
ENDMDL
MODEL       73
REMARK 921   NORMALIZED FREE ENERGY PREDICTED BY IDOCK:   -2.99 KCAL/MOL
REMARK 922        TOTAL FREE ENERGY PREDICTED BY IDOCK:   -2.90 KCAL/MOL
REMARK 923 INTER-LIGAND FREE ENERGY PREDICTED BY IDOCK:   -4.42 KCAL/MOL
REMARK 924 INTRA-LIGAND FREE ENERGY PREDICTED BY IDOCK:    1.51 KCAL/MOL
REMARK 927      BINDING AFFINITY PREDICTED BY RF-SCORE:    0.00 PKD
ROOT
HETATM    1  C   UNL     1      -9.887   9.097  67.719  1.00  0.00    -0.214 C  
HETATM    2  C   UNL     1     -10.903   8.851  66.753  1.00  0.00     0.080 C  
HETATM    3  C   UNL     1      -9.657   9.513  66.288  1.00  0.00    -0.287 C  
HETATM    4  C   UNL     1      -8.142   9.505  67.683  1.00  0.00    -0.110 C  
HETATM    5  C   UNL     1      -8.498  13.776  68.714  1.00  0.00     0.026 C  
HETATM    6  C   UNL     1      -9.691  13.450  67.785  1.00  0.00    -0.216 C  
HETATM    7  C   UNL     1      -8.346   8.756  66.556  1.00  0.00    -0.112 C  
HETATM    8  C   UNL     1      -7.757  10.202  65.555  1.00  0.00    -0.145 C  
HETATM    9  C   UNL     1      -9.646  14.481  66.580  1.00  0.00    -0.311 C  
HETATM   10  C   UNL     1     -10.796  15.473  66.488  1.00  0.00    -0.284 C  
HETATM   11  O   UNL     1     -11.209  17.064  68.244  1.00  0.00    -0.267 OA 
HETATM   12  C   UNL     1      -8.043   7.301  66.229  1.00  0.00    -0.121 C  
HETATM   13  C   UNL     1     -11.186  15.901  67.862  1.00  0.00    -0.297 C  
HETATM   14  C   UNL     1     -11.621  14.801  68.737  1.00  0.00    -0.347 C  
HETATM   15  C   UNL     1      -8.176  11.712  66.273  1.00  0.00     0.012 C  
HETATM   16  C   UNL     1      -9.563  11.981  67.179  1.00  0.00    -0.195 C  
HETATM   17  C   UNL     1      -9.969  10.830  68.261  1.00  0.00    -0.182 C  
HETATM   18  C   UNL     1     -11.355  11.115  68.831  1.00  0.00    -0.344 C  
HETATM   19  C   UNL     1     -11.389  12.455  69.575  1.00  0.00    -0.250 C  
HETATM   20  C   UNL     1     -12.782  12.572  70.224  1.00  0.00     0.115 C  
HETATM   21  C   UNL     1     -10.975  13.619  68.666  1.00  0.00    -0.290 C  
ENDROOT
BRANCH   4  22
HETATM   22  C   UNL     1      -6.525   9.599  67.664  1.00  0.00    -0.061 C  
HETATM   23  C   UNL     1      -5.835  10.655  68.503  1.00  0.00    -0.040 C  
HETATM   24  O   UNL     1      -5.772   8.808  67.076  1.00  0.00    -0.044 OA 
ENDBRANCH   4  22
BRANCH   4  25
HETATM   25  O   UNL     1      -7.984   8.289  68.679  1.00  0.00    -0.117 OA 
BRANCH  25  26
HETATM   26  C   UNL     1      -8.388   8.302  69.973  1.00  0.00    -0.121 C  
HETATM   27  O   UNL     1      -9.309   7.647  70.432  1.00  0.00    -0.160 OA 
HETATM   28  C   UNL     1      -7.477   9.191  70.775  1.00  0.00    -0.133 C  
ENDBRANCH  25  26
ENDBRANCH   4  25
TORSDOF 3
ENDMDL
MODEL       74
REMARK 921   NORMALIZED FREE ENERGY PREDICTED BY IDOCK:   -2.93 KCAL/MOL
REMARK 922        TOTAL FREE ENERGY PREDICTED BY IDOCK:   -2.83 KCAL/MOL
REMARK 923 INTER-LIGAND FREE ENERGY PREDICTED BY IDOCK:   -3.45 KCAL/MOL
REMARK 924 INTRA-LIGAND FREE ENERGY PREDICTED BY IDOCK:    0.61 KCAL/MOL
REMARK 927      BINDING AFFINITY PREDICTED BY RF-SCORE:    0.00 PKD
ROOT
HETATM    1  C   UNL     1      -9.176   7.185  66.910  1.00  0.00    -0.174 C  
HETATM    2  C   UNL     1     -10.592   7.081  67.016  1.00  0.00    -0.412 C  
HETATM    3  C   UNL     1      -9.933   8.223  67.700  1.00  0.00    -0.245 C  
HETATM    4  C   UNL     1      -7.951   8.462  67.196  1.00  0.00    -0.104 C  
HETATM    5  C   UNL     1      -6.360   6.929  71.010  1.00  0.00    -0.041 C  
HETATM    6  C   UNL     1      -7.886   6.678  71.042  1.00  0.00    -0.102 C  
HETATM    7  C   UNL     1      -9.076   9.141  66.815  1.00  0.00    -0.176 C  
HETATM    8  C   UNL     1      -9.027  10.026  68.443  1.00  0.00    -0.121 C  
HETATM    9  C   UNL     1      -8.446   7.345  72.367  1.00  0.00    -0.132 C  
HETATM   10  C   UNL     1      -9.013   6.401  73.418  1.00  0.00    -0.131 C  
HETATM   11  O   UNL     1      -7.632   4.734  74.467  1.00  0.00    -0.087 OA 
HETATM   12  C   UNL     1      -9.480   9.784  65.495  1.00  0.00    -0.324 C  
HETATM   13  C   UNL     1      -8.185   5.161  73.461  1.00  0.00    -0.110 C  
HETATM   14  C   UNL     1      -8.133   4.424  72.189  1.00  0.00    -0.099 C  
HETATM   15  C   UNL     1      -8.407   9.035  69.711  1.00  0.00    -0.129 C  
HETATM   16  C   UNL     1      -8.607   7.371  69.801  1.00  0.00    -0.140 C  
HETATM   17  C   UNL     1      -8.402   6.530  68.418  1.00  0.00    -0.117 C  
HETATM   18  C   UNL     1      -8.835   5.082  68.620  1.00  0.00    -0.111 C  
HETATM   19  C   UNL     1      -7.987   4.388  69.692  1.00  0.00    -0.057 C  
HETATM   20  C   UNL     1      -8.412   2.907  69.710  1.00  0.00    -0.098 C  
HETATM   21  C   UNL     1      -8.061   5.122  71.036  1.00  0.00    -0.103 C  
ENDROOT
BRANCH   4  22
HETATM   22  C   UNL     1      -6.878   9.675  67.185  1.00  0.00    -0.084 C  
HETATM   23  C   UNL     1      -5.569   9.512  67.931  1.00  0.00    -0.040 C  
HETATM   24  O   UNL     1      -6.993  10.724  66.533  1.00  0.00    -0.115 OA 
ENDBRANCH   4  22
BRANCH   4  25
HETATM   25  O   UNL     1      -7.452   8.108  65.739  1.00  0.00    -0.077 OA 
BRANCH  25  26
HETATM   26  C   UNL     1      -6.224   7.613  65.449  1.00  0.00    -0.038 C  
HETATM   27  O   UNL     1      -5.710   6.643  65.980  1.00  0.00    -0.023 OA 
HETATM   28  C   UNL     1      -5.620   8.400  64.317  1.00  0.00    -0.059 C  
ENDBRANCH  25  26
ENDBRANCH   4  25
TORSDOF 3
ENDMDL
MODEL       75
REMARK 921   NORMALIZED FREE ENERGY PREDICTED BY IDOCK:   -2.91 KCAL/MOL
REMARK 922        TOTAL FREE ENERGY PREDICTED BY IDOCK:   -2.81 KCAL/MOL
REMARK 923 INTER-LIGAND FREE ENERGY PREDICTED BY IDOCK:   -3.81 KCAL/MOL
REMARK 924 INTRA-LIGAND FREE ENERGY PREDICTED BY IDOCK:    1.00 KCAL/MOL
REMARK 927      BINDING AFFINITY PREDICTED BY RF-SCORE:    0.00 PKD
ROOT
HETATM    1  C   UNL     1      -9.293   4.303  71.210  1.00  0.00    -0.214 C  
HETATM    2  C   UNL     1      -8.965   3.059  70.601  1.00  0.00    -0.164 C  
HETATM    3  C   UNL     1      -7.844   3.911  71.072  1.00  0.00    -0.059 C  
HETATM    4  C   UNL     1      -8.442   5.505  72.231  1.00  0.00    -0.122 C  
HETATM    5  C   UNL     1      -7.761   8.560  69.126  1.00  0.00    -0.091 C  
HETATM    6  C   UNL     1      -7.563   7.188  68.440  1.00  0.00    -0.118 C  
HETATM    7  C   UNL     1      -7.869   4.306  72.557  1.00  0.00    -0.084 C  
HETATM    8  C   UNL     1      -6.239   4.997  72.005  1.00  0.00    -0.030 C  
HETATM    9  C   UNL     1      -6.131   7.205  67.757  1.00  0.00    -0.034 C  
HETATM   10  C   UNL     1      -6.100   7.143  66.237  1.00  0.00    -0.036 C  
HETATM   11  O   UNL     1      -7.102   8.874  64.902  1.00  0.00    -0.082 OA 
HETATM   12  C   UNL     1      -8.053   3.380  73.751  1.00  0.00    -0.074 C  
HETATM   13  C   UNL     1      -7.231   7.946  65.690  1.00  0.00    -0.070 C  
HETATM   14  C   UNL     1      -8.561   7.490  66.123  1.00  0.00    -0.159 C  
HETATM   15  C   UNL     1      -6.406   6.108  70.697  1.00  0.00    -0.039 C  
HETATM   16  C   UNL     1      -7.585   6.004  69.506  1.00  0.00    -0.093 C  
HETATM   17  C   UNL     1      -9.098   5.644  69.999  1.00  0.00    -0.157 C  
HETATM   18  C   UNL     1      -9.988   5.368  68.792  1.00  0.00    -0.235 C  
HETATM   19  C   UNL     1     -10.097   6.599  67.884  1.00  0.00    -0.177 C  
HETATM   20  C   UNL     1     -11.123   6.256  66.786  1.00  0.00    -0.241 C  
HETATM   21  C   UNL     1      -8.722   7.065  67.393  1.00  0.00    -0.120 C  
ENDROOT
BRANCH   4  22
HETATM   22  C   UNL     1      -7.777   6.449  73.367  1.00  0.00    -0.093 C  
HETATM   23  C   UNL     1      -7.650   7.937  73.113  1.00  0.00    -0.165 C  
HETATM   24  O   UNL     1      -7.428   6.069  74.496  1.00  0.00    -0.094 OA 
ENDBRANCH   4  22
BRANCH   4  25
HETATM   25  O   UNL     1      -9.695   5.371  73.183  1.00  0.00    -0.148 OA 
BRANCH  25  26
HETATM   26  C   UNL     1     -10.670   6.304  73.302  1.00  0.00    -0.260 C  
HETATM   27  O   UNL     1     -10.636   7.272  74.044  1.00  0.00    -0.313 OA 
HETATM   28  C   UNL     1     -11.773   6.005  72.323  1.00  0.00    -0.338 C  
ENDBRANCH  25  26
ENDBRANCH   4  25
TORSDOF 3
ENDMDL
MODEL       76
REMARK 921   NORMALIZED FREE ENERGY PREDICTED BY IDOCK:   -2.64 KCAL/MOL
REMARK 922        TOTAL FREE ENERGY PREDICTED BY IDOCK:   -2.49 KCAL/MOL
REMARK 923 INTER-LIGAND FREE ENERGY PREDICTED BY IDOCK:   -3.20 KCAL/MOL
REMARK 924 INTRA-LIGAND FREE ENERGY PREDICTED BY IDOCK:    0.71 KCAL/MOL
REMARK 927      BINDING AFFINITY PREDICTED BY RF-SCORE:    0.00 PKD
ROOT
HETATM    1  C   UNL     1      -8.708  10.893  69.102  1.00  0.00    -0.055 C  
HETATM    2  C   UNL     1      -7.684  10.495  70.008  1.00  0.00     0.105 C  
HETATM    3  C   UNL     1      -7.264  11.090  68.713  1.00  0.00    -0.091 C  
HETATM    4  C   UNL     1      -8.811  11.934  67.647  1.00  0.00    -0.169 C  
HETATM    5  C   UNL     1      -9.037   8.729  64.628  1.00  0.00     0.149 C  
HETATM    6  C   UNL     1      -8.042   8.242  65.708  1.00  0.00    -0.109 C  
HETATM    7  C   UNL     1      -7.814  12.491  68.400  1.00  0.00    -0.141 C  
HETATM    8  C   UNL     1      -6.656  12.208  66.979  1.00  0.00    -0.081 C  
HETATM    9  C   UNL     1      -6.691   7.863  64.968  1.00  0.00    -0.051 C  
HETATM   10  C   UNL     1      -6.292   6.395  64.989  1.00  0.00    -0.034 C  
HETATM   11  O   UNL     1      -7.684   4.713  63.979  1.00  0.00    -0.073 OA 
HETATM   12  C   UNL     1      -7.783  13.713  69.307  1.00  0.00     0.295 C  
HETATM   13  C   UNL     1      -7.515   5.551  64.855  1.00  0.00    -0.074 C  
HETATM   14  C   UNL     1      -8.508   5.753  65.922  1.00  0.00    -0.139 C  
HETATM   15  C   UNL     1      -7.047  10.785  66.088  1.00  0.00    -0.122 C  
HETATM   16  C   UNL     1      -7.720   9.399  66.755  1.00  0.00    -0.098 C  
HETATM   17  C   UNL     1      -8.928   9.614  67.830  1.00  0.00    -0.120 C  
HETATM   18  C   UNL     1      -9.270   8.288  68.502  1.00  0.00    -0.136 C  
HETATM   19  C   UNL     1      -9.761   7.254  67.482  1.00  0.00    -0.181 C  
HETATM   20  C   UNL     1     -10.208   6.015  68.281  1.00  0.00    -0.218 C  
HETATM   21  C   UNL     1      -8.721   7.003  66.384  1.00  0.00    -0.148 C  
ENDROOT
BRANCH   4  22
HETATM   22  C   UNL     1      -8.970  13.076  66.509  1.00  0.00    -0.065 C  
HETATM   23  C   UNL     1      -9.710  12.748  65.229  1.00  0.00    -0.024 C  
HETATM   24  O   UNL     1      -8.606  14.256  66.628  1.00  0.00    -0.141 OA 
ENDBRANCH   4  22
BRANCH   4  25
HETATM   25  O   UNL     1     -10.014  12.625  68.401  1.00  0.00    -0.226 OA 
BRANCH  25  26
HETATM   26  C   UNL     1     -11.280  12.143  68.426  1.00  0.00    -0.265 C  
HETATM   27  O   UNL     1     -11.826  11.540  67.517  1.00  0.00    -0.605 OA 
HETATM   28  C   UNL     1     -11.889  12.400  69.779  1.00  0.00    -0.387 C  
ENDBRANCH  25  26
ENDBRANCH   4  25
TORSDOF 3
ENDMDL
MODEL       77
REMARK 921   NORMALIZED FREE ENERGY PREDICTED BY IDOCK:   -2.55 KCAL/MOL
REMARK 922        TOTAL FREE ENERGY PREDICTED BY IDOCK:   -2.38 KCAL/MOL
REMARK 923 INTER-LIGAND FREE ENERGY PREDICTED BY IDOCK:   -3.49 KCAL/MOL
REMARK 924 INTRA-LIGAND FREE ENERGY PREDICTED BY IDOCK:    1.11 KCAL/MOL
REMARK 927      BINDING AFFINITY PREDICTED BY RF-SCORE:    0.00 PKD
ROOT
HETATM    1  C   UNL     1     -10.976  13.696  68.016  1.00  0.00    -0.270 C  
HETATM    2  C   UNL     1     -11.689  12.963  69.005  1.00  0.00    -0.375 C  
HETATM    3  C   UNL     1     -10.415  13.608  69.413  1.00  0.00     0.180 C  
HETATM    4  C   UNL     1      -9.658  14.911  68.009  1.00  0.00    -0.207 C  
HETATM    5  C   UNL     1      -6.396  12.257  66.686  1.00  0.00     0.458 C  
HETATM    6  C   UNL     1      -7.277  11.422  67.646  1.00  0.00    -0.097 C  
HETATM    7  C   UNL     1     -10.320  15.125  69.187  1.00  0.00    -0.249 C  
HETATM    8  C   UNL     1      -8.733  14.771  70.080  1.00  0.00     0.641 C  
HETATM    9  C   UNL     1      -6.326  10.843  68.775  1.00  0.00    -0.048 C  
HETATM   10  C   UNL     1      -6.147   9.333  68.808  1.00  0.00    -0.044 C  
HETATM   11  O   UNL     1      -5.175   8.156  66.949  1.00  0.00    -0.030 OA 
HETATM   12  C   UNL     1     -11.330  16.182  69.612  1.00  0.00    -0.316 C  
HETATM   13  C   UNL     1      -6.098   8.814  67.410  1.00  0.00    -0.051 C  
HETATM   14  C   UNL     1      -7.305   9.098  66.618  1.00  0.00    -0.086 C  
HETATM   15  C   UNL     1      -7.767  13.601  69.261  1.00  0.00     0.295 C  
HETATM   16  C   UNL     1      -8.380  12.331  68.351  1.00  0.00    -0.144 C  
HETATM   17  C   UNL     1      -9.625  12.675  67.355  1.00  0.00    -0.194 C  
HETATM   18  C   UNL     1     -10.203  11.387  66.778  1.00  0.00    -0.258 C  
HETATM   19  C   UNL     1      -9.163  10.632  65.943  1.00  0.00    -0.209 C  
HETATM   20  C   UNL     1      -9.888   9.434  65.299  1.00  0.00    -0.072 C  
HETATM   21  C   UNL     1      -7.914  10.293  66.765  1.00  0.00    -0.114 C  
ENDROOT
BRANCH   4  22
HETATM   22  C   UNL     1      -8.672  16.196  68.008  1.00  0.00    -0.176 C  
HETATM   23  C   UNL     1      -7.539  16.260  67.003  1.00  0.00    -0.250 C  
HETATM   24  O   UNL     1      -8.812  17.204  68.717  1.00  0.00    -0.267 OA 
ENDBRANCH   4  22
BRANCH   4  25
HETATM   25  O   UNL     1     -10.634  15.755  67.098  1.00  0.00    -0.305 OA 
BRANCH  25  26
HETATM   26  C   UNL     1     -10.429  16.007  65.783  1.00  0.00    -0.374 C  
HETATM   27  O   UNL     1     -10.494  17.104  65.255  1.00  0.00    -0.655 OA 
HETATM   28  C   UNL     1     -10.033  14.734  65.083  1.00  0.00    -0.279 C  
ENDBRANCH  25  26
ENDBRANCH   4  25
TORSDOF 3
ENDMDL
MODEL       78
REMARK 921   NORMALIZED FREE ENERGY PREDICTED BY IDOCK:   -2.42 KCAL/MOL
REMARK 922        TOTAL FREE ENERGY PREDICTED BY IDOCK:   -2.23 KCAL/MOL
REMARK 923 INTER-LIGAND FREE ENERGY PREDICTED BY IDOCK:   -4.02 KCAL/MOL
REMARK 924 INTRA-LIGAND FREE ENERGY PREDICTED BY IDOCK:    1.79 KCAL/MOL
REMARK 927      BINDING AFFINITY PREDICTED BY RF-SCORE:    0.00 PKD
ROOT
HETATM    1  C   UNL     1      -8.390   7.225  65.597  1.00  0.00    -0.142 C  
HETATM    2  C   UNL     1      -7.645   7.465  64.408  1.00  0.00    -0.115 C  
HETATM    3  C   UNL     1      -6.914   7.517  65.700  1.00  0.00    -0.060 C  
HETATM    4  C   UNL     1      -8.008   6.821  67.301  1.00  0.00    -0.114 C  
HETATM    5  C   UNL     1      -8.770  10.797  69.048  1.00  0.00    -0.136 C  
HETATM    6  C   UNL     1      -8.100  11.044  67.676  1.00  0.00    -0.116 C  
HETATM    7  C   UNL     1      -6.994   6.257  66.576  1.00  0.00    -0.067 C  
HETATM    8  C   UNL     1      -5.800   7.309  67.527  1.00  0.00    -0.030 C  
HETATM    9  C   UNL     1      -6.835  11.966  67.928  1.00  0.00    -0.083 C  
HETATM   10  C   UNL     1      -6.881  13.365  67.331  1.00  0.00    -0.081 C  
HETATM   11  O   UNL     1      -8.561  14.949  68.003  1.00  0.00    -0.152 OA 
HETATM   12  C   UNL     1      -6.726   4.821  66.146  1.00  0.00    -0.050 C  
HETATM   13  C   UNL     1      -8.268  13.901  67.443  1.00  0.00    -0.187 C  
HETATM   14  C   UNL     1      -9.285  13.093  66.752  1.00  0.00    -0.232 C  
HETATM   15  C   UNL     1      -6.470   8.838  67.956  1.00  0.00    -0.057 C  
HETATM   16  C   UNL     1      -7.590   9.678  67.031  1.00  0.00    -0.095 C  
HETATM   17  C   UNL     1      -8.810   8.808  66.384  1.00  0.00    -0.175 C  
HETATM   18  C   UNL     1      -9.599   9.667  65.402  1.00  0.00    -0.361 C  
HETATM   19  C   UNL     1     -10.237  10.874  66.100  1.00  0.00    -0.304 C  
HETATM   20  C   UNL     1     -11.118  11.583  65.054  1.00  0.00    -0.268 C  
HETATM   21  C   UNL     1      -9.185  11.748  66.792  1.00  0.00    -0.196 C  
ENDROOT
BRANCH   4  22
HETATM   22  C   UNL     1      -7.688   6.193  68.759  1.00  0.00    -0.096 C  
HETATM   23  C   UNL     1      -7.415   4.708  68.882  1.00  0.00    -0.060 C  
HETATM   24  O   UNL     1      -7.558   6.848  69.805  1.00  0.00    -0.099 OA 
ENDBRANCH   4  22
BRANCH   4  25
HETATM   25  O   UNL     1      -9.045   5.647  67.106  1.00  0.00    -0.113 OA 
BRANCH  25  26
HETATM   26  C   UNL     1     -10.391   5.797  67.156  1.00  0.00    -0.240 C  
HETATM   27  O   UNL     1     -11.175   5.435  66.295  1.00  0.00    -0.043 OA 
HETATM   28  C   UNL     1     -10.779   6.412  68.474  1.00  0.00    -0.347 C  
ENDBRANCH  25  26
ENDBRANCH   4  25
TORSDOF 3
ENDMDL
MODEL       79
REMARK 921   NORMALIZED FREE ENERGY PREDICTED BY IDOCK:   -2.29 KCAL/MOL
REMARK 922        TOTAL FREE ENERGY PREDICTED BY IDOCK:   -2.09 KCAL/MOL
REMARK 923 INTER-LIGAND FREE ENERGY PREDICTED BY IDOCK:   -4.18 KCAL/MOL
REMARK 924 INTRA-LIGAND FREE ENERGY PREDICTED BY IDOCK:    2.09 KCAL/MOL
REMARK 927      BINDING AFFINITY PREDICTED BY RF-SCORE:    0.00 PKD
ROOT
HETATM    1  C   UNL     1     -10.832  12.459  66.628  1.00  0.00    -0.281 C  
HETATM    2  C   UNL     1     -11.901  11.549  66.865  1.00  0.00     0.124 C  
HETATM    3  C   UNL     1     -10.774  11.554  67.833  1.00  0.00    -0.241 C  
HETATM    4  C   UNL     1      -9.472  13.130  67.583  1.00  0.00    -0.207 C  
HETATM    5  C   UNL     1      -6.238  10.723  65.798  1.00  0.00    -0.101 C  
HETATM    6  C   UNL     1      -7.463   9.787  65.918  1.00  0.00    -0.103 C  
HETATM    7  C   UNL     1     -10.460  12.902  68.502  1.00  0.00    -0.260 C  
HETATM    8  C   UNL     1      -9.299  11.756  69.385  1.00  0.00     0.770 C  
HETATM    9  C   UNL     1      -7.000   8.504  66.727  1.00  0.00    -0.073 C  
HETATM   10  C   UNL     1      -6.993   7.186  65.967  1.00  0.00    -0.065 C  
HETATM   11  O   UNL     1      -5.586   6.867  64.043  1.00  0.00    -0.030 OA 
HETATM   12  C   UNL     1     -11.443  13.835  69.194  1.00  0.00    -0.346 C  
HETATM   13  C   UNL     1      -6.539   7.428  64.567  1.00  0.00    -0.040 C  
HETATM   14  C   UNL     1      -7.383   8.367  63.812  1.00  0.00    -0.106 C  
HETATM   15  C   UNL     1      -8.239  10.933  68.302  1.00  0.00    -0.127 C  
HETATM   16  C   UNL     1      -8.641  10.484  66.736  1.00  0.00    -0.126 C  
HETATM   17  C   UNL     1      -9.448  11.583  65.841  1.00  0.00    -0.251 C  
HETATM   18  C   UNL     1      -9.929  10.945  64.541  1.00  0.00    -0.376 C  
HETATM   19  C   UNL     1      -8.752  10.457  63.689  1.00  0.00    -0.202 C  
HETATM   20  C   UNL     1      -9.341   9.966  62.352  1.00  0.00    -0.270 C  
HETATM   21  C   UNL     1      -7.884   9.447  64.448  1.00  0.00    -0.123 C  
ENDROOT
BRANCH   4  22
HETATM   22  C   UNL     1      -8.417  13.942  68.506  1.00  0.00    -0.127 C  
HETATM   23  C   UNL     1      -8.904  15.119  69.327  1.00  0.00    -0.207 C  
HETATM   24  O   UNL     1      -7.229  13.629  68.676  1.00  0.00    -0.101 OA 
ENDBRANCH   4  22
BRANCH   4  25
HETATM   25  O   UNL     1     -10.004  14.533  67.090  1.00  0.00    -0.246 OA 
BRANCH  25  26
HETATM   26  C   UNL     1      -9.702  15.089  65.892  1.00  0.00    -0.342 C  
HETATM   27  O   UNL     1     -10.242  14.821  64.832  1.00  0.00    -0.388 OA 
HETATM   28  C   UNL     1      -8.647  16.146  66.081  1.00  0.00    -0.331 C  
ENDBRANCH  25  26
ENDBRANCH   4  25
TORSDOF 3
ENDMDL
MODEL       80
REMARK 921   NORMALIZED FREE ENERGY PREDICTED BY IDOCK:   -2.27 KCAL/MOL
REMARK 922        TOTAL FREE ENERGY PREDICTED BY IDOCK:   -2.06 KCAL/MOL
REMARK 923 INTER-LIGAND FREE ENERGY PREDICTED BY IDOCK:   -4.10 KCAL/MOL
REMARK 924 INTRA-LIGAND FREE ENERGY PREDICTED BY IDOCK:    2.04 KCAL/MOL
REMARK 927      BINDING AFFINITY PREDICTED BY RF-SCORE:    0.00 PKD
ROOT
HETATM    1  C   UNL     1      -6.989  16.561  67.219  1.00  0.00    -0.208 C  
HETATM    2  C   UNL     1      -6.253  16.594  66.001  1.00  0.00     1.082 C  
HETATM    3  C   UNL     1      -7.482  17.425  66.085  1.00  0.00    -0.331 C  
HETATM    4  C   UNL     1      -8.262  17.563  67.986  1.00  0.00    -0.239 C  
HETATM    5  C   UNL     1     -11.678  14.879  67.234  1.00  0.00    -0.308 C  
HETATM    6  C   UNL     1     -10.780  14.806  65.977  1.00  0.00    -0.314 C  
HETATM    7  C   UNL     1      -7.535  18.445  67.234  1.00  0.00    -0.224 C  
HETATM    8  C   UNL     1      -9.085  18.842  66.298  1.00  0.00    -0.250 C  
HETATM    9  C   UNL     1     -11.692  15.146  64.725  1.00  0.00    -0.331 C  
HETATM   10  C   UNL     1     -11.923  14.024  63.724  1.00  0.00    -0.230 C  
HETATM   11  O   UNL     1     -13.028  11.988  64.371  1.00  0.00    -0.600 OA 
HETATM   12  C   UNL     1      -6.467  19.464  67.607  1.00  0.00    -0.232 C  
HETATM   13  C   UNL     1     -12.060  12.733  64.458  1.00  0.00    -0.414 C  
HETATM   14  C   UNL     1     -10.886  12.369  65.266  1.00  0.00    -0.324 C  
HETATM   15  C   UNL     1     -10.132  17.480  66.154  1.00  0.00    -0.317 C  
HETATM   16  C   UNL     1      -9.612  15.888  66.042  1.00  0.00    -0.385 C  
HETATM   17  C   UNL     1      -8.407  15.437  67.045  1.00  0.00    -0.268 C  
HETATM   18  C   UNL     1      -7.904  14.048  66.664  1.00  0.00     0.738 C  
HETATM   19  C   UNL     1      -9.012  12.996  66.800  1.00  0.00    -0.179 C  
HETATM   20  C   UNL     1      -8.362  11.625  66.532  1.00  0.00    -0.122 C  
HETATM   21  C   UNL     1     -10.229  13.340  65.933  1.00  0.00    -0.295 C  
ENDROOT
BRANCH   4  22
HETATM   22  C   UNL     1      -9.202  18.603  68.799  1.00  0.00    -0.285 C  
HETATM   23  C   UNL     1      -8.644  19.956  69.189  1.00  0.00     0.126 C  
HETATM   24  O   UNL     1     -10.400  18.423  69.066  1.00  0.00    -0.302 OA 
ENDBRANCH   4  22
BRANCH   4  25
HETATM   25  O   UNL     1      -7.304  17.564  69.242  1.00  0.00    -0.180 OA 
BRANCH  25  26
HETATM   26  C   UNL     1      -6.958  16.458  69.942  1.00  0.00     0.242 C  
HETATM   27  O   UNL     1      -7.711  15.546  70.242  1.00  0.00     0.250 OA 
HETATM   28  C   UNL     1      -5.481  16.487  70.230  1.00  0.00    -0.196 C  
ENDBRANCH  25  26
ENDBRANCH   4  25
TORSDOF 3
ENDMDL
MODEL       81
REMARK 921   NORMALIZED FREE ENERGY PREDICTED BY IDOCK:   -2.22 KCAL/MOL
REMARK 922        TOTAL FREE ENERGY PREDICTED BY IDOCK:   -2.00 KCAL/MOL
REMARK 923 INTER-LIGAND FREE ENERGY PREDICTED BY IDOCK:   -2.68 KCAL/MOL
REMARK 924 INTRA-LIGAND FREE ENERGY PREDICTED BY IDOCK:    0.69 KCAL/MOL
REMARK 927      BINDING AFFINITY PREDICTED BY RF-SCORE:    0.00 PKD
ROOT
HETATM    1  C   UNL     1      -6.464  10.328  67.167  1.00  0.00    -0.068 C  
HETATM    2  C   UNL     1      -5.145  10.008  66.739  1.00  0.00    -0.040 C  
HETATM    3  C   UNL     1      -6.210   9.003  66.493  1.00  0.00    -0.065 C  
HETATM    4  C   UNL     1      -8.114   9.708  66.836  1.00  0.00    -0.113 C  
HETATM    5  C   UNL     1      -8.701   7.512  70.614  1.00  0.00    -0.141 C  
HETATM    6  C   UNL     1      -7.221   7.305  70.214  1.00  0.00    -0.067 C  
HETATM    7  C   UNL     1      -7.421   9.482  65.678  1.00  0.00    -0.094 C  
HETATM    8  C   UNL     1      -7.785   7.675  65.877  1.00  0.00    -0.098 C  
HETATM    9  C   UNL     1      -6.955   5.742  70.179  1.00  0.00    -0.065 C  
HETATM   10  C   UNL     1      -5.987   5.191  71.214  1.00  0.00    -0.021 C  
HETATM   11  O   UNL     1      -6.444   5.377  73.568  1.00  0.00    -0.063 OA 
HETATM   12  C   UNL     1      -7.399  10.216  64.344  1.00  0.00    -0.116 C  
HETATM   13  C   UNL     1      -6.179   5.918  72.502  1.00  0.00    -0.049 C  
HETATM   14  C   UNL     1      -5.956   7.370  72.417  1.00  0.00    -0.040 C  
HETATM   15  C   UNL     1      -7.850   7.197  67.532  1.00  0.00    -0.112 C  
HETATM   16  C   UNL     1      -6.933   7.885  68.758  1.00  0.00    -0.066 C  
HETATM   17  C   UNL     1      -6.805   9.512  68.754  1.00  0.00    -0.052 C  
HETATM   18  C   UNL     1      -5.769   9.955  69.782  1.00  0.00    -0.037 C  
HETATM   19  C   UNL     1      -6.177   9.545  71.202  1.00  0.00    -0.068 C  
HETATM   20  C   UNL     1      -5.142  10.162  72.162  1.00  0.00    -0.026 C  
HETATM   21  C   UNL     1      -6.377   8.029  71.318  1.00  0.00    -0.035 C  
ENDROOT
BRANCH   4  22
HETATM   22  C   UNL     1      -9.611   9.342  66.340  1.00  0.00    -0.224 C  
HETATM   23  C   UNL     1     -10.664   8.980  67.367  1.00  0.00    -0.231 C  
HETATM   24  O   UNL     1     -10.012   9.416  65.168  1.00  0.00    -0.105 OA 
ENDBRANCH   4  22
BRANCH   4  25
HETATM   25  O   UNL     1      -8.467  11.219  66.543  1.00  0.00    -0.163 OA 
BRANCH  25  26
HETATM   26  C   UNL     1      -8.894  12.102  67.478  1.00  0.00    -0.175 C  
HETATM   27  O   UNL     1      -9.539  11.820  68.475  1.00  0.00    -0.200 OA 
HETATM   28  C   UNL     1      -8.386  13.478  67.140  1.00  0.00    -0.151 C  
ENDBRANCH  25  26
ENDBRANCH   4  25
TORSDOF 3
ENDMDL
MODEL       82
REMARK 921   NORMALIZED FREE ENERGY PREDICTED BY IDOCK:   -2.15 KCAL/MOL
REMARK 922        TOTAL FREE ENERGY PREDICTED BY IDOCK:   -1.91 KCAL/MOL
REMARK 923 INTER-LIGAND FREE ENERGY PREDICTED BY IDOCK:   -3.46 KCAL/MOL
REMARK 924 INTRA-LIGAND FREE ENERGY PREDICTED BY IDOCK:    1.54 KCAL/MOL
REMARK 927      BINDING AFFINITY PREDICTED BY RF-SCORE:    0.00 PKD
ROOT
HETATM    1  C   UNL     1     -10.137  11.573  66.429  1.00  0.00    -0.250 C  
HETATM    2  C   UNL     1     -11.035  11.019  65.474  1.00  0.00    -0.086 C  
HETATM    3  C   UNL     1     -11.600  11.933  66.499  1.00  0.00    -0.328 C  
HETATM    4  C   UNL     1     -10.172  12.931  67.598  1.00  0.00    -0.220 C  
HETATM    5  C   UNL     1     -10.731  10.554  71.269  1.00  0.00     1.316 C  
HETATM    6  C   UNL     1     -11.581   9.870  70.172  1.00  0.00    -0.281 C  
HETATM    7  C   UNL     1     -10.980  13.337  66.571  1.00  0.00    -0.299 C  
HETATM    8  C   UNL     1     -12.371  13.471  67.790  1.00  0.00    -0.007 C  
HETATM    9  C   UNL     1     -13.063   9.754  70.727  1.00  0.00    -0.196 C  
HETATM   10  C   UNL     1     -13.588   8.348  70.977  1.00  0.00     0.089 C  
HETATM   11  O   UNL     1     -12.539   6.894  72.580  1.00  0.00     0.205 OA 
HETATM   12  C   UNL     1     -10.751  14.301  65.415  1.00  0.00    -0.353 C  
HETATM   13  C   UNL     1     -12.487   7.501  71.518  1.00  0.00    -0.346 C  
HETATM   14  C   UNL     1     -11.321   7.384  70.628  1.00  0.00    -0.304 C  
HETATM   15  C   UNL     1     -12.262  12.291  69.042  1.00  0.00    -0.047 C  
HETATM   16  C   UNL     1     -11.623  10.751  68.845  1.00  0.00    -0.361 C  
HETATM   17  C   UNL     1     -10.243  10.634  67.982  1.00  0.00    -0.202 C  
HETATM   18  C   UNL     1      -9.923   9.168  67.708  1.00  0.00    -0.236 C  
HETATM   19  C   UNL     1      -9.700   8.391  69.010  1.00  0.00    -0.171 C  
HETATM   20  C   UNL     1      -9.248   6.972  68.614  1.00  0.00    -0.131 C  
HETATM   21  C   UNL     1     -10.921   8.470  69.934  1.00  0.00    -0.165 C  
ENDROOT
BRANCH   4  22
HETATM   22  C   UNL     1     -10.092  14.307  68.449  1.00  0.00    -0.243 C  
HETATM   23  C   UNL     1     -10.138  15.634  67.718  1.00  0.00    -0.226 C  
HETATM   24  O   UNL     1     -10.082  14.380  69.687  1.00  0.00     0.058 OA 
ENDBRANCH   4  22
BRANCH   4  25
HETATM   25  O   UNL     1      -8.805  13.353  66.930  1.00  0.00    -0.220 OA 
BRANCH  25  26
HETATM   26  C   UNL     1      -7.586  13.145  67.484  1.00  0.00    -0.163 C  
HETATM   27  O   UNL     1      -7.078  12.055  67.687  1.00  0.00    -0.097 OA 
HETATM   28  C   UNL     1      -6.919  14.470  67.742  1.00  0.00    -0.194 C  
ENDBRANCH  25  26
ENDBRANCH   4  25
TORSDOF 3
ENDMDL
MODEL       83
REMARK 921   NORMALIZED FREE ENERGY PREDICTED BY IDOCK:   -1.08 KCAL/MOL
REMARK 922        TOTAL FREE ENERGY PREDICTED BY IDOCK:   -0.66 KCAL/MOL
REMARK 923 INTER-LIGAND FREE ENERGY PREDICTED BY IDOCK:   -3.50 KCAL/MOL
REMARK 924 INTRA-LIGAND FREE ENERGY PREDICTED BY IDOCK:    2.84 KCAL/MOL
REMARK 927      BINDING AFFINITY PREDICTED BY RF-SCORE:    0.00 PKD
ROOT
HETATM    1  C   UNL     1     -10.049  14.598  67.684  1.00  0.00    -0.228 C  
HETATM    2  C   UNL     1     -10.504  14.212  66.391  1.00  0.00    -0.283 C  
HETATM    3  C   UNL     1      -9.068  14.002  66.706  1.00  0.00    -0.250 C  
HETATM    4  C   UNL     1      -8.606  14.272  68.695  1.00  0.00    -0.149 C  
HETATM    5  C   UNL     1      -6.588  18.151  68.134  1.00  0.00    -0.201 C  
HETATM    6  C   UNL     1      -7.226  17.790  66.772  1.00  0.00    -0.241 C  
HETATM    7  C   UNL     1      -8.763  13.140  67.942  1.00  0.00    -0.192 C  
HETATM    8  C   UNL     1      -7.067  13.430  67.250  1.00  0.00     0.004 C  
HETATM    9  C   UNL     1      -6.075  17.844  65.683  1.00  0.00    -0.197 C  
HETATM   10  C   UNL     1      -6.193  18.925  64.619  1.00  0.00    -0.122 C  
HETATM   11  O   UNL     1      -6.174  21.257  65.208  1.00  0.00    -0.191 OA 
HETATM   12  C   UNL     1      -9.338  11.769  68.270  1.00  0.00    -0.193 C  
HETATM   13  C   UNL     1      -6.733  20.168  65.240  1.00  0.00    -0.302 C  
HETATM   14  C   UNL     1      -8.060  20.009  65.857  1.00  0.00    -0.226 C  
HETATM   15  C   UNL     1      -6.692  15.107  67.114  1.00  0.00     0.148 C  
HETATM   16  C   UNL     1      -7.817  16.310  66.789  1.00  0.00    -0.300 C  
HETATM   17  C   UNL     1      -9.238  16.221  67.586  1.00  0.00    -0.206 C  
HETATM   18  C   UNL     1     -10.219  17.242  67.018  1.00  0.00    -0.320 C  
HETATM   19  C   UNL     1      -9.700  18.674  67.193  1.00  0.00    -0.324 C  
HETATM   20  C   UNL     1     -10.822  19.618  66.719  1.00  0.00    -0.489 C  
HETATM   21  C   UNL     1      -8.335  18.868  66.523  1.00  0.00    -0.310 C  
ENDROOT
BRANCH   4  22
HETATM   22  C   UNL     1      -7.451  13.769  69.713  1.00  0.00     0.595 C  
HETATM   23  C   UNL     1      -6.874  12.377  69.550  1.00  0.00     0.082 C  
HETATM   24  O   UNL     1      -6.917  14.468  70.588  1.00  0.00     0.136 OA 
ENDBRANCH   4  22
BRANCH   4  25
HETATM   25  O   UNL     1      -9.653  13.891  69.814  1.00  0.00     0.803 OA 
BRANCH  25  26
HETATM   26  C   UNL     1     -10.678  14.685  70.207  1.00  0.00     0.117 C  
HETATM   27  O   UNL     1     -10.578  15.853  70.546  1.00  0.00    -0.257 OA 
HETATM   28  C   UNL     1     -11.974  13.928  70.090  1.00  0.00    -0.402 C  
ENDBRANCH  25  26
ENDBRANCH   4  25
TORSDOF 3
ENDMDL
MODEL       84
REMARK 921   NORMALIZED FREE ENERGY PREDICTED BY IDOCK:   -0.95 KCAL/MOL
REMARK 922        TOTAL FREE ENERGY PREDICTED BY IDOCK:   -0.51 KCAL/MOL
REMARK 923 INTER-LIGAND FREE ENERGY PREDICTED BY IDOCK:   -3.48 KCAL/MOL
REMARK 924 INTRA-LIGAND FREE ENERGY PREDICTED BY IDOCK:    2.97 KCAL/MOL
REMARK 927      BINDING AFFINITY PREDICTED BY RF-SCORE:    0.00 PKD
ROOT
HETATM    1  C   UNL     1      -9.480   9.031  67.216  1.00  0.00    -0.189 C  
HETATM    2  C   UNL     1     -10.840   8.612  67.208  1.00  0.00    -0.077 C  
HETATM    3  C   UNL     1     -10.181   8.784  68.528  1.00  0.00    -0.220 C  
HETATM    4  C   UNL     1      -8.347   9.713  68.426  1.00  0.00    -0.117 C  
HETATM    5  C   UNL     1      -5.986   6.064  69.165  1.00  0.00    -0.024 C  
HETATM    6  C   UNL     1      -7.454   5.608  68.995  1.00  0.00    -0.083 C  
HETATM    7  C   UNL     1      -9.578  10.169  68.810  1.00  0.00    -0.170 C  
HETATM    8  C   UNL     1      -9.330   9.306  70.433  1.00  0.00    -0.295 C  
HETATM    9  C   UNL     1      -7.836   4.759  70.280  1.00  0.00    -0.058 C  
HETATM   10  C   UNL     1      -8.123   3.282  70.060  1.00  0.00    -0.058 C  
HETATM   11  O   UNL     1      -6.435   1.801  69.199  1.00  0.00    -0.028 OA 
HETATM   12  C   UNL     1     -10.262  11.519  68.648  1.00  0.00    -0.217 C  
HETATM   13  C   UNL     1      -7.190   2.748  69.026  1.00  0.00    -0.044 C  
HETATM   14  C   UNL     1      -7.291   3.416  67.719  1.00  0.00    -0.058 C  
HETATM   15  C   UNL     1      -8.412   7.856  70.271  1.00  0.00    -0.128 C  
HETATM   16  C   UNL     1      -8.440   6.858  68.922  1.00  0.00    -0.125 C  
HETATM   17  C   UNL     1      -8.400   7.591  67.465  1.00  0.00    -0.117 C  
HETATM   18  C   UNL     1      -8.657   6.571  66.361  1.00  0.00    -0.136 C  
HETATM   19  C   UNL     1      -7.576   5.484  66.340  1.00  0.00    -0.091 C  
HETATM   20  C   UNL     1      -7.854   4.599  65.110  1.00  0.00    -0.090 C  
HETATM   21  C   UNL     1      -7.484   4.751  67.684  1.00  0.00    -0.078 C  
ENDROOT
BRANCH   4  22
HETATM   22  C   UNL     1      -7.407  10.576  69.424  1.00  0.00    -0.133 C  
HETATM   23  C   UNL     1      -6.829  11.892  68.945  1.00  0.00    -0.103 C  
HETATM   24  O   UNL     1      -7.179  10.294  70.611  1.00  0.00    -0.306 OA 
ENDBRANCH   4  22
BRANCH   4  25
HETATM   25  O   UNL     1      -8.076  10.823  67.335  1.00  0.00    -0.111 OA 
BRANCH  25  26
HETATM   26  C   UNL     1      -7.834  10.569  66.027  1.00  0.00    -0.147 C  
HETATM   27  O   UNL     1      -8.599  10.808  65.107  1.00  0.00    -0.178 OA 
HETATM   28  C   UNL     1      -6.444  10.014  65.871  1.00  0.00    -0.096 C  
ENDBRANCH  25  26
ENDBRANCH   4  25
TORSDOF 3
ENDMDL
MODEL       85
REMARK 921   NORMALIZED FREE ENERGY PREDICTED BY IDOCK:   -0.90 KCAL/MOL
REMARK 922        TOTAL FREE ENERGY PREDICTED BY IDOCK:   -0.45 KCAL/MOL
REMARK 923 INTER-LIGAND FREE ENERGY PREDICTED BY IDOCK:   -2.37 KCAL/MOL
REMARK 924 INTRA-LIGAND FREE ENERGY PREDICTED BY IDOCK:    1.92 KCAL/MOL
REMARK 927      BINDING AFFINITY PREDICTED BY RF-SCORE:    0.00 PKD
ROOT
HETATM    1  C   UNL     1      -9.379   5.345  67.445  1.00  0.00    -0.117 C  
HETATM    2  C   UNL     1     -10.449   6.095  68.009  1.00  0.00    -0.284 C  
HETATM    3  C   UNL     1      -9.083   6.673  68.096  1.00  0.00    -0.119 C  
HETATM    4  C   UNL     1      -7.686   5.677  66.957  1.00  0.00    -0.101 C  
HETATM    5  C   UNL     1      -5.683   3.723  70.364  1.00  0.00    -0.013 C  
HETATM    6  C   UNL     1      -6.942   4.416  70.937  1.00  0.00    -0.037 C  
HETATM    7  C   UNL     1      -8.340   6.863  66.764  1.00  0.00    -0.116 C  
HETATM    8  C   UNL     1      -7.168   7.643  67.971  1.00  0.00    -0.097 C  
HETATM    9  C   UNL     1      -6.465   5.358  72.119  1.00  0.00    -0.055 C  
HETATM   10  C   UNL     1      -6.934   4.987  73.518  1.00  0.00    -0.076 C  
HETATM   11  O   UNL     1      -6.315   2.891  74.522  1.00  0.00    -0.018 OA 
HETATM   12  C   UNL     1      -8.866   7.545  65.509  1.00  0.00    -0.012 C  
HETATM   13  C   UNL     1      -6.932   3.502  73.659  1.00  0.00    -0.046 C  
HETATM   14  C   UNL     1      -7.803   2.803  72.701  1.00  0.00    -0.054 C  
HETATM   15  C   UNL     1      -6.681   6.551  69.213  1.00  0.00    -0.052 C  
HETATM   16  C   UNL     1      -7.646   5.328  69.836  1.00  0.00    -0.065 C  
HETATM   17  C   UNL     1      -8.503   4.448  68.761  1.00  0.00    -0.095 C  
HETATM   18  C   UNL     1      -9.486   3.542  69.495  1.00  0.00    -0.236 C  
HETATM   19  C   UNL     1      -8.758   2.546  70.404  1.00  0.00    -0.127 C  
HETATM   20  C   UNL     1      -9.828   1.598  70.978  1.00  0.00    -0.121 C  
HETATM   21  C   UNL     1      -7.874   3.259  71.434  1.00  0.00    -0.056 C  
ENDROOT
BRANCH   4  22
HETATM   22  C   UNL     1      -6.264   6.029  66.266  1.00  0.00    -0.037 C  
HETATM   23  C   UNL     1      -6.225   7.002  65.105  1.00  0.00    -0.037 C  
HETATM   24  O   UNL     1      -5.159   5.631  66.666  1.00  0.00    -0.005 OA 
ENDBRANCH   4  22
BRANCH   4  25
HETATM   25  O   UNL     1      -8.103   5.015  65.585  1.00  0.00    -0.109 OA 
BRANCH  25  26
HETATM   26  C   UNL     1      -8.126   3.681  65.353  1.00  0.00    -0.097 C  
HETATM   27  O   UNL     1      -8.812   2.871  65.954  1.00  0.00    -0.130 OA 
HETATM   28  C   UNL     1      -7.230   3.357  64.188  1.00  0.00    -0.058 C  
ENDBRANCH  25  26
ENDBRANCH   4  25
TORSDOF 3
ENDMDL
MODEL       86
REMARK 921   NORMALIZED FREE ENERGY PREDICTED BY IDOCK:   -0.66 KCAL/MOL
REMARK 922        TOTAL FREE ENERGY PREDICTED BY IDOCK:   -0.17 KCAL/MOL
REMARK 923 INTER-LIGAND FREE ENERGY PREDICTED BY IDOCK:   -3.89 KCAL/MOL
REMARK 924 INTRA-LIGAND FREE ENERGY PREDICTED BY IDOCK:    3.72 KCAL/MOL
REMARK 927      BINDING AFFINITY PREDICTED BY RF-SCORE:    0.00 PKD
ROOT
HETATM    1  C   UNL     1      -9.996  16.747  68.070  1.00  0.00    -0.272 C  
HETATM    2  C   UNL     1     -10.698  16.753  69.308  1.00  0.00    -0.324 C  
HETATM    3  C   UNL     1      -9.215  16.715  69.359  1.00  0.00     0.040 C  
HETATM    4  C   UNL     1      -8.311  17.055  67.540  1.00  0.00    -0.188 C  
HETATM    5  C   UNL     1      -7.112  12.865  66.877  1.00  0.00     0.400 C  
HETATM    6  C   UNL     1      -8.011  12.868  68.136  1.00  0.00    -0.153 C  
HETATM    7  C   UNL     1      -8.481  17.856  68.636  1.00  0.00    -0.272 C  
HETATM    8  C   UNL     1      -7.079  16.952  69.446  1.00  0.00    -0.126 C  
HETATM    9  C   UNL     1      -7.195  12.167  69.301  1.00  0.00     0.097 C  
HETATM   10  C   UNL     1      -7.740  10.843  69.816  1.00  0.00     0.166 C  
HETATM   11  O   UNL     1      -7.927   8.930  68.371  1.00  0.00    -0.102 OA 
HETATM   12  C   UNL     1      -8.740  19.349  68.777  1.00  0.00    -0.377 C  
HETATM   13  C   UNL     1      -8.288  10.060  68.671  1.00  0.00    -0.116 C  
HETATM   14  C   UNL     1      -9.376  10.733  67.944  1.00  0.00    -0.154 C  
HETATM   15  C   UNL     1      -7.009  15.294  68.976  1.00  0.00    -0.136 C  
HETATM   16  C   UNL     1      -8.348  14.356  68.598  1.00  0.00    -0.147 C  
HETATM   17  C   UNL     1      -9.491  15.049  67.664  1.00  0.00    -0.195 C  
HETATM   18  C   UNL     1     -10.726  14.157  67.602  1.00  0.00    -0.260 C  
HETATM   19  C   UNL     1     -10.403  12.797  66.973  1.00  0.00    -0.240 C  
HETATM   20  C   UNL     1     -11.738  12.040  66.832  1.00  0.00    -0.342 C  
HETATM   21  C   UNL     1      -9.297  12.064  67.742  1.00  0.00    -0.190 C  
ENDROOT
BRANCH   4  22
HETATM   22  C   UNL     1      -6.874  17.594  67.022  1.00  0.00    -0.171 C  
HETATM   23  C   UNL     1      -5.811  16.594  66.615  1.00  0.00     0.045 C  
HETATM   24  O   UNL     1      -6.583  18.786  66.841  1.00  0.00    -0.187 OA 
ENDBRANCH   4  22
BRANCH   4  25
HETATM   25  O   UNL     1      -8.972  18.038  66.495  1.00  0.00    -0.267 OA 
BRANCH  25  26
HETATM   26  C   UNL     1     -10.218  17.889  65.984  1.00  0.00    -0.295 C  
HETATM   27  O   UNL     1     -11.114  18.713  66.056  1.00  0.00     0.043 OA 
HETATM   28  C   UNL     1     -10.306  16.580  65.247  1.00  0.00    -0.162 C  
ENDBRANCH  25  26
ENDBRANCH   4  25
TORSDOF 3
ENDMDL
MODEL       87
REMARK 921   NORMALIZED FREE ENERGY PREDICTED BY IDOCK:   -0.47 KCAL/MOL
REMARK 922        TOTAL FREE ENERGY PREDICTED BY IDOCK:    0.06 KCAL/MOL
REMARK 923 INTER-LIGAND FREE ENERGY PREDICTED BY IDOCK:   -0.58 KCAL/MOL
REMARK 924 INTRA-LIGAND FREE ENERGY PREDICTED BY IDOCK:    0.65 KCAL/MOL
REMARK 927      BINDING AFFINITY PREDICTED BY RF-SCORE:    0.00 PKD
ROOT
HETATM    1  C   UNL     1     -10.769  10.401  66.570  1.00  0.00    -0.162 C  
HETATM    2  C   UNL     1     -11.980  10.602  65.849  1.00  0.00     2.633 C  
HETATM    3  C   UNL     1     -10.846  11.517  65.558  1.00  0.00    -0.313 C  
HETATM    4  C   UNL     1      -9.062  10.921  66.397  1.00  0.00    -0.172 C  
HETATM    5  C   UNL     1      -9.042  13.988  69.563  1.00  0.00     0.784 C  
HETATM    6  C   UNL     1     -10.420  14.087  68.868  1.00  0.00    -0.210 C  
HETATM    7  C   UNL     1      -9.534  10.851  65.114  1.00  0.00    -0.268 C  
HETATM    8  C   UNL     1      -9.133  12.651  64.926  1.00  0.00     0.942 C  
HETATM    9  C   UNL     1     -10.608  15.592  68.404  1.00  0.00    -0.252 C  
HETATM   10  C   UNL     1     -11.717  16.382  69.084  1.00  0.00    -0.029 C  
HETATM   11  O   UNL     1     -11.680  16.789  71.454  1.00  0.00    -0.084 OA 
HETATM   12  C   UNL     1      -9.358   9.808  64.019  1.00  0.00    -0.215 C  
HETATM   13  C   UNL     1     -11.780  15.999  70.524  1.00  0.00    -0.329 C  
HETATM   14  C   UNL     1     -12.048  14.571  70.758  1.00  0.00    -0.398 C  
HETATM   15  C   UNL     1      -9.334  13.526  66.398  1.00  0.00    -0.191 C  
HETATM   16  C   UNL     1     -10.477  13.163  67.571  1.00  0.00    -0.229 C  
HETATM   17  C   UNL     1     -10.672  11.587  67.944  1.00  0.00    -0.241 C  
HETATM   18  C   UNL     1     -11.889  11.411  68.848  1.00  0.00    -0.413 C  
HETATM   19  C   UNL     1     -11.714  12.163  70.173  1.00  0.00    -0.301 C  
HETATM   20  C   UNL     1     -12.925  11.802  71.055  1.00  0.00    -0.200 C  
HETATM   21  C   UNL     1     -11.472  13.660  69.947  1.00  0.00    -0.206 C  
ENDROOT
BRANCH   4  22
HETATM   22  C   UNL     1      -7.487  11.154  66.100  1.00  0.00    -0.022 C  
HETATM   23  C   UNL     1      -6.648  11.914  67.107  1.00  0.00    -0.148 C  
HETATM   24  O   UNL     1      -6.865  10.680  65.137  1.00  0.00    -0.067 OA 
ENDBRANCH   4  22
BRANCH   4  25
HETATM   25  O   UNL     1      -8.729   9.385  66.550  1.00  0.00    -0.131 OA 
BRANCH  25  26
HETATM   26  C   UNL     1      -8.610   8.741  67.737  1.00  0.00    -0.129 C  
HETATM   27  O   UNL     1      -8.263   9.254  68.787  1.00  0.00    -0.109 OA 
HETATM   28  C   UNL     1      -9.047   7.310  67.578  1.00  0.00    -0.125 C  
ENDBRANCH  25  26
ENDBRANCH   4  25
TORSDOF 3
ENDMDL
MODEL       88
REMARK 921   NORMALIZED FREE ENERGY PREDICTED BY IDOCK:   -0.37 KCAL/MOL
REMARK 922        TOTAL FREE ENERGY PREDICTED BY IDOCK:    0.17 KCAL/MOL
REMARK 923 INTER-LIGAND FREE ENERGY PREDICTED BY IDOCK:   -2.99 KCAL/MOL
REMARK 924 INTRA-LIGAND FREE ENERGY PREDICTED BY IDOCK:    3.16 KCAL/MOL
REMARK 927      BINDING AFFINITY PREDICTED BY RF-SCORE:    0.00 PKD
ROOT
HETATM    1  C   UNL     1      -9.695  14.835  68.845  1.00  0.00    -0.215 C  
HETATM    2  C   UNL     1      -8.768  15.031  69.907  1.00  0.00     0.264 C  
HETATM    3  C   UNL     1      -8.586  13.834  69.048  1.00  0.00     0.261 C  
HETATM    4  C   UNL     1      -9.761  13.840  67.356  1.00  0.00    -0.235 C  
HETATM    5  C   UNL     1     -12.591  10.782  68.800  1.00  0.00     0.947 C  
HETATM    6  C   UNL     1     -11.670  11.124  69.995  1.00  0.00    -0.438 C  
HETATM    7  C   UNL     1      -8.431  14.097  67.542  1.00  0.00    -0.194 C  
HETATM    8  C   UNL     1      -8.146  12.267  67.642  1.00  0.00    -0.165 C  
HETATM    9  C   UNL     1     -11.044   9.763  70.514  1.00  0.00    -0.384 C  
HETATM   10  C   UNL     1     -11.455   9.311  71.908  1.00  0.00    -0.382 C  
HETATM   11  O   UNL     1     -13.750   8.820  72.431  1.00  0.00    -0.421 OA 
HETATM   12  C   UNL     1      -7.480  15.082  66.875  1.00  0.00     0.162 C  
HETATM   13  C   UNL     1     -12.893   9.639  72.127  1.00  0.00    -0.375 C  
HETATM   14  C   UNL     1     -13.210  11.072  72.016  1.00  0.00    -0.447 C  
HETATM   15  C   UNL     1      -9.477  11.434  68.354  1.00  0.00    -0.194 C  
HETATM   16  C   UNL     1     -10.472  12.074  69.544  1.00  0.00     0.358 C  
HETATM   17  C   UNL     1     -10.951  13.622  69.348  1.00  0.00    -0.117 C  
HETATM   18  C   UNL     1     -11.653  14.114  70.610  1.00  0.00    -0.169 C  
HETATM   19  C   UNL     1     -12.913  13.293  70.906  1.00  0.00    -0.171 C  
HETATM   20  C   UNL     1     -13.611  13.962  72.106  1.00  0.00    -0.599 C  
HETATM   21  C   UNL     1     -12.594  11.802  71.064  1.00  0.00    -0.409 C  
ENDROOT
BRANCH   4  22
HETATM   22  C   UNL     1      -9.711  13.161  65.886  1.00  0.00    -0.178 C  
HETATM   23  C   UNL     1     -10.624  13.685  64.797  1.00  0.00    -0.436 C  
HETATM   24  O   UNL     1      -8.909  12.283  65.533  1.00  0.00     0.267 OA 
ENDBRANCH   4  22
BRANCH   4  25
HETATM   25  O   UNL     1     -10.109  15.200  66.633  1.00  0.00    -0.252 OA 
BRANCH  25  26
HETATM   26  C   UNL     1     -11.085  16.052  67.032  1.00  0.00    -0.071 C  
HETATM   27  O   UNL     1     -10.938  17.243  67.249  1.00  0.00    -0.181 OA 
HETATM   28  C   UNL     1     -12.398  15.319  67.093  1.00  0.00     0.791 C  
ENDBRANCH  25  26
ENDBRANCH   4  25
TORSDOF 3
ENDMDL
MODEL       89
REMARK 921   NORMALIZED FREE ENERGY PREDICTED BY IDOCK:   -0.14 KCAL/MOL
REMARK 922        TOTAL FREE ENERGY PREDICTED BY IDOCK:    0.44 KCAL/MOL
REMARK 923 INTER-LIGAND FREE ENERGY PREDICTED BY IDOCK:   -1.60 KCAL/MOL
REMARK 924 INTRA-LIGAND FREE ENERGY PREDICTED BY IDOCK:    2.04 KCAL/MOL
REMARK 927      BINDING AFFINITY PREDICTED BY RF-SCORE:    0.00 PKD
ROOT
HETATM    1  C   UNL     1      -8.143   9.381  68.474  1.00  0.00    -0.105 C  
HETATM    2  C   UNL     1      -8.845   9.002  69.653  1.00  0.00    -0.145 C  
HETATM    3  C   UNL     1      -9.646   9.505  68.508  1.00  0.00    -0.150 C  
HETATM    4  C   UNL     1      -8.570   9.693  66.762  1.00  0.00    -0.134 C  
HETATM    5  C   UNL     1      -8.349  14.094  66.876  1.00  0.00    -0.062 C  
HETATM    6  C   UNL     1      -8.968  13.653  68.223  1.00  0.00    -0.187 C  
HETATM    7  C   UNL     1      -9.474   8.754  67.178  1.00  0.00    -0.208 C  
HETATM    8  C   UNL     1     -10.827   9.953  66.767  1.00  0.00    -0.085 C  
HETATM    9  C   UNL     1     -10.340  14.431  68.390  1.00  0.00    -0.244 C  
HETATM   10  C   UNL     1     -10.417  15.440  69.526  1.00  0.00    -0.264 C  
HETATM   11  O   UNL     1      -8.963  17.354  69.592  1.00  0.00     0.452 OA 
HETATM   12  C   UNL     1      -9.558   7.250  66.955  1.00  0.00    -0.225 C  
HETATM   13  C   UNL     1      -9.106  16.140  69.652  1.00  0.00     0.119 C  
HETATM   14  C   UNL     1      -7.970  15.248  69.930  1.00  0.00     0.097 C  
HETATM   15  C   UNL     1     -10.355  11.590  67.031  1.00  0.00    -0.254 C  
HETATM   16  C   UNL     1      -9.287  12.091  68.225  1.00  0.00    -0.197 C  
HETATM   17  C   UNL     1      -7.946  11.187  68.436  1.00  0.00    -0.137 C  
HETATM   18  C   UNL     1      -7.204  11.640  69.691  1.00  0.00     0.211 C  
HETATM   19  C   UNL     1      -6.744  13.097  69.573  1.00  0.00     0.023 C  
HETATM   20  C   UNL     1      -5.892  13.400  70.821  1.00  0.00    -0.148 C  
HETATM   21  C   UNL     1      -7.922  14.046  69.321  1.00  0.00     0.247 C  
ENDROOT
BRANCH   4  22
HETATM   22  C   UNL     1      -8.896   9.706  65.175  1.00  0.00    -0.180 C  
HETATM   23  C   UNL     1      -8.989   8.392  64.426  1.00  0.00     0.410 C  
HETATM   24  O   UNL     1      -9.169  10.719  64.512  1.00  0.00    -0.204 OA 
ENDBRANCH   4  22
BRANCH   4  25
HETATM   25  O   UNL     1      -7.399   8.684  66.436  1.00  0.00    -0.078 OA 
BRANCH  25  26
HETATM   26  C   UNL     1      -6.238   9.028  65.828  1.00  0.00    -0.056 C  
HETATM   27  O   UNL     1      -6.031   8.990  64.626  1.00  0.00    -0.064 OA 
HETATM   28  C   UNL     1      -5.265   9.538  66.856  1.00  0.00    -0.034 C  
ENDBRANCH  25  26
ENDBRANCH   4  25
TORSDOF 3
ENDMDL
MODEL       90
REMARK 921   NORMALIZED FREE ENERGY PREDICTED BY IDOCK:   -0.09 KCAL/MOL
REMARK 922        TOTAL FREE ENERGY PREDICTED BY IDOCK:    0.50 KCAL/MOL
REMARK 923 INTER-LIGAND FREE ENERGY PREDICTED BY IDOCK:   -2.50 KCAL/MOL
REMARK 924 INTRA-LIGAND FREE ENERGY PREDICTED BY IDOCK:    3.01 KCAL/MOL
REMARK 927      BINDING AFFINITY PREDICTED BY RF-SCORE:    0.00 PKD
ROOT
HETATM    1  C   UNL     1      -9.595   5.317  67.065  1.00  0.00    -0.150 C  
HETATM    2  C   UNL     1     -10.805   6.059  66.960  1.00  0.00    -0.413 C  
HETATM    3  C   UNL     1      -9.527   6.804  66.820  1.00  0.00    -0.199 C  
HETATM    4  C   UNL     1      -7.873   5.589  66.647  1.00  0.00    -0.101 C  
HETATM    5  C   UNL     1      -6.374   6.338  70.724  1.00  0.00    -0.040 C  
HETATM    6  C   UNL     1      -7.766   7.007  70.642  1.00  0.00    -0.095 C  
HETATM    7  C   UNL     1      -8.573   6.313  65.720  1.00  0.00    -0.153 C  
HETATM    8  C   UNL     1      -7.703   7.833  66.331  1.00  0.00    -0.093 C  
HETATM    9  C   UNL     1      -7.587   8.524  71.068  1.00  0.00    -0.093 C  
HETATM   10  C   UNL     1      -8.271   8.955  72.357  1.00  0.00     0.217 C  
HETATM   11  O   UNL     1      -7.682   7.966  74.468  1.00  0.00    -0.171 OA 
HETATM   12  C   UNL     1      -8.914   6.043  64.261  1.00  0.00     0.566 C  
HETATM   13  C   UNL     1      -8.178   7.851  73.355  1.00  0.00    -0.193 C  
HETATM   14  C   UNL     1      -8.804   6.592  72.923  1.00  0.00    -0.127 C  
HETATM   15  C   UNL     1      -7.365   7.761  68.020  1.00  0.00    -0.102 C  
HETATM   16  C   UNL     1      -8.329   6.979  69.151  1.00  0.00    -0.125 C  
HETATM   17  C   UNL     1      -8.905   5.510  68.735  1.00  0.00    -0.109 C  
HETATM   18  C   UNL     1      -9.931   5.043  69.762  1.00  0.00    -0.319 C  
HETATM   19  C   UNL     1      -9.303   4.896  71.153  1.00  0.00    -0.204 C  
HETATM   20  C   UNL     1     -10.382   4.288  72.070  1.00  0.00    -0.169 C  
HETATM   21  C   UNL     1      -8.680   6.212  71.635  1.00  0.00    -0.135 C  
ENDROOT
BRANCH   4  22
HETATM   22  C   UNL     1      -6.382   5.714  66.028  1.00  0.00    -0.039 C  
HETATM   23  C   UNL     1      -5.198   5.238  66.846  1.00  0.00    -0.008 C  
HETATM   24  O   UNL     1      -6.116   6.095  64.878  1.00  0.00    -0.028 OA 
ENDBRANCH   4  22
BRANCH   4  25
HETATM   25  O   UNL     1      -7.981   4.197  65.908  1.00  0.00    -0.093 OA 
BRANCH  25  26
HETATM   26  C   UNL     1      -8.889   3.238  66.210  1.00  0.00    -0.140 C  
HETATM   27  O   UNL     1      -9.981   3.106  65.681  1.00  0.00     0.104 OA 
HETATM   28  C   UNL     1      -8.314   2.311  67.247  1.00  0.00    -0.088 C  
ENDBRANCH  25  26
ENDBRANCH   4  25
TORSDOF 3
ENDMDL
MODEL       91
REMARK 921   NORMALIZED FREE ENERGY PREDICTED BY IDOCK:    1.19 KCAL/MOL
REMARK 922        TOTAL FREE ENERGY PREDICTED BY IDOCK:    2.01 KCAL/MOL
REMARK 923 INTER-LIGAND FREE ENERGY PREDICTED BY IDOCK:   -1.32 KCAL/MOL
REMARK 924 INTRA-LIGAND FREE ENERGY PREDICTED BY IDOCK:    3.33 KCAL/MOL
REMARK 927      BINDING AFFINITY PREDICTED BY RF-SCORE:    0.00 PKD
ROOT
HETATM    1  C   UNL     1      -9.167  10.441  70.557  1.00  0.00     1.065 C  
HETATM    2  C   UNL     1      -7.779  10.253  70.303  1.00  0.00     0.136 C  
HETATM    3  C   UNL     1      -8.737   9.787  69.268  1.00  0.00    -0.165 C  
HETATM    4  C   UNL     1     -10.673  10.417  69.585  1.00  0.00    -0.265 C  
HETATM    5  C   UNL     1     -12.180   6.490  70.905  1.00  0.00    -0.225 C  
HETATM    6  C   UNL     1     -10.646   6.347  70.775  1.00  0.00    -0.288 C  
HETATM    7  C   UNL     1      -9.706  10.845  68.716  1.00  0.00    -0.196 C  
HETATM    8  C   UNL     1     -10.092   9.378  67.649  1.00  0.00    -0.262 C  
HETATM    9  C   UNL     1     -10.366   5.117  69.815  1.00  0.00    -0.332 C  
HETATM   10  C   UNL     1      -9.687   3.906  70.438  1.00  0.00    -0.245 C  
HETATM   11  O   UNL     1     -10.729   2.678  72.224  1.00  0.00     0.020 OA 
HETATM   12  C   UNL     1      -9.352  12.227  68.186  1.00  0.00    -0.205 C  
HETATM   13  C   UNL     1     -10.207   3.709  71.822  1.00  0.00    -0.007 C  
HETATM   14  C   UNL     1      -9.983   4.853  72.720  1.00  0.00    -0.203 C  
HETATM   15  C   UNL     1     -10.572   8.003  68.572  1.00  0.00    -0.144 C  
HETATM   16  C   UNL     1     -10.002   7.645  70.110  1.00  0.00    -0.186 C  
HETATM   17  C   UNL     1      -9.893   8.888  71.161  1.00  0.00    -0.345 C  
HETATM   18  C   UNL     1      -9.156   8.443  72.420  1.00  0.00    -0.326 C  
HETATM   19  C   UNL     1      -9.908   7.318  73.140  1.00  0.00    -0.281 C  
HETATM   20  C   UNL     1      -9.157   7.049  74.458  1.00  0.00    -0.219 C  
HETATM   21  C   UNL     1     -10.117   6.102  72.229  1.00  0.00    -0.201 C  
ENDROOT
BRANCH   4  22
HETATM   22  C   UNL     1     -11.991  10.667  68.679  1.00  0.00     0.058 C  
HETATM   23  C   UNL     1     -13.362  10.462  69.292  1.00  0.00     2.486 C  
HETATM   24  O   UNL     1     -11.987  11.108  67.519  1.00  0.00    -0.580 OA 
ENDBRANCH   4  22
BRANCH   4  25
HETATM   25  O   UNL     1     -10.954  11.822  70.248  1.00  0.00     0.329 OA 
BRANCH  25  26
HETATM   26  C   UNL     1     -12.054  12.117  70.982  1.00  0.00     0.047 C  
HETATM   27  O   UNL     1     -12.567  13.220  71.076  1.00  0.00    -0.356 OA 
HETATM   28  C   UNL     1     -12.595  10.858  71.605  1.00  0.00    -0.431 C  
ENDBRANCH  25  26
ENDBRANCH   4  25
TORSDOF 3
ENDMDL
MODEL       92
REMARK 921   NORMALIZED FREE ENERGY PREDICTED BY IDOCK:    5.10 KCAL/MOL
REMARK 922        TOTAL FREE ENERGY PREDICTED BY IDOCK:    6.61 KCAL/MOL
REMARK 923 INTER-LIGAND FREE ENERGY PREDICTED BY IDOCK:    1.26 KCAL/MOL
REMARK 924 INTRA-LIGAND FREE ENERGY PREDICTED BY IDOCK:    5.35 KCAL/MOL
REMARK 927      BINDING AFFINITY PREDICTED BY RF-SCORE:    0.00 PKD
ROOT
HETATM    1  C   UNL     1      -9.923  18.023  68.420  1.00  0.00    -0.382 C  
HETATM    2  C   UNL     1     -10.308  17.816  69.774  1.00  0.00     0.502 C  
HETATM    3  C   UNL     1      -8.978  17.308  69.352  1.00  0.00     0.344 C  
HETATM    4  C   UNL     1      -8.392  17.962  67.489  1.00  0.00    -0.228 C  
HETATM    5  C   UNL     1      -9.075  14.109  65.459  1.00  0.00     0.806 C  
HETATM    6  C   UNL     1      -9.635  13.952  66.892  1.00  0.00    -0.271 C  
HETATM    7  C   UNL     1      -8.017  18.344  68.748  1.00  0.00    -0.278 C  
HETATM    8  C   UNL     1      -6.947  16.831  68.829  1.00  0.00    -0.197 C  
HETATM    9  C   UNL     1      -8.943  12.676  67.532  1.00  0.00    -0.187 C  
HETATM   10  C   UNL     1      -9.847  11.492  67.841  1.00  0.00    -0.192 C  
HETATM   11  O   UNL     1     -11.045  10.354  66.094  1.00  0.00     0.101 OA 
HETATM   12  C   UNL     1      -7.640  19.698  69.332  1.00  0.00    -0.123 C  
HETATM   13  C   UNL     1     -10.871  11.363  66.764  1.00  0.00    -0.286 C  
HETATM   14  C   UNL     1     -11.732  12.546  66.603  1.00  0.00    -0.453 C  
HETATM   15  C   UNL     1      -7.622  15.503  67.961  1.00  0.00    -0.133 C  
HETATM   16  C   UNL     1      -9.267  15.214  67.794  1.00  0.00    -0.180 C  
HETATM   17  C   UNL     1     -10.210  16.504  67.465  1.00  0.00    -0.283 C  
HETATM   18  C   UNL     1     -11.681  16.114  67.567  1.00  0.00     0.375 C  
HETATM   19  C   UNL     1     -12.044  15.027  66.549  1.00  0.00     0.134 C  
HETATM   20  C   UNL     1     -13.568  14.816  66.643  1.00  0.00     4.220 C  
HETATM   21  C   UNL     1     -11.182  13.772  66.728  1.00  0.00    -0.327 C  
ENDROOT
BRANCH   4  22
HETATM   22  C   UNL     1      -6.992  18.177  66.704  1.00  0.00    -0.210 C  
HETATM   23  C   UNL     1      -5.790  17.338  67.090  1.00  0.00    -0.181 C  
HETATM   24  O   UNL     1      -6.829  18.926  65.729  1.00  0.00    -0.250 OA 
ENDBRANCH   4  22
BRANCH   4  25
HETATM   25  O   UNL     1      -8.810  19.398  66.982  1.00  0.00    -0.283 OA 
BRANCH  25  26
HETATM   26  C   UNL     1     -10.089  19.832  66.878  1.00  0.00    -0.437 C  
HETATM   27  O   UNL     1     -10.791  20.194  67.808  1.00  0.00    -0.179 OA 
HETATM   28  C   UNL     1     -10.491  19.870  65.428  1.00  0.00    -0.165 C  
ENDBRANCH  25  26
ENDBRANCH   4  25
TORSDOF 3
ENDMDL
MODEL       93
REMARK 921   NORMALIZED FREE ENERGY PREDICTED BY IDOCK:    5.19 KCAL/MOL
REMARK 922        TOTAL FREE ENERGY PREDICTED BY IDOCK:    6.72 KCAL/MOL
REMARK 923 INTER-LIGAND FREE ENERGY PREDICTED BY IDOCK:   -1.19 KCAL/MOL
REMARK 924 INTRA-LIGAND FREE ENERGY PREDICTED BY IDOCK:    7.90 KCAL/MOL
REMARK 927      BINDING AFFINITY PREDICTED BY RF-SCORE:    0.00 PKD
ROOT
HETATM    1  C   UNL     1      -8.992   6.704  66.375  1.00  0.00    -0.161 C  
HETATM    2  C   UNL     1      -9.131   8.115  66.245  1.00  0.00    -0.231 C  
HETATM    3  C   UNL     1      -7.838   7.596  66.759  1.00  0.00    -0.107 C  
HETATM    4  C   UNL     1      -7.633   5.554  66.580  1.00  0.00    -0.088 C  
HETATM    5  C   UNL     1      -8.209   4.697  70.866  1.00  0.00    -0.089 C  
HETATM    6  C   UNL     1      -8.511   6.202  70.678  1.00  0.00    -0.134 C  
HETATM    7  C   UNL     1      -7.104   6.589  65.859  1.00  0.00    -0.062 C  
HETATM    8  C   UNL     1      -5.878   6.844  67.226  1.00  0.00    -0.014 C  
HETATM    9  C   UNL     1      -7.591   7.000  71.694  1.00  0.00    -0.089 C  
HETATM   10  C   UNL     1      -8.300   7.751  72.811  1.00  0.00    -0.183 C  
HETATM   11  O   UNL     1      -9.631   6.588  74.442  1.00  0.00    -0.219 OA 
HETATM   12  C   UNL     1      -6.788   6.742  64.377  1.00  0.00    -0.046 C  
HETATM   13  C   UNL     1      -9.463   6.945  73.283  1.00  0.00    -0.156 C  
HETATM   14  C   UNL     1     -10.462   6.657  72.241  1.00  0.00    -0.229 C  
HETATM   15  C   UNL     1      -6.534   6.469  68.775  1.00  0.00    -0.043 C  
HETATM   16  C   UNL     1      -8.143   6.682  69.203  1.00  0.00    -0.116 C  
HETATM   17  C   UNL     1      -9.261   6.223  68.107  1.00  0.00    -0.110 C  
HETATM   18  C   UNL     1     -10.646   6.685  68.550  1.00  0.00    -0.276 C  
HETATM   19  C   UNL     1     -11.047   6.050  69.886  1.00  0.00    -0.469 C  
HETATM   20  C   UNL     1     -12.503   6.470  70.162  1.00  0.00     0.640 C  
HETATM   21  C   UNL     1     -10.036   6.373  70.993  1.00  0.00    -0.212 C  
ENDROOT
BRANCH   4  22
HETATM   22  C   UNL     1      -6.408   4.498  66.489  1.00  0.00    -0.036 C  
HETATM   23  C   UNL     1      -6.640   3.057  66.895  1.00  0.00    -0.037 C  
HETATM   24  O   UNL     1      -5.285   4.747  66.022  1.00  0.00    -0.008 OA 
ENDBRANCH   4  22
BRANCH   4  25
HETATM   25  O   UNL     1      -8.280   4.793  65.357  1.00  0.00    -0.112 OA 
BRANCH  25  26
HETATM   26  C   UNL     1      -8.233   5.226  64.074  1.00  0.00    -0.131 C  
HETATM   27  O   UNL     1      -7.419   4.870  63.237  1.00  0.00    -0.051 OA 
HETATM   28  C   UNL     1      -9.386   6.157  63.815  1.00  0.00     1.586 C  
ENDBRANCH  25  26
ENDBRANCH   4  25
TORSDOF 3
ENDMDL
MODEL       94
REMARK 921   NORMALIZED FREE ENERGY PREDICTED BY IDOCK:    5.51 KCAL/MOL
REMARK 922        TOTAL FREE ENERGY PREDICTED BY IDOCK:    7.09 KCAL/MOL
REMARK 923 INTER-LIGAND FREE ENERGY PREDICTED BY IDOCK:    2.62 KCAL/MOL
REMARK 924 INTRA-LIGAND FREE ENERGY PREDICTED BY IDOCK:    4.47 KCAL/MOL
REMARK 927      BINDING AFFINITY PREDICTED BY RF-SCORE:    0.00 PKD
ROOT
HETATM    1  C   UNL     1     -10.284   7.376  68.777  1.00  0.00    -0.199 C  
HETATM    2  C   UNL     1      -9.477   6.209  68.902  1.00  0.00    -0.131 C  
HETATM    3  C   UNL     1      -9.021   7.439  69.598  1.00  0.00    -0.141 C  
HETATM    4  C   UNL     1     -10.425   8.945  69.631  1.00  0.00    -0.216 C  
HETATM    5  C   UNL     1      -8.418  11.457  66.615  1.00  0.00    -0.171 C  
HETATM    6  C   UNL     1      -7.646  10.117  66.651  1.00  0.00    -0.107 C  
HETATM    7  C   UNL     1     -10.012   8.064  70.593  1.00  0.00    -0.198 C  
HETATM    8  C   UNL     1      -8.508   9.120  70.838  1.00  0.00    -0.251 C  
HETATM    9  C   UNL     1      -6.119  10.459  66.910  1.00  0.00    -0.061 C  
HETATM   10  C   UNL     1      -5.148  10.142  65.782  1.00  0.00    -0.047 C  
HETATM   11  O   UNL     1      -5.347  11.206  63.634  1.00  0.00    -0.088 OA 
HETATM   12  C   UNL     1     -10.759   7.354  71.714  1.00  0.00    -0.242 C  
HETATM   13  C   UNL     1      -5.801  10.440  64.474  1.00  0.00    -0.120 C  
HETATM   14  C   UNL     1      -7.033   9.675  64.225  1.00  0.00    -0.116 C  
HETATM   15  C   UNL     1      -7.988   9.872  69.375  1.00  0.00    -0.135 C  
HETATM   16  C   UNL     1      -8.152   9.195  67.848  1.00  0.00    -0.105 C  
HETATM   17  C   UNL     1      -9.576   8.474  67.513  1.00  0.00    -0.194 C  
HETATM   18  C   UNL     1      -9.482   7.723  66.189  1.00  0.00    -0.135 C  
HETATM   19  C   UNL     1      -9.182   8.676  65.026  1.00  0.00     0.131 C  
HETATM   20  C   UNL     1      -9.250   7.840  63.733  1.00  0.00     1.863 C  
HETATM   21  C   UNL     1      -7.880   9.453  65.252  1.00  0.00    -0.109 C  
ENDROOT
BRANCH   4  22
HETATM   22  C   UNL     1     -10.745  10.236  70.557  1.00  0.00    -0.144 C  
HETATM   23  C   UNL     1     -10.543  11.625  69.986  1.00  0.00     0.789 C  
HETATM   24  O   UNL     1     -11.236  10.193  71.695  1.00  0.00    -0.035 OA 
ENDBRANCH   4  22
BRANCH   4  25
HETATM   25  O   UNL     1     -11.963   8.598  69.717  1.00  0.00     0.501 OA 
BRANCH  25  26
HETATM   26  C   UNL     1     -12.940   9.502  69.968  1.00  0.00     1.008 C  
HETATM   27  O   UNL     1     -13.501  10.189  69.131  1.00  0.00     1.725 OA 
HETATM   28  C   UNL     1     -13.284   9.476  71.434  1.00  0.00    -0.448 C  
ENDBRANCH  25  26
ENDBRANCH   4  25
TORSDOF 3
ENDMDL
MODEL       95
REMARK 921   NORMALIZED FREE ENERGY PREDICTED BY IDOCK:    5.58 KCAL/MOL
REMARK 922        TOTAL FREE ENERGY PREDICTED BY IDOCK:    7.16 KCAL/MOL
REMARK 923 INTER-LIGAND FREE ENERGY PREDICTED BY IDOCK:    3.74 KCAL/MOL
REMARK 924 INTRA-LIGAND FREE ENERGY PREDICTED BY IDOCK:    3.42 KCAL/MOL
REMARK 927      BINDING AFFINITY PREDICTED BY RF-SCORE:    0.00 PKD
ROOT
HETATM    1  C   UNL     1      -7.538   5.845  66.219  1.00  0.00    -0.094 C  
HETATM    2  C   UNL     1      -6.397   5.049  66.519  1.00  0.00    -0.036 C  
HETATM    3  C   UNL     1      -7.606   4.863  67.361  1.00  0.00    -0.090 C  
HETATM    4  C   UNL     1      -9.283   5.804  66.626  1.00  0.00    -0.137 C  
HETATM    5  C   UNL     1      -9.283   9.053  69.606  1.00  0.00    -0.160 C  
HETATM    6  C   UNL     1      -7.966   8.269  69.815  1.00  0.00    -0.106 C  
HETATM    7  C   UNL     1      -8.899   4.491  66.620  1.00  0.00    -0.112 C  
HETATM    8  C   UNL     1      -9.431   4.383  68.393  1.00  0.00    -0.213 C  
HETATM    9  C   UNL     1      -7.911   7.837  71.340  1.00  0.00    -0.090 C  
HETATM   10  C   UNL     1      -6.811   8.462  72.187  1.00  0.00    -0.095 C  
HETATM   11  O   UNL     1      -6.707  10.840  72.531  1.00  0.00     2.553 OA 
HETATM   12  C   UNL     1      -9.083   3.380  65.595  1.00  0.00    -0.151 C  
HETATM   13  C   UNL     1      -6.622   9.882  71.774  1.00  0.00     0.705 C  
HETATM   14  C   UNL     1      -6.245  10.056  70.362  1.00  0.00    -0.103 C  
HETATM   15  C   UNL     1      -9.185   5.863  69.243  1.00  0.00    -0.134 C  
HETATM   16  C   UNL     1      -7.940   6.944  68.929  1.00  0.00    -0.116 C  
HETATM   17  C   UNL     1      -7.616   7.256  67.361  1.00  0.00    -0.105 C  
HETATM   18  C   UNL     1      -6.330   8.069  67.246  1.00  0.00    -0.056 C  
HETATM   19  C   UNL     1      -6.460   9.424  67.951  1.00  0.00    -0.062 C  
HETATM   20  C   UNL     1      -5.169  10.211  67.652  1.00  0.00    -0.037 C  
HETATM   21  C   UNL     1      -6.815   9.260  69.434  1.00  0.00    -0.049 C  
ENDROOT
BRANCH   4  22
HETATM   22  C   UNL     1     -10.887   5.623  66.759  1.00  0.00    -0.216 C  
HETATM   23  C   UNL     1     -11.685   6.642  67.548  1.00  0.00     0.931 C  
HETATM   24  O   UNL     1     -11.557   4.749  66.187  1.00  0.00     1.104 OA 
ENDBRANCH   4  22
BRANCH   4  25
HETATM   25  O   UNL     1      -9.504   5.935  65.068  1.00  0.00     0.351 OA 
BRANCH  25  26
HETATM   26  C   UNL     1      -8.651   6.565  64.224  1.00  0.00     0.343 C  
HETATM   27  O   UNL     1      -8.469   7.770  64.172  1.00  0.00     0.015 OA 
HETATM   28  C   UNL     1      -7.905   5.544  63.408  1.00  0.00    -0.096 C  
ENDBRANCH  25  26
ENDBRANCH   4  25
TORSDOF 3
ENDMDL
MODEL       96
REMARK 921   NORMALIZED FREE ENERGY PREDICTED BY IDOCK:    5.66 KCAL/MOL
REMARK 922        TOTAL FREE ENERGY PREDICTED BY IDOCK:    7.26 KCAL/MOL
REMARK 923 INTER-LIGAND FREE ENERGY PREDICTED BY IDOCK:   -4.63 KCAL/MOL
REMARK 924 INTRA-LIGAND FREE ENERGY PREDICTED BY IDOCK:   11.89 KCAL/MOL
REMARK 927      BINDING AFFINITY PREDICTED BY RF-SCORE:    0.00 PKD
ROOT
HETATM    1  C   UNL     1      -9.789   5.752  68.404  1.00  0.00    -0.174 C  
HETATM    2  C   UNL     1     -11.021   5.458  67.755  1.00  0.00     0.255 C  
HETATM    3  C   UNL     1     -10.063   6.344  67.044  1.00  0.00    -0.227 C  
HETATM    4  C   UNL     1      -8.198   6.418  67.914  1.00  0.00    -0.115 C  
HETATM    5  C   UNL     1      -8.687  10.458  69.611  1.00  0.00    -0.056 C  
HETATM    6  C   UNL     1     -10.066  10.055  69.038  1.00  0.00    -0.211 C  
HETATM    7  C   UNL     1      -8.659   5.769  66.801  1.00  0.00    -0.112 C  
HETATM    8  C   UNL     1      -8.575   7.383  65.892  1.00  0.00    -0.165 C  
HETATM    9  C   UNL     1     -10.514  11.200  68.035  1.00  0.00    -0.217 C  
HETATM   10  C   UNL     1     -11.738  12.013  68.431  1.00  0.00    -0.390 C  
HETATM   11  O   UNL     1     -11.758  13.333  70.441  1.00  0.00    -0.228 OA 
HETATM   12  C   UNL     1      -8.312   4.417  66.193  1.00  0.00    -0.113 C  
HETATM   13  C   UNL     1     -11.725  12.232  69.906  1.00  0.00    -0.273 C  
HETATM   14  C   UNL     1     -11.742  10.994  70.701  1.00  0.00    -0.371 C  
HETATM   15  C   UNL     1      -8.914   8.730  66.912  1.00  0.00    -0.155 C  
HETATM   16  C   UNL     1      -9.971   8.693  68.216  1.00  0.00    -0.207 C  
HETATM   17  C   UNL     1      -9.890   7.387  69.191  1.00  0.00    -0.168 C  
HETATM   18  C   UNL     1     -11.052   7.401  70.179  1.00  0.00    -0.265 C  
HETATM   19  C   UNL     1     -11.001   8.636  71.085  1.00  0.00    -0.320 C  
HETATM   20  C   UNL     1     -12.126   8.475  72.126  1.00  0.00    -0.449 C  
HETATM   21  C   UNL     1     -11.023   9.937  70.273  1.00  0.00    -0.366 C  
ENDROOT
BRANCH   4  22
HETATM   22  C   UNL     1      -6.689   6.755  67.434  1.00  0.00    -0.067 C  
HETATM   23  C   UNL     1      -6.474   7.484  66.122  1.00  0.00    -0.045 C  
HETATM   24  O   UNL     1      -5.664   6.543  68.100  1.00  0.00    -0.011 OA 
ENDBRANCH   4  22
BRANCH   4  25
HETATM   25  O   UNL     1      -7.604   5.144  68.633  1.00  0.00    -0.076 OA 
BRANCH  25  26
HETATM   26  C   UNL     1      -6.528   4.448  68.193  1.00  0.00    -0.038 C  
HETATM   27  O   UNL     1      -5.646   3.988  68.900  1.00  0.00    -0.015 OA 
HETATM   28  C   UNL     1      -6.624   4.262  66.703  1.00  0.00    -0.049 C  
ENDBRANCH  25  26
ENDBRANCH   4  25
TORSDOF 3
ENDMDL
MODEL       97
REMARK 921   NORMALIZED FREE ENERGY PREDICTED BY IDOCK:    6.84 KCAL/MOL
REMARK 922        TOTAL FREE ENERGY PREDICTED BY IDOCK:    8.65 KCAL/MOL
REMARK 923 INTER-LIGAND FREE ENERGY PREDICTED BY IDOCK:    1.01 KCAL/MOL
REMARK 924 INTRA-LIGAND FREE ENERGY PREDICTED BY IDOCK:    7.64 KCAL/MOL
REMARK 927      BINDING AFFINITY PREDICTED BY RF-SCORE:    0.00 PKD
ROOT
HETATM    1  C   UNL     1     -10.940  11.149  67.144  1.00  0.00    -0.350 C  
HETATM    2  C   UNL     1     -12.246  10.664  67.434  1.00  0.00     2.319 C  
HETATM    3  C   UNL     1     -11.515  11.362  68.522  1.00  0.00    -0.361 C  
HETATM    4  C   UNL     1      -9.799  12.311  67.893  1.00  0.00    -0.201 C  
HETATM    5  C   UNL     1      -7.024   9.376  69.661  1.00  0.00    -0.058 C  
HETATM    6  C   UNL     1      -8.445   8.788  69.826  1.00  0.00    -0.129 C  
HETATM    7  C   UNL     1     -11.040  12.790  68.212  1.00  0.00    -0.288 C  
HETATM    8  C   UNL     1     -10.587  12.615  70.002  1.00  0.00     1.328 C  
HETATM    9  C   UNL     1      -8.643   8.457  71.365  1.00  0.00    -0.207 C  
HETATM   10  C   UNL     1      -8.790   6.988  71.732  1.00  0.00    -0.127 C  
HETATM   11  O   UNL     1      -7.024   5.414  71.299  1.00  0.00    -0.054 OA 
HETATM   12  C   UNL     1     -11.870  13.931  67.641  1.00  0.00    -0.422 C  
HETATM   13  C   UNL     1      -7.885   6.173  70.872  1.00  0.00    -0.107 C  
HETATM   14  C   UNL     1      -8.149   6.295  69.430  1.00  0.00    -0.113 C  
HETATM   15  C   UNL     1      -9.536  11.277  70.286  1.00  0.00     2.297 C  
HETATM   16  C   UNL     1      -9.558   9.848  69.406  1.00  0.00    -0.229 C  
HETATM   17  C   UNL     1      -9.701   9.985  67.786  1.00  0.00    -0.174 C  
HETATM   18  C   UNL     1      -9.930   8.611  67.165  1.00  0.00    -0.297 C  
HETATM   19  C   UNL     1      -8.746   7.673  67.429  1.00  0.00    -0.124 C  
HETATM   20  C   UNL     1      -9.019   6.375  66.644  1.00  0.00    -0.145 C  
HETATM   21  C   UNL     1      -8.482   7.503  68.930  1.00  0.00    -0.129 C  
ENDROOT
BRANCH   4  22
HETATM   22  C   UNL     1      -8.884  13.547  68.402  1.00  0.00    -0.146 C  
HETATM   23  C   UNL     1      -9.506  14.619  69.273  1.00  0.00    -0.001 C  
HETATM   24  O   UNL     1      -7.663  13.657  68.210  1.00  0.00    -0.120 OA 
ENDBRANCH   4  22
BRANCH   4  25
HETATM   25  O   UNL     1      -9.725  12.949  66.450  1.00  0.00    -0.254 OA 
BRANCH  25  26
HETATM   26  C   UNL     1      -9.839  14.274  66.191  1.00  0.00    -0.316 C  
HETATM   27  O   UNL     1      -9.468  15.172  66.928  1.00  0.00    -0.219 OA 
HETATM   28  C   UNL     1     -10.425  14.469  64.819  1.00  0.00    -0.365 C  
ENDBRANCH  25  26
ENDBRANCH   4  25
TORSDOF 3
ENDMDL
MODEL       98
REMARK 921   NORMALIZED FREE ENERGY PREDICTED BY IDOCK:    7.06 KCAL/MOL
REMARK 922        TOTAL FREE ENERGY PREDICTED BY IDOCK:    8.90 KCAL/MOL
REMARK 923 INTER-LIGAND FREE ENERGY PREDICTED BY IDOCK:   -1.28 KCAL/MOL
REMARK 924 INTRA-LIGAND FREE ENERGY PREDICTED BY IDOCK:   10.18 KCAL/MOL
REMARK 927      BINDING AFFINITY PREDICTED BY RF-SCORE:    0.00 PKD
ROOT
HETATM    1  C   UNL     1      -9.657   9.323  68.942  1.00  0.00    -0.155 C  
HETATM    2  C   UNL     1      -8.321   9.676  69.283  1.00  0.00    -0.137 C  
HETATM    3  C   UNL     1      -9.420  10.366  70.006  1.00  0.00     0.179 C  
HETATM    4  C   UNL     1     -11.277   9.537  69.679  1.00  0.00    -0.108 C  
HETATM    5  C   UNL     1     -12.719  12.763  67.043  1.00  0.00     1.299 C  
HETATM    6  C   UNL     1     -11.220  13.045  67.298  1.00  0.00    -0.325 C  
HETATM    7  C   UNL     1     -10.420   9.461  70.743  1.00  0.00    -0.372 C  
HETATM    8  C   UNL     1     -10.988  11.152  71.251  1.00  0.00     2.370 C  
HETATM    9  C   UNL     1     -11.105  14.525  67.855  1.00  0.00    -0.290 C  
HETATM   10  C   UNL     1     -10.388  15.534  66.970  1.00  0.00    -0.279 C  
HETATM   11  O   UNL     1     -11.225  16.087  64.784  1.00  0.00    -0.431 OA 
HETATM   12  C   UNL     1     -10.096   8.333  71.713  1.00  0.00    -0.290 C  
HETATM   13  C   UNL     1     -10.729  15.264  65.543  1.00  0.00    -0.371 C  
HETATM   14  C   UNL     1     -10.354  13.921  65.075  1.00  0.00    -0.418 C  
HETATM   15  C   UNL     1     -11.384  12.145  69.899  1.00  0.00    -0.109 C  
HETATM   16  C   UNL     1     -10.629  12.058  68.402  1.00  0.00    -0.236 C  
HETATM   17  C   UNL     1     -10.345  10.566  67.808  1.00  0.00    -0.248 C  
HETATM   18  C   UNL     1      -9.464  10.658  66.566  1.00  0.00    -0.199 C  
HETATM   19  C   UNL     1     -10.149  11.456  65.451  1.00  0.00    -0.308 C  
HETATM   20  C   UNL     1      -9.240  11.364  64.210  1.00  0.00     0.005 C  
HETATM   21  C   UNL     1     -10.512  12.873  65.911  1.00  0.00    -0.294 C  
ENDROOT
BRANCH   4  22
HETATM   22  C   UNL     1     -12.695   9.482  70.461  1.00  0.00     0.158 C  
HETATM   23  C   UNL     1     -12.750   8.890  71.854  1.00  0.00    -0.436 C  
HETATM   24  O   UNL     1     -13.757   9.972  70.047  1.00  0.00     0.372 OA 
ENDBRANCH   4  22
BRANCH   4  25
HETATM   25  O   UNL     1     -11.426   7.980  69.456  1.00  0.00     0.165 OA 
BRANCH  25  26
HETATM   26  C   UNL     1     -11.645   7.082  70.446  1.00  0.00    -0.295 C  
HETATM   27  O   UNL     1     -12.181   7.324  71.515  1.00  0.00    -0.313 OA 
HETATM   28  C   UNL     1     -11.194   5.718  69.996  1.00  0.00    -0.210 C  
ENDBRANCH  25  26
ENDBRANCH   4  25
TORSDOF 3
ENDMDL
MODEL       99
REMARK 921   NORMALIZED FREE ENERGY PREDICTED BY IDOCK:    8.55 KCAL/MOL
REMARK 922        TOTAL FREE ENERGY PREDICTED BY IDOCK:   10.66 KCAL/MOL
REMARK 923 INTER-LIGAND FREE ENERGY PREDICTED BY IDOCK:    5.55 KCAL/MOL
REMARK 924 INTRA-LIGAND FREE ENERGY PREDICTED BY IDOCK:    5.11 KCAL/MOL
REMARK 927      BINDING AFFINITY PREDICTED BY RF-SCORE:    0.00 PKD
ROOT
HETATM    1  C   UNL     1      -9.243   9.270  68.069  1.00  0.00    -0.138 C  
HETATM    2  C   UNL     1      -9.536   8.412  66.972  1.00  0.00    -0.225 C  
HETATM    3  C   UNL     1      -8.357   9.308  66.849  1.00  0.00    -0.123 C  
HETATM    4  C   UNL     1      -7.836  10.241  68.610  1.00  0.00    -0.101 C  
HETATM    5  C   UNL     1      -9.359  14.211  67.448  1.00  0.00    -0.215 C  
HETATM    6  C   UNL     1      -9.807  13.230  66.339  1.00  0.00    -0.281 C  
HETATM    7  C   UNL     1      -7.288   9.177  67.946  1.00  0.00    -0.084 C  
HETATM    8  C   UNL     1      -6.496  10.383  66.781  1.00  0.00    -0.076 C  
HETATM    9  C   UNL     1      -9.293  13.814  64.957  1.00  0.00     0.881 C  
HETATM   10  C   UNL     1     -10.359  14.263  63.968  1.00  0.00     1.305 C  
HETATM   11  O   UNL     1     -11.889  16.038  64.508  1.00  0.00    -0.248 OA 
HETATM   12  C   UNL     1      -6.630   7.896  68.440  1.00  0.00    -0.062 C  
HETATM   13  C   UNL     1     -11.482  14.902  64.712  1.00  0.00    -0.410 C  
HETATM   14  C   UNL     1     -12.134  14.022  65.695  1.00  0.00    -0.432 C  
HETATM   15  C   UNL     1      -7.467  11.785  66.526  1.00  0.00     0.093 C  
HETATM   16  C   UNL     1      -9.145  11.794  66.541  1.00  0.00    -0.203 C  
HETATM   17  C   UNL     1      -9.875  10.939  67.723  1.00  0.00    -0.194 C  
HETATM   18  C   UNL     1     -11.376  10.866  67.464  1.00  0.00    -0.309 C  
HETATM   19  C   UNL     1     -12.013  12.261  67.467  1.00  0.00    -0.210 C  
HETATM   20  C   UNL     1     -13.535  12.058  67.340  1.00  0.00     7.851 C  
HETATM   21  C   UNL     1     -11.371  13.179  66.421  1.00  0.00    -0.349 C  
ENDROOT
BRANCH   4  22
HETATM   22  C   UNL     1      -6.495  10.892  69.244  1.00  0.00    -0.071 C  
HETATM   23  C   UNL     1      -6.379  12.400  69.340  1.00  0.00    -0.119 C  
HETATM   24  O   UNL     1      -5.563  10.251  69.753  1.00  0.00    -0.037 OA 
ENDBRANCH   4  22
BRANCH   4  25
HETATM   25  O   UNL     1      -8.041   9.504  69.992  1.00  0.00    -0.128 OA 
BRANCH  25  26
HETATM   26  C   UNL     1      -8.979   8.554  70.222  1.00  0.00    -0.149 C  
HETATM   27  O   UNL     1      -8.763   7.358  70.325  1.00  0.00    -0.143 OA 
HETATM   28  C   UNL     1     -10.321   9.208  70.409  1.00  0.00    -0.269 C  
ENDBRANCH  25  26
ENDBRANCH   4  25
TORSDOF 3
ENDMDL
MODEL      100
REMARK 921   NORMALIZED FREE ENERGY PREDICTED BY IDOCK:    8.81 KCAL/MOL
REMARK 922        TOTAL FREE ENERGY PREDICTED BY IDOCK:   10.97 KCAL/MOL
REMARK 923 INTER-LIGAND FREE ENERGY PREDICTED BY IDOCK:    8.56 KCAL/MOL
REMARK 924 INTRA-LIGAND FREE ENERGY PREDICTED BY IDOCK:    2.41 KCAL/MOL
REMARK 927      BINDING AFFINITY PREDICTED BY RF-SCORE:    0.00 PKD
ROOT
HETATM    1  C   UNL     1      -7.235  17.934  69.565  1.00  0.00     0.159 C  
HETATM    2  C   UNL     1      -6.242  17.224  70.299  1.00  0.00     0.245 C  
HETATM    3  C   UNL     1      -6.568  16.738  68.934  1.00  0.00    -0.189 C  
HETATM    4  C   UNL     1      -7.751  18.030  67.852  1.00  0.00    -0.230 C  
HETATM    5  C   UNL     1     -11.427  15.621  68.192  1.00  0.00    -0.325 C  
HETATM    6  C   UNL     1     -10.379  14.951  69.111  1.00  0.00    -0.246 C  
HETATM    7  C   UNL     1      -6.412  17.757  67.795  1.00  0.00    -0.188 C  
HETATM    8  C   UNL     1      -6.823  16.206  66.866  1.00  0.00    -0.148 C  
HETATM    9  C   UNL     1     -10.277  13.428  68.678  1.00  0.00    -0.187 C  
HETATM   10  C   UNL     1     -10.745  12.397  69.694  1.00  0.00     0.384 C  
HETATM   11  O   UNL     1     -13.025  12.352  70.459  1.00  0.00     0.092 OA 
HETATM   12  C   UNL     1      -5.203  18.638  67.510  1.00  0.00    -0.152 C  
HETATM   13  C   UNL     1     -11.944  12.923  70.410  1.00  0.00    -0.249 C  
HETATM   14  C   UNL     1     -11.711  14.182  71.134  1.00  0.00    -0.071 C  
HETATM   15  C   UNL     1      -8.325  15.522  67.363  1.00  0.00    -0.202 C  
HETATM   16  C   UNL     1      -8.942  15.613  68.922  1.00  0.00    -0.221 C  
HETATM   17  C   UNL     1      -8.821  17.054  69.677  1.00  0.00     0.758 C  
HETATM   18  C   UNL     1      -9.216  16.909  71.143  1.00  0.00     5.943 C  
HETATM   19  C   UNL     1     -10.672  16.453  71.288  1.00  0.00     0.860 C  
HETATM   20  C   UNL     1     -11.002  16.478  72.793  1.00  0.00     2.032 C  
HETATM   21  C   UNL     1     -10.922  15.121  70.571  1.00  0.00    -0.267 C  
ENDROOT
BRANCH   4  22
HETATM   22  C   UNL     1      -8.040  18.330  66.286  1.00  0.00    -0.223 C  
HETATM   23  C   UNL     1      -9.364  18.946  65.882  1.00  0.00     0.122 C  
HETATM   24  O   UNL     1      -7.220  18.177  65.368  1.00  0.00    -0.529 OA 
ENDBRANCH   4  22
BRANCH   4  25
HETATM   25  O   UNL     1      -7.608  19.591  68.046  1.00  0.00    -0.278 OA 
BRANCH  25  26
HETATM   26  C   UNL     1      -8.313  20.319  68.945  1.00  0.00     0.444 C  
HETATM   27  O   UNL     1      -7.977  20.536  70.098  1.00  0.00     0.905 OA 
HETATM   28  C   UNL     1      -9.541  20.885  68.283  1.00  0.00     0.319 C  
ENDBRANCH  25  26
ENDBRANCH   4  25
TORSDOF 3
ENDMDL
MODEL      101
REMARK 921   NORMALIZED FREE ENERGY PREDICTED BY IDOCK:   10.21 KCAL/MOL
REMARK 922        TOTAL FREE ENERGY PREDICTED BY IDOCK:   12.61 KCAL/MOL
REMARK 923 INTER-LIGAND FREE ENERGY PREDICTED BY IDOCK:   11.25 KCAL/MOL
REMARK 924 INTRA-LIGAND FREE ENERGY PREDICTED BY IDOCK:    1.36 KCAL/MOL
REMARK 927      BINDING AFFINITY PREDICTED BY RF-SCORE:    0.00 PKD
ROOT
HETATM    1  C   UNL     1     -12.514  12.343  68.143  1.00  0.00     0.817 C  
HETATM    2  C   UNL     1     -13.489  11.576  68.843  1.00  0.00     4.584 C  
HETATM    3  C   UNL     1     -12.508  12.345  69.651  1.00  0.00     0.128 C  
HETATM    4  C   UNL     1     -11.381  13.671  68.550  1.00  0.00    -0.290 C  
HETATM    5  C   UNL     1      -7.677  11.284  68.682  1.00  0.00    -0.136 C  
HETATM    6  C   UNL     1      -8.787  10.401  69.298  1.00  0.00    -0.166 C  
HETATM    7  C   UNL     1     -12.447  13.857  69.387  1.00  0.00    -0.088 C  
HETATM    8  C   UNL     1     -11.285  13.673  70.820  1.00  0.00     0.940 C  
HETATM    9  C   UNL     1      -8.286   9.942  70.731  1.00  0.00     0.463 C  
HETATM   10  C   UNL     1      -8.021   8.455  70.917  1.00  0.00    -0.112 C  
HETATM   11  O   UNL     1      -6.345   7.318  69.621  1.00  0.00    -0.034 OA 
HETATM   12  C   UNL     1     -13.617  14.831  69.345  1.00  0.00     2.622 C  
HETATM   13  C   UNL     1      -7.419   7.904  69.669  1.00  0.00    -0.092 C  
HETATM   14  C   UNL     1      -8.261   8.056  68.473  1.00  0.00    -0.126 C  
HETATM   15  C   UNL     1     -10.001  12.572  70.487  1.00  0.00     4.945 C  
HETATM   16  C   UNL     1     -10.137  11.227  69.492  1.00  0.00     0.195 C  
HETATM   17  C   UNL     1     -10.944  11.429  68.089  1.00  0.00    -0.284 C  
HETATM   18  C   UNL     1     -11.170  10.078  67.418  1.00  0.00    -0.004 C  
HETATM   19  C   UNL     1      -9.841   9.396  67.071  1.00  0.00    -0.258 C  
HETATM   20  C   UNL     1     -10.186   8.120  66.278  1.00  0.00     0.054 C  
HETATM   21  C   UNL     1      -8.967   9.195  68.314  1.00  0.00    -0.129 C  
ENDROOT
BRANCH   4  22
HETATM   22  C   UNL     1     -10.561  15.038  68.835  1.00  0.00    -0.242 C  
HETATM   23  C   UNL     1      -9.171  15.204  68.255  1.00  0.00    -0.188 C  
HETATM   24  O   UNL     1     -11.012  16.029  69.431  1.00  0.00    -0.273 OA 
ENDBRANCH   4  22
BRANCH   4  25
HETATM   25  O   UNL     1     -12.007  14.397  67.295  1.00  0.00    -0.399 OA 
BRANCH  25  26
HETATM   26  C   UNL     1     -11.844  13.989  66.013  1.00  0.00    -0.388 C  
HETATM   27  O   UNL     1     -10.794  14.008  65.393  1.00  0.00    -0.302 OA 
HETATM   28  C   UNL     1     -13.144  13.436  65.493  1.00  0.00     0.014 C  
ENDBRANCH  25  26
ENDBRANCH   4  25
TORSDOF 3
ENDMDL
MODEL      102
REMARK 921   NORMALIZED FREE ENERGY PREDICTED BY IDOCK:   10.42 KCAL/MOL
REMARK 922        TOTAL FREE ENERGY PREDICTED BY IDOCK:   12.86 KCAL/MOL
REMARK 923 INTER-LIGAND FREE ENERGY PREDICTED BY IDOCK:    7.32 KCAL/MOL
REMARK 924 INTRA-LIGAND FREE ENERGY PREDICTED BY IDOCK:    5.53 KCAL/MOL
REMARK 927      BINDING AFFINITY PREDICTED BY RF-SCORE:    0.00 PKD
ROOT
HETATM    1  C   UNL     1     -10.995  15.649  66.293  1.00  0.00    -0.201 C  
HETATM    2  C   UNL     1     -12.306  15.894  65.798  1.00  0.00     1.670 C  
HETATM    3  C   UNL     1     -11.693  16.932  66.666  1.00  0.00     1.615 C  
HETATM    4  C   UNL     1      -9.690  16.629  67.034  1.00  0.00    -0.249 C  
HETATM    5  C   UNL     1     -10.226  15.296  71.202  1.00  0.00     0.809 C  
HETATM    6  C   UNL     1     -11.644  15.416  70.597  1.00  0.00    -0.363 C  
HETATM    7  C   UNL     1     -10.342  17.495  66.199  1.00  0.00    -0.330 C  
HETATM    8  C   UNL     1     -10.709  18.556  67.675  1.00  0.00    -0.405 C  
HETATM    9  C   UNL     1     -12.484  16.368  71.547  1.00  0.00     0.366 C  
HETATM   10  C   UNL     1     -13.653  15.735  72.286  1.00  0.00    -0.503 C  
HETATM   11  O   UNL     1     -13.308  13.948  73.859  1.00  0.00     0.801 OA 
HETATM   12  C   UNL     1      -9.998  18.031  64.816  1.00  0.00     3.270 C  
HETATM   13  C   UNL     1     -13.278  14.353  72.704  1.00  0.00    -0.497 C  
HETATM   14  C   UNL     1     -12.924  13.459  71.590  1.00  0.00    -0.445 C  
HETATM   15  C   UNL     1     -10.936  17.628  69.110  1.00  0.00     0.551 C  
HETATM   16  C   UNL     1     -11.596  16.085  69.150  1.00  0.00    -0.337 C  
HETATM   17  C   UNL     1     -11.092  15.040  68.003  1.00  0.00    -0.304 C  
HETATM   18  C   UNL     1     -11.943  13.775  68.041  1.00  0.00    -0.390 C  
HETATM   19  C   UNL     1     -11.812  13.053  69.387  1.00  0.00    -0.380 C  
HETATM   20  C   UNL     1     -12.591  11.729  69.262  1.00  0.00     0.395 C  
HETATM   21  C   UNL     1     -12.215  13.958  70.557  1.00  0.00    -0.443 C  
ENDROOT
BRANCH   4  22
HETATM   22  C   UNL     1      -8.418  17.544  67.444  1.00  0.00    -0.216 C  
HETATM   23  C   UNL     1      -8.654  18.931  68.007  1.00  0.00    -0.330 C  
HETATM   24  O   UNL     1      -7.235  17.172  67.421  1.00  0.00    -0.145 OA 
ENDBRANCH   4  22
BRANCH   4  25
HETATM   25  O   UNL     1      -8.768  15.975  65.931  1.00  0.00    -0.298 OA 
BRANCH  25  26
HETATM   26  C   UNL     1      -9.091  14.868  65.220  1.00  0.00     1.176 C  
HETATM   27  O   UNL     1      -9.627  14.864  64.124  1.00  0.00     1.539 OA 
HETATM   28  C   UNL     1      -8.620  13.643  65.955  1.00  0.00     0.964 C  
ENDBRANCH  25  26
ENDBRANCH   4  25
TORSDOF 3
ENDMDL
MODEL      103
REMARK 921   NORMALIZED FREE ENERGY PREDICTED BY IDOCK:   11.99 KCAL/MOL
REMARK 922        TOTAL FREE ENERGY PREDICTED BY IDOCK:   14.70 KCAL/MOL
REMARK 923 INTER-LIGAND FREE ENERGY PREDICTED BY IDOCK:    3.42 KCAL/MOL
REMARK 924 INTRA-LIGAND FREE ENERGY PREDICTED BY IDOCK:   11.28 KCAL/MOL
REMARK 927      BINDING AFFINITY PREDICTED BY RF-SCORE:    0.00 PKD
ROOT
HETATM    1  C   UNL     1      -8.103  13.353  66.244  1.00  0.00     1.207 C  
HETATM    2  C   UNL     1      -6.981  12.542  66.574  1.00  0.00     0.905 C  
HETATM    3  C   UNL     1      -8.012  12.747  67.622  1.00  0.00    -0.165 C  
HETATM    4  C   UNL     1      -9.734  13.639  66.929  1.00  0.00    -0.262 C  
HETATM    5  C   UNL     1      -8.937  17.570  68.761  1.00  0.00    -0.211 C  
HETATM    6  C   UNL     1      -7.661  16.723  68.972  1.00  0.00    -0.218 C  
HETATM    7  C   UNL     1      -9.447  12.341  67.251  1.00  0.00    -0.186 C  
HETATM    8  C   UNL     1      -9.630  12.801  69.038  1.00  0.00     0.379 C  
HETATM    9  C   UNL     1      -7.339  16.733  70.525  1.00  0.00     2.494 C  
HETATM   10  C   UNL     1      -6.057  17.433  70.951  1.00  0.00     0.974 C  
HETATM   11  O   UNL     1      -5.729  19.781  70.548  1.00  0.00    -0.242 OA 
HETATM   12  C   UNL     1      -9.901  11.018  66.651  1.00  0.00    -0.235 C  
HETATM   13  C   UNL     1      -5.856  18.647  70.107  1.00  0.00    -0.207 C  
HETATM   14  C   UNL     1      -5.750  18.370  68.666  1.00  0.00    -0.187 C  
HETATM   15  C   UNL     1      -9.125  14.418  69.355  1.00  0.00     0.308 C  
HETATM   16  C   UNL     1      -7.896  15.209  68.530  1.00  0.00    -0.135 C  
HETATM   17  C   UNL     1      -7.862  15.027  66.909  1.00  0.00    -0.056 C  
HETATM   18  C   UNL     1      -6.572  15.613  66.345  1.00  0.00     1.770 C  
HETATM   19  C   UNL     1      -6.472  17.117  66.625  1.00  0.00    -0.267 C  
HETATM   20  C   UNL     1      -5.214  17.626  65.894  1.00  0.00    -0.200 C  
HETATM   21  C   UNL     1      -6.542  17.420  68.126  1.00  0.00    -0.166 C  
ENDROOT
BRANCH   4  22
HETATM   22  C   UNL     1     -11.290  13.698  67.375  1.00  0.00    -0.315 C  
HETATM   23  C   UNL     1     -11.640  13.666  68.849  1.00  0.00    -0.362 C  
HETATM   24  O   UNL     1     -12.248  13.859  66.603  1.00  0.00    -0.437 OA 
ENDBRANCH   4  22
BRANCH   4  25
HETATM   25  O   UNL     1     -10.244  13.353  65.462  1.00  0.00    -0.288 OA 
BRANCH  25  26
HETATM   26  C   UNL     1      -9.910  12.260  64.735  1.00  0.00    -0.105 C  
HETATM   27  O   UNL     1      -9.395  11.247  65.177  1.00  0.00    -0.219 OA 
HETATM   28  C   UNL     1     -10.341  12.457  63.306  1.00  0.00    -0.158 C  
ENDBRANCH  25  26
ENDBRANCH   4  25
TORSDOF 3
ENDMDL
MODEL      104
REMARK 921   NORMALIZED FREE ENERGY PREDICTED BY IDOCK:   13.92 KCAL/MOL
REMARK 922        TOTAL FREE ENERGY PREDICTED BY IDOCK:   16.97 KCAL/MOL
REMARK 923 INTER-LIGAND FREE ENERGY PREDICTED BY IDOCK:   12.54 KCAL/MOL
REMARK 924 INTRA-LIGAND FREE ENERGY PREDICTED BY IDOCK:    4.43 KCAL/MOL
REMARK 927      BINDING AFFINITY PREDICTED BY RF-SCORE:    0.00 PKD
ROOT
HETATM    1  C   UNL     1      -7.205   8.349  67.034  1.00  0.00    -0.080 C  
HETATM    2  C   UNL     1      -6.941   8.997  68.274  1.00  0.00    -0.076 C  
HETATM    3  C   UNL     1      -8.209   8.232  68.153  1.00  0.00    -0.128 C  
HETATM    4  C   UNL     1      -8.319   7.069  66.458  1.00  0.00    -0.121 C  
HETATM    5  C   UNL     1     -11.189   9.669  64.350  1.00  0.00     5.548 C  
HETATM    6  C   UNL     1     -10.768  10.430  65.629  1.00  0.00     0.005 C  
HETATM    7  C   UNL     1      -8.074   6.751  67.766  1.00  0.00    -0.113 C  
HETATM    8  C   UNL     1      -9.895   6.899  68.086  1.00  0.00    -0.145 C  
HETATM    9  C   UNL     1     -12.094  10.809  66.412  1.00  0.00     2.558 C  
HETATM   10  C   UNL     1     -12.420  12.291  66.524  1.00  0.00     0.813 C  
HETATM   11  O   UNL     1     -12.821  13.628  64.565  1.00  0.00    -0.645 OA 
HETATM   12  C   UNL     1      -7.167   5.712  68.410  1.00  0.00    -0.075 C  
HETATM   13  C   UNL     1     -12.047  12.973  65.252  1.00  0.00    -0.441 C  
HETATM   14  C   UNL     1     -10.622  12.860  64.901  1.00  0.00    -0.342 C  
HETATM   15  C   UNL     1     -10.639   8.102  67.100  1.00  0.00    -0.355 C  
HETATM   16  C   UNL     1      -9.883   9.508  66.582  1.00  0.00    -0.293 C  
HETATM   17  C   UNL     1      -8.348   9.363  66.049  1.00  0.00    -0.123 C  
HETATM   18  C   UNL     1      -7.738  10.744  65.832  1.00  0.00    -0.118 C  
HETATM   19  C   UNL     1      -8.506  11.533  64.765  1.00  0.00     0.676 C  
HETATM   20  C   UNL     1      -7.726  12.841  64.528  1.00  0.00     7.110 C  
HETATM   21  C   UNL     1      -9.985  11.694  65.135  1.00  0.00    -0.297 C  
ENDROOT
BRANCH   4  22
HETATM   22  C   UNL     1      -9.117   5.738  65.994  1.00  0.00    -0.153 C  
HETATM   23  C   UNL     1     -10.271   5.235  66.837  1.00  0.00    -0.279 C  
HETATM   24  O   UNL     1      -8.922   5.122  64.935  1.00  0.00    -0.150 OA 
ENDBRANCH   4  22
BRANCH   4  25
HETATM   25  O   UNL     1      -7.016   6.403  65.863  1.00  0.00    -0.058 OA 
BRANCH  25  26
HETATM   26  C   UNL     1      -6.618   6.515  64.573  1.00  0.00    -0.038 C  
HETATM   27  O   UNL     1      -5.587   6.057  64.109  1.00  0.00    -0.017 OA 
HETATM   28  C   UNL     1      -7.680   7.228  63.780  1.00  0.00    -0.120 C  
ENDBRANCH  25  26
ENDBRANCH   4  25
TORSDOF 3
ENDMDL
MODEL      105
REMARK 921   NORMALIZED FREE ENERGY PREDICTED BY IDOCK:   15.16 KCAL/MOL
REMARK 922        TOTAL FREE ENERGY PREDICTED BY IDOCK:   18.43 KCAL/MOL
REMARK 923 INTER-LIGAND FREE ENERGY PREDICTED BY IDOCK:    9.33 KCAL/MOL
REMARK 924 INTRA-LIGAND FREE ENERGY PREDICTED BY IDOCK:    9.10 KCAL/MOL
REMARK 927      BINDING AFFINITY PREDICTED BY RF-SCORE:    0.00 PKD
ROOT
HETATM    1  C   UNL     1      -9.667  17.497  66.970  1.00  0.00    -0.284 C  
HETATM    2  C   UNL     1     -10.895  18.127  67.319  1.00  0.00    -0.241 C  
HETATM    3  C   UNL     1     -10.458  16.969  68.141  1.00  0.00    -0.357 C  
HETATM    4  C   UNL     1      -8.526  16.364  67.763  1.00  0.00    -0.167 C  
HETATM    5  C   UNL     1      -9.652  12.723  65.547  1.00  0.00    -0.001 C  
HETATM    6  C   UNL     1     -10.964  13.504  65.799  1.00  0.00    -0.285 C  
HETATM    7  C   UNL     1      -9.071  17.084  68.792  1.00  0.00    -0.252 C  
HETATM    8  C   UNL     1      -9.697  15.489  69.503  1.00  0.00    -0.282 C  
HETATM    9  C   UNL     1     -11.972  12.514  66.520  1.00  0.00    -0.367 C  
HETATM   10  C   UNL     1     -13.218  12.124  65.740  1.00  0.00     3.221 C  
HETATM   11  O   UNL     1     -13.060  10.942  63.651  1.00  0.00     1.579 OA 
HETATM   12  C   UNL     1      -8.537  18.245  69.618  1.00  0.00     0.911 C  
HETATM   13  C   UNL     1     -12.866  11.962  64.300  1.00  0.00     0.011 C  
HETATM   14  C   UNL     1     -12.315  13.174  63.673  1.00  0.00    -0.482 C  
HETATM   15  C   UNL     1     -10.111  14.344  68.282  1.00  0.00    -0.239 C  
HETATM   16  C   UNL     1     -10.716  14.744  66.769  1.00  0.00    -0.309 C  
HETATM   17  C   UNL     1     -10.007  15.997  66.001  1.00  0.00    -0.365 C  
HETATM   18  C   UNL     1     -10.809  16.370  64.759  1.00  0.00    -0.197 C  
HETATM   19  C   UNL     1     -10.864  15.209  63.759  1.00  0.00     1.891 C  
HETATM   20  C   UNL     1     -11.569  15.739  62.495  1.00  0.00     7.343 C  
HETATM   21  C   UNL     1     -11.472  13.949  64.385  1.00  0.00    -0.376 C  
ENDROOT
BRANCH   4  22
HETATM   22  C   UNL     1      -7.364  15.570  68.564  1.00  0.00    -0.120 C  
HETATM   23  C   UNL     1      -7.519  15.335  70.053  1.00  0.00     0.083 C  
HETATM   24  O   UNL     1      -6.369  15.045  68.042  1.00  0.00    -0.122 OA 
ENDBRANCH   4  22
BRANCH   4  25
HETATM   25  O   UNL     1      -7.424  17.423  67.366  1.00  0.00    -0.176 OA 
BRANCH  25  26
HETATM   26  C   UNL     1      -7.660  18.536  66.630  1.00  0.00    -0.238 C  
HETATM   27  O   UNL     1      -7.344  18.690  65.461  1.00  0.00    -0.513 OA 
HETATM   28  C   UNL     1      -8.439  19.527  67.452  1.00  0.00    -0.336 C  
ENDBRANCH  25  26
ENDBRANCH   4  25
TORSDOF 3
ENDMDL
MODEL      106
REMARK 921   NORMALIZED FREE ENERGY PREDICTED BY IDOCK:   20.14 KCAL/MOL
REMARK 922        TOTAL FREE ENERGY PREDICTED BY IDOCK:   24.29 KCAL/MOL
REMARK 923 INTER-LIGAND FREE ENERGY PREDICTED BY IDOCK:   22.60 KCAL/MOL
REMARK 924 INTRA-LIGAND FREE ENERGY PREDICTED BY IDOCK:    1.68 KCAL/MOL
REMARK 927      BINDING AFFINITY PREDICTED BY RF-SCORE:    0.00 PKD
ROOT
HETATM    1  C   UNL     1      -9.462   7.202  67.772  1.00  0.00    -0.136 C  
HETATM    2  C   UNL     1      -9.089   6.223  66.808  1.00  0.00    -0.141 C  
HETATM    3  C   UNL     1      -8.039   6.703  67.743  1.00  0.00    -0.116 C  
HETATM    4  C   UNL     1      -8.767   7.845  69.294  1.00  0.00    -0.138 C  
HETATM    5  C   UNL     1      -7.300  11.689  67.710  1.00  0.00    -0.106 C  
HETATM    6  C   UNL     1      -7.045  10.636  66.606  1.00  0.00    -0.124 C  
HETATM    7  C   UNL     1      -8.342   6.546  69.241  1.00  0.00    -0.123 C  
HETATM    8  C   UNL     1      -6.597   7.174  69.267  1.00  0.00    -0.044 C  
HETATM    9  C   UNL     1      -5.506  10.710  66.228  1.00  0.00    -0.086 C  
HETATM   10  C   UNL     1      -5.171  11.188  64.823  1.00  0.00     0.321 C  
HETATM   11  O   UNL     1      -5.782  13.392  64.080  1.00  0.00    12.915 OA 
HETATM   12  C   UNL     1      -8.816   5.288  69.956  1.00  0.00    -0.140 C  
HETATM   13  C   UNL     1      -6.121  12.270  64.433  1.00  0.00     6.751 C  
HETATM   14  C   UNL     1      -7.535  11.863  64.436  1.00  0.00     3.394 C  
HETATM   15  C   UNL     1      -6.432   8.687  68.458  1.00  0.00    -0.055 C  
HETATM   16  C   UNL     1      -7.350   9.163  67.135  1.00  0.00    -0.087 C  
HETATM   17  C   UNL     1      -8.949   8.848  67.199  1.00  0.00    -0.141 C  
HETATM   18  C   UNL     1      -9.591   9.134  65.845  1.00  0.00    -0.343 C  
HETATM   19  C   UNL     1      -9.444  10.609  65.456  1.00  0.00    -0.261 C  
HETATM   20  C   UNL     1     -10.244  10.811  64.154  1.00  0.00    -0.412 C  
HETATM   21  C   UNL     1      -7.973  11.040  65.410  1.00  0.00     0.141 C  
ENDROOT
BRANCH   4  22
HETATM   22  C   UNL     1      -8.293   8.232  70.794  1.00  0.00    -0.123 C  
HETATM   23  C   UNL     1      -7.905   7.127  71.756  1.00  0.00    -0.093 C  
HETATM   24  O   UNL     1      -8.130   9.388  71.214  1.00  0.00    -0.319 OA 
ENDBRANCH   4  22
BRANCH   4  25
HETATM   25  O   UNL     1     -10.193   7.543  69.904  1.00  0.00    -0.201 OA 
BRANCH  25  26
HETATM   26  C   UNL     1     -11.271   8.351  69.768  1.00  0.00     0.034 C  
HETATM   27  O   UNL     1     -11.300   9.542  70.032  1.00  0.00    -0.233 OA 
HETATM   28  C   UNL     1     -12.411   7.572  69.168  1.00  0.00     2.470 C  
ENDBRANCH  25  26
ENDBRANCH   4  25
TORSDOF 3
ENDMDL
MODEL      107
REMARK 921   NORMALIZED FREE ENERGY PREDICTED BY IDOCK:   20.91 KCAL/MOL
REMARK 922        TOTAL FREE ENERGY PREDICTED BY IDOCK:   25.19 KCAL/MOL
REMARK 923 INTER-LIGAND FREE ENERGY PREDICTED BY IDOCK:   20.35 KCAL/MOL
REMARK 924 INTRA-LIGAND FREE ENERGY PREDICTED BY IDOCK:    4.84 KCAL/MOL
REMARK 927      BINDING AFFINITY PREDICTED BY RF-SCORE:    0.00 PKD
ROOT
HETATM    1  C   UNL     1     -11.401  10.588  69.311  1.00  0.00    -0.325 C  
HETATM    2  C   UNL     1     -12.023  10.042  68.153  1.00  0.00     1.361 C  
HETATM    3  C   UNL     1     -12.176   9.300  69.431  1.00  0.00     1.369 C  
HETATM    4  C   UNL     1     -11.536  10.351  71.083  1.00  0.00    -0.140 C  
HETATM    5  C   UNL     1      -7.842   8.014  71.660  1.00  0.00    -0.116 C  
HETATM    6  C   UNL     1      -8.452   7.542  70.319  1.00  0.00    -0.138 C  
HETATM    7  C   UNL     1     -12.789  10.085  70.602  1.00  0.00    -0.263 C  
HETATM    8  C   UNL     1     -12.643   8.381  71.319  1.00  0.00    -0.234 C  
HETATM    9  C   UNL     1      -8.612   5.966  70.402  1.00  0.00    -0.135 C  
HETATM   10  C   UNL     1      -7.751   5.143  69.455  1.00  0.00    -0.076 C  
HETATM   11  O   UNL     1      -5.351   5.221  69.570  1.00  0.00    -0.003 OA 
HETATM   12  C   UNL     1     -14.070  10.907  70.587  1.00  0.00     2.410 C  
HETATM   13  C   UNL     1      -6.411   5.783  69.328  1.00  0.00    -0.040 C  
HETATM   14  C   UNL     1      -6.445   7.160  68.810  1.00  0.00    -0.036 C  
HETATM   15  C   UNL     1     -11.024   7.790  71.281  1.00  0.00    -0.259 C  
HETATM   16  C   UNL     1      -9.900   8.170  70.094  1.00  0.00    -0.184 C  
HETATM   17  C   UNL     1      -9.830   9.730  69.622  1.00  0.00    -0.241 C  
HETATM   18  C   UNL     1      -8.931   9.864  68.397  1.00  0.00    -0.120 C  
HETATM   19  C   UNL     1      -7.494   9.428  68.707  1.00  0.00    -0.075 C  
HETATM   20  C   UNL     1      -6.653   9.737  67.453  1.00  0.00    -0.070 C  
HETATM   21  C   UNL     1      -7.437   7.981  69.211  1.00  0.00    -0.094 C  
ENDROOT
BRANCH   4  22
HETATM   22  C   UNL     1     -11.841  10.343  72.673  1.00  0.00     3.008 C  
HETATM   23  C   UNL     1     -10.683  10.317  73.650  1.00  0.00    12.560 C  
HETATM   24  O   UNL     1     -12.967  10.447  73.184  1.00  0.00     1.441 OA 
ENDBRANCH   4  22
BRANCH   4  25
HETATM   25  O   UNL     1     -11.692  11.922  71.137  1.00  0.00     0.364 OA 
BRANCH  25  26
HETATM   26  C   UNL     1     -11.569  12.741  70.066  1.00  0.00    -0.120 C  
HETATM   27  O   UNL     1     -10.554  12.896  69.407  1.00  0.00     0.065 OA 
HETATM   28  C   UNL     1     -12.899  13.378  69.764  1.00  0.00     0.440 C  
ENDBRANCH  25  26
ENDBRANCH   4  25
TORSDOF 3
ENDMDL
MODEL      108
REMARK 921   NORMALIZED FREE ENERGY PREDICTED BY IDOCK:   22.01 KCAL/MOL
REMARK 922        TOTAL FREE ENERGY PREDICTED BY IDOCK:   26.48 KCAL/MOL
REMARK 923 INTER-LIGAND FREE ENERGY PREDICTED BY IDOCK:   24.57 KCAL/MOL
REMARK 924 INTRA-LIGAND FREE ENERGY PREDICTED BY IDOCK:    1.91 KCAL/MOL
REMARK 927      BINDING AFFINITY PREDICTED BY RF-SCORE:    0.00 PKD
ROOT
HETATM    1  C   UNL     1     -12.678  12.304  69.882  1.00  0.00     0.366 C  
HETATM    2  C   UNL     1     -13.776  11.454  69.572  1.00  0.00     4.010 C  
HETATM    3  C   UNL     1     -13.261  11.432  70.965  1.00  0.00     0.042 C  
HETATM    4  C   UNL     1     -11.915  12.936  71.376  1.00  0.00     0.792 C  
HETATM    5  C   UNL     1      -8.362  10.326  71.388  1.00  0.00     3.192 C  
HETATM    6  C   UNL     1      -9.542   9.454  70.900  1.00  0.00    -0.301 C  
HETATM    7  C   UNL     1     -13.235  12.782  71.700  1.00  0.00    -0.410 C  
HETATM    8  C   UNL     1     -12.713  11.607  73.037  1.00  0.00     4.152 C  
HETATM    9  C   UNL     1      -9.601   8.173  71.834  1.00  0.00    -0.264 C  
HETATM   10  C   UNL     1      -9.301   6.835  71.176  1.00  0.00    -0.159 C  
HETATM   11  O   UNL     1      -7.158   6.393  70.176  1.00  0.00    -0.069 OA 
HETATM   12  C   UNL     1     -14.377  13.781  71.827  1.00  0.00    -0.145 C  
HETATM   13  C   UNL     1      -8.213   7.015  70.171  1.00  0.00    -0.133 C  
HETATM   14  C   UNL     1      -8.532   7.972  69.100  1.00  0.00    -0.136 C  
HETATM   15  C   UNL     1     -11.310  10.704  72.606  1.00  0.00     5.408 C  
HETATM   16  C   UNL     1     -10.927  10.230  71.042  1.00  0.00     0.015 C  
HETATM   17  C   UNL     1     -11.137  11.340  69.866  1.00  0.00    -0.183 C  
HETATM   18  C   UNL     1     -10.963  10.689  68.497  1.00  0.00    -0.296 C  
HETATM   19  C   UNL     1      -9.550  10.120  68.324  1.00  0.00    -0.150 C  
HETATM   20  C   UNL     1      -9.444   9.621  66.870  1.00  0.00    -0.198 C  
HETATM   21  C   UNL     1      -9.216   9.092  69.411  1.00  0.00    -0.150 C  
ENDROOT
BRANCH   4  22
HETATM   22  C   UNL     1     -11.395  13.722  72.693  1.00  0.00     3.413 C  
HETATM   23  C   UNL     1     -10.021  14.360  72.681  1.00  0.00     6.241 C  
HETATM   24  O   UNL     1     -12.072  13.932  73.711  1.00  0.00     0.446 OA 
ENDBRANCH   4  22
BRANCH   4  25
HETATM   25  O   UNL     1     -12.062  14.348  70.684  1.00  0.00    -0.293 OA 
BRANCH  25  26
HETATM   26  C   UNL     1     -11.253  14.807  69.699  1.00  0.00    -0.275 C  
HETATM   27  O   UNL     1     -10.057  15.020  69.809  1.00  0.00    -0.184 OA 
HETATM   28  C   UNL     1     -12.041  14.942  68.423  1.00  0.00    -0.167 C  
ENDBRANCH  25  26
ENDBRANCH   4  25
TORSDOF 3
ENDMDL
MODEL      109
REMARK 921   NORMALIZED FREE ENERGY PREDICTED BY IDOCK:   22.27 KCAL/MOL
REMARK 922        TOTAL FREE ENERGY PREDICTED BY IDOCK:   26.79 KCAL/MOL
REMARK 923 INTER-LIGAND FREE ENERGY PREDICTED BY IDOCK:   25.30 KCAL/MOL
REMARK 924 INTRA-LIGAND FREE ENERGY PREDICTED BY IDOCK:    1.50 KCAL/MOL
REMARK 927      BINDING AFFINITY PREDICTED BY RF-SCORE:    0.00 PKD
ROOT
HETATM    1  C   UNL     1      -6.935  15.673  68.018  1.00  0.00    -0.141 C  
HETATM    2  C   UNL     1      -6.473  16.723  67.176  1.00  0.00    -0.225 C  
HETATM    3  C   UNL     1      -7.490  17.062  68.203  1.00  0.00    -0.195 C  
HETATM    4  C   UNL     1      -7.824  15.558  69.570  1.00  0.00    -0.194 C  
HETATM    5  C   UNL     1     -11.742  14.368  67.936  1.00  0.00    -0.388 C  
HETATM    6  C   UNL     1     -11.151  15.398  66.945  1.00  0.00    -0.256 C  
HETATM    7  C   UNL     1      -7.123  16.730  69.658  1.00  0.00     0.105 C  
HETATM    8  C   UNL     1      -8.738  17.617  69.865  1.00  0.00     1.712 C  
HETATM    9  C   UNL     1     -12.227  16.549  66.764  1.00  0.00     2.478 C  
HETATM   10  C   UNL     1     -12.854  16.684  65.384  1.00  0.00     5.132 C  
HETATM   11  O   UNL     1     -14.145  14.895  64.425  1.00  0.00     2.873 OA 
HETATM   12  C   UNL     1      -5.838  17.097  70.388  1.00  0.00    -0.014 C  
HETATM   13  C   UNL     1     -13.064  15.325  64.805  1.00  0.00     1.089 C  
HETATM   14  C   UNL     1     -11.831  14.536  64.654  1.00  0.00    -0.462 C  
HETATM   15  C   UNL     1     -10.017  16.866  68.985  1.00  0.00    -0.265 C  
HETATM   16  C   UNL     1      -9.821  16.057  67.528  1.00  0.00    -0.235 C  
HETATM   17  C   UNL     1      -8.534  15.062  67.407  1.00  0.00    -0.202 C  
HETATM   18  C   UNL     1      -8.376  14.586  65.966  1.00  0.00     1.265 C  
HETATM   19  C   UNL     1      -9.600  13.788  65.502  1.00  0.00     0.012 C  
HETATM   20  C   UNL     1      -9.273  13.242  64.099  1.00  0.00     2.364 C  
HETATM   21  C   UNL     1     -10.889  14.610  65.617  1.00  0.00    -0.335 C  
ENDROOT
BRANCH   4  22
HETATM   22  C   UNL     1      -8.376  15.450  71.089  1.00  0.00     3.342 C  
HETATM   23  C   UNL     1      -9.861  15.270  71.327  1.00  0.00     1.788 C  
HETATM   24  O   UNL     1      -7.665  15.413  72.105  1.00  0.00     4.503 OA 
ENDBRANCH   4  22
BRANCH   4  25
HETATM   25  O   UNL     1      -6.642  14.608  70.012  1.00  0.00    -0.163 OA 
BRANCH  25  26
HETATM   26  C   UNL     1      -6.649  13.260  69.870  1.00  0.00     0.099 C  
HETATM   27  O   UNL     1      -7.313  12.483  70.536  1.00  0.00     1.679 OA 
HETATM   28  C   UNL     1      -5.768  12.872  68.713  1.00  0.00    -0.068 C  
ENDBRANCH  25  26
ENDBRANCH   4  25
TORSDOF 3
ENDMDL
MODEL      110
REMARK 921   NORMALIZED FREE ENERGY PREDICTED BY IDOCK:   24.17 KCAL/MOL
REMARK 922        TOTAL FREE ENERGY PREDICTED BY IDOCK:   29.02 KCAL/MOL
REMARK 923 INTER-LIGAND FREE ENERGY PREDICTED BY IDOCK:   23.08 KCAL/MOL
REMARK 924 INTRA-LIGAND FREE ENERGY PREDICTED BY IDOCK:    5.94 KCAL/MOL
REMARK 927      BINDING AFFINITY PREDICTED BY RF-SCORE:    0.00 PKD
ROOT
HETATM    1  C   UNL     1      -7.631  11.396  69.972  1.00  0.00     1.038 C  
HETATM    2  C   UNL     1      -7.481  10.636  68.777  1.00  0.00    -0.104 C  
HETATM    3  C   UNL     1      -8.556  11.661  68.810  1.00  0.00    -0.023 C  
HETATM    4  C   UNL     1      -8.456  12.917  70.440  1.00  0.00     5.301 C  
HETATM    5  C   UNL     1     -11.876  11.120  72.564  1.00  0.00     3.962 C  
HETATM    6  C   UNL     1     -11.596  10.214  71.342  1.00  0.00    -0.315 C  
HETATM    7  C   UNL     1      -8.114  13.098  69.128  1.00  0.00     0.473 C  
HETATM    8  C   UNL     1      -9.914  13.327  68.746  1.00  0.00    -0.051 C  
HETATM    9  C   UNL     1     -12.952  10.085  70.530  1.00  0.00    -0.156 C  
HETATM   10  C   UNL     1     -13.589   8.704  70.480  1.00  0.00     0.966 C  
HETATM   11  O   UNL     1     -14.321   7.600  72.487  1.00  0.00    -0.021 OA 
HETATM   12  C   UNL     1      -6.986  13.879  68.467  1.00  0.00    -0.101 C  
HETATM   13  C   UNL     1     -13.406   8.032  71.799  1.00  0.00    -0.340 C  
HETATM   14  C   UNL     1     -12.000   7.856  72.198  1.00  0.00    -0.379 C  
HETATM   15  C   UNL     1     -10.927  12.372  69.762  1.00  0.00     0.242 C  
HETATM   16  C   UNL     1     -10.508  10.868  70.379  1.00  0.00     0.695 C  
HETATM   17  C   UNL     1      -8.992  10.710  70.963  1.00  0.00     3.722 C  
HETATM   18  C   UNL     1      -8.703   9.245  71.272  1.00  0.00    -0.031 C  
HETATM   19  C   UNL     1      -9.651   8.702  72.347  1.00  0.00    -0.305 C  
HETATM   20  C   UNL     1      -9.180   7.273  72.679  1.00  0.00    -0.172 C  
HETATM   21  C   UNL     1     -11.120   8.842  71.930  1.00  0.00    -0.442 C  
ENDROOT
BRANCH   4  22
HETATM   22  C   UNL     1      -8.959  14.413  70.805  1.00  0.00     3.228 C  
HETATM   23  C   UNL     1      -9.940  14.607  71.943  1.00  0.00     3.784 C  
HETATM   24  O   UNL     1      -8.538  15.455  70.280  1.00  0.00     0.326 OA 
ENDBRANCH   4  22
BRANCH   4  25
HETATM   25  O   UNL     1      -7.056  13.320  71.049  1.00  0.00     1.641 OA 
BRANCH  25  26
HETATM   26  C   UNL     1      -5.873  12.775  70.677  1.00  0.00    -0.095 C  
HETATM   27  O   UNL     1      -5.132  13.215  69.814  1.00  0.00    -0.080 OA 
HETATM   28  C   UNL     1      -5.573  11.583  71.546  1.00  0.00     0.317 C  
ENDBRANCH  25  26
ENDBRANCH   4  25
TORSDOF 3
ENDMDL
MODEL      111
REMARK 921   NORMALIZED FREE ENERGY PREDICTED BY IDOCK:   31.75 KCAL/MOL
REMARK 922        TOTAL FREE ENERGY PREDICTED BY IDOCK:   37.93 KCAL/MOL
REMARK 923 INTER-LIGAND FREE ENERGY PREDICTED BY IDOCK:   29.73 KCAL/MOL
REMARK 924 INTRA-LIGAND FREE ENERGY PREDICTED BY IDOCK:    8.20 KCAL/MOL
REMARK 927      BINDING AFFINITY PREDICTED BY RF-SCORE:    0.00 PKD
ROOT
HETATM    1  C   UNL     1     -12.227  11.265  70.200  1.00  0.00    -0.410 C  
HETATM    2  C   UNL     1     -13.221  10.520  69.505  1.00  0.00     1.256 C  
HETATM    3  C   UNL     1     -13.280  10.528  70.989  1.00  0.00    -0.324 C  
HETATM    4  C   UNL     1     -12.017  11.900  71.863  1.00  0.00     1.763 C  
HETATM    5  C   UNL     1      -9.082   8.930  73.278  1.00  0.00     0.846 C  
HETATM    6  C   UNL     1     -10.086   8.162  72.386  1.00  0.00    -0.355 C  
HETATM    7  C   UNL     1     -13.370  11.908  71.658  1.00  0.00    -0.236 C  
HETATM    8  C   UNL     1     -13.543  10.768  73.110  1.00  0.00     2.921 C  
HETATM    9  C   UNL     1     -10.651   6.954  73.245  1.00  0.00    -0.353 C  
HETATM   10  C   UNL     1     -10.289   5.554  72.773  1.00  0.00    -0.230 C  
HETATM   11  O   UNL     1      -7.999   4.826  72.679  1.00  0.00    -0.091 OA 
HETATM   12  C   UNL     1     -14.343  13.030  71.322  1.00  0.00     1.973 C  
HETATM   13  C   UNL     1      -8.889   5.555  72.261  1.00  0.00    -0.132 C  
HETATM   14  C   UNL     1      -8.657   6.474  71.135  1.00  0.00    -0.130 C  
HETATM   15  C   UNL     1     -12.202   9.695  73.265  1.00  0.00     3.480 C  
HETATM   16  C   UNL     1     -11.316   9.089  71.975  1.00  0.00    -0.395 C  
HETATM   17  C   UNL     1     -10.926  10.142  70.792  1.00  0.00    -0.313 C  
HETATM   18  C   UNL     1     -10.327   9.395  69.605  1.00  0.00    -0.229 C  
HETATM   19  C   UNL     1      -9.035   8.668  69.995  1.00  0.00    -0.148 C  
HETATM   20  C   UNL     1      -8.447   8.073  68.701  1.00  0.00    -0.128 C  
HETATM   21  C   UNL     1      -9.266   7.677  71.142  1.00  0.00    -0.153 C  
ENDROOT
BRANCH   4  22
HETATM   22  C   UNL     1     -11.945  12.705  73.267  1.00  0.00     6.552 C  
HETATM   23  C   UNL     1     -13.103  13.594  73.672  1.00  0.00     2.230 C  
HETATM   24  O   UNL     1     -11.040  12.591  74.109  1.00  0.00    11.928 OA 
ENDBRANCH   4  22
BRANCH   4  25
HETATM   25  O   UNL     1     -11.718  13.275  71.147  1.00  0.00     0.250 OA 
BRANCH  25  26
HETATM   26  C   UNL     1     -11.568  14.458  71.790  1.00  0.00     0.333 C  
HETATM   27  O   UNL     1     -12.076  14.750  72.860  1.00  0.00    -0.264 OA 
HETATM   28  C   UNL     1     -10.615  15.333  71.020  1.00  0.00     0.089 C  
ENDBRANCH  25  26
ENDBRANCH   4  25
TORSDOF 3
ENDMDL
MODEL      112
REMARK 921   NORMALIZED FREE ENERGY PREDICTED BY IDOCK:   34.50 KCAL/MOL
REMARK 922        TOTAL FREE ENERGY PREDICTED BY IDOCK:   41.16 KCAL/MOL
REMARK 923 INTER-LIGAND FREE ENERGY PREDICTED BY IDOCK:   34.52 KCAL/MOL
REMARK 924 INTRA-LIGAND FREE ENERGY PREDICTED BY IDOCK:    6.64 KCAL/MOL
REMARK 927      BINDING AFFINITY PREDICTED BY RF-SCORE:    0.00 PKD
ROOT
HETATM    1  C   UNL     1      -8.609   6.188  65.740  1.00  0.00    -0.153 C  
HETATM    2  C   UNL     1      -7.660   5.149  65.530  1.00  0.00    -0.086 C  
HETATM    3  C   UNL     1      -8.925   4.795  66.222  1.00  0.00    -0.119 C  
HETATM    4  C   UNL     1     -10.348   6.283  66.162  1.00  0.00     0.258 C  
HETATM    5  C   UNL     1      -9.882   7.480  70.379  1.00  0.00    -0.183 C  
HETATM    6  C   UNL     1      -8.754   6.463  70.087  1.00  0.00    -0.139 C  
HETATM    7  C   UNL     1     -10.224   5.112  65.465  1.00  0.00     0.071 C  
HETATM    8  C   UNL     1     -10.861   4.218  66.959  1.00  0.00     1.466 C  
HETATM    9  C   UNL     1      -8.865   5.311  71.172  1.00  0.00    -0.147 C  
HETATM   10  C   UNL     1      -7.713   5.191  72.158  1.00  0.00    -0.099 C  
HETATM   11  O   UNL     1      -7.172   6.986  73.664  1.00  0.00    -0.077 OA 
HETATM   12  C   UNL     1     -10.564   4.741  64.028  1.00  0.00     0.760 C  
HETATM   13  C   UNL     1      -7.231   6.555  72.520  1.00  0.00    -0.082 C  
HETATM   14  C   UNL     1      -6.753   7.349  71.377  1.00  0.00    -0.050 C  
HETATM   15  C   UNL     1     -10.381   4.975  68.432  1.00  0.00    -0.091 C  
HETATM   16  C   UNL     1      -8.936   5.801  68.648  1.00  0.00    -0.112 C  
HETATM   17  C   UNL     1      -8.474   6.802  67.445  1.00  0.00    -0.121 C  
HETATM   18  C   UNL     1      -7.052   7.294  67.694  1.00  0.00    -0.085 C  
HETATM   19  C   UNL     1      -6.956   8.094  68.998  1.00  0.00    -0.061 C  
HETATM   20  C   UNL     1      -5.524   8.657  69.074  1.00  0.00    -0.036 C  
HETATM   21  C   UNL     1      -7.415   7.267  70.205  1.00  0.00    -0.088 C  
ENDROOT
BRANCH   4  22
HETATM   22  C   UNL     1     -11.962   6.372  66.270  1.00  0.00     3.261 C  
HETATM   23  C   UNL     1     -12.737   7.107  65.194  1.00  0.00    14.419 C  
HETATM   24  O   UNL     1     -12.652   5.805  67.130  1.00  0.00     5.424 OA 
ENDBRANCH   4  22
BRANCH   4  25
HETATM   25  O   UNL     1     -10.455   7.232  64.904  1.00  0.00     4.176 OA 
BRANCH  25  26
HETATM   26  C   UNL     1      -9.400   7.636  64.158  1.00  0.00     2.204 C  
HETATM   27  O   UNL     1      -8.249   7.729  64.552  1.00  0.00    -0.132 OA 
HETATM   28  C   UNL     1      -9.850   7.884  62.743  1.00  0.00     4.340 C  
ENDBRANCH  25  26
ENDBRANCH   4  25
TORSDOF 3
ENDMDL
MODEL      113
REMARK 921   NORMALIZED FREE ENERGY PREDICTED BY IDOCK:   35.44 KCAL/MOL
REMARK 922        TOTAL FREE ENERGY PREDICTED BY IDOCK:   42.27 KCAL/MOL
REMARK 923 INTER-LIGAND FREE ENERGY PREDICTED BY IDOCK:   28.92 KCAL/MOL
REMARK 924 INTRA-LIGAND FREE ENERGY PREDICTED BY IDOCK:   13.35 KCAL/MOL
REMARK 927      BINDING AFFINITY PREDICTED BY RF-SCORE:    0.00 PKD
ROOT
HETATM    1  C   UNL     1      -8.991   6.483  69.627  1.00  0.00    -0.141 C  
HETATM    2  C   UNL     1      -7.749   5.787  69.645  1.00  0.00    -0.091 C  
HETATM    3  C   UNL     1      -8.293   6.258  70.945  1.00  0.00    -0.127 C  
HETATM    4  C   UNL     1     -10.234   6.937  70.836  1.00  0.00    -0.197 C  
HETATM    5  C   UNL     1      -9.204  11.209  71.187  1.00  0.00     6.799 C  
HETATM    6  C   UNL     1      -7.865  10.448  71.046  1.00  0.00     2.055 C  
HETATM    7  C   UNL     1      -9.703   5.767  71.307  1.00  0.00    -0.210 C  
HETATM    8  C   UNL     1      -9.207   6.676  72.846  1.00  0.00    -0.147 C  
HETATM    9  C   UNL     1      -6.953  10.862  72.276  1.00  0.00     5.185 C  
HETATM   10  C   UNL     1      -5.692  11.650  71.955  1.00  0.00     0.928 C  
HETATM   11  O   UNL     1      -5.809  13.813  70.910  1.00  0.00    -0.192 OA 
HETATM   12  C   UNL     1     -10.213   4.333  71.280  1.00  0.00    -0.106 C  
HETATM   13  C   UNL     1      -5.978  12.602  70.843  1.00  0.00     0.224 C  
HETATM   14  C   UNL     1      -6.426  11.960  69.597  1.00  0.00    -0.101 C  
HETATM   15  C   UNL     1      -8.796   8.321  72.533  1.00  0.00    -0.297 C  
HETATM   16  C   UNL     1      -8.091   8.871  71.112  1.00  0.00    -0.201 C  
HETATM   17  C   UNL     1      -8.688   8.273  69.716  1.00  0.00    -0.134 C  
HETATM   18  C   UNL     1      -7.802   8.694  68.548  1.00  0.00    -0.108 C  
HETATM   19  C   UNL     1      -7.762  10.219  68.397  1.00  0.00    -0.093 C  
HETATM   20  C   UNL     1      -6.963  10.521  67.114  1.00  0.00    -0.089 C  
HETATM   21  C   UNL     1      -7.259  10.902  69.674  1.00  0.00    -0.098 C  
ENDROOT
BRANCH   4  22
HETATM   22  C   UNL     1     -11.479   7.108  71.858  1.00  0.00    -0.270 C  
HETATM   23  C   UNL     1     -11.448   8.223  72.884  1.00  0.00    -0.184 C  
HETATM   24  O   UNL     1     -12.527   6.446  71.822  1.00  0.00    -0.316 OA 
ENDBRANCH   4  22
BRANCH   4  25
HETATM   25  O   UNL     1     -11.252   6.278  69.824  1.00  0.00    -0.368 OA 
BRANCH  25  26
HETATM   26  C   UNL     1     -11.752   5.025  69.948  1.00  0.00     4.089 C  
HETATM   27  O   UNL     1     -12.936   4.730  69.920  1.00  0.00    11.701 OA 
HETATM   28  C   UNL     1     -10.620   4.040  70.049  1.00  0.00     1.404 C  
ENDBRANCH  25  26
ENDBRANCH   4  25
TORSDOF 3
ENDMDL
MODEL      114
REMARK 921   NORMALIZED FREE ENERGY PREDICTED BY IDOCK:   37.06 KCAL/MOL
REMARK 922        TOTAL FREE ENERGY PREDICTED BY IDOCK:   44.17 KCAL/MOL
REMARK 923 INTER-LIGAND FREE ENERGY PREDICTED BY IDOCK:   42.89 KCAL/MOL
REMARK 924 INTRA-LIGAND FREE ENERGY PREDICTED BY IDOCK:    1.28 KCAL/MOL
REMARK 927      BINDING AFFINITY PREDICTED BY RF-SCORE:    0.00 PKD
ROOT
HETATM    1  C   UNL     1      -7.549  17.101  70.168  1.00  0.00     1.861 C  
HETATM    2  C   UNL     1      -6.804  16.218  70.999  1.00  0.00     2.435 C  
HETATM    3  C   UNL     1      -7.819  15.619  70.095  1.00  0.00     0.607 C  
HETATM    4  C   UNL     1      -8.581  16.940  68.711  1.00  0.00    -0.246 C  
HETATM    5  C   UNL     1     -12.494  17.410  70.686  1.00  0.00     6.865 C  
HETATM    6  C   UNL     1     -11.614  16.582  71.652  1.00  0.00    -0.189 C  
HETATM    7  C   UNL     1      -7.664  15.931  68.599  1.00  0.00    -0.161 C  
HETATM    8  C   UNL     1      -9.072  14.725  68.594  1.00  0.00    -0.186 C  
HETATM    9  C   UNL     1     -12.407  15.250  71.988  1.00  0.00    -0.440 C  
HETATM   10  C   UNL     1     -12.865  15.075  73.429  1.00  0.00    -0.652 C  
HETATM   11  O   UNL     1     -14.404  16.620  74.442  1.00  0.00     2.255 OA 
HETATM   12  C   UNL     1      -6.403  15.788  67.757  1.00  0.00    -0.174 C  
HETATM   13  C   UNL     1     -13.297  16.395  73.971  1.00  0.00     0.450 C  
HETATM   14  C   UNL     1     -12.246  17.425  73.964  1.00  0.00     0.472 C  
HETATM   15  C   UNL     1     -10.393  15.253  69.568  1.00  0.00    -0.267 C  
HETATM   16  C   UNL     1     -10.236  16.171  70.964  1.00  0.00     1.335 C  
HETATM   17  C   UNL     1      -9.178  17.412  70.913  1.00  0.00     5.426 C  
HETATM   18  C   UNL     1      -8.990  17.995  72.310  1.00  0.00    14.613 C  
HETATM   19  C   UNL     1     -10.305  18.556  72.863  1.00  0.00     4.359 C  
HETATM   20  C   UNL     1      -9.971  19.240  74.203  1.00  0.00     4.797 C  
HETATM   21  C   UNL     1     -11.401  17.485  72.914  1.00  0.00     1.625 C  
ENDROOT
BRANCH   4  22
HETATM   22  C   UNL     1      -9.280  16.843  67.252  1.00  0.00    -0.226 C  
HETATM   23  C   UNL     1     -10.750  17.183  67.111  1.00  0.00    -0.177 C  
HETATM   24  O   UNL     1      -8.686  16.591  66.192  1.00  0.00    -0.307 OA 
ENDBRANCH   4  22
BRANCH   4  25
HETATM   25  O   UNL     1      -7.667  18.081  68.113  1.00  0.00    -0.254 OA 
BRANCH  25  26
HETATM   26  C   UNL     1      -8.093  19.338  67.837  1.00  0.00    -0.290 C  
HETATM   27  O   UNL     1      -9.257  19.678  67.711  1.00  0.00    -0.316 OA 
HETATM   28  C   UNL     1      -6.911  20.268  67.784  1.00  0.00    -0.323 C  
ENDBRANCH  25  26
ENDBRANCH   4  25
TORSDOF 3
ENDMDL
MODEL      115
REMARK 921   NORMALIZED FREE ENERGY PREDICTED BY IDOCK:   38.31 KCAL/MOL
REMARK 922        TOTAL FREE ENERGY PREDICTED BY IDOCK:   45.64 KCAL/MOL
REMARK 923 INTER-LIGAND FREE ENERGY PREDICTED BY IDOCK:   44.21 KCAL/MOL
REMARK 924 INTRA-LIGAND FREE ENERGY PREDICTED BY IDOCK:    1.43 KCAL/MOL
REMARK 927      BINDING AFFINITY PREDICTED BY RF-SCORE:    0.00 PKD
ROOT
HETATM    1  C   UNL     1      -9.795   6.858  67.877  1.00  0.00    -0.155 C  
HETATM    2  C   UNL     1      -9.646   7.752  68.975  1.00  0.00    -0.155 C  
HETATM    3  C   UNL     1     -10.678   8.077  67.958  1.00  0.00    -0.112 C  
HETATM    4  C   UNL     1     -11.035   6.553  66.619  1.00  0.00    -0.093 C  
HETATM    5  C   UNL     1      -8.948   8.465  63.239  1.00  0.00     0.644 C  
HETATM    6  C   UNL     1      -8.664   9.343  64.481  1.00  0.00    -0.233 C  
HETATM    7  C   UNL     1     -11.742   6.998  67.702  1.00  0.00     1.104 C  
HETATM    8  C   UNL     1     -12.358   8.399  66.655  1.00  0.00     9.414 C  
HETATM    9  C   UNL     1      -9.100  10.825  64.120  1.00  0.00    -0.215 C  
HETATM   10  C   UNL     1      -7.990  11.863  64.045  1.00  0.00     2.530 C  
HETATM   11  O   UNL     1      -6.207  11.664  62.444  1.00  0.00     0.405 OA 
HETATM   12  C   UNL     1     -12.579   6.268  68.744  1.00  0.00     5.317 C  
HETATM   13  C   UNL     1      -6.776  11.241  63.442  1.00  0.00     1.280 C  
HETATM   14  C   UNL     1      -6.252  10.088  64.191  1.00  0.00    -0.132 C  
HETATM   15  C   UNL     1     -11.192   8.913  65.494  1.00  0.00     4.853 C  
HETATM   16  C   UNL     1      -9.531   8.867  65.731  1.00  0.00    -0.272 C  
HETATM   17  C   UNL     1      -8.924   7.522  66.427  1.00  0.00    -0.196 C  
HETATM   18  C   UNL     1      -7.454   7.732  66.773  1.00  0.00    -0.090 C  
HETATM   19  C   UNL     1      -6.616   7.999  65.517  1.00  0.00    -0.045 C  
HETATM   20  C   UNL     1      -5.142   8.052  65.965  1.00  0.00    -0.025 C  
HETATM   21  C   UNL     1      -7.125   9.222  64.745  1.00  0.00    -0.095 C  
ENDROOT
BRANCH   4  22
HETATM   22  C   UNL     1     -12.256   6.090  65.661  1.00  0.00     4.838 C  
HETATM   23  C   UNL     1     -12.055   6.080  64.159  1.00  0.00     8.983 C  
HETATM   24  O   UNL     1     -13.345   5.648  66.057  1.00  0.00     7.093 OA 
ENDBRANCH   4  22
BRANCH   4  25
HETATM   25  O   UNL     1     -10.927   5.046  67.082  1.00  0.00     0.098 OA 
BRANCH  25  26
HETATM   26  C   UNL     1      -9.797   4.303  67.013  1.00  0.00    -0.179 C  
HETATM   27  O   UNL     1      -9.160   4.075  65.997  1.00  0.00    -0.130 OA 
HETATM   28  C   UNL     1      -9.401   3.860  68.396  1.00  0.00    -0.222 C  
ENDBRANCH  25  26
ENDBRANCH   4  25
TORSDOF 3
ENDMDL
MODEL      116
REMARK 921   NORMALIZED FREE ENERGY PREDICTED BY IDOCK:   40.03 KCAL/MOL
REMARK 922        TOTAL FREE ENERGY PREDICTED BY IDOCK:   47.66 KCAL/MOL
REMARK 923 INTER-LIGAND FREE ENERGY PREDICTED BY IDOCK:   32.22 KCAL/MOL
REMARK 924 INTRA-LIGAND FREE ENERGY PREDICTED BY IDOCK:   15.44 KCAL/MOL
REMARK 927      BINDING AFFINITY PREDICTED BY RF-SCORE:    0.00 PKD
ROOT
HETATM    1  C   UNL     1      -9.394   6.129  66.822  1.00  0.00    -0.152 C  
HETATM    2  C   UNL     1      -8.096   6.711  66.865  1.00  0.00    -0.113 C  
HETATM    3  C   UNL     1      -8.185   5.240  66.677  1.00  0.00    -0.108 C  
HETATM    4  C   UNL     1     -10.092   4.567  66.288  1.00  0.00    -0.254 C  
HETATM    5  C   UNL     1     -10.735   2.799  70.275  1.00  0.00     2.982 C  
HETATM    6  C   UNL     1      -9.398   3.572  70.351  1.00  0.00    -0.239 C  
HETATM    7  C   UNL     1      -9.010   4.759  65.473  1.00  0.00    -0.146 C  
HETATM    8  C   UNL     1      -8.310   3.167  66.118  1.00  0.00    -0.101 C  
HETATM    9  C   UNL     1      -8.294   2.556  70.867  1.00  0.00    -0.080 C  
HETATM   10  C   UNL     1      -7.690   2.842  72.233  1.00  0.00    -0.054 C  
HETATM   11  O   UNL     1      -9.050   2.860  74.216  1.00  0.00    -0.078 OA 
HETATM   12  C   UNL     1      -8.891   5.231  64.030  1.00  0.00     0.066 C  
HETATM   13  C   UNL     1      -8.752   3.363  73.141  1.00  0.00    -0.081 C  
HETATM   14  C   UNL     1      -9.393   4.602  72.673  1.00  0.00    -0.152 C  
HETATM   15  C   UNL     1      -8.732   2.884  67.765  1.00  0.00    -0.139 C  
HETATM   16  C   UNL     1      -8.952   4.091  68.911  1.00  0.00    -0.168 C  
HETATM   17  C   UNL     1      -9.794   5.407  68.441  1.00  0.00    -0.197 C  
HETATM   18  C   UNL     1      -9.710   6.490  69.511  1.00  0.00    -0.161 C  
HETATM   19  C   UNL     1     -10.325   6.018  70.834  1.00  0.00    -0.277 C  
HETATM   20  C   UNL     1     -10.314   7.228  71.789  1.00  0.00    -0.215 C  
HETATM   21  C   UNL     1      -9.642   4.749  71.356  1.00  0.00    -0.224 C  
ENDROOT
BRANCH   4  22
HETATM   22  C   UNL     1     -10.761   3.282  65.562  1.00  0.00     1.511 C  
HETATM   23  C   UNL     1     -12.225   2.975  65.802  1.00  0.00    11.612 C  
HETATM   24  O   UNL     1     -10.191   2.553  64.735  1.00  0.00     0.198 OA 
ENDBRANCH   4  22
BRANCH   4  25
HETATM   25  O   UNL     1     -11.099   5.462  65.464  1.00  0.00     0.341 OA 
BRANCH  25  26
HETATM   26  C   UNL     1     -10.816   6.033  64.269  1.00  0.00     5.738 C  
HETATM   27  O   UNL     1     -11.632   6.533  63.512  1.00  0.00    11.388 OA 
HETATM   28  C   UNL     1      -9.327   6.025  64.049  1.00  0.00     1.327 C  
ENDBRANCH  25  26
ENDBRANCH   4  25
TORSDOF 3
ENDMDL
MODEL      117
REMARK 921   NORMALIZED FREE ENERGY PREDICTED BY IDOCK:   59.05 KCAL/MOL
REMARK 922        TOTAL FREE ENERGY PREDICTED BY IDOCK:   70.02 KCAL/MOL
REMARK 923 INTER-LIGAND FREE ENERGY PREDICTED BY IDOCK:   67.41 KCAL/MOL
REMARK 924 INTRA-LIGAND FREE ENERGY PREDICTED BY IDOCK:    2.61 KCAL/MOL
REMARK 927      BINDING AFFINITY PREDICTED BY RF-SCORE:    0.00 PKD
ROOT
HETATM    1  C   UNL     1      -9.617  10.537  72.460  1.00  0.00     9.793 C  
HETATM    2  C   UNL     1      -8.445  10.841  73.209  1.00  0.00    13.775 C  
HETATM    3  C   UNL     1      -8.354  10.917  71.728  1.00  0.00     8.620 C  
HETATM    4  C   UNL     1     -10.177  10.796  70.777  1.00  0.00     1.736 C  
HETATM    5  C   UNL     1      -9.613   6.676  69.312  1.00  0.00    -0.145 C  
HETATM    6  C   UNL     1      -8.425   6.970  70.258  1.00  0.00    -0.138 C  
HETATM    7  C   UNL     1      -9.353  11.857  71.035  1.00  0.00     9.338 C  
HETATM    8  C   UNL     1      -8.294  11.310  69.615  1.00  0.00     0.713 C  
HETATM    9  C   UNL     1      -7.093   6.678  69.447  1.00  0.00    -0.080 C  
HETATM   10  C   UNL     1      -6.239   5.516  69.934  1.00  0.00    -0.029 C  
HETATM   11  O   UNL     1      -7.093   3.268  69.954  1.00  0.00    -0.040 OA 
HETATM   12  C   UNL     1      -9.641  13.311  71.385  1.00  0.00    11.007 C  
HETATM   13  C   UNL     1      -7.130   4.410  70.391  1.00  0.00    -0.045 C  
HETATM   14  C   UNL     1      -8.039   4.780  71.488  1.00  0.00    -0.103 C  
HETATM   15  C   UNL     1      -8.278   9.596  69.430  1.00  0.00    -0.132 C  
HETATM   16  C   UNL     1      -8.405   8.502  70.697  1.00  0.00    -0.141 C  
HETATM   17  C   UNL     1      -9.520   8.830  71.842  1.00  0.00    -0.362 C  
HETATM   18  C   UNL     1      -9.354   7.876  73.021  1.00  0.00    -0.329 C  
HETATM   19  C   UNL     1      -9.570   6.419  72.595  1.00  0.00    -0.150 C  
HETATM   20  C   UNL     1      -9.521   5.566  73.877  1.00  0.00    -0.139 C  
HETATM   21  C   UNL     1      -8.604   6.005  71.479  1.00  0.00    -0.132 C  
ENDROOT
BRANCH   4  22
HETATM   22  C   UNL     1     -10.795  11.264  69.355  1.00  0.00    -0.189 C  
HETATM   23  C   UNL     1     -11.143  10.215  68.318  1.00  0.00    -0.285 C  
HETATM   24  O   UNL     1     -11.100  12.429  69.059  1.00  0.00    -0.242 OA 
ENDBRANCH   4  22
BRANCH   4  25
HETATM   25  O   UNL     1     -11.469  11.403  71.453  1.00  0.00     0.906 OA 
BRANCH  25  26
HETATM   26  C   UNL     1     -12.023  10.941  72.600  1.00  0.00     3.742 C  
HETATM   27  O   UNL     1     -11.730  11.312  73.725  1.00  0.00    10.876 OA 
HETATM   28  C   UNL     1     -13.110   9.954  72.272  1.00  0.00    -0.419 C  
ENDBRANCH  25  26
ENDBRANCH   4  25
TORSDOF 3
ENDMDL
MODEL      118
REMARK 921   NORMALIZED FREE ENERGY PREDICTED BY IDOCK:   61.90 KCAL/MOL
REMARK 922        TOTAL FREE ENERGY PREDICTED BY IDOCK:   73.37 KCAL/MOL
REMARK 923 INTER-LIGAND FREE ENERGY PREDICTED BY IDOCK:   63.79 KCAL/MOL
REMARK 924 INTRA-LIGAND FREE ENERGY PREDICTED BY IDOCK:    9.58 KCAL/MOL
REMARK 927      BINDING AFFINITY PREDICTED BY RF-SCORE:    0.00 PKD
ROOT
HETATM    1  C   UNL     1      -6.801  10.586  71.679  1.00  0.00     2.100 C  
HETATM    2  C   UNL     1      -6.250  11.160  72.860  1.00  0.00     3.259 C  
HETATM    3  C   UNL     1      -7.488  10.350  73.001  1.00  0.00     6.182 C  
HETATM    4  C   UNL     1      -7.990   9.300  71.302  1.00  0.00     0.097 C  
HETATM    5  C   UNL     1     -11.362  11.908  70.178  1.00  0.00     0.010 C  
HETATM    6  C   UNL     1     -10.653  12.599  71.366  1.00  0.00     6.967 C  
HETATM    7  C   UNL     1      -7.417   8.906  72.480  1.00  0.00     0.219 C  
HETATM    8  C   UNL     1      -9.102   8.952  73.253  1.00  0.00     0.846 C  
HETATM    9  C   UNL     1     -11.751  12.866  72.480  1.00  0.00     4.000 C  
HETATM   10  C   UNL     1     -12.076  14.321  72.782  1.00  0.00     0.115 C  
HETATM   11  O   UNL     1     -12.989  15.768  71.091  1.00  0.00    -0.491 OA 
HETATM   12  C   UNL     1      -6.351   7.867  72.798  1.00  0.00    -0.068 C  
HETATM   13  C   UNL     1     -12.051  15.103  71.512  1.00  0.00    -0.345 C  
HETATM   14  C   UNL     1     -10.758  15.076  70.811  1.00  0.00    -0.029 C  
HETATM   15  C   UNL     1     -10.101  10.185  72.577  1.00  0.00     5.916 C  
HETATM   16  C   UNL     1      -9.535  11.654  71.996  1.00  0.00    16.260 C  
HETATM   17  C   UNL     1      -8.179  11.612  71.089  1.00  0.00     8.404 C  
HETATM   18  C   UNL     1      -7.679  13.031  70.833  1.00  0.00     5.655 C  
HETATM   19  C   UNL     1      -8.710  13.855  70.054  1.00  0.00     2.068 C  
HETATM   20  C   UNL     1      -8.049  15.209  69.730  1.00  0.00     0.009 C  
HETATM   21  C   UNL     1     -10.053  13.926  70.790  1.00  0.00     3.315 C  
ENDROOT
BRANCH   4  22
HETATM   22  C   UNL     1      -8.845   7.969  70.952  1.00  0.00    -0.139 C  
HETATM   23  C   UNL     1      -9.789   7.399  71.992  1.00  0.00    -0.191 C  
HETATM   24  O   UNL     1      -8.866   7.405  69.847  1.00  0.00    -0.140 OA 
ENDBRANCH   4  22
BRANCH   4  25
HETATM   25  O   UNL     1      -6.862   8.733  70.354  1.00  0.00    -0.039 OA 
BRANCH  25  26
HETATM   26  C   UNL     1      -6.117   9.489  69.512  1.00  0.00    -0.040 C  
HETATM   27  O   UNL     1      -5.399   9.059  68.624  1.00  0.00    -0.034 OA 
HETATM   28  C   UNL     1      -6.367  10.946  69.791  1.00  0.00    -0.114 C  
ENDBRANCH  25  26
ENDBRANCH   4  25
TORSDOF 3
ENDMDL
MODEL      119
REMARK 921   NORMALIZED FREE ENERGY PREDICTED BY IDOCK:   77.63 KCAL/MOL
REMARK 922        TOTAL FREE ENERGY PREDICTED BY IDOCK:   91.86 KCAL/MOL
REMARK 923 INTER-LIGAND FREE ENERGY PREDICTED BY IDOCK:   90.70 KCAL/MOL
REMARK 924 INTRA-LIGAND FREE ENERGY PREDICTED BY IDOCK:    1.16 KCAL/MOL
REMARK 927      BINDING AFFINITY PREDICTED BY RF-SCORE:    0.00 PKD
ROOT
HETATM    1  C   UNL     1      -8.605  15.091  66.756  1.00  0.00    -0.279 C  
HETATM    2  C   UNL     1      -7.261  15.507  66.973  1.00  0.00    -0.124 C  
HETATM    3  C   UNL     1      -7.543  14.049  67.001  1.00  0.00     0.212 C  
HETATM    4  C   UNL     1      -9.430  13.555  66.340  1.00  0.00    -0.224 C  
HETATM    5  C   UNL     1     -11.050  12.638  70.336  1.00  0.00     1.126 C  
HETATM    6  C   UNL     1      -9.644  13.241  70.563  1.00  0.00     5.130 C  
HETATM    7  C   UNL     1      -8.202  13.461  65.743  1.00  0.00     2.337 C  
HETATM    8  C   UNL     1      -7.887  11.940  66.757  1.00  0.00    -0.070 C  
HETATM    9  C   UNL     1      -8.824  12.209  71.445  1.00  0.00    14.255 C  
HETATM   10  C   UNL     1      -8.438  12.664  72.844  1.00  0.00    21.245 C  
HETATM   11  O   UNL     1     -10.114  13.210  74.481  1.00  0.00     9.239 OA 
HETATM   12  C   UNL     1      -7.753  13.644  64.300  1.00  0.00    13.685 C  
HETATM   13  C   UNL     1      -9.552  13.468  73.424  1.00  0.00    13.949 C  
HETATM   14  C   UNL     1      -9.897  14.670  72.649  1.00  0.00     5.788 C  
HETATM   15  C   UNL     1      -8.638  12.017  68.307  1.00  0.00    -0.174 C  
HETATM   16  C   UNL     1      -8.870  13.430  69.182  1.00  0.00     0.593 C  
HETATM   17  C   UNL     1      -9.398  14.731  68.351  1.00  0.00    -0.197 C  
HETATM   18  C   UNL     1      -9.340  15.973  69.235  1.00  0.00    -0.244 C  
HETATM   19  C   UNL     1     -10.250  15.830  70.461  1.00  0.00     0.194 C  
HETATM   20  C   UNL     1     -10.223  17.183  71.198  1.00  0.00     2.948 C  
HETATM   21  C   UNL     1      -9.879  14.603  71.302  1.00  0.00     2.757 C  
ENDROOT
BRANCH   4  22
HETATM   22  C   UNL     1     -10.149  12.252  65.701  1.00  0.00    -0.252 C  
HETATM   23  C   UNL     1     -11.593  11.957  66.051  1.00  0.00    -0.296 C  
HETATM   24  O   UNL     1      -9.639  11.497  64.859  1.00  0.00    -0.233 OA 
ENDBRANCH   4  22
BRANCH   4  25
HETATM   25  O   UNL     1     -10.120  14.401  65.198  1.00  0.00    -0.382 OA 
BRANCH  25  26
HETATM   26  C   UNL     1     -11.193  15.207  65.384  1.00  0.00    -0.338 C  
HETATM   27  O   UNL     1     -11.897  15.228  66.381  1.00  0.00    -0.035 OA 
HETATM   28  C   UNL     1     -11.342  16.127  64.203  1.00  0.00     0.085 C  
ENDBRANCH  25  26
ENDBRANCH   4  25
TORSDOF 3
ENDMDL
