MODEL        1
REMARK 921   NORMALIZED FREE ENERGY PREDICTED BY IDOCK:   -6.94 KCAL/MOL
REMARK 922        TOTAL FREE ENERGY PREDICTED BY IDOCK:   -6.58 KCAL/MOL
REMARK 923 INTER-LIGAND FREE ENERGY PREDICTED BY IDOCK:   -7.34 KCAL/MOL
REMARK 924 INTRA-LIGAND FREE ENERGY PREDICTED BY IDOCK:    0.76 KCAL/MOL
REMARK 927      BINDING AFFINITY PREDICTED BY RF-SCORE:    0.00 PKD
ROOT
HETATM    1  C   UNL     1     -11.828  13.762  67.935  1.00  0.00    -0.413 C  
HETATM    2  C   UNL     1     -11.322  14.578  68.985  1.00  0.00    -0.296 C  
HETATM    3  C   UNL     1     -10.291  13.926  68.132  1.00  0.00    -0.247 C  
HETATM    4  C   UNL     1     -10.971  12.922  66.463  1.00  0.00    -0.300 C  
HETATM    5  C   UNL     1     -12.500  12.982  65.805  1.00  0.00    -0.394 C  
HETATM    6  C   UNL     1     -10.730   8.973  68.433  1.00  0.00    -0.145 C  
HETATM    7  C   UNL     1     -10.496  14.198  66.596  1.00  0.00    -0.278 C  
HETATM    8  C   UNL     1      -8.824  13.301  66.749  1.00  0.00    -0.140 C  
HETATM    9  C   UNL     1     -10.691  15.513  65.884  1.00  0.00    -0.346 C  
HETATM   10  C   UNL     1     -10.180  10.022  69.421  1.00  0.00    -0.239 C  
HETATM   11  C   UNL     1      -8.701   9.625  69.791  1.00  0.00    -0.221 C  
HETATM   12  C   UNL     1      -9.034  11.725  67.549  1.00  0.00    -0.168 C  
HETATM   13  C   UNL     1     -10.162  11.463  68.777  1.00  0.00    -0.209 C  
HETATM   14  C   UNL     1     -11.693  12.034  68.530  1.00  0.00    -0.387 C  
HETATM   15  C   UNL     1     -12.524  11.827  69.759  1.00  0.00    -0.051 C  
HETATM   16  C   UNL     1     -12.254  10.949  70.741  1.00  0.00    -0.483 C  
HETATM   17  C   UNL     1     -11.114  10.013  70.676  1.00  0.00    -0.408 C  
HETATM   18  C   UNL     1     -13.159  10.931  71.954  1.00  0.00    -0.537 C  
HETATM   19  C   UNL     1     -10.911   9.119  71.665  1.00  0.00    -0.445 C  
HETATM   20  C   UNL     1      -9.724   8.251  71.602  1.00  0.00    -0.197 C  
HETATM   21  O   UNL     1      -9.763   7.098  72.013  1.00  0.00    -0.158 OA 
HETATM   22  C   UNL     1      -8.478   8.924  71.126  1.00  0.00    -0.250 C  
ENDROOT
BRANCH   4  23
HETATM   23  C   UNL     1     -10.325  12.542  64.978  1.00  0.00    -0.299 C  
HETATM   24  O   UNL     1     -10.049  13.368  64.100  1.00  0.00    -0.338 OA 
HETATM   25  C   UNL     1     -10.220  11.081  64.596  1.00  0.00    -0.392 C  
ENDBRANCH   4  23
TORSDOF 1
ENDMDL
MODEL        2
REMARK 921   NORMALIZED FREE ENERGY PREDICTED BY IDOCK:   -6.86 KCAL/MOL
REMARK 922        TOTAL FREE ENERGY PREDICTED BY IDOCK:   -6.49 KCAL/MOL
REMARK 923 INTER-LIGAND FREE ENERGY PREDICTED BY IDOCK:   -7.21 KCAL/MOL
REMARK 924 INTRA-LIGAND FREE ENERGY PREDICTED BY IDOCK:    0.72 KCAL/MOL
REMARK 927      BINDING AFFINITY PREDICTED BY RF-SCORE:    0.00 PKD
ROOT
HETATM    1  C   UNL     1      -9.637  18.567  66.081  1.00  0.00    -0.203 C  
HETATM    2  C   UNL     1     -10.989  19.004  66.021  1.00  0.00    -0.084 C  
HETATM    3  C   UNL     1     -10.433  18.845  67.391  1.00  0.00    -0.520 C  
HETATM    4  C   UNL     1      -8.415  18.435  67.529  1.00  0.00    -0.260 C  
HETATM    5  C   UNL     1      -7.283  18.532  66.311  1.00  0.00    -0.288 C  
HETATM    6  C   UNL     1      -9.080  14.107  68.129  1.00  0.00    -0.193 C  
HETATM    7  C   UNL     1      -9.084  19.626  67.606  1.00  0.00    -0.403 C  
HETATM    8  C   UNL     1      -9.579  18.959  69.319  1.00  0.00    -0.120 C  
HETATM    9  C   UNL     1      -8.770  21.072  67.318  1.00  0.00    -0.017 C  
HETATM   10  C   UNL     1     -10.463  14.789  68.070  1.00  0.00    -0.246 C  
HETATM   11  C   UNL     1     -11.224  14.479  69.415  1.00  0.00    -0.312 C  
HETATM   12  C   UNL     1      -9.743  17.187  69.273  1.00  0.00    -0.057 C  
HETATM   13  C   UNL     1     -10.326  16.355  67.926  1.00  0.00    -0.286 C  
HETATM   14  C   UNL     1      -9.704  16.773  66.453  1.00  0.00    -0.309 C  
HETATM   15  C   UNL     1     -10.415  16.029  65.363  1.00  0.00    -0.415 C  
HETATM   16  C   UNL     1     -11.122  14.897  65.530  1.00  0.00    -0.353 C  
HETATM   17  C   UNL     1     -11.216  14.204  66.830  1.00  0.00    -0.330 C  
HETATM   18  C   UNL     1     -11.847  14.325  64.331  1.00  0.00    -0.444 C  
HETATM   19  C   UNL     1     -11.900  13.047  66.935  1.00  0.00    -0.442 C  
HETATM   20  C   UNL     1     -12.033  12.422  68.261  1.00  0.00    -0.214 C  
HETATM   21  O   UNL     1     -12.042  11.204  68.386  1.00  0.00    -0.605 OA 
HETATM   22  C   UNL     1     -12.277  13.377  69.385  1.00  0.00    -0.246 C  
ENDROOT
BRANCH   4  23
HETATM   23  C   UNL     1      -7.238  18.707  68.672  1.00  0.00    -0.291 C  
HETATM   24  O   UNL     1      -6.928  19.821  69.111  1.00  0.00    -0.341 OA 
HETATM   25  C   UNL     1      -6.363  17.543  69.089  1.00  0.00    -0.235 C  
ENDBRANCH   4  23
TORSDOF 1
ENDMDL
MODEL        3
REMARK 921   NORMALIZED FREE ENERGY PREDICTED BY IDOCK:   -6.75 KCAL/MOL
REMARK 922        TOTAL FREE ENERGY PREDICTED BY IDOCK:   -6.39 KCAL/MOL
REMARK 923 INTER-LIGAND FREE ENERGY PREDICTED BY IDOCK:   -7.12 KCAL/MOL
REMARK 924 INTRA-LIGAND FREE ENERGY PREDICTED BY IDOCK:    0.73 KCAL/MOL
REMARK 927      BINDING AFFINITY PREDICTED BY RF-SCORE:    0.00 PKD
ROOT
HETATM    1  C   UNL     1     -11.868  14.055  68.431  1.00  0.00    -0.397 C  
HETATM    2  C   UNL     1     -11.347  14.653  69.612  1.00  0.00    -0.317 C  
HETATM    3  C   UNL     1     -10.329  14.193  68.630  1.00  0.00    -0.243 C  
HETATM    4  C   UNL     1     -11.033  13.530  66.807  1.00  0.00    -0.297 C  
HETATM    5  C   UNL     1     -12.575  13.704  66.200  1.00  0.00    -0.391 C  
HETATM    6  C   UNL     1     -10.729   9.273  67.955  1.00  0.00    -0.248 C  
HETATM    7  C   UNL     1     -10.564  14.760  67.181  1.00  0.00    -0.285 C  
HETATM    8  C   UNL     1      -8.884  13.867  67.125  1.00  0.00    -0.236 C  
HETATM    9  C   UNL     1     -10.782  16.187  66.747  1.00  0.00    -0.235 C  
HETATM   10  C   UNL     1     -10.167  10.112  69.121  1.00  0.00    -0.229 C  
HETATM   11  C   UNL     1      -8.679   9.665  69.379  1.00  0.00    -0.173 C  
HETATM   12  C   UNL     1      -9.068  12.163  67.602  1.00  0.00    -0.181 C  
HETATM   13  C   UNL     1     -10.171  11.652  68.774  1.00  0.00    -0.190 C  
HETATM   14  C   UNL     1     -11.710  12.245  68.670  1.00  0.00    -0.377 C  
HETATM   15  C   UNL     1     -12.517  11.791  69.849  1.00  0.00    -0.086 C  
HETATM   16  C   UNL     1     -12.222  10.739  70.633  1.00  0.00    -0.474 C  
HETATM   17  C   UNL     1     -11.077   9.846  70.365  1.00  0.00    -0.382 C  
HETATM   18  C   UNL     1     -13.103  10.473  71.834  1.00  0.00    -0.567 C  
HETATM   19  C   UNL     1     -10.850   8.777  71.154  1.00  0.00    -0.335 C  
HETATM   20  C   UNL     1      -9.659   7.950  70.901  1.00  0.00    -0.161 C  
HETATM   21  O   UNL     1      -9.682   6.738  71.077  1.00  0.00    -0.174 OA 
HETATM   22  C   UNL     1      -8.426   8.717  70.545  1.00  0.00    -0.181 C  
ENDROOT
BRANCH   4  23
HETATM   23  C   UNL     1     -10.413  13.458  65.266  1.00  0.00    -0.324 C  
HETATM   24  O   UNL     1     -10.075  14.442  64.597  1.00  0.00    -0.293 OA 
HETATM   25  C   UNL     1     -10.413  12.120  64.556  1.00  0.00    -0.339 C  
ENDBRANCH   4  23
TORSDOF 1
ENDMDL
MODEL        4
REMARK 921   NORMALIZED FREE ENERGY PREDICTED BY IDOCK:   -6.64 KCAL/MOL
REMARK 922        TOTAL FREE ENERGY PREDICTED BY IDOCK:   -6.27 KCAL/MOL
REMARK 923 INTER-LIGAND FREE ENERGY PREDICTED BY IDOCK:   -6.98 KCAL/MOL
REMARK 924 INTRA-LIGAND FREE ENERGY PREDICTED BY IDOCK:    0.72 KCAL/MOL
REMARK 927      BINDING AFFINITY PREDICTED BY RF-SCORE:    0.00 PKD
ROOT
HETATM    1  C   UNL     1      -9.527  18.068  65.967  1.00  0.00    -0.057 C  
HETATM    2  C   UNL     1     -10.891  18.417  65.762  1.00  0.00    -0.025 C  
HETATM    3  C   UNL     1     -10.444  18.402  67.181  1.00  0.00    -0.434 C  
HETATM    4  C   UNL     1      -8.427  18.126  67.514  1.00  0.00    -0.248 C  
HETATM    5  C   UNL     1      -7.202  18.193  66.386  1.00  0.00    -0.282 C  
HETATM    6  C   UNL     1      -8.909  13.828  68.424  1.00  0.00    -0.165 C  
HETATM    7  C   UNL     1      -9.162  19.277  67.436  1.00  0.00    -0.356 C  
HETATM    8  C   UNL     1      -9.764  18.721  69.155  1.00  0.00    -0.243 C  
HETATM    9  C   UNL     1      -8.902  20.712  67.052  1.00  0.00    -0.291 C  
HETATM   10  C   UNL     1     -10.316  14.419  68.198  1.00  0.00    -0.231 C  
HETATM   11  C   UNL     1     -11.171  14.173  69.498  1.00  0.00    -0.267 C  
HETATM   12  C   UNL     1      -9.829  16.945  69.246  1.00  0.00    -0.152 C  
HETATM   13  C   UNL     1     -10.251  15.973  67.932  1.00  0.00    -0.258 C  
HETATM   14  C   UNL     1      -9.530  16.309  66.484  1.00  0.00    -0.289 C  
HETATM   15  C   UNL     1     -10.106  15.439  65.408  1.00  0.00    -0.394 C  
HETATM   16  C   UNL     1     -10.763  14.284  65.613  1.00  0.00    -0.321 C  
HETATM   17  C   UNL     1     -10.930  13.693  66.955  1.00  0.00    -0.298 C  
HETATM   18  C   UNL     1     -11.353  13.574  64.412  1.00  0.00    -0.407 C  
HETATM   19  C   UNL     1     -11.557  12.509  67.103  1.00  0.00    -0.437 C  
HETATM   20  C   UNL     1     -11.769  11.985  68.463  1.00  0.00    -0.332 C  
HETATM   21  O   UNL     1     -11.723  10.783  68.690  1.00  0.00    -0.334 OA 
HETATM   22  C   UNL     1     -12.157  13.011  69.478  1.00  0.00    -0.289 C  
ENDROOT
BRANCH   4  23
HETATM   23  C   UNL     1      -7.367  18.559  68.720  1.00  0.00    -0.290 C  
HETATM   24  O   UNL     1      -7.170  19.719  69.101  1.00  0.00    -0.342 OA 
HETATM   25  C   UNL     1      -6.450  17.493  69.283  1.00  0.00    -0.243 C  
ENDBRANCH   4  23
TORSDOF 1
ENDMDL
MODEL        5
REMARK 921   NORMALIZED FREE ENERGY PREDICTED BY IDOCK:   -6.62 KCAL/MOL
REMARK 922        TOTAL FREE ENERGY PREDICTED BY IDOCK:   -6.24 KCAL/MOL
REMARK 923 INTER-LIGAND FREE ENERGY PREDICTED BY IDOCK:   -7.16 KCAL/MOL
REMARK 924 INTRA-LIGAND FREE ENERGY PREDICTED BY IDOCK:    0.91 KCAL/MOL
REMARK 927      BINDING AFFINITY PREDICTED BY RF-SCORE:    0.00 PKD
ROOT
HETATM    1  C   UNL     1     -11.615  13.386  67.641  1.00  0.00    -0.377 C  
HETATM    2  C   UNL     1     -11.127  14.274  68.639  1.00  0.00    -0.273 C  
HETATM    3  C   UNL     1     -10.082  13.540  67.876  1.00  0.00    -0.248 C  
HETATM    4  C   UNL     1     -10.727  12.418  66.268  1.00  0.00    -0.287 C  
HETATM    5  C   UNL     1     -12.233  12.452  65.557  1.00  0.00    -0.356 C  
HETATM    6  C   UNL     1     -10.625   8.634  68.549  1.00  0.00    -0.162 C  
HETATM    7  C   UNL     1     -10.233  13.693  66.317  1.00  0.00    -0.296 C  
HETATM    8  C   UNL     1      -8.584  12.783  66.595  1.00  0.00    -0.015 C  
HETATM    9  C   UNL     1     -10.380  14.950  65.498  1.00  0.00    -0.388 C  
HETATM   10  C   UNL     1     -10.087   9.749  69.469  1.00  0.00    -0.233 C  
HETATM   11  C   UNL     1      -8.628   9.358  69.918  1.00  0.00    -0.201 C  
HETATM   12  C   UNL     1      -8.849  11.280  67.509  1.00  0.00    -0.140 C  
HETATM   13  C   UNL     1     -10.021  11.134  68.716  1.00  0.00    -0.207 C  
HETATM   14  C   UNL     1     -11.531  11.709  68.373  1.00  0.00    -0.360 C  
HETATM   15  C   UNL     1     -12.406  11.613  69.587  1.00  0.00    -0.172 C  
HETATM   16  C   UNL     1     -12.183  10.810  70.643  1.00  0.00    -0.474 C  
HETATM   17  C   UNL     1     -11.060   9.854  70.689  1.00  0.00    -0.409 C  
HETATM   18  C   UNL     1     -13.127  10.904  71.823  1.00  0.00    -0.564 C  
HETATM   19  C   UNL     1     -10.906   9.038  71.751  1.00  0.00    -0.437 C  
HETATM   20  C   UNL     1      -9.735   8.147  71.796  1.00  0.00    -0.191 C  
HETATM   21  O   UNL     1      -9.809   7.032  72.295  1.00  0.00    -0.155 OA 
HETATM   22  C   UNL     1      -8.461   8.761  71.310  1.00  0.00    -0.238 C  
ENDROOT
BRANCH   4  23
HETATM   23  C   UNL     1     -10.041  11.912  64.840  1.00  0.00    -0.263 C  
HETATM   24  O   UNL     1      -9.915  12.618  63.832  1.00  0.00    -0.317 OA 
HETATM   25  C   UNL     1      -9.698  10.445  64.691  1.00  0.00    -0.392 C  
ENDBRANCH   4  23
TORSDOF 1
ENDMDL
MODEL        6
REMARK 921   NORMALIZED FREE ENERGY PREDICTED BY IDOCK:   -6.51 KCAL/MOL
REMARK 922        TOTAL FREE ENERGY PREDICTED BY IDOCK:   -6.13 KCAL/MOL
REMARK 923 INTER-LIGAND FREE ENERGY PREDICTED BY IDOCK:   -6.89 KCAL/MOL
REMARK 924 INTRA-LIGAND FREE ENERGY PREDICTED BY IDOCK:    0.76 KCAL/MOL
REMARK 927      BINDING AFFINITY PREDICTED BY RF-SCORE:    0.00 PKD
ROOT
HETATM    1  C   UNL     1     -11.979   8.060  72.264  1.00  0.00    -0.412 C  
HETATM    2  C   UNL     1     -13.312   7.927  71.785  1.00  0.00    -0.364 C  
HETATM    3  C   UNL     1     -12.270   7.266  70.956  1.00  0.00    -0.350 C  
HETATM    4  C   UNL     1     -10.355   7.234  71.725  1.00  0.00    -0.215 C  
HETATM    5  C   UNL     1      -9.889   7.614  73.279  1.00  0.00    -0.360 C  
HETATM    6  C   UNL     1      -9.040  10.663  69.267  1.00  0.00    -0.117 C  
HETATM    7  C   UNL     1     -11.347   6.293  71.780  1.00  0.00    -0.346 C  
HETATM    8  C   UNL     1     -10.873   6.039  69.953  1.00  0.00    -0.434 C  
HETATM    9  C   UNL     1     -11.742   5.179  72.715  1.00  0.00    -0.181 C  
HETATM   10  C   UNL     1     -10.492  10.329  68.865  1.00  0.00    -0.231 C  
HETATM   11  C   UNL     1     -10.516  10.006  67.323  1.00  0.00    -0.313 C  
HETATM   12  C   UNL     1     -10.351   7.578  69.227  1.00  0.00    -0.209 C  
HETATM   13  C   UNL     1     -11.029   9.067  69.646  1.00  0.00    -0.147 C  
HETATM   14  C   UNL     1     -11.212   9.385  71.257  1.00  0.00    -0.437 C  
HETATM   15  C   UNL     1     -11.935  10.684  71.446  1.00  0.00    -0.261 C  
HETATM   16  C   UNL     1     -12.038  11.657  70.523  1.00  0.00    -0.458 C  
HETATM   17  C   UNL     1     -11.368  11.579  69.210  1.00  0.00    -0.353 C  
HETATM   18  C   UNL     1     -12.879  12.871  70.854  1.00  0.00    -0.203 C  
HETATM   19  C   UNL     1     -11.464  12.600  68.336  1.00  0.00    -0.350 C  
HETATM   20  C   UNL     1     -10.844  12.458  67.008  1.00  0.00    -0.246 C  
HETATM   21  O   UNL     1     -10.339  13.419  66.441  1.00  0.00    -0.277 OA 
HETATM   22  C   UNL     1     -10.996  11.108  66.385  1.00  0.00    -0.248 C  
ENDROOT
BRANCH   4  23
HETATM   23  C   UNL     1      -9.038   6.234  71.553  1.00  0.00    -0.145 C  
HETATM   24  O   UNL     1      -8.990   5.060  71.941  1.00  0.00    -0.131 OA 
HETATM   25  C   UNL     1      -7.745   6.835  71.042  1.00  0.00    -0.097 C  
ENDBRANCH   4  23
TORSDOF 1
ENDMDL
MODEL        7
REMARK 921   NORMALIZED FREE ENERGY PREDICTED BY IDOCK:   -6.33 KCAL/MOL
REMARK 922        TOTAL FREE ENERGY PREDICTED BY IDOCK:   -5.94 KCAL/MOL
REMARK 923 INTER-LIGAND FREE ENERGY PREDICTED BY IDOCK:   -6.67 KCAL/MOL
REMARK 924 INTRA-LIGAND FREE ENERGY PREDICTED BY IDOCK:    0.74 KCAL/MOL
REMARK 927      BINDING AFFINITY PREDICTED BY RF-SCORE:    0.00 PKD
ROOT
HETATM    1  C   UNL     1      -8.932  16.454  69.198  1.00  0.00    -0.197 C  
HETATM    2  C   UNL     1      -7.981  15.415  69.392  1.00  0.00    -0.234 C  
HETATM    3  C   UNL     1      -7.894  16.121  68.086  1.00  0.00    -0.147 C  
HETATM    4  C   UNL     1      -9.097  17.781  67.849  1.00  0.00    -0.259 C  
HETATM    5  C   UNL     1      -9.947  18.585  69.035  1.00  0.00    -0.323 C  
HETATM    6  C   UNL     1     -12.153  15.550  65.565  1.00  0.00     0.602 C  
HETATM    7  C   UNL     1      -7.788  17.684  68.233  1.00  0.00    -0.256 C  
HETATM    8  C   UNL     1      -7.525  17.316  66.384  1.00  0.00    -0.336 C  
HETATM    9  C   UNL     1      -6.838  18.494  69.079  1.00  0.00    -0.292 C  
HETATM   10  C   UNL     1     -10.987  14.582  65.853  1.00  0.00    -0.320 C  
HETATM   11  C   UNL     1     -10.436  14.048  64.477  1.00  0.00    -0.285 C  
HETATM   12  C   UNL     1      -8.926  16.441  65.719  1.00  0.00    -0.035 C  
HETATM   13  C   UNL     1      -9.809  15.312  66.611  1.00  0.00    -0.263 C  
HETATM   14  C   UNL     1     -10.251  15.741  68.144  1.00  0.00    -0.230 C  
HETATM   15  C   UNL     1     -10.915  14.586  68.831  1.00  0.00    -0.268 C  
HETATM   16  C   UNL     1     -11.470  13.529  68.211  1.00  0.00    -0.345 C  
HETATM   17  C   UNL     1     -11.552  13.425  66.741  1.00  0.00    -0.404 C  
HETATM   18  C   UNL     1     -12.024  12.409  69.065  1.00  0.00    -0.291 C  
HETATM   19  C   UNL     1     -12.159  12.366  66.167  1.00  0.00    -0.295 C  
HETATM   20  C   UNL     1     -12.159  12.260  64.699  1.00  0.00    -0.374 C  
HETATM   21  O   UNL     1     -13.115  11.782  64.101  1.00  0.00    -0.484 OA 
HETATM   22  C   UNL     1     -10.877  12.656  64.040  1.00  0.00    -0.452 C  
ENDROOT
BRANCH   4  23
HETATM   23  C   UNL     1      -9.014  19.170  66.938  1.00  0.00    -0.305 C  
HETATM   24  O   UNL     1      -8.023  19.907  66.869  1.00  0.00    -0.282 OA 
HETATM   25  C   UNL     1     -10.282  19.670  66.279  1.00  0.00    -0.598 C  
ENDBRANCH   4  23
TORSDOF 1
ENDMDL
MODEL        8
REMARK 921   NORMALIZED FREE ENERGY PREDICTED BY IDOCK:   -6.23 KCAL/MOL
REMARK 922        TOTAL FREE ENERGY PREDICTED BY IDOCK:   -5.83 KCAL/MOL
REMARK 923 INTER-LIGAND FREE ENERGY PREDICTED BY IDOCK:   -6.55 KCAL/MOL
REMARK 924 INTRA-LIGAND FREE ENERGY PREDICTED BY IDOCK:    0.72 KCAL/MOL
REMARK 927      BINDING AFFINITY PREDICTED BY RF-SCORE:    0.00 PKD
ROOT
HETATM    1  C   UNL     1     -10.804   7.012  71.073  1.00  0.00    -0.264 C  
HETATM    2  C   UNL     1     -12.158   6.728  70.745  1.00  0.00    -0.402 C  
HETATM    3  C   UNL     1     -11.193   6.611  69.619  1.00  0.00    -0.397 C  
HETATM    4  C   UNL     1      -9.192   6.788  70.092  1.00  0.00    -0.155 C  
HETATM    5  C   UNL     1      -8.512   6.772  71.613  1.00  0.00    -0.115 C  
HETATM    6  C   UNL     1      -9.004  11.011  68.801  1.00  0.00    -0.153 C  
HETATM    7  C   UNL     1      -9.972   5.673  69.945  1.00  0.00    -0.268 C  
HETATM    8  C   UNL     1      -9.818   6.107  68.097  1.00  0.00    -0.142 C  
HETATM    9  C   UNL     1      -9.976   4.267  70.488  1.00  0.00    -0.219 C  
HETATM   10  C   UNL     1     -10.423  10.490  68.490  1.00  0.00    -0.210 C  
HETATM   11  C   UNL     1     -10.683  10.658  66.946  1.00  0.00    -0.297 C  
HETATM   12  C   UNL     1      -9.728   7.871  67.878  1.00  0.00    -0.184 C  
HETATM   13  C   UNL     1     -10.566   8.961  68.856  1.00  0.00    -0.188 C  
HETATM   14  C   UNL     1     -10.491   8.721  70.489  1.00  0.00    -0.246 C  
HETATM   15  C   UNL     1     -11.384   9.696  71.195  1.00  0.00    -0.456 C  
HETATM   16  C   UNL     1     -11.834  10.853  70.676  1.00  0.00    -0.453 C  
HETATM   17  C   UNL     1     -11.424  11.337  69.343  1.00  0.00    -0.370 C  
HETATM   18  C   UNL     1     -12.798  11.678  71.500  1.00  0.00    -0.469 C  
HETATM   19  C   UNL     1     -11.867  12.525  68.886  1.00  0.00    -0.346 C  
HETATM   20  C   UNL     1     -11.496  12.943  67.524  1.00  0.00    -0.335 C  
HETATM   21  O   UNL     1     -11.289  14.120  67.259  1.00  0.00    -0.303 OA 
HETATM   22  C   UNL     1     -11.522  11.851  66.503  1.00  0.00    -0.381 C  
ENDROOT
BRANCH   4  23
HETATM   23  C   UNL     1      -7.775   6.221  69.431  1.00  0.00    -0.100 C  
HETATM   24  O   UNL     1      -7.523   5.028  69.226  1.00  0.00    -0.056 OA 
HETATM   25  C   UNL     1      -6.643   7.203  69.217  1.00  0.00    -0.044 C  
ENDBRANCH   4  23
TORSDOF 1
ENDMDL
MODEL        9
REMARK 921   NORMALIZED FREE ENERGY PREDICTED BY IDOCK:   -6.15 KCAL/MOL
REMARK 922        TOTAL FREE ENERGY PREDICTED BY IDOCK:   -5.75 KCAL/MOL
REMARK 923 INTER-LIGAND FREE ENERGY PREDICTED BY IDOCK:   -6.47 KCAL/MOL
REMARK 924 INTRA-LIGAND FREE ENERGY PREDICTED BY IDOCK:    0.72 KCAL/MOL
REMARK 927      BINDING AFFINITY PREDICTED BY RF-SCORE:    0.00 PKD
ROOT
HETATM    1  C   UNL     1     -10.207   9.985  70.066  1.00  0.00    -0.306 C  
HETATM    2  C   UNL     1     -11.564   9.657  70.337  1.00  0.00    -0.299 C  
HETATM    3  C   UNL     1     -10.995   9.044  69.107  1.00  0.00    -0.025 C  
HETATM    4  C   UNL     1      -8.972   9.304  68.793  1.00  0.00    -0.132 C  
HETATM    5  C   UNL     1      -7.850   9.878  69.883  1.00  0.00    -0.182 C  
HETATM    6  C   UNL     1      -9.586  12.617  65.933  1.00  0.00    -0.158 C  
HETATM    7  C   UNL     1      -9.653   8.265  69.366  1.00  0.00    -0.171 C  
HETATM    8  C   UNL     1     -10.128   7.898  67.559  1.00  0.00    -0.276 C  
HETATM    9  C   UNL     1      -9.357   7.205  70.397  1.00  0.00    -0.159 C  
HETATM   10  C   UNL     1     -10.976  12.083  66.335  1.00  0.00    -0.337 C  
HETATM   11  C   UNL     1     -11.723  11.618  65.029  1.00  0.00    -0.072 C  
HETATM   12  C   UNL     1     -10.273   9.412  66.635  1.00  0.00    -0.319 C  
HETATM   13  C   UNL     1     -10.857  10.846  67.308  1.00  0.00    -0.342 C  
HETATM   14  C   UNL     1     -10.251  11.290  68.780  1.00  0.00    -0.215 C  
HETATM   15  C   UNL     1     -10.962  12.510  69.282  1.00  0.00    -0.138 C  
HETATM   16  C   UNL     1     -11.656  13.374  68.520  1.00  0.00    -0.368 C  
HETATM   17  C   UNL     1     -11.732  13.251  67.051  1.00  0.00    -0.439 C  
HETATM   18  C   UNL     1     -12.384  14.509  69.207  1.00  0.00    -0.185 C  
HETATM   19  C   UNL     1     -12.402  14.169  66.326  1.00  0.00    -0.451 C  
HETATM   20  C   UNL     1     -12.519  13.975  64.871  1.00  0.00    -0.396 C  
HETATM   21  O   UNL     1     -12.513  14.931  64.105  1.00  0.00    -0.763 OA 
HETATM   22  C   UNL     1     -12.764  12.564  64.443  1.00  0.00    -0.447 C  
ENDROOT
BRANCH   4  23
HETATM   23  C   UNL     1      -7.789   8.450  67.995  1.00  0.00    -0.111 C  
HETATM   24  O   UNL     1      -7.524   7.259  68.197  1.00  0.00    -0.097 OA 
HETATM   25  C   UNL     1      -6.854   9.209  67.078  1.00  0.00    -0.080 C  
ENDBRANCH   4  23
TORSDOF 1
ENDMDL
MODEL       10
REMARK 921   NORMALIZED FREE ENERGY PREDICTED BY IDOCK:   -6.10 KCAL/MOL
REMARK 922        TOTAL FREE ENERGY PREDICTED BY IDOCK:   -5.69 KCAL/MOL
REMARK 923 INTER-LIGAND FREE ENERGY PREDICTED BY IDOCK:   -6.42 KCAL/MOL
REMARK 924 INTRA-LIGAND FREE ENERGY PREDICTED BY IDOCK:    0.72 KCAL/MOL
REMARK 927      BINDING AFFINITY PREDICTED BY RF-SCORE:    0.00 PKD
ROOT
HETATM    1  C   UNL     1      -9.658   9.499  65.420  1.00  0.00    -0.342 C  
HETATM    2  C   UNL     1      -8.860   9.711  64.262  1.00  0.00    -0.260 C  
HETATM    3  C   UNL     1      -8.206  10.047  65.555  1.00  0.00    -0.146 C  
HETATM    4  C   UNL     1      -9.234   9.543  67.272  1.00  0.00    -0.154 C  
HETATM    5  C   UNL     1     -10.576   8.563  67.390  1.00  0.00    -0.304 C  
HETATM    6  C   UNL     1     -10.762  13.648  67.862  1.00  0.00    -0.257 C  
HETATM    7  C   UNL     1      -8.253   8.869  66.598  1.00  0.00    -0.111 C  
HETATM    8  C   UNL     1      -7.140  10.206  67.372  1.00  0.00    -0.084 C  
HETATM    9  C   UNL     1      -7.847   7.429  66.418  1.00  0.00    -0.102 C  
HETATM   10  C   UNL     1      -9.822  13.671  66.639  1.00  0.00    -0.284 C  
HETATM   11  C   UNL     1      -8.668  14.706  66.921  1.00  0.00    -0.251 C  
HETATM   12  C   UNL     1      -8.025  11.743  67.519  1.00  0.00    -0.148 C  
HETATM   13  C   UNL     1      -9.170  12.255  66.389  1.00  0.00    -0.203 C  
HETATM   14  C   UNL     1     -10.296  11.148  65.902  1.00  0.00    -0.314 C  
HETATM   15  C   UNL     1     -11.150  11.727  64.815  1.00  0.00    -0.356 C  
HETATM   16  C   UNL     1     -11.301  13.039  64.562  1.00  0.00    -0.377 C  
HETATM   17  C   UNL     1     -10.682  14.085  65.400  1.00  0.00    -0.344 C  
HETATM   18  C   UNL     1     -12.138  13.445  63.368  1.00  0.00    -0.437 C  
HETATM   19  C   UNL     1     -10.901  15.388  65.132  1.00  0.00    -0.447 C  
HETATM   20  C   UNL     1     -10.210  16.404  65.944  1.00  0.00    -0.359 C  
HETATM   21  O   UNL     1     -10.753  17.466  66.221  1.00  0.00    -0.227 OA 
HETATM   22  C   UNL     1      -8.789  16.081  66.276  1.00  0.00    -0.379 C  
ENDROOT
BRANCH   4  23
HETATM   23  C   UNL     1      -8.799   9.171  68.833  1.00  0.00    -0.139 C  
HETATM   24  O   UNL     1      -7.992   8.287  69.147  1.00  0.00    -0.108 OA 
HETATM   25  C   UNL     1      -9.558   9.831  69.964  1.00  0.00    -0.282 C  
ENDBRANCH   4  23
TORSDOF 1
ENDMDL
MODEL       11
REMARK 921   NORMALIZED FREE ENERGY PREDICTED BY IDOCK:   -6.08 KCAL/MOL
REMARK 922        TOTAL FREE ENERGY PREDICTED BY IDOCK:   -5.68 KCAL/MOL
REMARK 923 INTER-LIGAND FREE ENERGY PREDICTED BY IDOCK:   -6.39 KCAL/MOL
REMARK 924 INTRA-LIGAND FREE ENERGY PREDICTED BY IDOCK:    0.72 KCAL/MOL
REMARK 927      BINDING AFFINITY PREDICTED BY RF-SCORE:    0.00 PKD
ROOT
HETATM    1  C   UNL     1     -11.528   7.382  72.163  1.00  0.00    -0.322 C  
HETATM    2  C   UNL     1     -12.846   7.114  71.701  1.00  0.00    -0.420 C  
HETATM    3  C   UNL     1     -11.753   6.679  70.791  1.00  0.00    -0.445 C  
HETATM    4  C   UNL     1      -9.827   6.836  71.516  1.00  0.00    -0.179 C  
HETATM    5  C   UNL     1      -9.365   7.131  73.089  1.00  0.00    -0.193 C  
HETATM    6  C   UNL     1      -9.061  10.622  69.370  1.00  0.00    -0.064 C  
HETATM    7  C   UNL     1     -10.683   5.768  71.500  1.00  0.00    -0.319 C  
HETATM    8  C   UNL     1     -10.238   5.750  69.649  1.00  0.00    -0.299 C  
HETATM    9  C   UNL     1     -10.895   4.530  72.333  1.00  0.00    -0.093 C  
HETATM   10  C   UNL     1     -10.467  10.134  68.967  1.00  0.00    -0.239 C  
HETATM   11  C   UNL     1     -10.499   9.953  67.402  1.00  0.00    -0.325 C  
HETATM   12  C   UNL     1      -9.950   7.405  69.062  1.00  0.00    -0.176 C  
HETATM   13  C   UNL     1     -10.805   8.744  69.635  1.00  0.00    -0.175 C  
HETATM   14  C   UNL     1     -10.977   8.885  71.272  1.00  0.00    -0.363 C  
HETATM   15  C   UNL     1     -11.860  10.051  71.599  1.00  0.00    -0.315 C  
HETATM   16  C   UNL     1     -12.121  11.082  70.774  1.00  0.00    -0.467 C  
HETATM   17  C   UNL     1     -11.490  11.216  69.447  1.00  0.00    -0.368 C  
HETATM   18  C   UNL     1     -13.105  12.135  71.237  1.00  0.00    -0.210 C  
HETATM   19  C   UNL     1     -11.750  12.291  68.676  1.00  0.00    -0.377 C  
HETATM   20  C   UNL     1     -11.160  12.356  67.329  1.00  0.00    -0.281 C  
HETATM   21  O   UNL     1     -10.806  13.425  66.846  1.00  0.00    -0.274 OA 
HETATM   22  C   UNL     1     -11.151  11.061  66.584  1.00  0.00    -0.201 C  
ENDROOT
BRANCH   4  23
HETATM   23  C   UNL     1      -8.394   6.044  71.223  1.00  0.00    -0.124 C  
HETATM   24  O   UNL     1      -8.228   4.824  71.343  1.00  0.00    -0.099 OA 
HETATM   25  C   UNL     1      -7.159   6.876  70.954  1.00  0.00    -0.068 C  
ENDBRANCH   4  23
TORSDOF 1
ENDMDL
MODEL       12
REMARK 921   NORMALIZED FREE ENERGY PREDICTED BY IDOCK:   -6.07 KCAL/MOL
REMARK 922        TOTAL FREE ENERGY PREDICTED BY IDOCK:   -5.66 KCAL/MOL
REMARK 923 INTER-LIGAND FREE ENERGY PREDICTED BY IDOCK:   -6.38 KCAL/MOL
REMARK 924 INTRA-LIGAND FREE ENERGY PREDICTED BY IDOCK:    0.72 KCAL/MOL
REMARK 927      BINDING AFFINITY PREDICTED BY RF-SCORE:    0.00 PKD
ROOT
HETATM    1  C   UNL     1     -10.405   6.838  69.846  1.00  0.00    -0.229 C  
HETATM    2  C   UNL     1     -11.765   6.520  69.582  1.00  0.00    -0.231 C  
HETATM    3  C   UNL     1     -10.905   6.684  68.379  1.00  0.00    -0.320 C  
HETATM    4  C   UNL     1      -8.882   6.920  68.712  1.00  0.00    -0.132 C  
HETATM    5  C   UNL     1      -8.063   6.674  70.142  1.00  0.00    -0.124 C  
HETATM    6  C   UNL     1      -9.060  11.310  68.237  1.00  0.00    -0.173 C  
HETATM    7  C   UNL     1      -9.607   5.797  68.420  1.00  0.00    -0.147 C  
HETATM    8  C   UNL     1      -9.653   6.573  66.682  1.00  0.00    -0.201 C  
HETATM    9  C   UNL     1      -9.478   4.318  68.684  1.00  0.00    -0.221 C  
HETATM   10  C   UNL     1     -10.469  10.752  67.950  1.00  0.00    -0.233 C  
HETATM   11  C   UNL     1     -10.884  11.181  66.492  1.00  0.00    -0.302 C  
HETATM   12  C   UNL     1      -9.685   8.349  66.796  1.00  0.00    -0.309 C  
HETATM   13  C   UNL     1     -10.490   9.175  68.029  1.00  0.00    -0.276 C  
HETATM   14  C   UNL     1     -10.248   8.644  69.575  1.00  0.00    -0.209 C  
HETATM   15  C   UNL     1     -11.125   9.403  70.523  1.00  0.00    -0.330 C  
HETATM   16  C   UNL     1     -11.687  10.599  70.273  1.00  0.00    -0.433 C  
HETATM   17  C   UNL     1     -11.434  11.350  69.027  1.00  0.00    -0.366 C  
HETATM   18  C   UNL     1     -12.616  11.185  71.315  1.00  0.00    -0.503 C  
HETATM   19  C   UNL     1     -11.985  12.566  68.842  1.00  0.00    -0.282 C  
HETATM   20  C   UNL     1     -11.769  13.254  67.559  1.00  0.00    -0.366 C  
HETATM   21  O   UNL     1     -11.656  14.472  67.507  1.00  0.00    -0.347 OA 
HETATM   22  C   UNL     1     -11.828  12.370  66.355  1.00  0.00    -0.421 C  
ENDROOT
BRANCH   4  23
HETATM   23  C   UNL     1      -7.504   6.591  67.842  1.00  0.00    -0.094 C  
HETATM   24  O   UNL     1      -7.209   5.481  67.385  1.00  0.00    -0.072 OA 
HETATM   25  C   UNL     1      -6.449   7.672  67.738  1.00  0.00    -0.055 C  
ENDBRANCH   4  23
TORSDOF 1
ENDMDL
MODEL       13
REMARK 921   NORMALIZED FREE ENERGY PREDICTED BY IDOCK:   -6.03 KCAL/MOL
REMARK 922        TOTAL FREE ENERGY PREDICTED BY IDOCK:   -5.61 KCAL/MOL
REMARK 923 INTER-LIGAND FREE ENERGY PREDICTED BY IDOCK:   -6.43 KCAL/MOL
REMARK 924 INTRA-LIGAND FREE ENERGY PREDICTED BY IDOCK:    0.82 KCAL/MOL
REMARK 927      BINDING AFFINITY PREDICTED BY RF-SCORE:    0.00 PKD
ROOT
HETATM    1  C   UNL     1      -7.036  17.657  67.480  1.00  0.00    -0.183 C  
HETATM    2  C   UNL     1      -6.558  17.099  66.263  1.00  0.00    -0.190 C  
HETATM    3  C   UNL     1      -7.911  17.713  66.193  1.00  0.00    -0.248 C  
HETATM    4  C   UNL     1      -8.552  18.736  67.867  1.00  0.00    -0.321 C  
HETATM    5  C   UNL     1      -7.633  19.190  69.181  1.00  0.00    -0.273 C  
HETATM    6  C   UNL     1     -11.006  15.352  69.302  1.00  0.00    -0.261 C  
HETATM    7  C   UNL     1      -7.948  19.193  66.727  1.00  0.00    -0.281 C  
HETATM    8  C   UNL     1      -9.667  18.867  65.977  1.00  0.00    -0.191 C  
HETATM    9  C   UNL     1      -7.066  20.357  66.354  1.00  0.00    -0.296 C  
HETATM   10  C   UNL     1     -10.409  14.950  67.937  1.00  0.00    -0.237 C  
HETATM   11  C   UNL     1     -11.596  14.613  66.958  1.00  0.00    -0.385 C  
HETATM   12  C   UNL     1     -10.436  17.470  66.768  1.00  0.00    -0.270 C  
HETATM   13  C   UNL     1      -9.567  16.129  67.309  1.00  0.00    -0.231 C  
HETATM   14  C   UNL     1      -8.194  16.422  68.181  1.00  0.00    -0.170 C  
HETATM   15  C   UNL     1      -7.485  15.134  68.474  1.00  0.00    -0.121 C  
HETATM   16  C   UNL     1      -8.049  13.913  68.442  1.00  0.00    -0.145 C  
HETATM   17  C   UNL     1      -9.487  13.710  68.180  1.00  0.00    -0.217 C  
HETATM   18  C   UNL     1      -7.162  12.710  68.683  1.00  0.00    -0.108 C  
HETATM   19  C   UNL     1     -10.014  12.469  68.204  1.00  0.00    -0.224 C  
HETATM   20  C   UNL     1     -11.437  12.297  67.867  1.00  0.00    -0.330 C  
HETATM   21  O   UNL     1     -12.118  11.445  68.424  1.00  0.00    -0.575 OA 
HETATM   22  C   UNL     1     -11.920  13.141  66.732  1.00  0.00    -0.434 C  
ENDROOT
BRANCH   4  23
HETATM   23  C   UNL     1      -9.605  19.993  68.143  1.00  0.00    -0.308 C  
HETATM   24  O   UNL     1      -9.713  20.990  67.420  1.00  0.00    -0.416 OA 
HETATM   25  C   UNL     1     -10.367  20.013  69.450  1.00  0.00    -0.014 C  
ENDBRANCH   4  23
TORSDOF 1
ENDMDL
MODEL       14
REMARK 921   NORMALIZED FREE ENERGY PREDICTED BY IDOCK:   -5.96 KCAL/MOL
REMARK 922        TOTAL FREE ENERGY PREDICTED BY IDOCK:   -5.54 KCAL/MOL
REMARK 923 INTER-LIGAND FREE ENERGY PREDICTED BY IDOCK:   -6.31 KCAL/MOL
REMARK 924 INTRA-LIGAND FREE ENERGY PREDICTED BY IDOCK:    0.77 KCAL/MOL
REMARK 927      BINDING AFFINITY PREDICTED BY RF-SCORE:    0.00 PKD
ROOT
HETATM    1  C   UNL     1      -8.967  12.741  67.301  1.00  0.00    -0.199 C  
HETATM    2  C   UNL     1      -8.780  12.545  68.697  1.00  0.00     0.047 C  
HETATM    3  C   UNL     1     -10.070  13.178  68.311  1.00  0.00    -0.247 C  
HETATM    4  C   UNL     1     -10.485  13.275  66.292  1.00  0.00    -0.289 C  
HETATM    5  C   UNL     1      -9.684  12.488  65.061  1.00  0.00    -0.014 C  
HETATM    6  C   UNL     1      -9.205  17.493  65.975  1.00  0.00    -0.071 C  
HETATM    7  C   UNL     1     -10.864  12.355  67.231  1.00  0.00    -0.279 C  
HETATM    8  C   UNL     1     -12.030  13.756  67.780  1.00  0.00    -0.391 C  
HETATM    9  C   UNL     1     -11.234  10.893  67.237  1.00  0.00    -0.307 C  
HETATM   10  C   UNL     1      -9.107  17.085  67.460  1.00  0.00    -0.223 C  
HETATM   11  C   UNL     1     -10.021  18.054  68.300  1.00  0.00    -0.374 C  
HETATM   12  C   UNL     1     -11.269  15.341  67.506  1.00  0.00    -0.317 C  
HETATM   13  C   UNL     1      -9.612  15.606  67.684  1.00  0.00    -0.220 C  
HETATM   14  C   UNL     1      -8.594  14.508  66.986  1.00  0.00    -0.241 C  
HETATM   15  C   UNL     1      -7.172  14.824  67.342  1.00  0.00    -0.202 C  
HETATM   16  C   UNL     1      -6.727  16.018  67.773  1.00  0.00    -0.175 C  
HETATM   17  C   UNL     1      -7.603  17.202  67.874  1.00  0.00    -0.180 C  
HETATM   18  C   UNL     1      -5.271  16.137  68.170  1.00  0.00    -0.110 C  
HETATM   19  C   UNL     1      -7.099  18.388  68.268  1.00  0.00    -0.269 C  
HETATM   20  C   UNL     1      -8.015  19.529  68.427  1.00  0.00    -0.339 C  
HETATM   21  O   UNL     1      -7.655  20.669  68.161  1.00  0.00    -0.105 OA 
HETATM   22  C   UNL     1      -9.335  19.194  69.043  1.00  0.00    -0.326 C  
ENDROOT
BRANCH   4  23
HETATM   23  C   UNL     1     -11.876  13.327  65.381  1.00  0.00    -0.359 C  
HETATM   24  O   UNL     1     -12.681  12.394  65.274  1.00  0.00    -0.617 OA 
HETATM   25  C   UNL     1     -12.100  14.526  64.485  1.00  0.00    -0.501 C  
ENDBRANCH   4  23
TORSDOF 1
ENDMDL
MODEL       15
REMARK 921   NORMALIZED FREE ENERGY PREDICTED BY IDOCK:   -5.89 KCAL/MOL
REMARK 922        TOTAL FREE ENERGY PREDICTED BY IDOCK:   -5.47 KCAL/MOL
REMARK 923 INTER-LIGAND FREE ENERGY PREDICTED BY IDOCK:   -6.20 KCAL/MOL
REMARK 924 INTRA-LIGAND FREE ENERGY PREDICTED BY IDOCK:    0.73 KCAL/MOL
REMARK 927      BINDING AFFINITY PREDICTED BY RF-SCORE:    0.00 PKD
ROOT
HETATM    1  C   UNL     1     -10.605  11.127  68.893  1.00  0.00    -0.239 C  
HETATM    2  C   UNL     1     -12.018  11.113  68.736  1.00  0.00    -0.337 C  
HETATM    3  C   UNL     1     -11.237  10.956  67.480  1.00  0.00    -0.364 C  
HETATM    4  C   UNL     1      -9.195  10.741  67.679  1.00  0.00    -0.152 C  
HETATM    5  C   UNL     1      -8.346  10.446  69.083  1.00  0.00    -0.160 C  
HETATM    6  C   UNL     1      -8.403  14.985  66.734  1.00  0.00    -0.189 C  
HETATM    7  C   UNL     1     -10.176   9.796  67.551  1.00  0.00    -0.271 C  
HETATM    8  C   UNL     1     -10.176  10.394  65.743  1.00  0.00    -0.305 C  
HETATM    9  C   UNL     1     -10.369   8.361  67.969  1.00  0.00    -0.270 C  
HETATM   10  C   UNL     1      -9.920  14.748  66.584  1.00  0.00    -0.272 C  
HETATM   11  C   UNL     1     -10.335  15.122  65.111  1.00  0.00    -0.416 C  
HETATM   12  C   UNL     1      -9.794  12.130  65.662  1.00  0.00    -0.256 C  
HETATM   13  C   UNL     1     -10.293  13.235  66.837  1.00  0.00    -0.255 C  
HETATM   14  C   UNL     1     -10.061  12.811  68.417  1.00  0.00    -0.226 C  
HETATM   15  C   UNL     1     -10.667  13.842  69.320  1.00  0.00    -0.117 C  
HETATM   16  C   UNL     1     -10.960  15.107  68.969  1.00  0.00    -0.245 C  
HETATM   17  C   UNL     1     -10.637  15.655  67.637  1.00  0.00    -0.294 C  
HETATM   18  C   UNL     1     -11.648  15.991  69.987  1.00  0.00    -0.316 C  
HETATM   19  C   UNL     1     -10.909  16.944  67.348  1.00  0.00    -0.166 C  
HETATM   20  C   UNL     1     -10.640  17.436  65.987  1.00  0.00    -0.210 C  
HETATM   21  O   UNL     1     -10.257  18.583  65.796  1.00  0.00    -0.568 OA 
HETATM   22  C   UNL     1     -10.991  16.480  64.893  1.00  0.00    -0.223 C  
ENDROOT
BRANCH   4  23
HETATM   23  C   UNL     1      -7.998  10.017  66.780  1.00  0.00    -0.114 C  
HETATM   24  O   UNL     1      -7.949   8.809  66.518  1.00  0.00    -0.101 OA 
HETATM   25  C   UNL     1      -6.793  10.848  66.392  1.00  0.00    -0.135 C  
ENDBRANCH   4  23
TORSDOF 1
ENDMDL
MODEL       16
REMARK 921   NORMALIZED FREE ENERGY PREDICTED BY IDOCK:   -5.89 KCAL/MOL
REMARK 922        TOTAL FREE ENERGY PREDICTED BY IDOCK:   -5.47 KCAL/MOL
REMARK 923 INTER-LIGAND FREE ENERGY PREDICTED BY IDOCK:   -6.19 KCAL/MOL
REMARK 924 INTRA-LIGAND FREE ENERGY PREDICTED BY IDOCK:    0.72 KCAL/MOL
REMARK 927      BINDING AFFINITY PREDICTED BY RF-SCORE:    0.00 PKD
ROOT
HETATM    1  C   UNL     1     -10.037  15.831  65.544  1.00  0.00    -0.383 C  
HETATM    2  C   UNL     1     -11.409  15.765  65.175  1.00  0.00    -0.155 C  
HETATM    3  C   UNL     1     -11.149  15.991  66.622  1.00  0.00     0.006 C  
HETATM    4  C   UNL     1      -9.188  16.322  67.171  1.00  0.00    -0.226 C  
HETATM    5  C   UNL     1      -7.900  16.639  66.161  1.00  0.00    -0.197 C  
HETATM    6  C   UNL     1      -8.595  12.151  68.505  1.00  0.00    -0.079 C  
HETATM    7  C   UNL     1     -10.192  17.210  66.897  1.00  0.00    -0.315 C  
HETATM    8  C   UNL     1     -10.824  16.648  68.603  1.00  0.00    -0.344 C  
HETATM    9  C   UNL     1     -10.286  18.623  66.381  1.00  0.00    -0.472 C  
HETATM   10  C   UNL     1     -10.072  12.301  68.084  1.00  0.00    -0.211 C  
HETATM   11  C   UNL     1     -10.978  11.932  69.318  1.00  0.00    -0.208 C  
HETATM   12  C   UNL     1     -10.416  14.939  68.885  1.00  0.00    -0.242 C  
HETATM   13  C   UNL     1     -10.398  13.785  67.653  1.00  0.00    -0.239 C  
HETATM   14  C   UNL     1      -9.626  14.191  66.250  1.00  0.00    -0.295 C  
HETATM   15  C   UNL     1      -9.810  13.109  65.229  1.00  0.00    -0.096 C  
HETATM   16  C   UNL     1     -10.150  11.836  65.499  1.00  0.00    -0.285 C  
HETATM   17  C   UNL     1     -10.311  11.334  66.878  1.00  0.00    -0.272 C  
HETATM   18  C   UNL     1     -10.377  10.895  64.336  1.00  0.00    -0.430 C  
HETATM   19  C   UNL     1     -10.608  10.037  67.098  1.00  0.00    -0.296 C  
HETATM   20  C   UNL     1     -10.832   9.587  68.482  1.00  0.00    -0.132 C  
HETATM   21  O   UNL     1     -10.491   8.468  68.844  1.00  0.00    -0.215 OA 
HETATM   22  C   UNL     1     -11.603  10.542  69.336  1.00  0.00    -0.318 C  
ENDROOT
BRANCH   4  23
HETATM   23  C   UNL     1      -8.438  17.132  68.415  1.00  0.00    -0.241 C  
HETATM   24  O   UNL     1      -8.607  18.329  68.677  1.00  0.00    -0.320 OA 
HETATM   25  C   UNL     1      -7.346  16.414  69.180  1.00  0.00    -0.225 C  
ENDBRANCH   4  23
TORSDOF 1
ENDMDL
MODEL       17
REMARK 921   NORMALIZED FREE ENERGY PREDICTED BY IDOCK:   -5.88 KCAL/MOL
REMARK 922        TOTAL FREE ENERGY PREDICTED BY IDOCK:   -5.46 KCAL/MOL
REMARK 923 INTER-LIGAND FREE ENERGY PREDICTED BY IDOCK:   -6.30 KCAL/MOL
REMARK 924 INTRA-LIGAND FREE ENERGY PREDICTED BY IDOCK:    0.84 KCAL/MOL
REMARK 927      BINDING AFFINITY PREDICTED BY RF-SCORE:    0.00 PKD
ROOT
HETATM    1  C   UNL     1      -6.950  17.855  67.161  1.00  0.00    -0.202 C  
HETATM    2  C   UNL     1      -6.462  17.481  65.878  1.00  0.00    -0.158 C  
HETATM    3  C   UNL     1      -7.820  18.088  65.890  1.00  0.00    -0.093 C  
HETATM    4  C   UNL     1      -8.477  18.854  67.690  1.00  0.00    -0.304 C  
HETATM    5  C   UNL     1      -7.568  19.123  69.061  1.00  0.00    -0.337 C  
HETATM    6  C   UNL     1     -10.907  15.280  68.612  1.00  0.00    -0.253 C  
HETATM    7  C   UNL     1      -7.872  19.475  66.631  1.00  0.00    -0.300 C  
HETATM    8  C   UNL     1      -9.585  19.246  65.832  1.00  0.00    -0.094 C  
HETATM    9  C   UNL     1      -6.999  20.688  66.433  1.00  0.00    -0.268 C  
HETATM   10  C   UNL     1     -10.302  15.083  67.207  1.00  0.00    -0.249 C  
HETATM   11  C   UNL     1     -11.482  14.880  66.184  1.00  0.00    -0.272 C  
HETATM   12  C   UNL     1     -10.346  17.745  66.411  1.00  0.00    -0.351 C  
HETATM   13  C   UNL     1      -9.467  16.346  66.759  1.00  0.00    -0.265 C  
HETATM   14  C   UNL     1      -8.100  16.522  67.671  1.00  0.00    -0.177 C  
HETATM   15  C   UNL     1      -7.382  15.211  67.780  1.00  0.00    -0.182 C  
HETATM   16  C   UNL     1      -7.935  14.003  67.571  1.00  0.00    -0.199 C  
HETATM   17  C   UNL     1      -9.370  13.828  67.275  1.00  0.00    -0.239 C  
HETATM   18  C   UNL     1      -7.039  12.785  67.642  1.00  0.00    -0.145 C  
HETATM   19  C   UNL     1      -9.886  12.593  67.118  1.00  0.00    -0.212 C  
HETATM   20  C   UNL     1     -11.306  12.459  66.753  1.00  0.00    -0.335 C  
HETATM   21  O   UNL     1     -11.983  11.531  67.178  1.00  0.00    -0.581 OA 
HETATM   22  C   UNL     1     -11.792  13.453  65.748  1.00  0.00    -0.412 C  
ENDROOT
BRANCH   4  23
HETATM   23  C   UNL     1      -9.542  20.050  68.137  1.00  0.00    -0.308 C  
HETATM   24  O   UNL     1      -9.684  21.124  67.541  1.00  0.00    -0.333 OA 
HETATM   25  C   UNL     1     -10.271  19.902  69.456  1.00  0.00    -0.032 C  
ENDBRANCH   4  23
TORSDOF 1
ENDMDL
MODEL       18
REMARK 921   NORMALIZED FREE ENERGY PREDICTED BY IDOCK:   -5.76 KCAL/MOL
REMARK 922        TOTAL FREE ENERGY PREDICTED BY IDOCK:   -5.33 KCAL/MOL
REMARK 923 INTER-LIGAND FREE ENERGY PREDICTED BY IDOCK:   -6.06 KCAL/MOL
REMARK 924 INTRA-LIGAND FREE ENERGY PREDICTED BY IDOCK:    0.73 KCAL/MOL
REMARK 927      BINDING AFFINITY PREDICTED BY RF-SCORE:    0.00 PKD
ROOT
HETATM    1  C   UNL     1      -8.783   8.280  67.080  1.00  0.00    -0.132 C  
HETATM    2  C   UNL     1      -7.469   8.548  66.608  1.00  0.00    -0.082 C  
HETATM    3  C   UNL     1      -7.849   9.248  67.864  1.00  0.00    -0.092 C  
HETATM    4  C   UNL     1      -9.655   8.718  68.710  1.00  0.00    -0.160 C  
HETATM    5  C   UNL     1     -10.608   7.411  68.310  1.00  0.00    -0.204 C  
HETATM    6  C   UNL     1     -11.758  12.222  67.026  1.00  0.00    -0.399 C  
HETATM    7  C   UNL     1      -8.389   8.276  68.977  1.00  0.00    -0.120 C  
HETATM    8  C   UNL     1      -8.230   9.982  69.808  1.00  0.00    -0.191 C  
HETATM    9  C   UNL     1      -7.767   7.011  69.512  1.00  0.00    -0.107 C  
HETATM   10  C   UNL     1     -10.267  12.344  66.646  1.00  0.00    -0.241 C  
HETATM   11  C   UNL     1      -9.721  13.705  67.221  1.00  0.00    -0.243 C  
HETATM   12  C   UNL     1      -9.207  11.189  68.939  1.00  0.00    -0.106 C  
HETATM   13  C   UNL     1      -9.418  11.166  67.265  1.00  0.00    -0.178 C  
HETATM   14  C   UNL     1      -9.803   9.716  66.574  1.00  0.00    -0.298 C  
HETATM   15  C   UNL     1      -9.832   9.848  65.081  1.00  0.00    -0.348 C  
HETATM   16  C   UNL     1      -9.967  11.005  64.407  1.00  0.00    -0.368 C  
HETATM   17  C   UNL     1     -10.181  12.298  65.085  1.00  0.00    -0.305 C  
HETATM   18  C   UNL     1      -9.891  10.964  62.895  1.00  0.00    -0.313 C  
HETATM   19  C   UNL     1     -10.357  13.423  64.363  1.00  0.00    -0.347 C  
HETATM   20  C   UNL     1     -10.496  14.705  65.072  1.00  0.00    -0.421 C  
HETATM   21  O   UNL     1     -11.231  15.586  64.645  1.00  0.00    -0.423 OA 
HETATM   22  C   UNL     1      -9.590  14.873  66.250  1.00  0.00    -0.334 C  
ENDROOT
BRANCH   4  23
HETATM   23  C   UNL     1     -10.275   8.724  70.253  1.00  0.00    -0.196 C  
HETATM   24  O   UNL     1      -9.821   8.066  71.196  1.00  0.00    -0.165 OA 
HETATM   25  C   UNL     1     -11.583   9.447  70.495  1.00  0.00    -0.291 C  
ENDBRANCH   4  23
TORSDOF 1
ENDMDL
MODEL       19
REMARK 921   NORMALIZED FREE ENERGY PREDICTED BY IDOCK:   -5.72 KCAL/MOL
REMARK 922        TOTAL FREE ENERGY PREDICTED BY IDOCK:   -5.29 KCAL/MOL
REMARK 923 INTER-LIGAND FREE ENERGY PREDICTED BY IDOCK:   -6.13 KCAL/MOL
REMARK 924 INTRA-LIGAND FREE ENERGY PREDICTED BY IDOCK:    0.84 KCAL/MOL
REMARK 927      BINDING AFFINITY PREDICTED BY RF-SCORE:    0.00 PKD
ROOT
HETATM    1  C   UNL     1     -11.369  15.487  68.664  1.00  0.00    -0.348 C  
HETATM    2  C   UNL     1     -10.659  15.871  69.835  1.00  0.00    -0.327 C  
HETATM    3  C   UNL     1      -9.832  15.256  68.762  1.00  0.00    -0.217 C  
HETATM    4  C   UNL     1     -10.772  14.893  66.961  1.00  0.00    -0.307 C  
HETATM    5  C   UNL     1     -12.263  15.454  66.474  1.00  0.00     0.779 C  
HETATM    6  C   UNL     1     -11.401  10.613  67.866  1.00  0.00    -0.342 C  
HETATM    7  C   UNL     1     -10.010  15.956  67.364  1.00  0.00    -0.239 C  
HETATM    8  C   UNL     1      -8.589  14.709  67.145  1.00  0.00    -0.244 C  
HETATM    9  C   UNL     1      -9.914  17.420  67.020  1.00  0.00    -0.295 C  
HETATM   10  C   UNL     1     -10.595  11.223  69.031  1.00  0.00    -0.241 C  
HETATM   11  C   UNL     1      -9.240  10.432  69.161  1.00  0.00    -0.202 C  
HETATM   12  C   UNL     1      -9.137  13.064  67.546  1.00  0.00    -0.191 C  
HETATM   13  C   UNL     1     -10.261  12.743  68.764  1.00  0.00    -0.094 C  
HETATM   14  C   UNL     1     -11.623  13.677  68.799  1.00  0.00    -0.359 C  
HETATM   15  C   UNL     1     -12.446  13.343  70.007  1.00  0.00    -0.202 C  
HETATM   16  C   UNL     1     -12.360  12.202  70.713  1.00  0.00    -0.391 C  
HETATM   17  C   UNL     1     -11.471  11.091  70.320  1.00  0.00    -0.363 C  
HETATM   18  C   UNL     1     -13.210  12.066  71.958  1.00  0.00    -0.481 C  
HETATM   19  C   UNL     1     -11.454   9.948  71.036  1.00  0.00    -0.466 C  
HETATM   20  C   UNL     1     -10.504   8.889  70.658  1.00  0.00    -0.221 C  
HETATM   21  O   UNL     1     -10.798   7.707  70.773  1.00  0.00    -0.230 OA 
HETATM   22  C   UNL     1      -9.148   9.376  70.257  1.00  0.00    -0.283 C  
ENDROOT
BRANCH   4  23
HETATM   23  C   UNL     1     -10.273  14.783  65.379  1.00  0.00    -0.387 C  
HETATM   24  O   UNL     1      -9.952  15.747  64.674  1.00  0.00    -0.075 OA 
HETATM   25  C   UNL     1     -10.375  13.439  64.688  1.00  0.00    -0.400 C  
ENDBRANCH   4  23
TORSDOF 1
ENDMDL
MODEL       20
REMARK 921   NORMALIZED FREE ENERGY PREDICTED BY IDOCK:   -5.69 KCAL/MOL
REMARK 922        TOTAL FREE ENERGY PREDICTED BY IDOCK:   -5.26 KCAL/MOL
REMARK 923 INTER-LIGAND FREE ENERGY PREDICTED BY IDOCK:   -6.51 KCAL/MOL
REMARK 924 INTRA-LIGAND FREE ENERGY PREDICTED BY IDOCK:    1.25 KCAL/MOL
REMARK 927      BINDING AFFINITY PREDICTED BY RF-SCORE:    0.00 PKD
ROOT
HETATM    1  C   UNL     1     -10.511  12.217  66.330  1.00  0.00    -0.263 C  
HETATM    2  C   UNL     1     -11.776  11.851  65.794  1.00  0.00    -0.210 C  
HETATM    3  C   UNL     1     -11.819  12.533  67.115  1.00  0.00    -0.386 C  
HETATM    4  C   UNL     1     -10.035  13.287  67.827  1.00  0.00    -0.223 C  
HETATM    5  C   UNL     1      -8.610  13.468  66.982  1.00  0.00    -0.169 C  
HETATM    6  C   UNL     1      -9.351   9.833  70.497  1.00  0.00    -0.117 C  
HETATM    7  C   UNL     1     -11.041  13.901  67.131  1.00  0.00    -0.312 C  
HETATM    8  C   UNL     1     -11.937  13.790  68.807  1.00  0.00    -0.400 C  
HETATM    9  C   UNL     1     -11.156  15.068  66.184  1.00  0.00    -0.329 C  
HETATM   10  C   UNL     1     -10.727   9.639  69.826  1.00  0.00    -0.269 C  
HETATM   11  C   UNL     1     -11.817   9.530  70.957  1.00  0.00    -0.408 C  
HETATM   12  C   UNL     1     -11.445  12.319  69.680  1.00  0.00    -0.285 C  
HETATM   13  C   UNL     1     -11.091  10.865  68.900  1.00  0.00    -0.307 C  
HETATM   14  C   UNL     1     -10.103  10.939  67.578  1.00  0.00    -0.214 C  
HETATM   15  C   UNL     1      -9.994   9.587  66.940  1.00  0.00    -0.278 C  
HETATM   16  C   UNL     1     -10.268   8.418  67.546  1.00  0.00    -0.308 C  
HETATM   17  C   UNL     1     -10.646   8.332  68.970  1.00  0.00    -0.167 C  
HETATM   18  C   UNL     1     -10.185   7.150  66.723  1.00  0.00    -0.289 C  
HETATM   19  C   UNL     1     -10.867   7.132  69.543  1.00  0.00    -0.244 C  
HETATM   20  C   UNL     1     -11.312   7.089  70.946  1.00  0.00    -0.295 C  
HETATM   21  O   UNL     1     -10.951   6.190  71.695  1.00  0.00    -0.248 OA 
HETATM   22  C   UNL     1     -12.312   8.135  71.320  1.00  0.00    -0.285 C  
ENDROOT
BRANCH   4  23
HETATM   23  C   UNL     1      -9.610  14.529  68.848  1.00  0.00    -0.158 C  
HETATM   24  O   UNL     1     -10.387  15.401  69.255  1.00  0.00    -0.225 OA 
HETATM   25  C   UNL     1      -8.144  14.718  69.173  1.00  0.00    -0.119 C  
ENDBRANCH   4  23
TORSDOF 1
ENDMDL
MODEL       21
REMARK 921   NORMALIZED FREE ENERGY PREDICTED BY IDOCK:   -5.66 KCAL/MOL
REMARK 922        TOTAL FREE ENERGY PREDICTED BY IDOCK:   -5.23 KCAL/MOL
REMARK 923 INTER-LIGAND FREE ENERGY PREDICTED BY IDOCK:   -6.09 KCAL/MOL
REMARK 924 INTRA-LIGAND FREE ENERGY PREDICTED BY IDOCK:    0.87 KCAL/MOL
REMARK 927      BINDING AFFINITY PREDICTED BY RF-SCORE:    0.00 PKD
ROOT
HETATM    1  C   UNL     1     -11.631  15.074  65.903  1.00  0.00    -0.165 C  
HETATM    2  C   UNL     1     -11.266  15.628  64.645  1.00  0.00    -0.380 C  
HETATM    3  C   UNL     1     -10.423  14.493  65.109  1.00  0.00    -0.439 C  
HETATM    4  C   UNL     1     -11.050  13.510  66.812  1.00  0.00    -0.311 C  
HETATM    5  C   UNL     1     -12.525  13.655  67.572  1.00  0.00     0.117 C  
HETATM    6  C   UNL     1      -8.207  15.677  69.411  1.00  0.00    -0.236 C  
HETATM    7  C   UNL     1     -11.260  13.217  65.492  1.00  0.00    -0.305 C  
HETATM    8  C   UNL     1      -9.433  12.686  65.570  1.00  0.00     0.068 C  
HETATM    9  C   UNL     1     -12.317  12.501  64.690  1.00  0.00    -0.547 C  
HETATM   10  C   UNL     1      -7.944  16.123  67.958  1.00  0.00    -0.150 C  
HETATM   11  C   UNL     1      -6.443  15.800  67.605  1.00  0.00    -0.190 C  
HETATM   12  C   UNL     1      -8.537  13.708  66.719  1.00  0.00    -0.050 C  
HETATM   13  C   UNL     1      -8.871  15.347  66.942  1.00  0.00    -0.281 C  
HETATM   14  C   UNL     1     -10.457  15.776  67.123  1.00  0.00    -0.309 C  
HETATM   15  C   UNL     1     -10.583  17.268  67.186  1.00  0.00    -0.256 C  
HETATM   16  C   UNL     1      -9.588  18.119  67.492  1.00  0.00    -0.280 C  
HETATM   17  C   UNL     1      -8.241  17.657  67.882  1.00  0.00    -0.234 C  
HETATM   18  C   UNL     1      -9.872  19.604  67.426  1.00  0.00    -0.489 C  
HETATM   19  C   UNL     1      -7.289  18.549  68.224  1.00  0.00    -0.294 C  
HETATM   20  C   UNL     1      -5.938  18.057  68.537  1.00  0.00    -0.188 C  
HETATM   21  O   UNL     1      -5.252  18.599  69.395  1.00  0.00    -0.189 OA 
HETATM   22  C   UNL     1      -5.450  16.955  67.653  1.00  0.00    -0.148 C  
ENDROOT
BRANCH   4  23
HETATM   23  C   UNL     1     -10.870  11.969  67.410  1.00  0.00    -0.242 C  
HETATM   24  O   UNL     1     -11.491  10.980  67.004  1.00  0.00    -0.415 OA 
HETATM   25  C   UNL     1     -10.018  11.777  68.647  1.00  0.00    -0.181 C  
ENDBRANCH   4  23
TORSDOF 1
ENDMDL
MODEL       22
REMARK 921   NORMALIZED FREE ENERGY PREDICTED BY IDOCK:   -5.61 KCAL/MOL
REMARK 922        TOTAL FREE ENERGY PREDICTED BY IDOCK:   -5.18 KCAL/MOL
REMARK 923 INTER-LIGAND FREE ENERGY PREDICTED BY IDOCK:   -5.96 KCAL/MOL
REMARK 924 INTRA-LIGAND FREE ENERGY PREDICTED BY IDOCK:    0.78 KCAL/MOL
REMARK 927      BINDING AFFINITY PREDICTED BY RF-SCORE:    0.00 PKD
ROOT
HETATM    1  C   UNL     1      -9.119   7.244  67.974  1.00  0.00    -0.133 C  
HETATM    2  C   UNL     1      -7.752   7.480  67.664  1.00  0.00    -0.115 C  
HETATM    3  C   UNL     1      -8.237   8.110  68.921  1.00  0.00    -0.124 C  
HETATM    4  C   UNL     1     -10.144   7.610  69.531  1.00  0.00    -0.192 C  
HETATM    5  C   UNL     1     -11.100   6.381  68.938  1.00  0.00    -0.420 C  
HETATM    6  C   UNL     1     -11.908  11.320  67.899  1.00  0.00    -0.209 C  
HETATM    7  C   UNL     1      -8.933   7.090  69.897  1.00  0.00    -0.142 C  
HETATM    8  C   UNL     1      -8.796   8.725  70.863  1.00  0.00    -0.243 C  
HETATM    9  C   UNL     1      -8.424   5.763  70.399  1.00  0.00    -0.129 C  
HETATM   10  C   UNL     1     -10.382  11.396  67.688  1.00  0.00    -0.209 C  
HETATM   11  C   UNL     1      -9.846  12.686  68.416  1.00  0.00    -0.200 C  
HETATM   12  C   UNL     1      -9.623  10.035  69.988  1.00  0.00    -0.205 C  
HETATM   13  C   UNL     1      -9.653  10.138  68.304  1.00  0.00    -0.150 C  
HETATM   14  C   UNL     1     -10.019   8.759  67.471  1.00  0.00    -0.254 C  
HETATM   15  C   UNL     1      -9.881   8.996  65.997  1.00  0.00    -0.312 C  
HETATM   16  C   UNL     1      -9.895  10.201  65.400  1.00  0.00    -0.375 C  
HETATM   17  C   UNL     1     -10.129  11.453  66.145  1.00  0.00    -0.271 C  
HETATM   18  C   UNL     1      -9.658  10.261  63.906  1.00  0.00    -0.354 C  
HETATM   19  C   UNL     1     -10.180  12.633  65.494  1.00  0.00    -0.298 C  
HETATM   20  C   UNL     1     -10.343  13.868  66.278  1.00  0.00    -0.293 C  
HETATM   21  O   UNL     1     -10.991  14.811  65.842  1.00  0.00    -0.320 OA 
HETATM   22  C   UNL     1      -9.564  13.910  67.553  1.00  0.00    -0.229 C  
ENDROOT
BRANCH   4  23
HETATM   23  C   UNL     1     -10.927   7.540  70.997  1.00  0.00    -0.251 C  
HETATM   24  O   UNL     1     -10.689   6.709  71.881  1.00  0.00    -0.217 OA 
HETATM   25  C   UNL     1     -12.127   8.438  71.211  1.00  0.00    -0.315 C  
ENDBRANCH   4  23
TORSDOF 1
ENDMDL
MODEL       23
REMARK 921   NORMALIZED FREE ENERGY PREDICTED BY IDOCK:   -5.60 KCAL/MOL
REMARK 922        TOTAL FREE ENERGY PREDICTED BY IDOCK:   -5.17 KCAL/MOL
REMARK 923 INTER-LIGAND FREE ENERGY PREDICTED BY IDOCK:   -5.89 KCAL/MOL
REMARK 924 INTRA-LIGAND FREE ENERGY PREDICTED BY IDOCK:    0.72 KCAL/MOL
REMARK 927      BINDING AFFINITY PREDICTED BY RF-SCORE:    0.00 PKD
ROOT
HETATM    1  C   UNL     1      -9.411   8.099  67.665  1.00  0.00    -0.172 C  
HETATM    2  C   UNL     1     -10.717   7.715  67.254  1.00  0.00    -0.344 C  
HETATM    3  C   UNL     1      -9.958   8.537  66.274  1.00  0.00    -0.251 C  
HETATM    4  C   UNL     1      -7.982   8.926  66.724  1.00  0.00    -0.107 C  
HETATM    5  C   UNL     1      -7.060   8.205  67.910  1.00  0.00    -0.083 C  
HETATM    6  C   UNL     1      -8.870  12.971  68.268  1.00  0.00    -0.172 C  
HETATM    7  C   UNL     1      -8.537   7.950  65.942  1.00  0.00    -0.171 C  
HETATM    8  C   UNL     1      -8.796   9.402  64.738  1.00  0.00    -0.243 C  
HETATM    9  C   UNL     1      -8.165   6.552  65.517  1.00  0.00    -0.138 C  
HETATM   10  C   UNL     1     -10.187  12.378  67.728  1.00  0.00    -0.212 C  
HETATM   11  C   UNL     1     -10.740  13.339  66.609  1.00  0.00    -0.284 C  
HETATM   12  C   UNL     1      -9.100  10.908  65.636  1.00  0.00    -0.223 C  
HETATM   13  C   UNL     1      -9.957  10.952  67.090  1.00  0.00    -0.221 C  
HETATM   14  C   UNL     1      -9.553   9.834  68.237  1.00  0.00    -0.155 C  
HETATM   15  C   UNL     1     -10.487   9.935  69.406  1.00  0.00    -0.250 C  
HETATM   16  C   UNL     1     -11.242  11.007  69.706  1.00  0.00    -0.339 C  
HETATM   17  C   UNL     1     -11.175  12.265  68.936  1.00  0.00    -0.323 C  
HETATM   18  C   UNL     1     -12.194  10.905  70.878  1.00  0.00    -0.485 C  
HETATM   19  C   UNL     1     -11.919  13.327  69.305  1.00  0.00    -0.354 C  
HETATM   20  C   UNL     1     -11.881  14.541  68.472  1.00  0.00    -0.320 C  
HETATM   21  O   UNL     1     -11.963  15.654  68.976  1.00  0.00    -0.374 OA 
HETATM   22  C   UNL     1     -11.865  14.291  66.998  1.00  0.00    -0.455 C  
ENDROOT
BRANCH   4  23
HETATM   23  C   UNL     1      -6.618   9.251  65.832  1.00  0.00    -0.076 C  
HETATM   24  O   UNL     1      -6.176   8.525  64.933  1.00  0.00    -0.059 OA 
HETATM   25  C   UNL     1      -5.753  10.422  66.248  1.00  0.00    -0.075 C  
ENDBRANCH   4  23
TORSDOF 1
ENDMDL
MODEL       24
REMARK 921   NORMALIZED FREE ENERGY PREDICTED BY IDOCK:   -5.59 KCAL/MOL
REMARK 922        TOTAL FREE ENERGY PREDICTED BY IDOCK:   -5.16 KCAL/MOL
REMARK 923 INTER-LIGAND FREE ENERGY PREDICTED BY IDOCK:   -6.12 KCAL/MOL
REMARK 924 INTRA-LIGAND FREE ENERGY PREDICTED BY IDOCK:    0.96 KCAL/MOL
REMARK 927      BINDING AFFINITY PREDICTED BY RF-SCORE:    0.00 PKD
ROOT
HETATM    1  C   UNL     1     -11.603   7.234  72.389  1.00  0.00    -0.307 C  
HETATM    2  C   UNL     1     -12.773   6.944  71.635  1.00  0.00    -0.396 C  
HETATM    3  C   UNL     1     -11.534   6.266  71.170  1.00  0.00    -0.362 C  
HETATM    4  C   UNL     1      -9.863   6.471  72.363  1.00  0.00    -0.169 C  
HETATM    5  C   UNL     1      -9.803   7.072  73.916  1.00  0.00    -0.354 C  
HETATM    6  C   UNL     1      -8.142   9.663  69.836  1.00  0.00    -0.180 C  
HETATM    7  C   UNL     1     -10.797   5.473  72.312  1.00  0.00    -0.297 C  
HETATM    8  C   UNL     1      -9.884   5.034  70.700  1.00  0.00    -0.282 C  
HETATM    9  C   UNL     1     -11.358   4.455  73.273  1.00  0.00    -0.334 C  
HETATM   10  C   UNL     1      -9.438   9.175  69.155  1.00  0.00    -0.156 C  
HETATM   11  C   UNL     1      -9.075   8.665  67.709  1.00  0.00    -0.143 C  
HETATM   12  C   UNL     1      -9.270   6.507  69.912  1.00  0.00    -0.149 C  
HETATM   13  C   UNL     1     -10.092   7.981  69.954  1.00  0.00    -0.198 C  
HETATM   14  C   UNL     1     -10.673   8.479  71.418  1.00  0.00    -0.317 C  
HETATM   15  C   UNL     1     -11.476   9.734  71.254  1.00  0.00    -0.457 C  
HETATM   16  C   UNL     1     -11.395  10.576  70.208  1.00  0.00    -0.407 C  
HETATM   17  C   UNL     1     -10.424  10.388  69.111  1.00  0.00    -0.248 C  
HETATM   18  C   UNL     1     -12.343  11.755  70.165  1.00  0.00    -0.272 C  
HETATM   19  C   UNL     1     -10.351  11.285  68.108  1.00  0.00    -0.205 C  
HETATM   20  C   UNL     1      -9.422  11.028  66.995  1.00  0.00    -0.173 C  
HETATM   21  O   UNL     1      -8.838  11.948  66.436  1.00  0.00    -0.197 OA 
HETATM   22  C   UNL     1      -9.361   9.605  66.544  1.00  0.00    -0.212 C  
ENDROOT
BRANCH   4  23
HETATM   23  C   UNL     1      -8.501   5.559  72.642  1.00  0.00    -0.117 C  
HETATM   24  O   UNL     1      -8.448   4.327  72.545  1.00  0.00    -0.102 OA 
HETATM   25  C   UNL     1      -7.283   6.250  73.218  1.00  0.00    -0.087 C  
ENDBRANCH   4  23
TORSDOF 1
ENDMDL
MODEL       25
REMARK 921   NORMALIZED FREE ENERGY PREDICTED BY IDOCK:   -5.56 KCAL/MOL
REMARK 922        TOTAL FREE ENERGY PREDICTED BY IDOCK:   -5.12 KCAL/MOL
REMARK 923 INTER-LIGAND FREE ENERGY PREDICTED BY IDOCK:   -5.84 KCAL/MOL
REMARK 924 INTRA-LIGAND FREE ENERGY PREDICTED BY IDOCK:    0.72 KCAL/MOL
REMARK 927      BINDING AFFINITY PREDICTED BY RF-SCORE:    0.00 PKD
ROOT
HETATM    1  C   UNL     1      -9.674   9.614  65.288  1.00  0.00    -0.330 C  
HETATM    2  C   UNL     1      -8.833  10.170  64.285  1.00  0.00    -0.244 C  
HETATM    3  C   UNL     1      -8.238  10.103  65.647  1.00  0.00    -0.150 C  
HETATM    4  C   UNL     1      -9.327   9.098  67.083  1.00  0.00    -0.178 C  
HETATM    5  C   UNL     1     -10.655   8.122  66.840  1.00  0.00    -0.311 C  
HETATM    6  C   UNL     1     -10.951  12.825  68.816  1.00  0.00    -0.289 C  
HETATM    7  C   UNL     1      -8.307   8.664  66.281  1.00  0.00    -0.124 C  
HETATM    8  C   UNL     1      -7.251   9.710  67.472  1.00  0.00    -0.090 C  
HETATM    9  C   UNL     1      -7.868   7.347  65.693  1.00  0.00    -0.111 C  
HETATM   10  C   UNL     1      -9.963  13.221  67.700  1.00  0.00    -0.229 C  
HETATM   11  C   UNL     1      -8.840  14.128  68.333  1.00  0.00    -0.187 C  
HETATM   12  C   UNL     1      -8.170  11.126  68.037  1.00  0.00    -0.125 C  
HETATM   13  C   UNL     1      -9.276  11.950  67.064  1.00  0.00    -0.191 C  
HETATM   14  C   UNL     1     -10.361  11.037  66.216  1.00  0.00    -0.304 C  
HETATM   15  C   UNL     1     -11.180  11.914  65.317  1.00  0.00    -0.351 C  
HETATM   16  C   UNL     1     -11.344  13.240  65.466  1.00  0.00    -0.315 C  
HETATM   17  C   UNL     1     -10.779  13.987  66.607  1.00  0.00    -0.281 C  
HETATM   18  C   UNL     1     -12.138  13.985  64.414  1.00  0.00    -0.486 C  
HETATM   19  C   UNL     1     -11.010  15.309  66.736  1.00  0.00    -0.306 C  
HETATM   20  C   UNL     1     -10.371  16.034  67.847  1.00  0.00    -0.269 C  
HETATM   21  O   UNL     1     -10.944  16.960  68.407  1.00  0.00    -0.356 OA 
HETATM   22  C   UNL     1      -8.959  15.633  68.129  1.00  0.00    -0.179 C  
ENDROOT
BRANCH   4  23
HETATM   23  C   UNL     1      -8.950   8.273  68.477  1.00  0.00    -0.137 C  
HETATM   24  O   UNL     1      -8.183   7.305  68.535  1.00  0.00    -0.123 OA 
HETATM   25  C   UNL     1      -9.720   8.608  69.737  1.00  0.00    -0.176 C  
ENDBRANCH   4  23
TORSDOF 1
ENDMDL
MODEL       26
REMARK 921   NORMALIZED FREE ENERGY PREDICTED BY IDOCK:   -5.54 KCAL/MOL
REMARK 922        TOTAL FREE ENERGY PREDICTED BY IDOCK:   -5.10 KCAL/MOL
REMARK 923 INTER-LIGAND FREE ENERGY PREDICTED BY IDOCK:   -5.86 KCAL/MOL
REMARK 924 INTRA-LIGAND FREE ENERGY PREDICTED BY IDOCK:    0.76 KCAL/MOL
REMARK 927      BINDING AFFINITY PREDICTED BY RF-SCORE:    0.00 PKD
ROOT
HETATM    1  C   UNL     1     -11.651  13.380  68.171  1.00  0.00    -0.376 C  
HETATM    2  C   UNL     1     -11.273  14.146  69.307  1.00  0.00    -0.308 C  
HETATM    3  C   UNL     1     -10.186  13.886  68.326  1.00  0.00    -0.247 C  
HETATM    4  C   UNL     1     -10.734  12.979  66.555  1.00  0.00    -0.290 C  
HETATM    5  C   UNL     1     -12.281  12.752  65.978  1.00  0.00    -0.380 C  
HETATM    6  C   UNL     1      -9.421   8.981  67.906  1.00  0.00    -0.159 C  
HETATM    7  C   UNL     1     -10.565  14.303  66.857  1.00  0.00    -0.273 C  
HETATM    8  C   UNL     1      -8.722  13.829  66.805  1.00  0.00    -0.108 C  
HETATM    9  C   UNL     1     -11.118  15.613  66.357  1.00  0.00    -0.123 C  
HETATM   10  C   UNL     1      -9.060   9.991  69.015  1.00  0.00    -0.172 C  
HETATM   11  C   UNL     1      -7.505   9.921  69.260  1.00  0.00    -0.096 C  
HETATM   12  C   UNL     1      -8.493  12.157  67.370  1.00  0.00    -0.173 C  
HETATM   13  C   UNL     1      -9.431  11.466  68.592  1.00  0.00    -0.168 C  
HETATM   14  C   UNL     1     -11.067  11.673  68.496  1.00  0.00    -0.286 C  
HETATM   15  C   UNL     1     -11.731  11.107  69.715  1.00  0.00    -0.419 C  
HETATM   16  C   UNL     1     -11.187  10.198  70.543  1.00  0.00    -0.411 C  
HETATM   17  C   UNL     1      -9.867   9.586  70.292  1.00  0.00    -0.313 C  
HETATM   18  C   UNL     1     -11.967   9.798  71.777  1.00  0.00    -0.388 C  
HETATM   19  C   UNL     1      -9.385   8.644  71.128  1.00  0.00    -0.274 C  
HETATM   20  C   UNL     1      -8.035   8.108  70.888  1.00  0.00    -0.096 C  
HETATM   21  O   UNL     1      -7.770   6.936  71.125  1.00  0.00    -0.087 OA 
HETATM   22  C   UNL     1      -7.022   9.123  70.465  1.00  0.00    -0.082 C  
ENDROOT
BRANCH   4  23
HETATM   23  C   UNL     1     -10.132  12.971  65.005  1.00  0.00    -0.215 C  
HETATM   24  O   UNL     1     -10.112  13.953  64.254  1.00  0.00    -0.214 OA 
HETATM   25  C   UNL     1      -9.734  11.642  64.399  1.00  0.00    -0.199 C  
ENDBRANCH   4  23
TORSDOF 1
ENDMDL
MODEL       27
REMARK 921   NORMALIZED FREE ENERGY PREDICTED BY IDOCK:   -5.47 KCAL/MOL
REMARK 922        TOTAL FREE ENERGY PREDICTED BY IDOCK:   -5.03 KCAL/MOL
REMARK 923 INTER-LIGAND FREE ENERGY PREDICTED BY IDOCK:   -5.93 KCAL/MOL
REMARK 924 INTRA-LIGAND FREE ENERGY PREDICTED BY IDOCK:    0.90 KCAL/MOL
REMARK 927      BINDING AFFINITY PREDICTED BY RF-SCORE:    0.00 PKD
ROOT
HETATM    1  C   UNL     1     -10.397  10.722  65.418  1.00  0.00    -0.315 C  
HETATM    2  C   UNL     1      -9.862  10.931  64.117  1.00  0.00    -0.369 C  
HETATM    3  C   UNL     1      -8.870  10.961  65.225  1.00  0.00    -0.179 C  
HETATM    4  C   UNL     1      -9.558  10.436  67.099  1.00  0.00    -0.192 C  
HETATM    5  C   UNL     1     -11.016   9.722  67.472  1.00  0.00    -0.205 C  
HETATM    6  C   UNL     1      -9.980  14.640  68.395  1.00  0.00    -0.227 C  
HETATM    7  C   UNL     1      -8.929   9.685  66.144  1.00  0.00    -0.186 C  
HETATM    8  C   UNL     1      -7.405  10.671  66.718  1.00  0.00    -0.120 C  
HETATM    9  C   UNL     1      -8.898   8.231  65.748  1.00  0.00    -0.194 C  
HETATM   10  C   UNL     1      -9.367  14.648  66.980  1.00  0.00    -0.244 C  
HETATM   11  C   UNL     1      -7.983  15.397  67.045  1.00  0.00    -0.259 C  
HETATM   12  C   UNL     1      -7.877  12.314  67.213  1.00  0.00    -0.171 C  
HETATM   13  C   UNL     1      -9.113  13.180  66.456  1.00  0.00    -0.135 C  
HETATM   14  C   UNL     1     -10.534  12.382  66.181  1.00  0.00    -0.274 C  
HETATM   15  C   UNL     1     -11.470  13.253  65.398  1.00  0.00    -0.328 C  
HETATM   16  C   UNL     1     -11.387  14.592  65.302  1.00  0.00    -0.353 C  
HETATM   17  C   UNL     1     -10.379  15.380  66.039  1.00  0.00    -0.339 C  
HETATM   18  C   UNL     1     -12.369  15.305  64.397  1.00  0.00    -0.172 C  
HETATM   19  C   UNL     1     -10.367  16.724  65.945  1.00  0.00    -0.341 C  
HETATM   20  C   UNL     1      -9.303  17.472  66.636  1.00  0.00    -0.262 C  
HETATM   21  O   UNL     1      -9.523  18.571  67.129  1.00  0.00    -0.280 OA 
HETATM   22  C   UNL     1      -7.948  16.845  66.569  1.00  0.00    -0.329 C  
ENDROOT
BRANCH   4  23
HETATM   23  C   UNL     1      -8.865   9.783  68.462  1.00  0.00    -0.121 C  
HETATM   24  O   UNL     1      -7.933   8.970  68.456  1.00  0.00    -0.101 OA 
HETATM   25  C   UNL     1      -9.519  10.060  69.799  1.00  0.00    -0.239 C  
ENDBRANCH   4  23
TORSDOF 1
ENDMDL
MODEL       28
REMARK 921   NORMALIZED FREE ENERGY PREDICTED BY IDOCK:   -5.45 KCAL/MOL
REMARK 922        TOTAL FREE ENERGY PREDICTED BY IDOCK:   -5.00 KCAL/MOL
REMARK 923 INTER-LIGAND FREE ENERGY PREDICTED BY IDOCK:   -5.74 KCAL/MOL
REMARK 924 INTRA-LIGAND FREE ENERGY PREDICTED BY IDOCK:    0.74 KCAL/MOL
REMARK 927      BINDING AFFINITY PREDICTED BY RF-SCORE:    0.00 PKD
ROOT
HETATM    1  C   UNL     1     -11.423  11.931  68.193  1.00  0.00    -0.384 C  
HETATM    2  C   UNL     1     -11.355  12.943  69.189  1.00  0.00    -0.329 C  
HETATM    3  C   UNL     1     -10.060  12.294  68.853  1.00  0.00     0.002 C  
HETATM    4  C   UNL     1     -10.067  10.985  67.258  1.00  0.00    -0.222 C  
HETATM    5  C   UNL     1     -11.278  10.775  66.133  1.00  0.00     0.203 C  
HETATM    6  C   UNL     1     -10.297   7.421  69.862  1.00  0.00    -0.222 C  
HETATM    7  C   UNL     1      -9.739  12.312  67.313  1.00  0.00    -0.195 C  
HETATM    8  C   UNL     1      -8.174  11.641  68.163  1.00  0.00    -0.151 C  
HETATM    9  C   UNL     1      -9.752  13.477  66.356  1.00  0.00    -0.296 C  
HETATM   10  C   UNL     1     -10.179   8.659  70.774  1.00  0.00    -0.250 C  
HETATM   11  C   UNL     1      -8.897   8.490  71.674  1.00  0.00    -0.272 C  
HETATM   12  C   UNL     1      -8.557  10.187  69.114  1.00  0.00    -0.167 C  
HETATM   13  C   UNL     1     -10.022   9.983  69.929  1.00  0.00    -0.280 C  
HETATM   14  C   UNL     1     -11.404  10.335  69.094  1.00  0.00    -0.244 C  
HETATM   15  C   UNL     1     -12.594  10.219  69.998  1.00  0.00    -0.059 C  
HETATM   16  C   UNL     1     -12.628   9.530  71.152  1.00  0.00    -0.383 C  
HETATM   17  C   UNL     1     -11.485   8.729  71.632  1.00  0.00    -0.386 C  
HETATM   18  C   UNL     1     -13.892   9.590  71.983  1.00  0.00    -0.365 C  
HETATM   19  C   UNL     1     -11.585   8.019  72.774  1.00  0.00    -0.390 C  
HETATM   20  C   UNL     1     -10.401   7.290  73.260  1.00  0.00    -0.342 C  
HETATM   21  O   UNL     1     -10.515   6.213  73.832  1.00  0.00    -0.264 OA 
HETATM   22  C   UNL     1      -9.107   8.023  73.110  1.00  0.00    -0.341 C  
ENDROOT
BRANCH   4  23
HETATM   23  C   UNL     1      -8.930  10.467  66.160  1.00  0.00    -0.157 C  
HETATM   24  O   UNL     1      -8.362  11.196  65.339  1.00  0.00    -0.059 OA 
HETATM   25  C   UNL     1      -8.688   8.978  66.030  1.00  0.00    -0.184 C  
ENDBRANCH   4  23
TORSDOF 1
ENDMDL
MODEL       29
REMARK 921   NORMALIZED FREE ENERGY PREDICTED BY IDOCK:   -5.36 KCAL/MOL
REMARK 922        TOTAL FREE ENERGY PREDICTED BY IDOCK:   -4.91 KCAL/MOL
REMARK 923 INTER-LIGAND FREE ENERGY PREDICTED BY IDOCK:   -5.63 KCAL/MOL
REMARK 924 INTRA-LIGAND FREE ENERGY PREDICTED BY IDOCK:    0.72 KCAL/MOL
REMARK 927      BINDING AFFINITY PREDICTED BY RF-SCORE:    0.00 PKD
ROOT
HETATM    1  C   UNL     1     -10.679  12.929  64.246  1.00  0.00    -0.430 C  
HETATM    2  C   UNL     1     -11.709  12.250  63.539  1.00  0.00    -0.584 C  
HETATM    3  C   UNL     1     -11.970  12.471  64.987  1.00  0.00    -0.478 C  
HETATM    4  C   UNL     1     -10.614  13.649  66.003  1.00  0.00    -0.290 C  
HETATM    5  C   UNL     1      -9.419  14.605  65.343  1.00  0.00     0.138 C  
HETATM    6  C   UNL     1      -8.486  10.170  67.705  1.00  0.00    -0.118 C  
HETATM    7  C   UNL     1     -11.809  13.974  65.423  1.00  0.00    -0.363 C  
HETATM    8  C   UNL     1     -12.515  13.065  66.939  1.00  0.00     0.168 C  
HETATM    9  C   UNL     1     -12.424  15.208  64.812  1.00  0.00     0.009 C  
HETATM   10  C   UNL     1      -9.693   9.634  66.907  1.00  0.00    -0.240 C  
HETATM   11  C   UNL     1     -10.599   8.797  67.886  1.00  0.00    -0.236 C  
HETATM   12  C   UNL     1     -11.436  11.735  67.424  1.00  0.00    -0.375 C  
HETATM   13  C   UNL     1     -10.558  10.814  66.315  1.00  0.00    -0.257 C  
HETATM   14  C   UNL     1      -9.739  11.633  65.137  1.00  0.00    -0.245 C  
HETATM   15  C   UNL     1      -9.120  10.666  64.172  1.00  0.00    -0.245 C  
HETATM   16  C   UNL     1      -8.875   9.368  64.425  1.00  0.00    -0.225 C  
HETATM   17  C   UNL     1      -9.127   8.755  65.744  1.00  0.00    -0.267 C  
HETATM   18  C   UNL     1      -8.321   8.514  63.304  1.00  0.00    -0.107 C  
HETATM   19  C   UNL     1      -8.821   7.460  65.961  1.00  0.00    -0.173 C  
HETATM   20  C   UNL     1      -9.153   6.863  67.265  1.00  0.00    -0.124 C  
HETATM   21  O   UNL     1      -8.430   6.015  67.773  1.00  0.00    -0.109 OA 
HETATM   22  C   UNL     1     -10.474   7.279  67.828  1.00  0.00    -0.292 C  
ENDROOT
BRANCH   4  23
HETATM   23  C   UNL     1     -10.684  14.628  67.345  1.00  0.00    -0.280 C  
HETATM   24  O   UNL     1     -11.495  15.549  67.501  1.00  0.00    -0.297 OA 
HETATM   25  C   UNL     1      -9.583  14.508  68.377  1.00  0.00    -0.213 C  
ENDBRANCH   4  23
TORSDOF 1
ENDMDL
MODEL       30
REMARK 921   NORMALIZED FREE ENERGY PREDICTED BY IDOCK:   -5.28 KCAL/MOL
REMARK 922        TOTAL FREE ENERGY PREDICTED BY IDOCK:   -4.82 KCAL/MOL
REMARK 923 INTER-LIGAND FREE ENERGY PREDICTED BY IDOCK:   -5.56 KCAL/MOL
REMARK 924 INTRA-LIGAND FREE ENERGY PREDICTED BY IDOCK:    0.74 KCAL/MOL
REMARK 927      BINDING AFFINITY PREDICTED BY RF-SCORE:    0.00 PKD
ROOT
HETATM    1  C   UNL     1      -7.812  10.399  67.994  1.00  0.00    -0.104 C  
HETATM    2  C   UNL     1      -8.513  10.718  69.190  1.00  0.00    -0.105 C  
HETATM    3  C   UNL     1      -9.263   9.878  68.218  1.00  0.00    -0.130 C  
HETATM    4  C   UNL     1      -8.212   9.198  66.577  1.00  0.00    -0.111 C  
HETATM    5  C   UNL     1      -6.562   9.246  66.348  1.00  0.00    -0.067 C  
HETATM    6  C   UNL     1      -9.825  12.346  63.926  1.00  0.00    -0.150 C  
HETATM    7  C   UNL     1      -8.474   8.591  67.774  1.00  0.00    -0.130 C  
HETATM    8  C   UNL     1     -10.217   8.418  67.028  1.00  0.00    -0.377 C  
HETATM    9  C   UNL     1      -7.812   7.543  68.633  1.00  0.00    -0.121 C  
HETATM   10  C   UNL     1     -10.504  12.501  65.303  1.00  0.00    -0.313 C  
HETATM   11  C   UNL     1     -12.061  12.377  65.102  1.00  0.00    -0.464 C  
HETATM   12  C   UNL     1     -10.585   9.807  65.979  1.00  0.00     0.048 C  
HETATM   13  C   UNL     1     -10.039  11.372  66.303  1.00  0.00    -0.263 C  
HETATM   14  C   UNL     1      -8.448  11.545  66.714  1.00  0.00    -0.168 C  
HETATM   15  C   UNL     1      -8.165  12.969  67.086  1.00  0.00    -0.132 C  
HETATM   16  C   UNL     1      -8.919  14.027  66.737  1.00  0.00    -0.217 C  
HETATM   17  C   UNL     1     -10.102  13.905  65.863  1.00  0.00    -0.331 C  
HETATM   18  C   UNL     1      -8.529  15.389  67.272  1.00  0.00    -0.214 C  
HETATM   19  C   UNL     1     -10.798  15.002  65.505  1.00  0.00    -0.360 C  
HETATM   20  C   UNL     1     -12.014  14.835  64.691  1.00  0.00    -0.440 C  
HETATM   21  O   UNL     1     -12.325  15.664  63.845  1.00  0.00    -0.673 OA 
HETATM   22  C   UNL     1     -12.868  13.669  65.071  1.00  0.00    -0.325 C  
ENDROOT
BRANCH   4  23
HETATM   23  C   UNL     1      -8.334   7.882  65.569  1.00  0.00    -0.147 C  
HETATM   24  O   UNL     1      -8.452   6.712  65.951  1.00  0.00    -0.135 OA 
HETATM   25  C   UNL     1      -8.120   8.095  64.085  1.00  0.00    -0.128 C  
ENDBRANCH   4  23
TORSDOF 1
ENDMDL
MODEL       31
REMARK 921   NORMALIZED FREE ENERGY PREDICTED BY IDOCK:   -5.25 KCAL/MOL
REMARK 922        TOTAL FREE ENERGY PREDICTED BY IDOCK:   -4.80 KCAL/MOL
REMARK 923 INTER-LIGAND FREE ENERGY PREDICTED BY IDOCK:   -5.52 KCAL/MOL
REMARK 924 INTRA-LIGAND FREE ENERGY PREDICTED BY IDOCK:    0.73 KCAL/MOL
REMARK 927      BINDING AFFINITY PREDICTED BY RF-SCORE:    0.00 PKD
ROOT
HETATM    1  C   UNL     1      -9.402  17.634  66.685  1.00  0.00    -0.289 C  
HETATM    2  C   UNL     1     -10.636  17.942  67.321  1.00  0.00    -0.341 C  
HETATM    3  C   UNL     1      -9.577  17.401  68.215  1.00  0.00    -0.292 C  
HETATM    4  C   UNL     1      -7.703  17.154  67.388  1.00  0.00    -0.191 C  
HETATM    5  C   UNL     1      -7.163  17.741  65.925  1.00  0.00    -0.260 C  
HETATM    6  C   UNL     1      -8.288  12.822  66.735  1.00  0.00     0.010 C  
HETATM    7  C   UNL     1      -8.220  18.191  68.116  1.00  0.00    -0.284 C  
HETATM    8  C   UNL     1      -8.006  16.965  69.557  1.00  0.00     0.378 C  
HETATM    9  C   UNL     1      -7.977  19.675  68.222  1.00  0.00    -0.356 C  
HETATM   10  C   UNL     1      -9.537  13.357  67.465  1.00  0.00    -0.221 C  
HETATM   11  C   UNL     1      -9.698  12.563  68.816  1.00  0.00     0.045 C  
HETATM   12  C   UNL     1      -8.266  15.296  68.997  1.00  0.00    -0.205 C  
HETATM   13  C   UNL     1      -9.390  14.892  67.805  1.00  0.00    -0.194 C  
HETATM   14  C   UNL     1      -9.403  15.818  66.436  1.00  0.00    -0.333 C  
HETATM   15  C   UNL     1     -10.534  15.403  65.544  1.00  0.00    -0.402 C  
HETATM   16  C   UNL     1     -11.169  14.219  65.596  1.00  0.00    -0.314 C  
HETATM   17  C   UNL     1     -10.760  13.138  66.515  1.00  0.00    -0.288 C  
HETATM   18  C   UNL     1     -12.349  14.000  64.673  1.00  0.00    -0.425 C  
HETATM   19  C   UNL     1     -11.400  11.952  66.496  1.00  0.00    -0.403 C  
HETATM   20  C   UNL     1     -11.012  10.923  67.475  1.00  0.00    -0.293 C  
HETATM   21  O   UNL     1     -11.032   9.734  67.183  1.00  0.00    -0.202 OA 
HETATM   22  C   UNL     1     -10.726  11.439  68.849  1.00  0.00    -0.248 C  
ENDROOT
BRANCH   4  23
HETATM   23  C   UNL     1      -6.150  17.149  67.982  1.00  0.00    -0.130 C  
HETATM   24  O   UNL     1      -5.667  18.037  68.694  1.00  0.00    -0.174 OA 
HETATM   25  C   UNL     1      -5.199  16.079  67.488  1.00  0.00    -0.111 C  
ENDBRANCH   4  23
TORSDOF 1
ENDMDL
MODEL       32
REMARK 921   NORMALIZED FREE ENERGY PREDICTED BY IDOCK:   -5.25 KCAL/MOL
REMARK 922        TOTAL FREE ENERGY PREDICTED BY IDOCK:   -4.79 KCAL/MOL
REMARK 923 INTER-LIGAND FREE ENERGY PREDICTED BY IDOCK:   -5.55 KCAL/MOL
REMARK 924 INTRA-LIGAND FREE ENERGY PREDICTED BY IDOCK:    0.76 KCAL/MOL
REMARK 927      BINDING AFFINITY PREDICTED BY RF-SCORE:    0.00 PKD
ROOT
HETATM    1  C   UNL     1      -7.638   8.487  69.888  1.00  0.00    -0.071 C  
HETATM    2  C   UNL     1      -7.225   9.174  71.062  1.00  0.00    -0.113 C  
HETATM    3  C   UNL     1      -8.651   8.749  71.042  1.00  0.00    -0.236 C  
HETATM    4  C   UNL     1      -9.238   7.553  69.466  1.00  0.00    -0.146 C  
HETATM    5  C   UNL     1      -8.252   6.782  68.367  1.00  0.00    -0.119 C  
HETATM    6  C   UNL     1     -11.014  10.930  67.237  1.00  0.00    -0.355 C  
HETATM    7  C   UNL     1      -8.836   7.218  70.731  1.00  0.00    -0.150 C  
HETATM    8  C   UNL     1     -10.565   7.869  71.191  1.00  0.00    -0.238 C  
HETATM    9  C   UNL     1      -8.175   6.032  71.385  1.00  0.00    -0.123 C  
HETATM   10  C   UNL     1     -10.523  11.474  68.595  1.00  0.00    -0.224 C  
HETATM   11  C   UNL     1     -11.753  12.109  69.347  1.00  0.00    -0.391 C  
HETATM   12  C   UNL     1     -11.036   9.201  70.108  1.00  0.00    -0.248 C  
HETATM   13  C   UNL     1      -9.931  10.320  69.495  1.00  0.00    -0.252 C  
HETATM   14  C   UNL     1      -8.525   9.723  68.865  1.00  0.00    -0.129 C  
HETATM   15  C   UNL     1      -7.613  10.850  68.483  1.00  0.00    -0.111 C  
HETATM   16  C   UNL     1      -7.999  12.119  68.259  1.00  0.00    -0.163 C  
HETATM   17  C   UNL     1      -9.414  12.536  68.296  1.00  0.00    -0.201 C  
HETATM   18  C   UNL     1      -6.930  13.149  67.963  1.00  0.00    -0.116 C  
HETATM   19  C   UNL     1      -9.754  13.811  68.020  1.00  0.00    -0.232 C  
HETATM   20  C   UNL     1     -11.167  14.208  68.136  1.00  0.00    -0.276 C  
HETATM   21  O   UNL     1     -11.655  15.034  67.375  1.00  0.00    -0.348 OA 
HETATM   22  C   UNL     1     -11.889  13.626  69.309  1.00  0.00    -0.395 C  
ENDROOT
BRANCH   4  23
HETATM   23  C   UNL     1     -10.421   6.406  69.242  1.00  0.00    -0.231 C  
HETATM   24  O   UNL     1     -10.678   5.495  70.039  1.00  0.00    -0.313 OA 
HETATM   25  C   UNL     1     -11.124   6.356  67.902  1.00  0.00    -0.370 C  
ENDBRANCH   4  23
TORSDOF 1
ENDMDL
MODEL       33
REMARK 921   NORMALIZED FREE ENERGY PREDICTED BY IDOCK:   -5.22 KCAL/MOL
REMARK 922        TOTAL FREE ENERGY PREDICTED BY IDOCK:   -4.76 KCAL/MOL
REMARK 923 INTER-LIGAND FREE ENERGY PREDICTED BY IDOCK:   -5.50 KCAL/MOL
REMARK 924 INTRA-LIGAND FREE ENERGY PREDICTED BY IDOCK:    0.74 KCAL/MOL
REMARK 927      BINDING AFFINITY PREDICTED BY RF-SCORE:    0.00 PKD
ROOT
HETATM    1  C   UNL     1     -11.741  11.990  68.199  1.00  0.00    -0.398 C  
HETATM    2  C   UNL     1     -11.414  11.490  69.489  1.00  0.00    -0.378 C  
HETATM    3  C   UNL     1     -10.466  12.495  68.938  1.00  0.00    -0.109 C  
HETATM    4  C   UNL     1     -11.016  13.418  67.176  1.00  0.00    -0.292 C  
HETATM    5  C   UNL     1     -12.511  13.376  66.442  1.00  0.00    -0.297 C  
HETATM    6  C   UNL     1      -8.458  10.791  64.709  1.00  0.00    -0.038 C  
HETATM    7  C   UNL     1     -11.172  13.822  68.474  1.00  0.00    -0.304 C  
HETATM    8  C   UNL     1      -9.302  14.153  68.340  1.00  0.00    -0.208 C  
HETATM    9  C   UNL     1     -12.136  14.698  69.234  1.00  0.00    -0.307 C  
HETATM   10  C   UNL     1      -8.219  10.421  66.187  1.00  0.00    -0.144 C  
HETATM   11  C   UNL     1      -6.686  10.609  66.501  1.00  0.00    -0.116 C  
HETATM   12  C   UNL     1      -8.536  12.965  67.258  1.00  0.00    -0.205 C  
HETATM   13  C   UNL     1      -9.043  11.358  67.154  1.00  0.00    -0.164 C  
HETATM   14  C   UNL     1     -10.667  11.087  67.020  1.00  0.00    -0.319 C  
HETATM   15  C   UNL     1     -10.948   9.615  67.063  1.00  0.00    -0.020 C  
HETATM   16  C   UNL     1     -10.052   8.646  66.809  1.00  0.00    -0.366 C  
HETATM   17  C   UNL     1      -8.671   8.936  66.374  1.00  0.00    -0.148 C  
HETATM   18  C   UNL     1     -10.487   7.206  66.982  1.00  0.00    -0.392 C  
HETATM   19  C   UNL     1      -7.824   7.928  66.086  1.00  0.00    -0.094 C  
HETATM   20  C   UNL     1      -6.434   8.253  65.725  1.00  0.00    -0.052 C  
HETATM   21  O   UNL     1      -5.823   7.584  64.901  1.00  0.00    -0.037 OA 
HETATM   22  C   UNL     1      -5.819   9.356  66.525  1.00  0.00    -0.058 C  
ENDROOT
BRANCH   4  23
HETATM   23  C   UNL     1     -10.687  14.887  66.469  1.00  0.00    -0.309 C  
HETATM   24  O   UNL     1     -10.770  15.978  67.044  1.00  0.00    -0.319 OA 
HETATM   25  C   UNL     1     -10.434  14.921  64.976  1.00  0.00    -0.429 C  
ENDBRANCH   4  23
TORSDOF 1
ENDMDL
MODEL       34
REMARK 921   NORMALIZED FREE ENERGY PREDICTED BY IDOCK:   -5.14 KCAL/MOL
REMARK 922        TOTAL FREE ENERGY PREDICTED BY IDOCK:   -4.67 KCAL/MOL
REMARK 923 INTER-LIGAND FREE ENERGY PREDICTED BY IDOCK:   -5.51 KCAL/MOL
REMARK 924 INTRA-LIGAND FREE ENERGY PREDICTED BY IDOCK:    0.83 KCAL/MOL
REMARK 927      BINDING AFFINITY PREDICTED BY RF-SCORE:    0.00 PKD
ROOT
HETATM    1  C   UNL     1     -10.730   5.958  70.436  1.00  0.00    -0.373 C  
HETATM    2  C   UNL     1      -9.457   5.346  70.600  1.00  0.00    -0.215 C  
HETATM    3  C   UNL     1      -9.534   6.773  71.012  1.00  0.00    -0.165 C  
HETATM    4  C   UNL     1     -11.407   7.638  71.009  1.00  0.00    -0.289 C  
HETATM    5  C   UNL     1     -12.874   6.860  70.866  1.00  0.00    -0.134 C  
HETATM    6  C   UNL     1     -10.769   9.600  67.101  1.00  0.00    -0.258 C  
HETATM    7  C   UNL     1     -10.700   7.062  72.028  1.00  0.00    -0.243 C  
HETATM    8  C   UNL     1      -9.694   8.675  71.917  1.00  0.00    -0.383 C  
HETATM    9  C   UNL     1     -11.029   6.355  73.319  1.00  0.00    -0.218 C  
HETATM   10  C   UNL     1      -9.455   8.889  67.486  1.00  0.00    -0.172 C  
HETATM   11  C   UNL     1      -8.306   9.965  67.536  1.00  0.00    -0.114 C  
HETATM   12  C   UNL     1      -9.632   9.253  70.235  1.00  0.00    -0.276 C  
HETATM   13  C   UNL     1      -9.565   8.212  68.908  1.00  0.00    -0.153 C  
HETATM   14  C   UNL     1     -10.621   6.941  68.893  1.00  0.00    -0.244 C  
HETATM   15  C   UNL     1     -10.344   6.055  67.716  1.00  0.00    -0.254 C  
HETATM   16  C   UNL     1      -9.671   6.421  66.610  1.00  0.00    -0.197 C  
HETATM   17  C   UNL     1      -9.182   7.798  66.398  1.00  0.00    -0.229 C  
HETATM   18  C   UNL     1      -9.410   5.371  65.552  1.00  0.00    -0.055 C  
HETATM   19  C   UNL     1      -8.553   8.127  65.252  1.00  0.00    -0.132 C  
HETATM   20  C   UNL     1      -8.015   9.489  65.106  1.00  0.00    -0.117 C  
HETATM   21  O   UNL     1      -8.018  10.055  64.020  1.00  0.00    -0.143 OA 
HETATM   22  C   UNL     1      -7.372  10.046  66.335  1.00  0.00    -0.104 C  
ENDROOT
BRANCH   4  23
HETATM   23  C   UNL     1     -12.126   8.884  71.843  1.00  0.00    -0.373 C  
HETATM   24  O   UNL     1     -12.481   8.825  73.026  1.00  0.00    -0.190 OA 
HETATM   25  C   UNL     1     -12.534  10.120  71.070  1.00  0.00    -0.474 C  
ENDBRANCH   4  23
TORSDOF 1
ENDMDL
MODEL       35
REMARK 921   NORMALIZED FREE ENERGY PREDICTED BY IDOCK:   -5.13 KCAL/MOL
REMARK 922        TOTAL FREE ENERGY PREDICTED BY IDOCK:   -4.67 KCAL/MOL
REMARK 923 INTER-LIGAND FREE ENERGY PREDICTED BY IDOCK:   -5.41 KCAL/MOL
REMARK 924 INTRA-LIGAND FREE ENERGY PREDICTED BY IDOCK:    0.75 KCAL/MOL
REMARK 927      BINDING AFFINITY PREDICTED BY RF-SCORE:    0.00 PKD
ROOT
HETATM    1  C   UNL     1      -9.127   8.319  66.687  1.00  0.00    -0.204 C  
HETATM    2  C   UNL     1     -10.231   7.486  66.355  1.00  0.00    -0.022 C  
HETATM    3  C   UNL     1     -10.583   8.787  66.983  1.00  0.00    -0.283 C  
HETATM    4  C   UNL     1      -9.038  10.124  67.273  1.00  0.00    -0.151 C  
HETATM    5  C   UNL     1      -7.498  10.034  66.642  1.00  0.00    -0.104 C  
HETATM    6  C   UNL     1      -8.588   9.065  71.540  1.00  0.00    -0.111 C  
HETATM    7  C   UNL     1      -9.941  10.023  66.250  1.00  0.00    -0.310 C  
HETATM    8  C   UNL     1     -11.128  10.748  67.550  1.00  0.00    -0.374 C  
HETATM    9  C   UNL     1      -9.971  10.375  64.784  1.00  0.00    -0.409 C  
HETATM   10  C   UNL     1      -9.788   8.271  70.986  1.00  0.00    -0.225 C  
HETATM   11  C   UNL     1     -11.062   8.645  71.834  1.00  0.00    -0.416 C  
HETATM   12  C   UNL     1     -10.689  10.179  69.178  1.00  0.00    -0.254 C  
HETATM   13  C   UNL     1     -10.072   8.637  69.476  1.00  0.00    -0.203 C  
HETATM   14  C   UNL     1      -8.859   8.106  68.488  1.00  0.00    -0.134 C  
HETATM   15  C   UNL     1      -8.516   6.683  68.811  1.00  0.00    -0.123 C  
HETATM   16  C   UNL     1      -8.802   6.059  69.968  1.00  0.00    -0.139 C  
HETATM   17  C   UNL     1      -9.436   6.751  71.107  1.00  0.00    -0.164 C  
HETATM   18  C   UNL     1      -8.457   4.591  70.092  1.00  0.00    -0.092 C  
HETATM   19  C   UNL     1      -9.660   6.094  72.262  1.00  0.00    -0.162 C  
HETATM   20  C   UNL     1     -10.360   6.795  73.352  1.00  0.00    -0.294 C  
HETATM   21  O   UNL     1     -10.074   6.584  74.523  1.00  0.00    -0.344 OA 
HETATM   22  C   UNL     1     -11.497   7.660  72.913  1.00  0.00    -0.342 C  
ENDROOT
BRANCH   4  23
HETATM   23  C   UNL     1      -8.922  11.780  67.373  1.00  0.00    -0.173 C  
HETATM   24  O   UNL     1      -9.444  12.571  66.578  1.00  0.00    -0.232 OA 
HETATM   25  C   UNL     1      -7.979  12.370  68.400  1.00  0.00    -0.149 C  
ENDBRANCH   4  23
TORSDOF 1
ENDMDL
MODEL       36
REMARK 921   NORMALIZED FREE ENERGY PREDICTED BY IDOCK:   -5.07 KCAL/MOL
REMARK 922        TOTAL FREE ENERGY PREDICTED BY IDOCK:   -4.60 KCAL/MOL
REMARK 923 INTER-LIGAND FREE ENERGY PREDICTED BY IDOCK:   -5.33 KCAL/MOL
REMARK 924 INTRA-LIGAND FREE ENERGY PREDICTED BY IDOCK:    0.73 KCAL/MOL
REMARK 927      BINDING AFFINITY PREDICTED BY RF-SCORE:    0.00 PKD
ROOT
HETATM    1  C   UNL     1      -8.758  15.344  67.736  1.00  0.00    -0.167 C  
HETATM    2  C   UNL     1      -8.482  15.605  66.365  1.00  0.00    -0.271 C  
HETATM    3  C   UNL     1      -9.830  15.043  66.647  1.00  0.00    -0.266 C  
HETATM    4  C   UNL     1     -10.362  14.861  68.633  1.00  0.00    -0.237 C  
HETATM    5  C   UNL     1      -9.579  15.520  69.948  1.00  0.00    -0.112 C  
HETATM    6  C   UNL     1      -9.385  10.553  68.760  1.00  0.00    -0.181 C  
HETATM    7  C   UNL     1     -10.627  15.857  67.733  1.00  0.00    -0.302 C  
HETATM    8  C   UNL     1     -11.852  14.574  67.041  1.00  0.00    -0.408 C  
HETATM    9  C   UNL     1     -10.897  17.339  67.796  1.00  0.00    -0.261 C  
HETATM   10  C   UNL     1      -9.179  11.036  67.309  1.00  0.00    -0.156 C  
HETATM   11  C   UNL     1     -10.108  10.182  66.367  1.00  0.00    -0.300 C  
HETATM   12  C   UNL     1     -11.214  12.927  67.258  1.00  0.00    -0.329 C  
HETATM   13  C   UNL     1      -9.571  12.557  67.149  1.00  0.00    -0.208 C  
HETATM   14  C   UNL     1      -8.521  13.541  67.963  1.00  0.00    -0.176 C  
HETATM   15  C   UNL     1      -7.107  13.147  67.661  1.00  0.00    -0.162 C  
HETATM   16  C   UNL     1      -6.720  11.951  67.182  1.00  0.00    -0.142 C  
HETATM   17  C   UNL     1      -7.665  10.839  66.965  1.00  0.00    -0.121 C  
HETATM   18  C   UNL     1      -5.255  11.753  66.853  1.00  0.00    -0.108 C  
HETATM   19  C   UNL     1      -7.221   9.644  66.527  1.00  0.00    -0.090 C  
HETATM   20  C   UNL     1      -8.201   8.580  66.253  1.00  0.00    -0.109 C  
HETATM   21  O   UNL     1      -7.933   7.405  66.469  1.00  0.00    -0.105 OA 
HETATM   22  C   UNL     1      -9.460   9.041  65.592  1.00  0.00    -0.273 C  
ENDROOT
BRANCH   4  23
HETATM   23  C   UNL     1     -11.801  14.855  69.467  1.00  0.00    -0.325 C  
HETATM   24  O   UNL     1     -12.593  15.804  69.508  1.00  0.00    -0.104 OA 
HETATM   25  C   UNL     1     -12.094  13.682  70.378  1.00  0.00    -0.421 C  
ENDBRANCH   4  23
TORSDOF 1
ENDMDL
MODEL       37
REMARK 921   NORMALIZED FREE ENERGY PREDICTED BY IDOCK:   -5.01 KCAL/MOL
REMARK 922        TOTAL FREE ENERGY PREDICTED BY IDOCK:   -4.53 KCAL/MOL
REMARK 923 INTER-LIGAND FREE ENERGY PREDICTED BY IDOCK:   -5.28 KCAL/MOL
REMARK 924 INTRA-LIGAND FREE ENERGY PREDICTED BY IDOCK:    0.75 KCAL/MOL
REMARK 927      BINDING AFFINITY PREDICTED BY RF-SCORE:    0.00 PKD
ROOT
HETATM    1  C   UNL     1      -7.244  11.238  67.892  1.00  0.00    -0.086 C  
HETATM    2  C   UNL     1      -7.141  11.312  69.309  1.00  0.00    -0.112 C  
HETATM    3  C   UNL     1      -8.506  11.039  68.783  1.00  0.00    -0.144 C  
HETATM    4  C   UNL     1      -8.666  10.695  66.755  1.00  0.00    -0.133 C  
HETATM    5  C   UNL     1      -7.423  10.415  65.681  1.00  0.00    -0.149 C  
HETATM    6  C   UNL     1     -10.001  14.822  65.907  1.00  0.00    -0.351 C  
HETATM    7  C   UNL     1      -8.556   9.815  67.796  1.00  0.00    -0.125 C  
HETATM    8  C   UNL     1     -10.368  10.318  68.094  1.00  0.00    -0.208 C  
HETATM    9  C   UNL     1      -8.021   8.419  67.991  1.00  0.00    -0.119 C  
HETATM   10  C   UNL     1      -9.859  14.682  67.437  1.00  0.00    -0.222 C  
HETATM   11  C   UNL     1     -11.253  15.009  68.094  1.00  0.00    -0.316 C  
HETATM   12  C   UNL     1     -10.624  12.018  67.634  1.00  0.00    -0.239 C  
HETATM   13  C   UNL     1      -9.450  13.213  67.843  1.00  0.00    -0.218 C  
HETATM   14  C   UNL     1      -7.914  12.854  67.350  1.00  0.00    -0.178 C  
HETATM   15  C   UNL     1      -6.982  13.969  67.719  1.00  0.00    -0.188 C  
HETATM   16  C   UNL     1      -7.352  15.231  67.997  1.00  0.00    -0.133 C  
HETATM   17  C   UNL     1      -8.752  15.688  67.894  1.00  0.00    -0.166 C  
HETATM   18  C   UNL     1      -6.283  16.210  68.434  1.00  0.00    -0.113 C  
HETATM   19  C   UNL     1      -9.066  16.976  68.140  1.00  0.00    -0.237 C  
HETATM   20  C   UNL     1     -10.482  17.379  68.098  1.00  0.00    -0.389 C  
HETATM   21  O   UNL     1     -10.810  18.486  67.691  1.00  0.00    -0.412 OA 
HETATM   22  C   UNL     1     -11.433  16.396  68.699  1.00  0.00    -0.224 C  
ENDROOT
BRANCH   4  23
HETATM   23  C   UNL     1      -9.720   9.847  65.788  1.00  0.00    -0.266 C  
HETATM   24  O   UNL     1     -10.103   8.692  66.009  1.00  0.00    -0.189 OA 
HETATM   25  C   UNL     1     -10.113  10.451  64.457  1.00  0.00    -0.365 C  
ENDBRANCH   4  23
TORSDOF 1
ENDMDL
MODEL       38
REMARK 921   NORMALIZED FREE ENERGY PREDICTED BY IDOCK:   -4.96 KCAL/MOL
REMARK 922        TOTAL FREE ENERGY PREDICTED BY IDOCK:   -4.49 KCAL/MOL
REMARK 923 INTER-LIGAND FREE ENERGY PREDICTED BY IDOCK:   -5.21 KCAL/MOL
REMARK 924 INTRA-LIGAND FREE ENERGY PREDICTED BY IDOCK:    0.72 KCAL/MOL
REMARK 927      BINDING AFFINITY PREDICTED BY RF-SCORE:    0.00 PKD
ROOT
HETATM    1  C   UNL     1      -8.615   8.425  65.317  1.00  0.00    -0.177 C  
HETATM    2  C   UNL     1      -7.576   9.013  64.544  1.00  0.00    -0.108 C  
HETATM    3  C   UNL     1      -7.387   9.078  66.018  1.00  0.00    -0.094 C  
HETATM    4  C   UNL     1      -8.747   8.041  67.173  1.00  0.00    -0.134 C  
HETATM    5  C   UNL     1      -9.863   6.920  66.650  1.00  0.00    -0.217 C  
HETATM    6  C   UNL     1     -11.108  11.662  68.091  1.00  0.00    -0.298 C  
HETATM    7  C   UNL     1      -7.509   7.675  66.721  1.00  0.00    -0.093 C  
HETATM    8  C   UNL     1      -6.926   8.885  68.070  1.00  0.00    -0.078 C  
HETATM    9  C   UNL     1      -6.810   6.383  66.382  1.00  0.00    -0.061 C  
HETATM   10  C   UNL     1      -9.882  12.101  67.264  1.00  0.00    -0.202 C  
HETATM   11  C   UNL     1      -9.066  13.151  68.109  1.00  0.00    -0.200 C  
HETATM   12  C   UNL     1      -8.084  10.225  68.247  1.00  0.00    -0.107 C  
HETATM   13  C   UNL     1      -8.937  10.878  66.944  1.00  0.00    -0.158 C  
HETATM   14  C   UNL     1      -9.656   9.814  65.904  1.00  0.00    -0.313 C  
HETATM   15  C   UNL     1     -10.259  10.553  64.748  1.00  0.00    -0.373 C  
HETATM   16  C   UNL     1     -10.572  11.861  64.741  1.00  0.00    -0.346 C  
HETATM   17  C   UNL     1     -10.418  12.720  65.931  1.00  0.00    -0.295 C  
HETATM   18  C   UNL     1     -11.098  12.463  63.455  1.00  0.00    -0.521 C  
HETATM   19  C   UNL     1     -10.789  14.016  65.887  1.00  0.00    -0.288 C  
HETATM   20  C   UNL     1     -10.555  14.860  67.070  1.00  0.00    -0.289 C  
HETATM   21  O   UNL     1     -11.339  15.749  67.376  1.00  0.00    -0.243 OA 
HETATM   22  C   UNL     1      -9.251  14.624  67.762  1.00  0.00    -0.196 C  
ENDROOT
BRANCH   4  23
HETATM   23  C   UNL     1      -8.710   7.332  68.677  1.00  0.00    -0.127 C  
HETATM   24  O   UNL     1      -7.911   6.452  69.020  1.00  0.00    -0.107 OA 
HETATM   25  C   UNL     1      -9.828   7.652  69.646  1.00  0.00    -0.181 C  
ENDBRANCH   4  23
TORSDOF 1
ENDMDL
MODEL       39
REMARK 921   NORMALIZED FREE ENERGY PREDICTED BY IDOCK:   -4.91 KCAL/MOL
REMARK 922        TOTAL FREE ENERGY PREDICTED BY IDOCK:   -4.43 KCAL/MOL
REMARK 923 INTER-LIGAND FREE ENERGY PREDICTED BY IDOCK:   -5.18 KCAL/MOL
REMARK 924 INTRA-LIGAND FREE ENERGY PREDICTED BY IDOCK:    0.75 KCAL/MOL
REMARK 927      BINDING AFFINITY PREDICTED BY RF-SCORE:    0.00 PKD
ROOT
HETATM    1  C   UNL     1      -7.985  14.199  68.505  1.00  0.00    -0.145 C  
HETATM    2  C   UNL     1      -6.970  13.553  67.746  1.00  0.00    -0.164 C  
HETATM    3  C   UNL     1      -7.537  14.783  67.131  1.00  0.00    -0.114 C  
HETATM    4  C   UNL     1      -8.844  15.881  68.292  1.00  0.00    -0.179 C  
HETATM    5  C   UNL     1      -9.128  15.708  69.924  1.00  0.00     0.123 C  
HETATM    6  C   UNL     1     -12.416  14.177  66.324  1.00  0.00    -0.395 C  
HETATM    7  C   UNL     1      -7.499  16.030  68.091  1.00  0.00    -0.132 C  
HETATM    8  C   UNL     1      -8.071  16.691  66.400  1.00  0.00    -0.359 C  
HETATM    9  C   UNL     1      -6.336  16.589  68.871  1.00  0.00    -0.157 C  
HETATM   10  C   UNL     1     -11.173  13.612  65.606  1.00  0.00    -0.305 C  
HETATM   11  C   UNL     1     -11.262  14.002  64.082  1.00  0.00    -0.114 C  
HETATM   12  C   UNL     1      -9.547  15.849  65.870  1.00  0.00    -0.378 C  
HETATM   13  C   UNL     1      -9.842  14.220  66.198  1.00  0.00    -0.335 C  
HETATM   14  C   UNL     1      -9.576  13.702  67.744  1.00  0.00    -0.224 C  
HETATM   15  C   UNL     1      -9.767  12.218  67.831  1.00  0.00    -0.202 C  
HETATM   16  C   UNL     1     -10.456  11.471  66.950  1.00  0.00    -0.270 C  
HETATM   17  C   UNL     1     -11.185  12.061  65.809  1.00  0.00    -0.383 C  
HETATM   18  C   UNL     1     -10.476   9.970  67.146  1.00  0.00    -0.305 C  
HETATM   19  C   UNL     1     -11.900  11.274  64.980  1.00  0.00     0.515 C  
HETATM   20  C   UNL     1     -12.554  11.887  63.812  1.00  0.00    -0.396 C  
HETATM   21  O   UNL     1     -13.636  11.479  63.409  1.00  0.00    -0.146 OA 
HETATM   22  C   UNL     1     -11.742  12.929  63.112  1.00  0.00    -0.210 C  
ENDROOT
BRANCH   4  23
HETATM   23  C   UNL     1      -9.290  17.481  68.362  1.00  0.00    -0.287 C  
HETATM   24  O   UNL     1      -8.535  18.408  68.681  1.00  0.00    -0.326 OA 
HETATM   25  C   UNL     1     -10.755  17.824  68.193  1.00  0.00    -0.293 C  
ENDBRANCH   4  23
TORSDOF 1
ENDMDL
MODEL       40
REMARK 921   NORMALIZED FREE ENERGY PREDICTED BY IDOCK:   -4.89 KCAL/MOL
REMARK 922        TOTAL FREE ENERGY PREDICTED BY IDOCK:   -4.41 KCAL/MOL
REMARK 923 INTER-LIGAND FREE ENERGY PREDICTED BY IDOCK:   -5.14 KCAL/MOL
REMARK 924 INTRA-LIGAND FREE ENERGY PREDICTED BY IDOCK:    0.73 KCAL/MOL
REMARK 927      BINDING AFFINITY PREDICTED BY RF-SCORE:    0.00 PKD
ROOT
HETATM    1  C   UNL     1      -9.503   7.106  67.377  1.00  0.00    -0.156 C  
HETATM    2  C   UNL     1     -10.790   6.643  66.985  1.00  0.00    -0.467 C  
HETATM    3  C   UNL     1     -10.784   7.663  68.068  1.00  0.00    -0.152 C  
HETATM    4  C   UNL     1      -8.965   8.531  68.512  1.00  0.00    -0.139 C  
HETATM    5  C   UNL     1      -7.558   8.430  67.625  1.00  0.00    -0.098 C  
HETATM    6  C   UNL     1      -8.294   5.925  72.018  1.00  0.00    -0.115 C  
HETATM    7  C   UNL     1      -9.974   8.959  67.693  1.00  0.00    -0.248 C  
HETATM    8  C   UNL     1     -10.829   9.340  69.351  1.00  0.00    -0.184 C  
HETATM    9  C   UNL     1     -10.086   9.823  66.463  1.00  0.00    -0.307 C  
HETATM   10  C   UNL     1      -9.690   5.595  71.451  1.00  0.00    -0.204 C  
HETATM   11  C   UNL     1     -10.754   5.833  72.588  1.00  0.00    -0.280 C  
HETATM   12  C   UNL     1     -10.349   8.151  70.586  1.00  0.00    -0.214 C  
HETATM   13  C   UNL     1     -10.050   6.529  70.230  1.00  0.00    -0.208 C  
HETATM   14  C   UNL     1      -9.093   6.208  68.922  1.00  0.00    -0.123 C  
HETATM   15  C   UNL     1      -9.032   4.730  68.678  1.00  0.00    -0.136 C  
HETATM   16  C   UNL     1      -9.318   3.781  69.588  1.00  0.00    -0.245 C  
HETATM   17  C   UNL     1      -9.662   4.101  70.987  1.00  0.00    -0.260 C  
HETATM   18  C   UNL     1      -9.286   2.334  69.145  1.00  0.00    -0.194 C  
HETATM   19  C   UNL     1      -9.896   3.112  71.873  1.00  0.00    -0.238 C  
HETATM   20  C   UNL     1     -10.306   3.469  73.241  1.00  0.00    -0.164 C  
HETATM   21  O   UNL     1      -9.947   2.800  74.202  1.00  0.00    -0.097 OA 
HETATM   22  C   UNL     1     -11.271   4.607  73.330  1.00  0.00    -0.423 C  
ENDROOT
BRANCH   4  23
HETATM   23  C   UNL     1      -8.486   9.993  69.144  1.00  0.00    -0.156 C  
HETATM   24  O   UNL     1      -8.870  11.095  68.736  1.00  0.00    -0.162 OA 
HETATM   25  C   UNL     1      -7.376   9.997  70.174  1.00  0.00    -0.171 C  
ENDBRANCH   4  23
TORSDOF 1
ENDMDL
MODEL       41
REMARK 921   NORMALIZED FREE ENERGY PREDICTED BY IDOCK:   -4.86 KCAL/MOL
REMARK 922        TOTAL FREE ENERGY PREDICTED BY IDOCK:   -4.38 KCAL/MOL
REMARK 923 INTER-LIGAND FREE ENERGY PREDICTED BY IDOCK:   -5.10 KCAL/MOL
REMARK 924 INTRA-LIGAND FREE ENERGY PREDICTED BY IDOCK:    0.72 KCAL/MOL
REMARK 927      BINDING AFFINITY PREDICTED BY RF-SCORE:    0.00 PKD
ROOT
HETATM    1  C   UNL     1     -11.099   9.043  70.961  1.00  0.00    -0.356 C  
HETATM    2  C   UNL     1     -12.487   8.844  70.726  1.00  0.00     0.031 C  
HETATM    3  C   UNL     1     -11.575   8.063  69.848  1.00  0.00     0.258 C  
HETATM    4  C   UNL     1      -9.563   8.141  70.300  1.00  0.00    -0.171 C  
HETATM    5  C   UNL     1      -8.866   8.749  71.686  1.00  0.00    -0.278 C  
HETATM    6  C   UNL     1      -8.726  11.159  67.182  1.00  0.00    -0.141 C  
HETATM    7  C   UNL     1     -10.514   7.222  70.650  1.00  0.00    -0.226 C  
HETATM    8  C   UNL     1     -10.328   6.696  68.830  1.00  0.00    -0.214 C  
HETATM    9  C   UNL     1     -10.733   6.262  71.792  1.00  0.00    -0.279 C  
HETATM   10  C   UNL     1     -10.215  10.773  67.070  1.00  0.00    -0.261 C  
HETATM   11  C   UNL     1     -10.475  10.223  65.617  1.00  0.00    -0.152 C  
HETATM   12  C   UNL     1      -9.960   8.107  67.810  1.00  0.00    -0.230 C  
HETATM   13  C   UNL     1     -10.595   9.643  68.105  1.00  0.00    -0.273 C  
HETATM   14  C   UNL     1     -10.528  10.200  69.659  1.00  0.00    -0.282 C  
HETATM   15  C   UNL     1     -11.240  11.515  69.766  1.00  0.00    -0.237 C  
HETATM   16  C   UNL     1     -11.508  12.338  68.737  1.00  0.00    -0.360 C  
HETATM   17  C   UNL     1     -11.052  12.062  67.360  1.00  0.00    -0.337 C  
HETATM   18  C   UNL     1     -12.312  13.591  69.014  1.00  0.00    -0.049 C  
HETATM   19  C   UNL     1     -11.307  12.942  66.371  1.00  0.00    -0.361 C  
HETATM   20  C   UNL     1     -10.900  12.600  64.998  1.00  0.00    -0.290 C  
HETATM   21  O   UNL     1     -10.512  13.464  64.221  1.00  0.00    -0.429 OA 
HETATM   22  C   UNL     1     -11.120  11.172  64.614  1.00  0.00    -0.154 C  
ENDROOT
BRANCH   4  23
HETATM   23  C   UNL     1      -8.268   7.123  70.071  1.00  0.00    -0.136 C  
HETATM   24  O   UNL     1      -8.210   5.958  70.479  1.00  0.00    -0.114 OA 
HETATM   25  C   UNL     1      -7.003   7.699  69.472  1.00  0.00    -0.056 C  
ENDBRANCH   4  23
TORSDOF 1
ENDMDL
MODEL       42
REMARK 921   NORMALIZED FREE ENERGY PREDICTED BY IDOCK:   -4.85 KCAL/MOL
REMARK 922        TOTAL FREE ENERGY PREDICTED BY IDOCK:   -4.37 KCAL/MOL
REMARK 923 INTER-LIGAND FREE ENERGY PREDICTED BY IDOCK:   -5.09 KCAL/MOL
REMARK 924 INTRA-LIGAND FREE ENERGY PREDICTED BY IDOCK:    0.72 KCAL/MOL
REMARK 927      BINDING AFFINITY PREDICTED BY RF-SCORE:    0.00 PKD
ROOT
HETATM    1  C   UNL     1     -10.188  12.371  65.451  1.00  0.00    -0.302 C  
HETATM    2  C   UNL     1     -10.910  11.236  64.991  1.00  0.00    -0.285 C  
HETATM    3  C   UNL     1     -11.260  11.699  66.360  1.00  0.00    -0.349 C  
HETATM    4  C   UNL     1     -10.409  13.473  66.983  1.00  0.00    -0.252 C  
HETATM    5  C   UNL     1      -9.598  14.585  66.043  1.00  0.00    -0.305 C  
HETATM    6  C   UNL     1      -7.256  11.432  69.313  1.00  0.00    -0.075 C  
HETATM    7  C   UNL     1     -11.631  13.227  66.421  1.00  0.00    -0.387 C  
HETATM    8  C   UNL     1     -12.015  12.528  68.150  1.00  0.00    -0.274 C  
HETATM    9  C   UNL     1     -12.618  13.996  65.579  1.00  0.00    -0.543 C  
HETATM   10  C   UNL     1      -8.191  10.346  68.741  1.00  0.00    -0.128 C  
HETATM   11  C   UNL     1      -8.777   9.516  69.944  1.00  0.00    -0.224 C  
HETATM   12  C   UNL     1     -10.557  11.798  68.862  1.00  0.00    -0.211 C  
HETATM   13  C   UNL     1      -9.395  10.986  67.946  1.00  0.00    -0.160 C  
HETATM   14  C   UNL     1      -8.880  11.722  66.559  1.00  0.00    -0.183 C  
HETATM   15  C   UNL     1      -7.949  10.817  65.810  1.00  0.00    -0.122 C  
HETATM   16  C   UNL     1      -7.281   9.779  66.343  1.00  0.00    -0.095 C  
HETATM   17  C   UNL     1      -7.335   9.454  67.782  1.00  0.00    -0.083 C  
HETATM   18  C   UNL     1      -6.446   8.916  65.421  1.00  0.00    -0.067 C  
HETATM   19  C   UNL     1      -6.610   8.431  68.276  1.00  0.00    -0.060 C  
HETATM   20  C   UNL     1      -6.745   8.091  69.703  1.00  0.00    -0.038 C  
HETATM   21  O   UNL     1      -5.786   7.686  70.348  1.00  0.00    -0.026 OA 
HETATM   22  C   UNL     1      -8.139   8.162  70.236  1.00  0.00    -0.109 C  
ENDROOT
BRANCH   4  23
HETATM   23  C   UNL     1     -10.837  14.665  68.060  1.00  0.00    -0.257 C  
HETATM   24  O   UNL     1     -11.890  15.312  68.011  1.00  0.00    -0.314 OA 
HETATM   25  C   UNL     1      -9.806  15.117  69.073  1.00  0.00    -0.238 C  
ENDBRANCH   4  23
TORSDOF 1
ENDMDL
MODEL       43
REMARK 921   NORMALIZED FREE ENERGY PREDICTED BY IDOCK:   -4.82 KCAL/MOL
REMARK 922        TOTAL FREE ENERGY PREDICTED BY IDOCK:   -4.34 KCAL/MOL
REMARK 923 INTER-LIGAND FREE ENERGY PREDICTED BY IDOCK:   -5.32 KCAL/MOL
REMARK 924 INTRA-LIGAND FREE ENERGY PREDICTED BY IDOCK:    0.98 KCAL/MOL
REMARK 927      BINDING AFFINITY PREDICTED BY RF-SCORE:    0.00 PKD
ROOT
HETATM    1  C   UNL     1      -7.815   7.645  71.042  1.00  0.00    -0.090 C  
HETATM    2  C   UNL     1      -7.123   8.856  71.324  1.00  0.00    -0.103 C  
HETATM    3  C   UNL     1      -8.605   8.932  71.423  1.00  0.00    -0.238 C  
HETATM    4  C   UNL     1      -9.639   7.155  71.249  1.00  0.00    -0.163 C  
HETATM    5  C   UNL     1      -9.004   5.614  71.286  1.00  0.00    -0.149 C  
HETATM    6  C   UNL     1     -10.656   7.871  67.009  1.00  0.00    -0.381 C  
HETATM    7  C   UNL     1      -9.221   7.830  72.363  1.00  0.00    -0.218 C  
HETATM    8  C   UNL     1     -10.661   8.988  71.903  1.00  0.00    -0.401 C  
HETATM    9  C   UNL     1      -8.840   7.471  73.777  1.00  0.00    -0.283 C  
HETATM   10  C   UNL     1      -9.910   9.118  67.527  1.00  0.00    -0.227 C  
HETATM   11  C   UNL     1     -10.848  10.369  67.338  1.00  0.00    -0.344 C  
HETATM   12  C   UNL     1     -10.862   9.058  70.137  1.00  0.00    -0.261 C  
HETATM   13  C   UNL     1      -9.563   8.983  69.061  1.00  0.00    -0.160 C  
HETATM   14  C   UNL     1      -8.434   7.806  69.325  1.00  0.00    -0.138 C  
HETATM   15  C   UNL     1      -7.296   7.960  68.361  1.00  0.00    -0.101 C  
HETATM   16  C   UNL     1      -7.349   8.633  67.198  1.00  0.00    -0.088 C  
HETATM   17  C   UNL     1      -8.592   9.250  66.695  1.00  0.00    -0.135 C  
HETATM   18  C   UNL     1      -6.078   8.758  66.385  1.00  0.00    -0.060 C  
HETATM   19  C   UNL     1      -8.605   9.875  65.500  1.00  0.00    -0.157 C  
HETATM   20  C   UNL     1      -9.844  10.541  65.063  1.00  0.00    -0.306 C  
HETATM   21  O   UNL     1     -10.165  10.563  63.882  1.00  0.00    -0.303 OA 
HETATM   22  C   UNL     1     -10.578  11.272  66.141  1.00  0.00    -0.312 C  
ENDROOT
BRANCH   4  23
HETATM   23  C   UNL     1     -11.100   6.587  71.804  1.00  0.00    -0.257 C  
HETATM   24  O   UNL     1     -11.288   6.115  72.932  1.00  0.00    -0.242 OA 
HETATM   25  C   UNL     1     -12.245   6.478  70.820  1.00  0.00    -0.200 C  
ENDBRANCH   4  23
TORSDOF 1
ENDMDL
MODEL       44
REMARK 921   NORMALIZED FREE ENERGY PREDICTED BY IDOCK:   -4.78 KCAL/MOL
REMARK 922        TOTAL FREE ENERGY PREDICTED BY IDOCK:   -4.30 KCAL/MOL
REMARK 923 INTER-LIGAND FREE ENERGY PREDICTED BY IDOCK:   -5.04 KCAL/MOL
REMARK 924 INTRA-LIGAND FREE ENERGY PREDICTED BY IDOCK:    0.74 KCAL/MOL
REMARK 927      BINDING AFFINITY PREDICTED BY RF-SCORE:    0.00 PKD
ROOT
HETATM    1  C   UNL     1      -8.417  11.892  67.216  1.00  0.00    -0.172 C  
HETATM    2  C   UNL     1      -8.192  11.040  66.100  1.00  0.00    -0.155 C  
HETATM    3  C   UNL     1      -9.613  11.179  66.517  1.00  0.00    -0.222 C  
HETATM    4  C   UNL     1     -10.017  12.576  67.980  1.00  0.00    -0.219 C  
HETATM    5  C   UNL     1      -8.991  13.757  68.555  1.00  0.00    -0.120 C  
HETATM    6  C   UNL     1     -10.174   9.540  71.188  1.00  0.00    -0.300 C  
HETATM    7  C   UNL     1     -10.086  12.676  66.618  1.00  0.00    -0.248 C  
HETATM    8  C   UNL     1     -11.649  11.618  66.862  1.00  0.00    -0.246 C  
HETATM    9  C   UNL     1      -9.960  13.780  65.598  1.00  0.00    -0.275 C  
HETATM   10  C   UNL     1      -9.964   8.798  69.852  1.00  0.00    -0.193 C  
HETATM   11  C   UNL     1     -11.152   7.782  69.659  1.00  0.00    -0.052 C  
HETATM   12  C   UNL     1     -11.442  10.512  68.242  1.00  0.00    -0.272 C  
HETATM   13  C   UNL     1      -9.963   9.800  68.632  1.00  0.00    -0.181 C  
HETATM   14  C   UNL     1      -8.636  10.784  68.660  1.00  0.00    -0.151 C  
HETATM   15  C   UNL     1      -7.398   9.973  68.901  1.00  0.00    -0.080 C  
HETATM   16  C   UNL     1      -7.370   8.742  69.442  1.00  0.00    -0.072 C  
HETATM   17  C   UNL     1      -8.584   8.066  69.940  1.00  0.00    -0.135 C  
HETATM   18  C   UNL     1      -6.036   8.033  69.535  1.00  0.00    -0.033 C  
HETATM   19  C   UNL     1      -8.497   6.851  70.516  1.00  0.00    -0.137 C  
HETATM   20  C   UNL     1      -9.737   6.176  70.936  1.00  0.00    -0.177 C  
HETATM   21  O   UNL     1      -9.764   5.474  71.939  1.00  0.00    -0.158 OA 
HETATM   22  C   UNL     1     -10.882   6.318  69.986  1.00  0.00    -0.387 C  
ENDROOT
BRANCH   4  23
HETATM   23  C   UNL     1     -11.339  13.497  68.390  1.00  0.00    -0.292 C  
HETATM   24  O   UNL     1     -11.844  14.363  67.666  1.00  0.00    -0.369 OA 
HETATM   25  C   UNL     1     -11.867  13.401  69.806  1.00  0.00    -0.393 C  
ENDBRANCH   4  23
TORSDOF 1
ENDMDL
MODEL       45
REMARK 921   NORMALIZED FREE ENERGY PREDICTED BY IDOCK:   -4.76 KCAL/MOL
REMARK 922        TOTAL FREE ENERGY PREDICTED BY IDOCK:   -4.27 KCAL/MOL
REMARK 923 INTER-LIGAND FREE ENERGY PREDICTED BY IDOCK:   -5.08 KCAL/MOL
REMARK 924 INTRA-LIGAND FREE ENERGY PREDICTED BY IDOCK:    0.81 KCAL/MOL
REMARK 927      BINDING AFFINITY PREDICTED BY RF-SCORE:    0.00 PKD
ROOT
HETATM    1  C   UNL     1      -9.035  10.487  67.764  1.00  0.00    -0.132 C  
HETATM    2  C   UNL     1      -8.329  11.147  68.807  1.00  0.00    -0.136 C  
HETATM    3  C   UNL     1      -7.758   9.841  68.381  1.00  0.00    -0.081 C  
HETATM    4  C   UNL     1      -8.609   8.957  66.722  1.00  0.00    -0.122 C  
HETATM    5  C   UNL     1      -9.671   9.653  65.643  1.00  0.00    -0.363 C  
HETATM    6  C   UNL     1     -11.082   6.210  69.146  1.00  0.00    -0.448 C  
HETATM    7  C   UNL     1      -7.503   9.754  66.830  1.00  0.00    -0.091 C  
HETATM    8  C   UNL     1      -6.739   8.177  67.574  1.00  0.00    -0.062 C  
HETATM    9  C   UNL     1      -6.761  10.715  65.937  1.00  0.00    -0.116 C  
HETATM   10  C   UNL     1     -10.193   7.016  70.115  1.00  0.00    -0.206 C  
HETATM   11  C   UNL     1      -9.322   6.001  70.947  1.00  0.00    -0.175 C  
HETATM   12  C   UNL     1      -7.969   7.250  68.465  1.00  0.00    -0.124 C  
HETATM   13  C   UNL     1      -9.219   7.982  69.333  1.00  0.00    -0.152 C  
HETATM   14  C   UNL     1     -10.049   9.197  68.580  1.00  0.00    -0.212 C  
HETATM   15  C   UNL     1     -11.033   9.813  69.528  1.00  0.00    -0.256 C  
HETATM   16  C   UNL     1     -11.502   9.231  70.646  1.00  0.00    -0.327 C  
HETATM   17  C   UNL     1     -11.145   7.852  71.033  1.00  0.00    -0.268 C  
HETATM   18  C   UNL     1     -12.429  10.033  71.534  1.00  0.00    -0.516 C  
HETATM   19  C   UNL     1     -11.678   7.297  72.140  1.00  0.00    -0.323 C  
HETATM   20  C   UNL     1     -11.244   5.946  72.534  1.00  0.00    -0.294 C  
HETATM   21  O   UNL     1     -12.025   5.160  73.054  1.00  0.00    -0.231 OA 
HETATM   22  C   UNL     1      -9.783   5.682  72.364  1.00  0.00    -0.177 C  
ENDROOT
BRANCH   4  23
HETATM   23  C   UNL     1      -8.076   7.905  65.549  1.00  0.00    -0.130 C  
HETATM   24  O   UNL     1      -7.285   8.201  64.647  1.00  0.00    -0.077 OA 
HETATM   25  C   UNL     1      -8.722   6.538  65.467  1.00  0.00    -0.063 C  
ENDBRANCH   4  23
TORSDOF 1
ENDMDL
MODEL       46
REMARK 921   NORMALIZED FREE ENERGY PREDICTED BY IDOCK:   -4.73 KCAL/MOL
REMARK 922        TOTAL FREE ENERGY PREDICTED BY IDOCK:   -4.24 KCAL/MOL
REMARK 923 INTER-LIGAND FREE ENERGY PREDICTED BY IDOCK:   -4.97 KCAL/MOL
REMARK 924 INTRA-LIGAND FREE ENERGY PREDICTED BY IDOCK:    0.73 KCAL/MOL
REMARK 927      BINDING AFFINITY PREDICTED BY RF-SCORE:    0.00 PKD
ROOT
HETATM    1  C   UNL     1      -7.435  10.094  67.453  1.00  0.00    -0.094 C  
HETATM    2  C   UNL     1      -6.712   8.897  67.195  1.00  0.00    -0.066 C  
HETATM    3  C   UNL     1      -8.164   8.842  66.882  1.00  0.00    -0.112 C  
HETATM    4  C   UNL     1      -9.210  10.616  67.021  1.00  0.00    -0.167 C  
HETATM    5  C   UNL     1      -8.575  12.149  67.174  1.00  0.00    -0.185 C  
HETATM    6  C   UNL     1     -10.822   9.642  71.019  1.00  0.00    -0.412 C  
HETATM    7  C   UNL     1      -8.639  10.008  65.937  1.00  0.00    -0.150 C  
HETATM    8  C   UNL     1     -10.131   8.839  66.112  1.00  0.00    -0.154 C  
HETATM    9  C   UNL     1      -8.060  10.452  64.618  1.00  0.00    -0.122 C  
HETATM   10  C   UNL     1     -10.011   8.423  70.533  1.00  0.00    -0.205 C  
HETATM   11  C   UNL     1     -10.968   7.172  70.506  1.00  0.00    -0.287 C  
HETATM   12  C   UNL     1     -10.582   8.658  67.824  1.00  0.00    -0.249 C  
HETATM   13  C   UNL     1      -9.449   8.651  69.075  1.00  0.00    -0.153 C  
HETATM   14  C   UNL     1      -8.292   9.831  69.051  1.00  0.00    -0.127 C  
HETATM   15  C   UNL     1      -7.303   9.605  70.155  1.00  0.00    -0.141 C  
HETATM   16  C   UNL     1      -7.523   8.859  71.253  1.00  0.00    -0.127 C  
HETATM   17  C   UNL     1      -8.825   8.224  71.534  1.00  0.00    -0.216 C  
HETATM   18  C   UNL     1      -6.380   8.670  72.228  1.00  0.00    -0.074 C  
HETATM   19  C   UNL     1      -9.009   7.525  72.672  1.00  0.00    -0.188 C  
HETATM   20  C   UNL     1     -10.298   6.845  72.885  1.00  0.00    -0.226 C  
HETATM   21  O   UNL     1     -10.784   6.751  74.005  1.00  0.00    -0.272 OA 
HETATM   22  C   UNL     1     -10.872   6.192  71.669  1.00  0.00    -0.308 C  
ENDROOT
BRANCH   4  23
HETATM   23  C   UNL     1     -10.577  11.232  66.302  1.00  0.00    -0.263 C  
HETATM   24  O   UNL     1     -10.784  11.246  65.083  1.00  0.00    -0.288 OA 
HETATM   25  C   UNL     1     -11.566  11.981  67.169  1.00  0.00    -0.387 C  
ENDBRANCH   4  23
TORSDOF 1
ENDMDL
MODEL       47
REMARK 921   NORMALIZED FREE ENERGY PREDICTED BY IDOCK:   -4.68 KCAL/MOL
REMARK 922        TOTAL FREE ENERGY PREDICTED BY IDOCK:   -4.19 KCAL/MOL
REMARK 923 INTER-LIGAND FREE ENERGY PREDICTED BY IDOCK:   -4.91 KCAL/MOL
REMARK 924 INTRA-LIGAND FREE ENERGY PREDICTED BY IDOCK:    0.72 KCAL/MOL
REMARK 927      BINDING AFFINITY PREDICTED BY RF-SCORE:    0.00 PKD
ROOT
HETATM    1  C   UNL     1     -10.906  11.250  68.075  1.00  0.00    -0.266 C  
HETATM    2  C   UNL     1     -11.646  11.625  66.921  1.00  0.00    -0.246 C  
HETATM    3  C   UNL     1     -10.188  11.428  66.705  1.00  0.00    -0.258 C  
HETATM    4  C   UNL     1      -9.112  10.663  68.290  1.00  0.00    -0.153 C  
HETATM    5  C   UNL     1      -9.721   9.984  69.685  1.00  0.00    -0.255 C  
HETATM    6  C   UNL     1      -7.611  14.636  69.514  1.00  0.00    -0.042 C  
HETATM    7  C   UNL     1      -9.670  10.032  67.212  1.00  0.00    -0.206 C  
HETATM    8  C   UNL     1      -8.205  10.829  66.295  1.00  0.00    -0.162 C  
HETATM    9  C   UNL     1     -10.209   8.656  66.914  1.00  0.00    -0.367 C  
HETATM   10  C   UNL     1      -8.434  14.825  68.223  1.00  0.00    -0.151 C  
HETATM   11  C   UNL     1      -7.501  15.475  67.133  1.00  0.00    -0.244 C  
HETATM   12  C   UNL     1      -7.797  12.402  67.023  1.00  0.00    -0.086 C  
HETATM   13  C   UNL     1      -8.958  13.443  67.668  1.00  0.00    -0.202 C  
HETATM   14  C   UNL     1     -10.091  12.779  68.671  1.00  0.00    -0.132 C  
HETATM   15  C   UNL     1     -11.109  13.811  69.053  1.00  0.00    -0.296 C  
HETATM   16  C   UNL     1     -10.929  15.142  68.981  1.00  0.00    -0.245 C  
HETATM   17  C   UNL     1      -9.646  15.749  68.576  1.00  0.00    -0.204 C  
HETATM   18  C   UNL     1     -12.097  16.041  69.328  1.00  0.00    -0.088 C  
HETATM   19  C   UNL     1      -9.502  17.089  68.564  1.00  0.00    -0.269 C  
HETATM   20  C   UNL     1      -8.232  17.661  68.086  1.00  0.00    -0.257 C  
HETATM   21  O   UNL     1      -7.773  18.682  68.582  1.00  0.00    -0.306 OA 
HETATM   22  C   UNL     1      -7.643  16.974  66.896  1.00  0.00    -0.244 C  
ENDROOT
BRANCH   4  23
HETATM   23  C   UNL     1      -7.717   9.770  68.440  1.00  0.00    -0.081 C  
HETATM   24  O   UNL     1      -7.532   8.663  67.920  1.00  0.00    -0.094 OA 
HETATM   25  C   UNL     1      -6.660  10.251  69.411  1.00  0.00    -0.058 C  
ENDBRANCH   4  23
TORSDOF 1
ENDMDL
MODEL       48
REMARK 921   NORMALIZED FREE ENERGY PREDICTED BY IDOCK:   -4.64 KCAL/MOL
REMARK 922        TOTAL FREE ENERGY PREDICTED BY IDOCK:   -4.15 KCAL/MOL
REMARK 923 INTER-LIGAND FREE ENERGY PREDICTED BY IDOCK:   -4.87 KCAL/MOL
REMARK 924 INTRA-LIGAND FREE ENERGY PREDICTED BY IDOCK:    0.72 KCAL/MOL
REMARK 927      BINDING AFFINITY PREDICTED BY RF-SCORE:    0.00 PKD
ROOT
HETATM    1  C   UNL     1      -7.999   7.300  66.233  1.00  0.00    -0.110 C  
HETATM    2  C   UNL     1      -7.071   8.315  66.595  1.00  0.00    -0.077 C  
HETATM    3  C   UNL     1      -7.049   7.098  67.451  1.00  0.00    -0.084 C  
HETATM    4  C   UNL     1      -8.211   5.509  66.831  1.00  0.00    -0.105 C  
HETATM    5  C   UNL     1      -8.953   5.322  65.351  1.00  0.00    -0.147 C  
HETATM    6  C   UNL     1     -11.483   6.484  69.637  1.00  0.00    -0.417 C  
HETATM    7  C   UNL     1      -6.882   5.766  66.629  1.00  0.00    -0.059 C  
HETATM    8  C   UNL     1      -6.756   5.267  68.462  1.00  0.00    -0.054 C  
HETATM    9  C   UNL     1      -5.852   5.421  65.584  1.00  0.00    -0.021 C  
HETATM   10  C   UNL     1     -10.332   7.477  69.899  1.00  0.00    -0.224 C  
HETATM   11  C   UNL     1      -9.892   7.337  71.405  1.00  0.00    -0.191 C  
HETATM   12  C   UNL     1      -8.225   5.753  69.341  1.00  0.00    -0.108 C  
HETATM   13  C   UNL     1      -9.083   7.163  68.985  1.00  0.00    -0.132 C  
HETATM   14  C   UNL     1      -9.407   7.467  67.394  1.00  0.00    -0.154 C  
HETATM   15  C   UNL     1     -10.062   8.807  67.248  1.00  0.00    -0.301 C  
HETATM   16  C   UNL     1     -10.690   9.475  68.232  1.00  0.00    -0.241 C  
HETATM   17  C   UNL     1     -10.874   8.910  69.583  1.00  0.00    -0.186 C  
HETATM   18  C   UNL     1     -11.223  10.859  67.929  1.00  0.00    -0.387 C  
HETATM   19  C   UNL     1     -11.552   9.600  70.522  1.00  0.00    -0.341 C  
HETATM   20  C   UNL     1     -11.654   9.037  71.879  1.00  0.00    -0.370 C  
HETATM   21  O   UNL     1     -12.662   9.198  72.555  1.00  0.00    -0.367 OA 
HETATM   22  C   UNL     1     -10.406   8.386  72.384  1.00  0.00    -0.399 C  
ENDROOT
BRANCH   4  23
HETATM   23  C   UNL     1      -8.144   3.859  67.029  1.00  0.00    -0.096 C  
HETATM   24  O   UNL     1      -7.184   3.151  66.703  1.00  0.00    -0.060 OA 
HETATM   25  C   UNL     1      -9.398   3.141  67.479  1.00  0.00    -0.241 C  
ENDBRANCH   4  23
TORSDOF 1
ENDMDL
MODEL       49
REMARK 921   NORMALIZED FREE ENERGY PREDICTED BY IDOCK:   -4.64 KCAL/MOL
REMARK 922        TOTAL FREE ENERGY PREDICTED BY IDOCK:   -4.15 KCAL/MOL
REMARK 923 INTER-LIGAND FREE ENERGY PREDICTED BY IDOCK:   -4.88 KCAL/MOL
REMARK 924 INTRA-LIGAND FREE ENERGY PREDICTED BY IDOCK:    0.73 KCAL/MOL
REMARK 927      BINDING AFFINITY PREDICTED BY RF-SCORE:    0.00 PKD
ROOT
HETATM    1  C   UNL     1     -11.199  14.547  66.179  1.00  0.00    -0.339 C  
HETATM    2  C   UNL     1     -12.505  14.020  65.985  1.00  0.00    -0.489 C  
HETATM    3  C   UNL     1     -11.877  13.697  67.294  1.00  0.00    -0.429 C  
HETATM    4  C   UNL     1     -10.083  14.625  67.715  1.00  0.00    -0.228 C  
HETATM    5  C   UNL     1      -9.391  15.897  66.891  1.00  0.00    -0.244 C  
HETATM    6  C   UNL     1      -7.696  11.086  66.568  1.00  0.00    -0.154 C  
HETATM    7  C   UNL     1     -11.361  14.968  68.064  1.00  0.00    -0.339 C  
HETATM    8  C   UNL     1     -11.162  13.510  69.273  1.00  0.00    -0.285 C  
HETATM    9  C   UNL     1     -12.096  16.243  68.388  1.00  0.00     0.531 C  
HETATM   10  C   UNL     1      -9.186  10.702  66.455  1.00  0.00    -0.190 C  
HETATM   11  C   UNL     1      -9.450   9.468  67.398  1.00  0.00    -0.164 C  
HETATM   12  C   UNL     1     -10.126  12.250  68.562  1.00  0.00    -0.192 C  
HETATM   13  C   UNL     1     -10.122  11.888  66.913  1.00  0.00    -0.229 C  
HETATM   14  C   UNL     1     -10.044  13.160  65.862  1.00  0.00    -0.292 C  
HETATM   15  C   UNL     1     -10.173  12.671  64.451  1.00  0.00    -0.344 C  
HETATM   16  C   UNL     1      -9.949  11.409  64.043  1.00  0.00    -0.341 C  
HETATM   17  C   UNL     1      -9.464  10.355  64.955  1.00  0.00    -0.308 C  
HETATM   18  C   UNL     1     -10.210  11.071  62.591  1.00  0.00     0.101 C  
HETATM   19  C   UNL     1      -9.210   9.116  64.488  1.00  0.00     0.038 C  
HETATM   20  C   UNL     1      -8.797   8.071  65.439  1.00  0.00    -0.014 C  
HETATM   21  O   UNL     1      -7.995   7.205  65.115  1.00  0.00    -0.117 OA 
HETATM   22  C   UNL     1      -9.520   8.092  66.747  1.00  0.00    -0.259 C  
ENDROOT
BRANCH   4  23
HETATM   23  C   UNL     1      -9.289  15.068  69.108  1.00  0.00    -0.189 C  
HETATM   24  O   UNL     1      -9.802  15.703  70.037  1.00  0.00    -0.268 OA 
HETATM   25  C   UNL     1      -7.795  14.835  69.185  1.00  0.00    -0.141 C  
ENDBRANCH   4  23
TORSDOF 1
ENDMDL
MODEL       50
REMARK 921   NORMALIZED FREE ENERGY PREDICTED BY IDOCK:   -4.61 KCAL/MOL
REMARK 922        TOTAL FREE ENERGY PREDICTED BY IDOCK:   -4.11 KCAL/MOL
REMARK 923 INTER-LIGAND FREE ENERGY PREDICTED BY IDOCK:   -4.83 KCAL/MOL
REMARK 924 INTRA-LIGAND FREE ENERGY PREDICTED BY IDOCK:    0.72 KCAL/MOL
REMARK 927      BINDING AFFINITY PREDICTED BY RF-SCORE:    0.00 PKD
ROOT
HETATM    1  C   UNL     1      -8.210  11.092  66.257  1.00  0.00    -0.164 C  
HETATM    2  C   UNL     1      -7.562  12.083  67.044  1.00  0.00    -0.111 C  
HETATM    3  C   UNL     1      -7.023  10.704  67.189  1.00  0.00    -0.088 C  
HETATM    4  C   UNL     1      -7.774   9.277  65.902  1.00  0.00    -0.098 C  
HETATM    5  C   UNL     1      -8.705   9.536  64.544  1.00  0.00    -0.232 C  
HETATM    6  C   UNL     1     -10.577   7.671  68.918  1.00  0.00    -0.176 C  
HETATM    7  C   UNL     1      -6.643  10.041  65.814  1.00  0.00    -0.101 C  
HETATM    8  C   UNL     1      -6.024   8.844  67.160  1.00  0.00    -0.057 C  
HETATM    9  C   UNL     1      -5.781  10.588  64.705  1.00  0.00    -0.104 C  
HETATM   10  C   UNL     1      -9.734   8.767  69.601  1.00  0.00    -0.173 C  
HETATM   11  C   UNL     1      -8.988   8.123  70.830  1.00  0.00    -0.163 C  
HETATM   12  C   UNL     1      -7.370   8.336  68.206  1.00  0.00    -0.095 C  
HETATM   13  C   UNL     1      -8.651   9.356  68.615  1.00  0.00    -0.123 C  
HETATM   14  C   UNL     1      -9.352  10.214  67.390  1.00  0.00    -0.167 C  
HETATM   15  C   UNL     1     -10.381  11.154  67.942  1.00  0.00    -0.211 C  
HETATM   16  C   UNL     1     -10.971  11.039  69.145  1.00  0.00    -0.289 C  
HETATM   17  C   UNL     1     -10.717   9.899  70.048  1.00  0.00    -0.338 C  
HETATM   18  C   UNL     1     -11.929  12.128  69.578  1.00  0.00    -0.338 C  
HETATM   19  C   UNL     1     -11.369   9.805  71.224  1.00  0.00    -0.445 C  
HETATM   20  C   UNL     1     -11.038   8.693  72.130  1.00  0.00    -0.364 C  
HETATM   21  O   UNL     1     -11.898   8.168  72.826  1.00  0.00    -0.389 OA 
HETATM   22  C   UNL     1      -9.582   8.362  72.213  1.00  0.00    -0.374 C  
ENDROOT
BRANCH   4  23
HETATM   23  C   UNL     1      -7.197   7.856  65.260  1.00  0.00    -0.061 C  
HETATM   24  O   UNL     1      -6.149   7.752  64.610  1.00  0.00    -0.041 OA 
HETATM   25  C   UNL     1      -8.084   6.631  65.320  1.00  0.00    -0.130 C  
ENDBRANCH   4  23
TORSDOF 1
ENDMDL
MODEL       51
REMARK 921   NORMALIZED FREE ENERGY PREDICTED BY IDOCK:   -4.55 KCAL/MOL
REMARK 922        TOTAL FREE ENERGY PREDICTED BY IDOCK:   -4.06 KCAL/MOL
REMARK 923 INTER-LIGAND FREE ENERGY PREDICTED BY IDOCK:   -4.78 KCAL/MOL
REMARK 924 INTRA-LIGAND FREE ENERGY PREDICTED BY IDOCK:    0.73 KCAL/MOL
REMARK 927      BINDING AFFINITY PREDICTED BY RF-SCORE:    0.00 PKD
ROOT
HETATM    1  C   UNL     1      -9.062   7.179  66.792  1.00  0.00    -0.169 C  
HETATM    2  C   UNL     1     -10.241   6.544  66.316  1.00  0.00     0.082 C  
HETATM    3  C   UNL     1     -10.459   7.811  67.065  1.00  0.00    -0.419 C  
HETATM    4  C   UNL     1      -8.774   8.886  67.577  1.00  0.00    -0.124 C  
HETATM    5  C   UNL     1      -7.222   8.651  67.017  1.00  0.00    -0.076 C  
HETATM    6  C   UNL     1      -8.741   7.342  71.718  1.00  0.00    -0.123 C  
HETATM    7  C   UNL     1      -9.615   9.015  66.506  1.00  0.00    -0.286 C  
HETATM    8  C   UNL     1     -10.777   9.759  67.817  1.00  0.00    -0.329 C  
HETATM    9  C   UNL     1      -9.504   9.516  65.088  1.00  0.00    -0.305 C  
HETATM   10  C   UNL     1      -9.997   6.781  71.021  1.00  0.00    -0.196 C  
HETATM   11  C   UNL     1     -11.262   7.238  71.841  1.00  0.00    -0.281 C  
HETATM   12  C   UNL     1     -10.522   8.971  69.393  1.00  0.00    -0.229 C  
HETATM   13  C   UNL     1     -10.133   7.336  69.549  1.00  0.00    -0.182 C  
HETATM   14  C   UNL     1      -8.939   6.748  68.569  1.00  0.00    -0.121 C  
HETATM   15  C   UNL     1      -8.808   5.266  68.750  1.00  0.00    -0.104 C  
HETATM   16  C   UNL     1      -9.246   4.572  69.815  1.00  0.00    -0.191 C  
HETATM   17  C   UNL     1      -9.856   5.224  70.991  1.00  0.00    -0.254 C  
HETATM   18  C   UNL     1      -9.106   3.065  69.793  1.00  0.00    -0.200 C  
HETATM   19  C   UNL     1     -10.238   4.488  72.054  1.00  0.00    -0.251 C  
HETATM   20  C   UNL     1     -10.908   5.163  73.178  1.00  0.00    -0.287 C  
HETATM   21  O   UNL     1     -10.728   4.795  74.332  1.00  0.00    -0.312 OA 
HETATM   22  C   UNL     1     -11.891   6.217  72.782  1.00  0.00    -0.034 C  
ENDROOT
BRANCH   4  23
HETATM   23  C   UNL     1      -8.448  10.491  67.865  1.00  0.00    -0.119 C  
HETATM   24  O   UNL     1      -8.595  11.398  67.038  1.00  0.00    -0.145 OA 
HETATM   25  C   UNL     1      -7.766  10.860  69.166  1.00  0.00    -0.127 C  
ENDBRANCH   4  23
TORSDOF 1
ENDMDL
MODEL       52
REMARK 921   NORMALIZED FREE ENERGY PREDICTED BY IDOCK:   -4.55 KCAL/MOL
REMARK 922        TOTAL FREE ENERGY PREDICTED BY IDOCK:   -4.05 KCAL/MOL
REMARK 923 INTER-LIGAND FREE ENERGY PREDICTED BY IDOCK:   -4.79 KCAL/MOL
REMARK 924 INTRA-LIGAND FREE ENERGY PREDICTED BY IDOCK:    0.74 KCAL/MOL
REMARK 927      BINDING AFFINITY PREDICTED BY RF-SCORE:    0.00 PKD
ROOT
HETATM    1  C   UNL     1     -11.024  10.281  68.107  1.00  0.00    -0.328 C  
HETATM    2  C   UNL     1     -11.594  11.278  68.945  1.00  0.00    -0.386 C  
HETATM    3  C   UNL     1     -10.108  11.203  68.966  1.00  0.00    -0.173 C  
HETATM    4  C   UNL     1      -9.226   9.932  67.600  1.00  0.00    -0.146 C  
HETATM    5  C   UNL     1      -9.955   9.191  66.299  1.00  0.00    -0.352 C  
HETATM    6  C   UNL     1      -8.662   6.717  70.580  1.00  0.00    -0.147 C  
HETATM    7  C   UNL     1      -9.464  11.278  67.532  1.00  0.00    -0.177 C  
HETATM    8  C   UNL     1      -8.012  11.351  68.761  1.00  0.00    -0.122 C  
HETATM    9  C   UNL     1      -9.701  12.288  66.439  1.00  0.00    -0.243 C  
HETATM   10  C   UNL     1      -9.256   7.936  71.315  1.00  0.00    -0.170 C  
HETATM   11  C   UNL     1      -8.263   8.351  72.465  1.00  0.00    -0.198 C  
HETATM   12  C   UNL     1      -8.013   9.914  69.812  1.00  0.00    -0.181 C  
HETATM   13  C   UNL     1      -9.431   9.166  70.340  1.00  0.00    -0.269 C  
HETATM   14  C   UNL     1     -10.599   8.879  69.208  1.00  0.00    -0.219 C  
HETATM   15  C   UNL     1     -11.828   8.327  69.865  1.00  0.00     0.566 C  
HETATM   16  C   UNL     1     -11.865   7.741  71.075  1.00  0.00    -0.290 C  
HETATM   17  C   UNL     1     -10.650   7.504  71.879  1.00  0.00    -0.245 C  
HETATM   18  C   UNL     1     -13.210   7.315  71.622  1.00  0.00    -0.421 C  
HETATM   19  C   UNL     1     -10.733   6.871  73.066  1.00  0.00    -0.328 C  
HETATM   20  C   UNL     1      -9.512   6.716  73.874  1.00  0.00    -0.189 C  
HETATM   21  O   UNL     1      -9.330   5.717  74.557  1.00  0.00    -0.126 OA 
HETATM   22  C   UNL     1      -8.609   7.908  73.882  1.00  0.00    -0.332 C  
ENDROOT
BRANCH   4  23
HETATM   23  C   UNL     1      -7.752   9.876  66.833  1.00  0.00    -0.098 C  
HETATM   24  O   UNL     1      -7.345  10.722  66.027  1.00  0.00    -0.142 OA 
HETATM   25  C   UNL     1      -6.911   8.626  66.990  1.00  0.00    -0.074 C  
ENDBRANCH   4  23
TORSDOF 1
ENDMDL
MODEL       53
REMARK 921   NORMALIZED FREE ENERGY PREDICTED BY IDOCK:   -4.51 KCAL/MOL
REMARK 922        TOTAL FREE ENERGY PREDICTED BY IDOCK:   -4.01 KCAL/MOL
REMARK 923 INTER-LIGAND FREE ENERGY PREDICTED BY IDOCK:   -4.74 KCAL/MOL
REMARK 924 INTRA-LIGAND FREE ENERGY PREDICTED BY IDOCK:    0.73 KCAL/MOL
REMARK 927      BINDING AFFINITY PREDICTED BY RF-SCORE:    0.00 PKD
ROOT
HETATM    1  C   UNL     1      -9.380  17.820  67.048  1.00  0.00    -0.259 C  
HETATM    2  C   UNL     1     -10.467  17.521  67.914  1.00  0.00    -0.384 C  
HETATM    3  C   UNL     1      -9.297  18.171  68.563  1.00  0.00    -0.321 C  
HETATM    4  C   UNL     1      -7.793  18.831  67.314  1.00  0.00    -0.243 C  
HETATM    5  C   UNL     1      -7.852  18.971  65.655  1.00  0.00     0.161 C  
HETATM    6  C   UNL     1      -5.267  15.283  68.070  1.00  0.00    -0.130 C  
HETATM    7  C   UNL     1      -8.855  19.504  67.853  1.00  0.00    -0.372 C  
HETATM    8  C   UNL     1      -7.811  19.389  69.441  1.00  0.00    -0.057 C  
HETATM    9  C   UNL     1      -9.694  20.698  67.474  1.00  0.00    -0.509 C  
HETATM   10  C   UNL     1      -6.518  15.166  68.965  1.00  0.00    -0.106 C  
HETATM   11  C   UNL     1      -6.045  15.074  70.465  1.00  0.00    -0.081 C  
HETATM   12  C   UNL     1      -6.873  17.876  69.460  1.00  0.00    -0.039 C  
HETATM   13  C   UNL     1      -7.453  16.428  68.815  1.00  0.00    -0.207 C  
HETATM   14  C   UNL     1      -8.143  16.494  67.315  1.00  0.00    -0.193 C  
HETATM   15  C   UNL     1      -8.710  15.156  66.950  1.00  0.00    -0.289 C  
HETATM   16  C   UNL     1      -8.357  13.984  67.509  1.00  0.00    -0.200 C  
HETATM   17  C   UNL     1      -7.288  13.879  68.521  1.00  0.00    -0.116 C  
HETATM   18  C   UNL     1      -9.095  12.735  67.077  1.00  0.00    -0.220 C  
HETATM   19  C   UNL     1      -6.939  12.675  69.017  1.00  0.00    -0.062 C  
HETATM   20  C   UNL     1      -5.919  12.615  70.077  1.00  0.00    -0.145 C  
HETATM   21  O   UNL     1      -5.128  11.682  70.139  1.00  0.00    -0.068 OA 
HETATM   22  C   UNL     1      -6.020  13.693  71.108  1.00  0.00    -0.043 C  
ENDROOT
BRANCH   4  23
HETATM   23  C   UNL     1      -6.641  20.027  67.395  1.00  0.00    -0.213 C  
HETATM   24  O   UNL     1      -6.888  21.237  67.469  1.00  0.00    -0.485 OA 
HETATM   25  C   UNL     1      -5.191  19.639  67.194  1.00  0.00    -0.161 C  
ENDBRANCH   4  23
TORSDOF 1
ENDMDL
MODEL       54
REMARK 921   NORMALIZED FREE ENERGY PREDICTED BY IDOCK:   -4.50 KCAL/MOL
REMARK 922        TOTAL FREE ENERGY PREDICTED BY IDOCK:   -4.00 KCAL/MOL
REMARK 923 INTER-LIGAND FREE ENERGY PREDICTED BY IDOCK:   -4.76 KCAL/MOL
REMARK 924 INTRA-LIGAND FREE ENERGY PREDICTED BY IDOCK:    0.75 KCAL/MOL
REMARK 927      BINDING AFFINITY PREDICTED BY RF-SCORE:    0.00 PKD
ROOT
HETATM    1  C   UNL     1      -6.656  10.032  66.714  1.00  0.00    -0.072 C  
HETATM    2  C   UNL     1      -6.687   9.543  68.050  1.00  0.00    -0.063 C  
HETATM    3  C   UNL     1      -7.885   9.224  67.227  1.00  0.00    -0.099 C  
HETATM    4  C   UNL     1      -7.789   9.710  65.224  1.00  0.00    -0.115 C  
HETATM    5  C   UNL     1      -6.437  10.163  64.362  1.00  0.00    -0.122 C  
HETATM    6  C   UNL     1     -10.105  13.436  65.761  1.00  0.00    -0.297 C  
HETATM    7  C   UNL     1      -7.530   8.527  65.861  1.00  0.00    -0.077 C  
HETATM    8  C   UNL     1      -9.428   8.467  66.001  1.00  0.00    -0.256 C  
HETATM    9  C   UNL     1      -6.660   7.322  65.610  1.00  0.00    -0.048 C  
HETATM   10  C   UNL     1     -10.050  12.719  67.126  1.00  0.00    -0.234 C  
HETATM   11  C   UNL     1     -11.527  12.444  67.599  1.00  0.00    -0.399 C  
HETATM   12  C   UNL     1     -10.091  10.109  66.173  1.00  0.00    -0.314 C  
HETATM   13  C   UNL     1      -9.297  11.336  67.019  1.00  0.00    -0.183 C  
HETATM   14  C   UNL     1      -7.688  11.546  66.707  1.00  0.00    -0.136 C  
HETATM   15  C   UNL     1      -7.117  12.584  67.626  1.00  0.00    -0.139 C  
HETATM   16  C   UNL     1      -7.831  13.513  68.286  1.00  0.00    -0.145 C  
HETATM   17  C   UNL     1      -9.290  13.662  68.116  1.00  0.00    -0.212 C  
HETATM   18  C   UNL     1      -7.099  14.432  69.240  1.00  0.00    -0.124 C  
HETATM   19  C   UNL     1      -9.954  14.639  68.766  1.00  0.00    -0.235 C  
HETATM   20  C   UNL     1     -11.418  14.713  68.628  1.00  0.00    -0.300 C  
HETATM   21  O   UNL     1     -11.997  15.792  68.614  1.00  0.00    -0.344 OA 
HETATM   22  C   UNL     1     -12.117  13.391  68.638  1.00  0.00    -0.281 C  
ENDROOT
BRANCH   4  23
HETATM   23  C   UNL     1      -8.501   9.125  63.840  1.00  0.00    -0.180 C  
HETATM   24  O   UNL     1      -8.302   8.000  63.368  1.00  0.00    -0.086 OA 
HETATM   25  C   UNL     1      -9.318  10.082  62.997  1.00  0.00    -0.297 C  
ENDBRANCH   4  23
TORSDOF 1
ENDMDL
MODEL       55
REMARK 921   NORMALIZED FREE ENERGY PREDICTED BY IDOCK:   -4.48 KCAL/MOL
REMARK 922        TOTAL FREE ENERGY PREDICTED BY IDOCK:   -3.98 KCAL/MOL
REMARK 923 INTER-LIGAND FREE ENERGY PREDICTED BY IDOCK:   -4.76 KCAL/MOL
REMARK 924 INTRA-LIGAND FREE ENERGY PREDICTED BY IDOCK:    0.78 KCAL/MOL
REMARK 927      BINDING AFFINITY PREDICTED BY RF-SCORE:    0.00 PKD
ROOT
HETATM    1  C   UNL     1      -7.537  14.873  68.517  1.00  0.00    -0.121 C  
HETATM    2  C   UNL     1      -6.405  14.804  67.659  1.00  0.00    -0.139 C  
HETATM    3  C   UNL     1      -7.710  15.008  66.975  1.00  0.00    -0.120 C  
HETATM    4  C   UNL     1      -9.348  15.344  68.184  1.00  0.00    -0.197 C  
HETATM    5  C   UNL     1      -9.341  15.686  69.815  1.00  0.00    -0.118 C  
HETATM    6  C   UNL     1     -10.729  11.155  67.902  1.00  0.00    -0.261 C  
HETATM    7  C   UNL     1      -8.524  16.228  67.544  1.00  0.00    -0.183 C  
HETATM    8  C   UNL     1      -9.481  15.634  66.009  1.00  0.00    -0.390 C  
HETATM    9  C   UNL     1      -8.071  17.650  67.763  1.00  0.00    -0.224 C  
HETATM   10  C   UNL     1      -9.493  11.302  66.991  1.00  0.00    -0.186 C  
HETATM   11  C   UNL     1      -9.911  10.905  65.524  1.00  0.00    -0.315 C  
HETATM   12  C   UNL     1      -9.939  13.923  66.186  1.00  0.00    -0.322 C  
HETATM   13  C   UNL     1      -8.966  12.790  66.972  1.00  0.00    -0.221 C  
HETATM   14  C   UNL     1      -8.333  13.225  68.435  1.00  0.00    -0.131 C  
HETATM   15  C   UNL     1      -7.404  12.159  68.932  1.00  0.00    -0.054 C  
HETATM   16  C   UNL     1      -7.398  10.879  68.518  1.00  0.00    -0.098 C  
HETATM   17  C   UNL     1      -8.385  10.353  67.555  1.00  0.00    -0.114 C  
HETATM   18  C   UNL     1      -6.331   9.956  69.066  1.00  0.00    -0.040 C  
HETATM   19  C   UNL     1      -8.366   9.051  67.206  1.00  0.00    -0.111 C  
HETATM   20  C   UNL     1      -9.319   8.576  66.189  1.00  0.00    -0.214 C  
HETATM   21  O   UNL     1      -9.805   7.454  66.254  1.00  0.00    -0.111 OA 
HETATM   22  C   UNL     1      -9.530   9.511  65.041  1.00  0.00    -0.273 C  
ENDROOT
BRANCH   4  23
HETATM   23  C   UNL     1     -10.797  16.138  68.003  1.00  0.00    -0.333 C  
HETATM   24  O   UNL     1     -10.932  17.240  67.458  1.00  0.00    -0.256 OA 
HETATM   25  C   UNL     1     -12.017  15.567  68.694  1.00  0.00    -0.231 C  
ENDBRANCH   4  23
TORSDOF 1
ENDMDL
MODEL       56
REMARK 921   NORMALIZED FREE ENERGY PREDICTED BY IDOCK:   -4.47 KCAL/MOL
REMARK 922        TOTAL FREE ENERGY PREDICTED BY IDOCK:   -3.97 KCAL/MOL
REMARK 923 INTER-LIGAND FREE ENERGY PREDICTED BY IDOCK:   -4.70 KCAL/MOL
REMARK 924 INTRA-LIGAND FREE ENERGY PREDICTED BY IDOCK:    0.72 KCAL/MOL
REMARK 927      BINDING AFFINITY PREDICTED BY RF-SCORE:    0.00 PKD
ROOT
HETATM    1  C   UNL     1     -10.283   9.458  71.083  1.00  0.00    -0.361 C  
HETATM    2  C   UNL     1     -11.176  10.222  70.281  1.00  0.00    -0.395 C  
HETATM    3  C   UNL     1     -11.279   8.747  70.119  1.00  0.00    -0.162 C  
HETATM    4  C   UNL     1     -10.171   7.592  71.422  1.00  0.00    -0.201 C  
HETATM    5  C   UNL     1      -9.392   8.101  72.804  1.00  0.00    -0.344 C  
HETATM    6  C   UNL     1      -6.946   6.917  68.475  1.00  0.00    -0.076 C  
HETATM    7  C   UNL     1     -11.479   7.986  71.482  1.00  0.00    -0.303 C  
HETATM    8  C   UNL     1     -11.684   6.674  70.118  1.00  0.00    -0.412 C  
HETATM    9  C   UNL     1     -12.491   8.243  72.570  1.00  0.00    -0.300 C  
HETATM   10  C   UNL     1      -8.059   7.722  67.773  1.00  0.00    -0.125 C  
HETATM   11  C   UNL     1      -8.551   6.899  66.524  1.00  0.00    -0.129 C  
HETATM   12  C   UNL     1     -10.223   6.597  69.105  1.00  0.00    -0.201 C  
HETATM   13  C   UNL     1      -9.292   7.955  68.732  1.00  0.00    -0.146 C  
HETATM   14  C   UNL     1      -8.906   8.969  69.978  1.00  0.00    -0.181 C  
HETATM   15  C   UNL     1      -8.188  10.177  69.455  1.00  0.00    -0.176 C  
HETATM   16  C   UNL     1      -7.561  10.254  68.268  1.00  0.00    -0.091 C  
HETATM   17  C   UNL     1      -7.444   9.099  67.356  1.00  0.00    -0.084 C  
HETATM   18  C   UNL     1      -6.959  11.582  67.862  1.00  0.00    -0.075 C  
HETATM   19  C   UNL     1      -6.766   9.214  66.197  1.00  0.00    -0.074 C  
HETATM   20  C   UNL     1      -6.731   8.063  65.279  1.00  0.00    -0.055 C  
HETATM   21  O   UNL     1      -5.738   7.824  64.604  1.00  0.00    -0.037 OA 
HETATM   22  C   UNL     1      -8.022   7.318  65.158  1.00  0.00    -0.128 C  
ENDROOT
BRANCH   4  23
HETATM   23  C   UNL     1     -10.317   6.057  72.045  1.00  0.00    -0.202 C  
HETATM   24  O   UNL     1     -11.327   5.622  72.612  1.00  0.00    -0.285 OA 
HETATM   25  C   UNL     1      -9.085   5.179  72.080  1.00  0.00    -0.152 C  
ENDBRANCH   4  23
TORSDOF 1
ENDMDL
MODEL       57
REMARK 921   NORMALIZED FREE ENERGY PREDICTED BY IDOCK:   -4.43 KCAL/MOL
REMARK 922        TOTAL FREE ENERGY PREDICTED BY IDOCK:   -3.93 KCAL/MOL
REMARK 923 INTER-LIGAND FREE ENERGY PREDICTED BY IDOCK:   -4.64 KCAL/MOL
REMARK 924 INTRA-LIGAND FREE ENERGY PREDICTED BY IDOCK:    0.72 KCAL/MOL
REMARK 927      BINDING AFFINITY PREDICTED BY RF-SCORE:    0.00 PKD
ROOT
HETATM    1  C   UNL     1      -7.914   8.321  66.900  1.00  0.00    -0.099 C  
HETATM    2  C   UNL     1      -7.117   9.317  67.528  1.00  0.00    -0.079 C  
HETATM    3  C   UNL     1      -7.055   7.967  68.150  1.00  0.00    -0.089 C  
HETATM    4  C   UNL     1      -8.010   6.439  67.144  1.00  0.00    -0.112 C  
HETATM    5  C   UNL     1      -8.606   6.476  65.589  1.00  0.00    -0.132 C  
HETATM    6  C   UNL     1     -11.581   6.626  69.741  1.00  0.00    -0.354 C  
HETATM    7  C   UNL     1      -6.698   6.828  67.124  1.00  0.00    -0.059 C  
HETATM    8  C   UNL     1      -6.681   6.007  68.842  1.00  0.00    -0.060 C  
HETATM    9  C   UNL     1      -5.557   6.762  66.141  1.00  0.00    -0.025 C  
HETATM   10  C   UNL     1     -10.552   7.636  70.289  1.00  0.00    -0.233 C  
HETATM   11  C   UNL     1     -10.229   7.251  71.782  1.00  0.00    -0.211 C  
HETATM   12  C   UNL     1      -8.257   6.209  69.644  1.00  0.00    -0.116 C  
HETATM   13  C   UNL     1      -9.208   7.592  69.462  1.00  0.00    -0.150 C  
HETATM   14  C   UNL     1      -9.424   8.162  67.926  1.00  0.00    -0.162 C  
HETATM   15  C   UNL     1     -10.184   9.454  67.959  1.00  0.00    -0.248 C  
HETATM   16  C   UNL     1     -10.952   9.877  68.979  1.00  0.00    -0.223 C  
HETATM   17  C   UNL     1     -11.195   9.058  70.182  1.00  0.00    -0.191 C  
HETATM   18  C   UNL     1     -11.582  11.250  68.877  1.00  0.00    -0.386 C  
HETATM   19  C   UNL     1     -12.010   9.508  71.157  1.00  0.00    -0.429 C  
HETATM   20  C   UNL     1     -12.172   8.696  72.375  1.00  0.00    -0.349 C  
HETATM   21  O   UNL     1     -13.245   8.652  72.965  1.00  0.00    -0.239 OA 
HETATM   22  C   UNL     1     -10.917   8.058  72.877  1.00  0.00    -0.398 C  
ENDROOT
BRANCH   4  23
HETATM   23  C   UNL     1      -7.808   4.791  67.049  1.00  0.00    -0.098 C  
HETATM   24  O   UNL     1      -6.757   4.229  66.721  1.00  0.00    -0.048 OA 
HETATM   25  C   UNL     1      -9.030   3.911  67.208  1.00  0.00    -0.151 C  
ENDBRANCH   4  23
TORSDOF 1
ENDMDL
MODEL       58
REMARK 921   NORMALIZED FREE ENERGY PREDICTED BY IDOCK:   -4.39 KCAL/MOL
REMARK 922        TOTAL FREE ENERGY PREDICTED BY IDOCK:   -3.88 KCAL/MOL
REMARK 923 INTER-LIGAND FREE ENERGY PREDICTED BY IDOCK:   -4.60 KCAL/MOL
REMARK 924 INTRA-LIGAND FREE ENERGY PREDICTED BY IDOCK:    0.72 KCAL/MOL
REMARK 927      BINDING AFFINITY PREDICTED BY RF-SCORE:    0.00 PKD
ROOT
HETATM    1  C   UNL     1     -10.554  14.529  66.949  1.00  0.00    -0.279 C  
HETATM    2  C   UNL     1     -11.544  13.984  67.812  1.00  0.00    -0.378 C  
HETATM    3  C   UNL     1     -10.336  14.524  68.491  1.00  0.00    -0.242 C  
HETATM    4  C   UNL     1      -8.978  15.529  67.306  1.00  0.00    -0.216 C  
HETATM    5  C   UNL     1      -9.201  16.047  65.738  1.00  0.00    -0.215 C  
HETATM    6  C   UNL     1      -6.291  12.035  66.985  1.00  0.00    -0.124 C  
HETATM    7  C   UNL     1     -10.003  16.005  68.078  1.00  0.00    -0.229 C  
HETATM    8  C   UNL     1      -8.808  15.579  69.497  1.00  0.00    -0.229 C  
HETATM    9  C   UNL     1     -10.908  17.211  68.064  1.00  0.00    -0.317 C  
HETATM   10  C   UNL     1      -7.446  11.651  67.933  1.00  0.00    -0.105 C  
HETATM   11  C   UNL     1      -6.829  11.239  69.323  1.00  0.00    -0.116 C  
HETATM   12  C   UNL     1      -7.830  14.152  69.079  1.00  0.00    -0.010 C  
HETATM   13  C   UNL     1      -8.427  12.866  68.165  1.00  0.00    -0.176 C  
HETATM   14  C   UNL     1      -9.260  13.242  66.788  1.00  0.00    -0.237 C  
HETATM   15  C   UNL     1      -9.821  11.997  66.170  1.00  0.00    -0.255 C  
HETATM   16  C   UNL     1      -9.383  10.747  66.405  1.00  0.00    -0.198 C  
HETATM   17  C   UNL     1      -8.218  10.464  67.267  1.00  0.00    -0.121 C  
HETATM   18  C   UNL     1     -10.123   9.596  65.758  1.00  0.00    -0.274 C  
HETATM   19  C   UNL     1      -7.789   9.197  67.435  1.00  0.00    -0.099 C  
HETATM   20  C   UNL     1      -6.670   8.945  68.359  1.00  0.00    -0.060 C  
HETATM   21  O   UNL     1      -5.851   8.065  68.130  1.00  0.00    -0.038 OA 
HETATM   22  C   UNL     1      -6.702   9.749  69.618  1.00  0.00    -0.055 C  
ENDROOT
BRANCH   4  23
HETATM   23  C   UNL     1      -7.858  16.731  67.565  1.00  0.00    -0.168 C  
HETATM   24  O   UNL     1      -8.118  17.844  68.037  1.00  0.00    -0.238 OA 
HETATM   25  C   UNL     1      -6.454  16.526  67.037  1.00  0.00    -0.221 C  
ENDBRANCH   4  23
TORSDOF 1
ENDMDL
MODEL       59
REMARK 921   NORMALIZED FREE ENERGY PREDICTED BY IDOCK:   -4.36 KCAL/MOL
REMARK 922        TOTAL FREE ENERGY PREDICTED BY IDOCK:   -3.85 KCAL/MOL
REMARK 923 INTER-LIGAND FREE ENERGY PREDICTED BY IDOCK:   -4.58 KCAL/MOL
REMARK 924 INTRA-LIGAND FREE ENERGY PREDICTED BY IDOCK:    0.74 KCAL/MOL
REMARK 927      BINDING AFFINITY PREDICTED BY RF-SCORE:    0.00 PKD
ROOT
HETATM    1  C   UNL     1      -7.932   8.329  69.824  1.00  0.00    -0.106 C  
HETATM    2  C   UNL     1      -8.577   8.979  70.912  1.00  0.00    -0.263 C  
HETATM    3  C   UNL     1      -9.487   8.332  69.929  1.00  0.00    -0.167 C  
HETATM    4  C   UNL     1      -8.599   7.184  68.462  1.00  0.00    -0.124 C  
HETATM    5  C   UNL     1      -7.015   6.671  68.406  1.00  0.00    -0.080 C  
HETATM    6  C   UNL     1      -8.870  10.393  65.436  1.00  0.00    -0.197 C  
HETATM    7  C   UNL     1      -9.138   6.820  69.666  1.00  0.00    -0.143 C  
HETATM    8  C   UNL     1     -10.778   7.144  68.754  1.00  0.00    -0.199 C  
HETATM    9  C   UNL     1      -8.928   5.709  70.663  1.00  0.00    -0.157 C  
HETATM   10  C   UNL     1      -9.562  10.900  66.718  1.00  0.00    -0.210 C  
HETATM   11  C   UNL     1     -11.053  11.266  66.363  1.00  0.00    -0.257 C  
HETATM   12  C   UNL     1     -10.583   8.462  67.574  1.00  0.00    -0.285 C  
HETATM   13  C   UNL     1      -9.576   9.790  67.841  1.00  0.00    -0.158 C  
HETATM   14  C   UNL     1      -8.054   9.481  68.404  1.00  0.00    -0.101 C  
HETATM   15  C   UNL     1      -7.343  10.768  68.700  1.00  0.00    -0.097 C  
HETATM   16  C   UNL     1      -7.675  11.971  68.198  1.00  0.00    -0.135 C  
HETATM   17  C   UNL     1      -8.761  12.148  67.215  1.00  0.00    -0.182 C  
HETATM   18  C   UNL     1      -6.898  13.181  68.671  1.00  0.00    -0.099 C  
HETATM   19  C   UNL     1      -9.025  13.369  66.707  1.00  0.00    -0.190 C  
HETATM   20  C   UNL     1     -10.161  13.521  65.783  1.00  0.00    -0.297 C  
HETATM   21  O   UNL     1     -10.115  14.314  64.851  1.00  0.00    -0.384 OA 
HETATM   22  C   UNL     1     -11.381  12.740  66.154  1.00  0.00    -0.371 C  
ENDROOT
BRANCH   4  23
HETATM   23  C   UNL     1      -9.074   5.881  67.544  1.00  0.00    -0.106 C  
HETATM   24  O   UNL     1      -9.368   4.769  68.000  1.00  0.00    -0.121 OA 
HETATM   25  C   UNL     1      -8.983   5.996  66.037  1.00  0.00    -0.157 C  
ENDBRANCH   4  23
TORSDOF 1
ENDMDL
MODEL       60
REMARK 921   NORMALIZED FREE ENERGY PREDICTED BY IDOCK:   -4.35 KCAL/MOL
REMARK 922        TOTAL FREE ENERGY PREDICTED BY IDOCK:   -3.84 KCAL/MOL
REMARK 923 INTER-LIGAND FREE ENERGY PREDICTED BY IDOCK:   -5.47 KCAL/MOL
REMARK 924 INTRA-LIGAND FREE ENERGY PREDICTED BY IDOCK:    1.63 KCAL/MOL
REMARK 927      BINDING AFFINITY PREDICTED BY RF-SCORE:    0.00 PKD
ROOT
HETATM    1  C   UNL     1     -10.791  12.586  66.268  1.00  0.00    -0.299 C  
HETATM    2  C   UNL     1     -10.396  12.684  64.906  1.00  0.00    -0.330 C  
HETATM    3  C   UNL     1      -9.357  12.162  65.833  1.00  0.00    -0.135 C  
HETATM    4  C   UNL     1      -9.951  11.785  67.773  1.00  0.00    -0.198 C  
HETATM    5  C   UNL     1     -11.512  11.734  68.355  1.00  0.00    -0.354 C  
HETATM    6  C   UNL     1      -8.291  15.591  69.287  1.00  0.00    -0.257 C  
HETATM    7  C   UNL     1      -9.853  10.945  66.698  1.00  0.00    -0.237 C  
HETATM    8  C   UNL     1      -7.989  11.107  67.049  1.00  0.00    -0.145 C  
HETATM    9  C   UNL     1     -10.523   9.672  66.245  1.00  0.00    -0.149 C  
HETATM   10  C   UNL     1      -7.931  15.487  67.790  1.00  0.00    -0.157 C  
HETATM   11  C   UNL     1      -6.363  15.554  67.654  1.00  0.00    -0.181 C  
HETATM   12  C   UNL     1      -7.614  12.729  67.680  1.00  0.00    -0.152 C  
HETATM   13  C   UNL     1      -8.426  14.120  67.174  1.00  0.00    -0.214 C  
HETATM   14  C   UNL     1     -10.075  14.048  67.108  1.00  0.00    -0.259 C  
HETATM   15  C   UNL     1     -10.623  15.317  66.527  1.00  0.00    -0.304 C  
HETATM   16  C   UNL     1      -9.968  16.491  66.471  1.00  0.00    -0.297 C  
HETATM   17  C   UNL     1      -8.629  16.681  67.060  1.00  0.00    -0.220 C  
HETATM   18  C   UNL     1     -10.642  17.652  65.771  1.00  0.00    -0.177 C  
HETATM   19  C   UNL     1      -8.034  17.890  67.019  1.00  0.00    -0.234 C  
HETATM   20  C   UNL     1      -6.668  18.026  67.552  1.00  0.00    -0.182 C  
HETATM   21  O   UNL     1      -6.311  19.052  68.118  1.00  0.00    -0.213 OA 
HETATM   22  C   UNL     1      -5.754  16.887  67.236  1.00  0.00    -0.189 C  
ENDROOT
BRANCH   4  23
HETATM   23  C   UNL     1      -9.447  10.752  68.975  1.00  0.00    -0.166 C  
HETATM   24  O   UNL     1      -8.320  10.247  69.041  1.00  0.00    -0.127 OA 
HETATM   25  C   UNL     1     -10.476  10.254  69.968  1.00  0.00    -0.293 C  
ENDBRANCH   4  23
TORSDOF 1
ENDMDL
MODEL       61
REMARK 921   NORMALIZED FREE ENERGY PREDICTED BY IDOCK:   -4.32 KCAL/MOL
REMARK 922        TOTAL FREE ENERGY PREDICTED BY IDOCK:   -3.80 KCAL/MOL
REMARK 923 INTER-LIGAND FREE ENERGY PREDICTED BY IDOCK:   -4.53 KCAL/MOL
REMARK 924 INTRA-LIGAND FREE ENERGY PREDICTED BY IDOCK:    0.72 KCAL/MOL
REMARK 927      BINDING AFFINITY PREDICTED BY RF-SCORE:    0.00 PKD
ROOT
HETATM    1  C   UNL     1      -7.680   8.236  66.316  1.00  0.00    -0.097 C  
HETATM    2  C   UNL     1      -8.828   8.100  65.487  1.00  0.00    -0.130 C  
HETATM    3  C   UNL     1      -8.597   9.464  66.034  1.00  0.00    -0.154 C  
HETATM    4  C   UNL     1      -6.827   9.767  67.050  1.00  0.00    -0.083 C  
HETATM    5  C   UNL     1      -5.506   8.752  67.096  1.00  0.00    -0.038 C  
HETATM    6  C   UNL     1      -8.737   9.339  71.012  1.00  0.00    -0.182 C  
HETATM    7  C   UNL     1      -7.151  10.011  65.743  1.00  0.00    -0.117 C  
HETATM    8  C   UNL     1      -8.114  11.464  66.507  1.00  0.00    -0.141 C  
HETATM    9  C   UNL     1      -6.410  10.080  64.432  1.00  0.00    -0.131 C  
HETATM   10  C   UNL     1      -9.848   9.251  69.946  1.00  0.00    -0.219 C  
HETATM   11  C   UNL     1     -10.898  10.390  70.232  1.00  0.00    -0.308 C  
HETATM   12  C   UNL     1      -8.740  11.020  68.113  1.00  0.00    -0.141 C  
HETATM   13  C   UNL     1      -9.268   9.463  68.493  1.00  0.00    -0.131 C  
HETATM   14  C   UNL     1      -8.296   8.206  68.041  1.00  0.00    -0.129 C  
HETATM   15  C   UNL     1      -8.969   6.900  68.343  1.00  0.00    -0.121 C  
HETATM   16  C   UNL     1      -9.974   6.730  69.220  1.00  0.00    -0.168 C  
HETATM   17  C   UNL     1     -10.490   7.829  70.060  1.00  0.00    -0.230 C  
HETATM   18  C   UNL     1     -10.594   5.354  69.338  1.00  0.00    -0.295 C  
HETATM   19  C   UNL     1     -11.468   7.597  70.958  1.00  0.00    -0.294 C  
HETATM   20  C   UNL     1     -12.007   8.731  71.727  1.00  0.00    -0.349 C  
HETATM   21  O   UNL     1     -12.368   8.590  72.888  1.00  0.00    -0.275 OA 
HETATM   22  C   UNL     1     -12.185   9.992  70.945  1.00  0.00    -0.441 C  
ENDROOT
BRANCH   4  23
HETATM   23  C   UNL     1      -5.851  11.082  67.341  1.00  0.00    -0.049 C  
HETATM   24  O   UNL     1      -5.412  11.838  66.467  1.00  0.00    -0.265 OA 
HETATM   25  C   UNL     1      -5.319  11.281  68.744  1.00  0.00    -0.039 C  
ENDBRANCH   4  23
TORSDOF 1
ENDMDL
MODEL       62
REMARK 921   NORMALIZED FREE ENERGY PREDICTED BY IDOCK:   -4.31 KCAL/MOL
REMARK 922        TOTAL FREE ENERGY PREDICTED BY IDOCK:   -3.80 KCAL/MOL
REMARK 923 INTER-LIGAND FREE ENERGY PREDICTED BY IDOCK:   -4.54 KCAL/MOL
REMARK 924 INTRA-LIGAND FREE ENERGY PREDICTED BY IDOCK:    0.74 KCAL/MOL
REMARK 927      BINDING AFFINITY PREDICTED BY RF-SCORE:    0.00 PKD
ROOT
HETATM    1  C   UNL     1      -8.126   2.986  67.652  1.00  0.00    -0.081 C  
HETATM    2  C   UNL     1      -9.041   1.946  67.975  1.00  0.00    -0.206 C  
HETATM    3  C   UNL     1      -9.618   3.088  67.216  1.00  0.00    -0.022 C  
HETATM    4  C   UNL     1      -8.290   4.509  66.528  1.00  0.00    -0.106 C  
HETATM    5  C   UNL     1      -6.628   4.393  66.480  1.00  0.00    -0.049 C  
HETATM    6  C   UNL     1      -9.148   7.286  69.856  1.00  0.00    -0.141 C  
HETATM    7  C   UNL     1      -8.826   3.419  65.898  1.00  0.00    -0.135 C  
HETATM    8  C   UNL     1     -10.384   4.513  65.858  1.00  0.00    -0.289 C  
HETATM    9  C   UNL     1      -8.412   2.492  64.783  1.00  0.00    -0.091 C  
HETATM   10  C   UNL     1     -10.087   6.072  70.007  1.00  0.00    -0.241 C  
HETATM   11  C   UNL     1     -11.574   6.592  69.987  1.00  0.00    -0.455 C  
HETATM   12  C   UNL     1     -10.452   5.550  67.303  1.00  0.00    -0.300 C  
HETATM   13  C   UNL     1      -9.901   5.050  68.818  1.00  0.00    -0.236 C  
HETATM   14  C   UNL     1      -8.422   4.316  68.878  1.00  0.00    -0.097 C  
HETATM   15  C   UNL     1      -8.145   3.829  70.269  1.00  0.00    -0.057 C  
HETATM   16  C   UNL     1      -8.753   4.276  71.383  1.00  0.00    -0.139 C  
HETATM   17  C   UNL     1      -9.734   5.378  71.364  1.00  0.00    -0.213 C  
HETATM   18  C   UNL     1      -8.409   3.611  72.699  1.00  0.00    -0.086 C  
HETATM   19  C   UNL     1     -10.281   5.820  72.514  1.00  0.00    -0.218 C  
HETATM   20  C   UNL     1     -11.310   6.871  72.450  1.00  0.00    -0.271 C  
HETATM   21  O   UNL     1     -11.395   7.725  73.324  1.00  0.00    -0.321 OA 
HETATM   22  C   UNL     1     -12.286   6.728  71.327  1.00  0.00    -0.395 C  
ENDROOT
BRANCH   4  23
HETATM   23  C   UNL     1      -8.272   5.580  65.256  1.00  0.00    -0.136 C  
HETATM   24  O   UNL     1      -8.263   5.254  64.063  1.00  0.00    -0.122 OA 
HETATM   25  C   UNL     1      -8.083   7.050  65.562  1.00  0.00    -0.132 C  
ENDBRANCH   4  23
TORSDOF 1
ENDMDL
MODEL       63
REMARK 921   NORMALIZED FREE ENERGY PREDICTED BY IDOCK:   -4.29 KCAL/MOL
REMARK 922        TOTAL FREE ENERGY PREDICTED BY IDOCK:   -3.78 KCAL/MOL
REMARK 923 INTER-LIGAND FREE ENERGY PREDICTED BY IDOCK:   -4.57 KCAL/MOL
REMARK 924 INTRA-LIGAND FREE ENERGY PREDICTED BY IDOCK:    0.79 KCAL/MOL
REMARK 927      BINDING AFFINITY PREDICTED BY RF-SCORE:    0.00 PKD
ROOT
HETATM    1  C   UNL     1      -7.167  11.623  67.779  1.00  0.00    -0.101 C  
HETATM    2  C   UNL     1      -6.480  11.965  68.976  1.00  0.00    -0.086 C  
HETATM    3  C   UNL     1      -7.513  10.903  69.116  1.00  0.00    -0.130 C  
HETATM    4  C   UNL     1      -8.373  10.212  67.373  1.00  0.00    -0.118 C  
HETATM    5  C   UNL     1      -7.860  10.500  65.814  1.00  0.00    -0.154 C  
HETATM    6  C   UNL     1     -11.984  12.712  67.869  1.00  0.00    -0.307 C  
HETATM    7  C   UNL     1      -7.324   9.718  68.099  1.00  0.00    -0.080 C  
HETATM    8  C   UNL     1      -8.714   9.174  69.281  1.00  0.00    -0.139 C  
HETATM    9  C   UNL     1      -6.088   8.903  67.812  1.00  0.00    -0.051 C  
HETATM   10  C   UNL     1     -11.098  12.919  69.115  1.00  0.00    -0.245 C  
HETATM   11  C   UNL     1     -11.935  12.518  70.388  1.00  0.00    -0.335 C  
HETATM   12  C   UNL     1     -10.050  10.349  69.251  1.00  0.00    -0.248 C  
HETATM   13  C   UNL     1      -9.809  12.009  69.060  1.00  0.00     0.157 C  
HETATM   14  C   UNL     1      -8.781  12.487  67.858  1.00  0.00    -0.180 C  
HETATM   15  C   UNL     1      -8.587  13.973  67.908  1.00  0.00    -0.181 C  
HETATM   16  C   UNL     1      -9.416  14.844  68.511  1.00  0.00    -0.210 C  
HETATM   17  C   UNL     1     -10.682  14.426  69.144  1.00  0.00    -0.254 C  
HETATM   18  C   UNL     1      -9.021  16.305  68.536  1.00  0.00    -0.219 C  
HETATM   19  C   UNL     1     -11.502  15.344  69.695  1.00  0.00    -0.331 C  
HETATM   20  C   UNL     1     -12.721  14.884  70.381  1.00  0.00    -0.321 C  
HETATM   21  O   UNL     1     -13.752  15.543  70.344  1.00  0.00    -0.176 OA 
HETATM   22  C   UNL     1     -12.550  13.649  71.204  1.00  0.00    -0.452 C  
ENDROOT
BRANCH   4  23
HETATM   23  C   UNL     1      -9.076   8.781  66.898  1.00  0.00    -0.139 C  
HETATM   24  O   UNL     1      -8.463   7.723  66.715  1.00  0.00    -0.120 OA 
HETATM   25  C   UNL     1     -10.536   8.801  66.496  1.00  0.00    -0.152 C  
ENDBRANCH   4  23
TORSDOF 1
ENDMDL
MODEL       64
REMARK 921   NORMALIZED FREE ENERGY PREDICTED BY IDOCK:   -4.29 KCAL/MOL
REMARK 922        TOTAL FREE ENERGY PREDICTED BY IDOCK:   -3.77 KCAL/MOL
REMARK 923 INTER-LIGAND FREE ENERGY PREDICTED BY IDOCK:   -4.52 KCAL/MOL
REMARK 924 INTRA-LIGAND FREE ENERGY PREDICTED BY IDOCK:    0.75 KCAL/MOL
REMARK 927      BINDING AFFINITY PREDICTED BY RF-SCORE:    0.00 PKD
ROOT
HETATM    1  C   UNL     1      -9.585   8.877  69.757  1.00  0.00    -0.175 C  
HETATM    2  C   UNL     1     -10.368   9.267  68.635  1.00  0.00    -0.229 C  
HETATM    3  C   UNL     1     -10.871   8.083  69.381  1.00  0.00    -0.104 C  
HETATM    4  C   UNL     1      -9.903   7.618  71.143  1.00  0.00    -0.184 C  
HETATM    5  C   UNL     1      -8.808   8.564  71.970  1.00  0.00    -0.286 C  
HETATM    6  C   UNL     1      -7.474   4.440  69.263  1.00  0.00    -0.055 C  
HETATM    7  C   UNL     1     -11.039   8.347  70.923  1.00  0.00    -0.289 C  
HETATM    8  C   UNL     1     -11.790   6.626  70.604  1.00  0.00    -0.443 C  
HETATM    9  C   UNL     1     -11.763   9.472  71.618  1.00  0.00    -0.460 C  
HETATM   10  C   UNL     1      -8.441   4.985  68.191  1.00  0.00    -0.099 C  
HETATM   11  C   UNL     1      -9.321   3.789  67.665  1.00  0.00    -0.240 C  
HETATM   12  C   UNL     1     -10.579   5.545  69.875  1.00  0.00    -0.387 C  
HETATM   13  C   UNL     1      -9.402   6.084  68.790  1.00  0.00    -0.128 C  
HETATM   14  C   UNL     1      -8.574   7.455  69.196  1.00  0.00    -0.136 C  
HETATM   15  C   UNL     1      -7.664   7.857  68.076  1.00  0.00    -0.125 C  
HETATM   16  C   UNL     1      -7.236   7.045  67.093  1.00  0.00    -0.089 C  
HETATM   17  C   UNL     1      -7.568   5.607  67.052  1.00  0.00    -0.096 C  
HETATM   18  C   UNL     1      -6.385   7.641  65.992  1.00  0.00    -0.042 C  
HETATM   19  C   UNL     1      -7.077   4.824  66.070  1.00  0.00    -0.075 C  
HETATM   20  C   UNL     1      -7.486   3.411  66.020  1.00  0.00    -0.073 C  
HETATM   21  O   UNL     1      -6.709   2.542  65.646  1.00  0.00    -0.034 OA 
HETATM   22  C   UNL     1      -8.927   3.163  66.333  1.00  0.00    -0.158 C  
ENDROOT
BRANCH   4  23
HETATM   23  C   UNL     1     -10.337   6.852  72.554  1.00  0.00    -0.196 C  
HETATM   24  O   UNL     1     -11.183   7.273  73.351  1.00  0.00    -0.262 OA 
HETATM   25  C   UNL     1      -9.533   5.645  72.990  1.00  0.00    -0.155 C  
ENDBRANCH   4  23
TORSDOF 1
ENDMDL
MODEL       65
REMARK 921   NORMALIZED FREE ENERGY PREDICTED BY IDOCK:   -4.08 KCAL/MOL
REMARK 922        TOTAL FREE ENERGY PREDICTED BY IDOCK:   -3.56 KCAL/MOL
REMARK 923 INTER-LIGAND FREE ENERGY PREDICTED BY IDOCK:   -5.24 KCAL/MOL
REMARK 924 INTRA-LIGAND FREE ENERGY PREDICTED BY IDOCK:    1.69 KCAL/MOL
REMARK 927      BINDING AFFINITY PREDICTED BY RF-SCORE:    0.00 PKD
ROOT
HETATM    1  C   UNL     1      -9.555  10.695  68.631  1.00  0.00    -0.179 C  
HETATM    2  C   UNL     1      -8.273  10.655  69.244  1.00  0.00    -0.122 C  
HETATM    3  C   UNL     1      -8.286  10.386  67.782  1.00  0.00    -0.114 C  
HETATM    4  C   UNL     1     -10.085  10.657  66.807  1.00  0.00    -0.272 C  
HETATM    5  C   UNL     1     -11.450  11.403  67.404  1.00  0.00    -0.328 C  
HETATM    6  C   UNL     1     -11.036   6.341  66.830  1.00  0.00    -0.404 C  
HETATM    7  C   UNL     1      -9.020  11.504  66.953  1.00  0.00    -0.179 C  
HETATM    8  C   UNL     1      -8.229  10.339  65.671  1.00  0.00    -0.153 C  
HETATM    9  C   UNL     1      -8.812  12.997  66.984  1.00  0.00    -0.213 C  
HETATM   10  C   UNL     1      -9.630   6.513  67.441  1.00  0.00    -0.142 C  
HETATM   11  C   UNL     1      -8.612   5.670  66.583  1.00  0.00    -0.117 C  
HETATM   12  C   UNL     1      -8.819   8.675  65.896  1.00  0.00    -0.221 C  
HETATM   13  C   UNL     1      -9.172   8.024  67.412  1.00  0.00    -0.155 C  
HETATM   14  C   UNL     1     -10.077   8.949  68.439  1.00  0.00    -0.215 C  
HETATM   15  C   UNL     1     -10.190   8.277  69.774  1.00  0.00    -0.204 C  
HETATM   16  C   UNL     1      -9.990   6.967  70.003  1.00  0.00    -0.190 C  
HETATM   17  C   UNL     1      -9.700   6.007  68.919  1.00  0.00    -0.159 C  
HETATM   18  C   UNL     1     -10.064   6.472  71.431  1.00  0.00    -0.213 C  
HETATM   19  C   UNL     1      -9.553   4.696  69.195  1.00  0.00    -0.245 C  
HETATM   20  C   UNL     1      -9.193   3.779  68.100  1.00  0.00    -0.163 C  
HETATM   21  O   UNL     1      -9.627   2.634  68.069  1.00  0.00    -0.197 OA 
HETATM   22  C   UNL     1      -8.185   4.316  67.136  1.00  0.00    -0.100 C  
ENDROOT
BRANCH   4  23
HETATM   23  C   UNL     1     -10.530  11.042  65.251  1.00  0.00    -0.251 C  
HETATM   24  O   UNL     1     -10.135  10.449  64.240  1.00  0.00    -0.334 OA 
HETATM   25  C   UNL     1     -11.337  12.304  65.030  1.00  0.00    -0.376 C  
ENDBRANCH   4  23
TORSDOF 1
ENDMDL
MODEL       66
REMARK 921   NORMALIZED FREE ENERGY PREDICTED BY IDOCK:   -3.90 KCAL/MOL
REMARK 922        TOTAL FREE ENERGY PREDICTED BY IDOCK:   -3.37 KCAL/MOL
REMARK 923 INTER-LIGAND FREE ENERGY PREDICTED BY IDOCK:   -4.23 KCAL/MOL
REMARK 924 INTRA-LIGAND FREE ENERGY PREDICTED BY IDOCK:    0.86 KCAL/MOL
REMARK 927      BINDING AFFINITY PREDICTED BY RF-SCORE:    0.00 PKD
ROOT
HETATM    1  C   UNL     1     -10.409   6.266  69.297  1.00  0.00    -0.266 C  
HETATM    2  C   UNL     1      -9.164   5.714  68.886  1.00  0.00    -0.136 C  
HETATM    3  C   UNL     1      -9.125   6.503  70.146  1.00  0.00    -0.155 C  
HETATM    4  C   UNL     1     -10.939   7.130  70.904  1.00  0.00    -0.276 C  
HETATM    5  C   UNL     1     -12.455   6.630  70.428  1.00  0.00     0.159 C  
HETATM    6  C   UNL     1     -10.508  11.204  69.245  1.00  0.00    -0.183 C  
HETATM    7  C   UNL     1     -10.185   6.030  71.207  1.00  0.00    -0.253 C  
HETATM    8  C   UNL     1      -9.100   7.318  72.094  1.00  0.00    -0.149 C  
HETATM    9  C   UNL     1     -10.448   4.639  71.728  1.00  0.00    -0.149 C  
HETATM   10  C   UNL     1      -9.211  10.431  68.928  1.00  0.00    -0.179 C  
HETATM   11  C   UNL     1      -8.001  11.213  69.564  1.00  0.00     0.222 C  
HETATM   12  C   UNL     1      -9.142   8.870  71.225  1.00  0.00    -0.323 C  
HETATM   13  C   UNL     1      -9.244   8.978  69.544  1.00  0.00    -0.152 C  
HETATM   14  C   UNL     1     -10.369   8.028  68.794  1.00  0.00    -0.223 C  
HETATM   15  C   UNL     1     -10.241   8.155  67.306  1.00  0.00    -0.348 C  
HETATM   16  C   UNL     1      -9.641   9.172  66.662  1.00  0.00    -0.263 C  
HETATM   17  C   UNL     1      -9.091  10.345  67.370  1.00  0.00    -0.144 C  
HETATM   18  C   UNL     1      -9.529   9.096  65.155  1.00  0.00    -0.097 C  
HETATM   19  C   UNL     1      -8.540  11.360  66.676  1.00  0.00    -0.170 C  
HETATM   20  C   UNL     1      -7.937  12.480  67.418  1.00  0.00    -0.180 C  
HETATM   21  O   UNL     1      -7.996  13.625  66.988  1.00  0.00    -0.091 OA 
HETATM   22  C   UNL     1      -7.165  12.084  68.635  1.00  0.00    -0.110 C  
ENDROOT
BRANCH   4  23
HETATM   23  C   UNL     1     -11.513   7.496  72.421  1.00  0.00    -0.315 C  
HETATM   24  O   UNL     1     -11.189   6.904  73.457  1.00  0.00    -0.098 OA 
HETATM   25  C   UNL     1     -12.635   8.507  72.536  1.00  0.00    -0.346 C  
ENDBRANCH   4  23
TORSDOF 1
ENDMDL
MODEL       67
REMARK 921   NORMALIZED FREE ENERGY PREDICTED BY IDOCK:   -3.89 KCAL/MOL
REMARK 922        TOTAL FREE ENERGY PREDICTED BY IDOCK:   -3.35 KCAL/MOL
REMARK 923 INTER-LIGAND FREE ENERGY PREDICTED BY IDOCK:   -4.17 KCAL/MOL
REMARK 924 INTRA-LIGAND FREE ENERGY PREDICTED BY IDOCK:    0.82 KCAL/MOL
REMARK 927      BINDING AFFINITY PREDICTED BY RF-SCORE:    0.00 PKD
ROOT
HETATM    1  C   UNL     1      -8.691   9.745  69.894  1.00  0.00    -0.238 C  
HETATM    2  C   UNL     1      -7.339  10.009  70.246  1.00  0.00    -0.152 C  
HETATM    3  C   UNL     1      -7.531   8.994  69.176  1.00  0.00    -0.072 C  
HETATM    4  C   UNL     1      -9.455   8.743  68.472  1.00  0.00    -0.149 C  
HETATM    5  C   UNL     1     -10.768   9.728  68.759  1.00  0.00    -0.243 C  
HETATM    6  C   UNL     1     -10.159   5.148  70.943  1.00  0.00    -0.302 C  
HETATM    7  C   UNL     1      -8.428   9.507  67.989  1.00  0.00    -0.119 C  
HETATM    8  C   UNL     1      -7.751   7.815  67.437  1.00  0.00    -0.113 C  
HETATM    9  C   UNL     1      -8.298  10.775  67.184  1.00  0.00    -0.126 C  
HETATM   10  C   UNL     1      -8.696   5.585  71.161  1.00  0.00    -0.134 C  
HETATM   11  C   UNL     1      -7.757   4.387  70.758  1.00  0.00    -0.056 C  
HETATM   12  C   UNL     1      -8.215   6.551  68.601  1.00  0.00    -0.118 C  
HETATM   13  C   UNL     1      -8.329   6.830  70.262  1.00  0.00    -0.134 C  
HETATM   14  C   UNL     1      -9.139   8.186  70.745  1.00  0.00    -0.159 C  
HETATM   15  C   UNL     1      -9.039   8.343  72.233  1.00  0.00    -0.313 C  
HETATM   16  C   UNL     1      -8.739   7.359  73.099  1.00  0.00    -0.185 C  
HETATM   17  C   UNL     1      -8.544   5.959  72.673  1.00  0.00    -0.119 C  
HETATM   18  C   UNL     1      -8.597   7.714  74.563  1.00  0.00    -0.188 C  
HETATM   19  C   UNL     1      -8.290   5.000  73.585  1.00  0.00    -0.106 C  
HETATM   20  C   UNL     1      -8.029   3.628  73.118  1.00  0.00    -0.075 C  
HETATM   21  O   UNL     1      -8.400   2.659  73.768  1.00  0.00    -0.069 OA 
HETATM   22  C   UNL     1      -7.188   3.534  71.886  1.00  0.00    -0.050 C  
ENDROOT
BRANCH   4  23
HETATM   23  C   UNL     1     -10.122   8.240  67.034  1.00  0.00    -0.283 C  
HETATM   24  O   UNL     1     -10.127   8.904  65.990  1.00  0.00    -0.260 OA 
HETATM   25  C   UNL     1     -10.929   6.959  67.030  1.00  0.00    -0.404 C  
ENDBRANCH   4  23
TORSDOF 1
ENDMDL
MODEL       68
REMARK 921   NORMALIZED FREE ENERGY PREDICTED BY IDOCK:   -3.88 KCAL/MOL
REMARK 922        TOTAL FREE ENERGY PREDICTED BY IDOCK:   -3.35 KCAL/MOL
REMARK 923 INTER-LIGAND FREE ENERGY PREDICTED BY IDOCK:   -4.08 KCAL/MOL
REMARK 924 INTRA-LIGAND FREE ENERGY PREDICTED BY IDOCK:    0.73 KCAL/MOL
REMARK 927      BINDING AFFINITY PREDICTED BY RF-SCORE:    0.00 PKD
ROOT
HETATM    1  C   UNL     1      -8.129   6.743  71.165  1.00  0.00    -0.111 C  
HETATM    2  C   UNL     1      -6.927   7.502  71.205  1.00  0.00    -0.054 C  
HETATM    3  C   UNL     1      -8.162   8.282  70.925  1.00  0.00    -0.123 C  
HETATM    4  C   UNL     1      -9.953   7.268  71.084  1.00  0.00    -0.186 C  
HETATM    5  C   UNL     1     -10.201   5.762  71.752  1.00  0.00    -0.245 C  
HETATM    6  C   UNL     1     -10.278   6.651  66.720  1.00  0.00    -0.263 C  
HETATM    7  C   UNL     1      -9.295   8.051  71.992  1.00  0.00    -0.237 C  
HETATM    8  C   UNL     1      -9.916   9.456  70.867  1.00  0.00    -0.353 C  
HETATM    9  C   UNL     1      -9.213   8.142  73.495  1.00  0.00    -0.257 C  
HETATM   10  C   UNL     1      -9.021   7.507  66.978  1.00  0.00    -0.143 C  
HETATM   11  C   UNL     1      -9.175   8.862  66.190  1.00  0.00    -0.273 C  
HETATM   12  C   UNL     1      -9.978   8.915  69.173  1.00  0.00    -0.192 C  
HETATM   13  C   UNL     1      -8.857   7.839  68.512  1.00  0.00    -0.130 C  
HETATM   14  C   UNL     1      -8.504   6.485  69.390  1.00  0.00    -0.127 C  
HETATM   15  C   UNL     1      -7.410   5.709  68.722  1.00  0.00    -0.083 C  
HETATM   16  C   UNL     1      -7.061   5.817  67.427  1.00  0.00    -0.074 C  
HETATM   17  C   UNL     1      -7.788   6.682  66.479  1.00  0.00    -0.104 C  
HETATM   18  C   UNL     1      -5.872   5.016  66.939  1.00  0.00    -0.022 C  
HETATM   19  C   UNL     1      -7.428   6.721  65.180  1.00  0.00    -0.087 C  
HETATM   20  C   UNL     1      -8.129   7.650  64.278  1.00  0.00    -0.071 C  
HETATM   21  O   UNL     1      -8.343   7.353  63.110  1.00  0.00    -0.009 OA 
HETATM   22  C   UNL     1      -8.429   8.991  64.867  1.00  0.00    -0.195 C  
ENDROOT
BRANCH   4  23
HETATM   23  C   UNL     1     -11.520   7.703  71.431  1.00  0.00    -0.264 C  
HETATM   24  O   UNL     1     -11.861   8.390  72.401  1.00  0.00    -0.372 OA 
HETATM   25  C   UNL     1     -12.632   7.084  70.611  1.00  0.00    -0.104 C  
ENDBRANCH   4  23
TORSDOF 1
ENDMDL
MODEL       69
REMARK 921   NORMALIZED FREE ENERGY PREDICTED BY IDOCK:   -3.84 KCAL/MOL
REMARK 922        TOTAL FREE ENERGY PREDICTED BY IDOCK:   -3.30 KCAL/MOL
REMARK 923 INTER-LIGAND FREE ENERGY PREDICTED BY IDOCK:   -4.06 KCAL/MOL
REMARK 924 INTRA-LIGAND FREE ENERGY PREDICTED BY IDOCK:    0.76 KCAL/MOL
REMARK 927      BINDING AFFINITY PREDICTED BY RF-SCORE:    0.00 PKD
ROOT
HETATM    1  C   UNL     1      -9.485   9.769  68.476  1.00  0.00    -0.148 C  
HETATM    2  C   UNL     1      -8.940  10.329  69.664  1.00  0.00    -0.140 C  
HETATM    3  C   UNL     1      -8.019   9.450  68.894  1.00  0.00    -0.087 C  
HETATM    4  C   UNL     1      -8.683   8.801  67.051  1.00  0.00    -0.131 C  
HETATM    5  C   UNL     1     -10.005   9.360  66.204  1.00  0.00    -0.351 C  
HETATM    6  C   UNL     1      -9.911   4.851  68.608  1.00  0.00    -0.221 C  
HETATM    7  C   UNL     1      -7.889   9.864  67.381  1.00  0.00    -0.098 C  
HETATM    8  C   UNL     1      -6.593   8.497  67.661  1.00  0.00    -0.062 C  
HETATM    9  C   UNL     1      -7.580  11.217  66.793  1.00  0.00    -0.151 C  
HETATM   10  C   UNL     1      -9.246   5.623  69.766  1.00  0.00    -0.165 C  
HETATM   11  C   UNL     1      -8.024   4.777  70.287  1.00  0.00    -0.068 C  
HETATM   12  C   UNL     1      -7.374   7.013  68.255  1.00  0.00    -0.097 C  
HETATM   13  C   UNL     1      -8.711   7.028  69.286  1.00  0.00    -0.136 C  
HETATM   14  C   UNL     1      -9.951   8.048  68.897  1.00  0.00    -0.199 C  
HETATM   15  C   UNL     1     -10.993   8.027  69.975  1.00  0.00    -0.202 C  
HETATM   16  C   UNL     1     -11.147   7.049  70.886  1.00  0.00    -0.300 C  
HETATM   17  C   UNL     1     -10.331   5.819  70.876  1.00  0.00    -0.299 C  
HETATM   18  C   UNL     1     -12.200   7.231  71.958  1.00  0.00    -0.312 C  
HETATM   19  C   UNL     1     -10.556   4.847  71.783  1.00  0.00    -0.164 C  
HETATM   20  C   UNL     1      -9.676   3.667  71.789  1.00  0.00    -0.163 C  
HETATM   21  O   UNL     1     -10.111   2.557  72.067  1.00  0.00    -0.162 OA 
HETATM   22  C   UNL     1      -8.229   3.961  71.558  1.00  0.00    -0.076 C  
ENDROOT
BRANCH   4  23
HETATM   23  C   UNL     1      -7.946   8.336  65.635  1.00  0.00    -0.113 C  
HETATM   24  O   UNL     1      -7.303   9.091  64.897  1.00  0.00    -0.096 OA 
HETATM   25  C   UNL     1      -8.213   6.940  65.114  1.00  0.00    -0.115 C  
ENDBRANCH   4  23
TORSDOF 1
ENDMDL
MODEL       70
REMARK 921   NORMALIZED FREE ENERGY PREDICTED BY IDOCK:   -3.83 KCAL/MOL
REMARK 922        TOTAL FREE ENERGY PREDICTED BY IDOCK:   -3.29 KCAL/MOL
REMARK 923 INTER-LIGAND FREE ENERGY PREDICTED BY IDOCK:   -4.05 KCAL/MOL
REMARK 924 INTRA-LIGAND FREE ENERGY PREDICTED BY IDOCK:    0.76 KCAL/MOL
REMARK 927      BINDING AFFINITY PREDICTED BY RF-SCORE:    0.00 PKD
ROOT
HETATM    1  C   UNL     1      -9.196   5.558  70.021  1.00  0.00    -0.172 C  
HETATM    2  C   UNL     1     -10.555   5.246  69.741  1.00  0.00    -0.283 C  
HETATM    3  C   UNL     1      -9.636   5.185  68.574  1.00  0.00    -0.190 C  
HETATM    4  C   UNL     1      -7.622   5.403  68.968  1.00  0.00    -0.085 C  
HETATM    5  C   UNL     1      -6.879   5.364  70.459  1.00  0.00    -0.052 C  
HETATM    6  C   UNL     1      -7.595   9.661  67.788  1.00  0.00    -0.087 C  
HETATM    7  C   UNL     1      -8.379   4.272  68.823  1.00  0.00    -0.092 C  
HETATM    8  C   UNL     1      -8.313   4.758  66.983  1.00  0.00    -0.106 C  
HETATM    9  C   UNL     1      -8.324   2.852  69.327  1.00  0.00    -0.087 C  
HETATM   10  C   UNL     1      -9.012   9.112  67.522  1.00  0.00    -0.131 C  
HETATM   11  C   UNL     1      -9.342   9.313  65.995  1.00  0.00    -0.283 C  
HETATM   12  C   UNL     1      -8.277   6.529  66.809  1.00  0.00    -0.110 C  
HETATM   13  C   UNL     1      -9.101   7.570  67.851  1.00  0.00    -0.130 C  
HETATM   14  C   UNL     1      -8.952   7.289  69.472  1.00  0.00    -0.144 C  
HETATM   15  C   UNL     1      -9.839   8.221  70.241  1.00  0.00    -0.186 C  
HETATM   16  C   UNL     1     -10.339   9.379  69.773  1.00  0.00    -0.240 C  
HETATM   17  C   UNL     1      -9.998   9.909  68.438  1.00  0.00    -0.177 C  
HETATM   18  C   UNL     1     -11.289  10.157  70.659  1.00  0.00    -0.433 C  
HETATM   19  C   UNL     1     -10.490  11.097  68.033  1.00  0.00    -0.217 C  
HETATM   20  C   UNL     1     -10.187  11.560  66.668  1.00  0.00    -0.219 C  
HETATM   21  O   UNL     1     -10.021  12.749  66.428  1.00  0.00    -0.252 OA 
HETATM   22  C   UNL     1     -10.228  10.495  65.620  1.00  0.00    -0.315 C  
ENDROOT
BRANCH   4  23
HETATM   23  C   UNL     1      -6.220   4.891  68.234  1.00  0.00    -0.035 C  
HETATM   24  O   UNL     1      -5.859   3.711  68.153  1.00  0.00    -0.024 OA 
HETATM   25  C   UNL     1      -5.228   5.940  67.779  1.00  0.00    -0.004 C  
ENDBRANCH   4  23
TORSDOF 1
ENDMDL
MODEL       71
REMARK 921   NORMALIZED FREE ENERGY PREDICTED BY IDOCK:   -3.81 KCAL/MOL
REMARK 922        TOTAL FREE ENERGY PREDICTED BY IDOCK:   -3.27 KCAL/MOL
REMARK 923 INTER-LIGAND FREE ENERGY PREDICTED BY IDOCK:   -3.99 KCAL/MOL
REMARK 924 INTRA-LIGAND FREE ENERGY PREDICTED BY IDOCK:    0.72 KCAL/MOL
REMARK 927      BINDING AFFINITY PREDICTED BY RF-SCORE:    0.00 PKD
ROOT
HETATM    1  C   UNL     1      -6.544   5.067  68.291  1.00  0.00    -0.049 C  
HETATM    2  C   UNL     1      -6.085   4.745  69.598  1.00  0.00    -0.018 C  
HETATM    3  C   UNL     1      -7.399   4.158  69.222  1.00  0.00    -0.054 C  
HETATM    4  C   UNL     1      -7.999   4.406  67.263  1.00  0.00    -0.100 C  
HETATM    5  C   UNL     1      -7.071   4.942  65.987  1.00  0.00    -0.071 C  
HETATM    6  C   UNL     1     -10.660   7.796  68.244  1.00  0.00    -0.169 C  
HETATM    7  C   UNL     1      -7.357   3.360  67.867  1.00  0.00    -0.054 C  
HETATM    8  C   UNL     1      -9.083   3.043  68.605  1.00  0.00    -0.212 C  
HETATM    9  C   UNL     1      -6.406   2.271  67.438  1.00  0.00    -0.028 C  
HETATM   10  C   UNL     1     -10.072   7.266  69.568  1.00  0.00    -0.182 C  
HETATM   11  C   UNL     1     -11.265   6.840  70.504  1.00  0.00    -0.370 C  
HETATM   12  C   UNL     1      -9.941   4.581  68.863  1.00  0.00    -0.131 C  
HETATM   13  C   UNL     1      -9.156   6.003  69.325  1.00  0.00    -0.126 C  
HETATM   14  C   UNL     1      -7.779   6.404  68.505  1.00  0.00    -0.104 C  
HETATM   15  C   UNL     1      -7.149   7.617  69.119  1.00  0.00    -0.077 C  
HETATM   16  C   UNL     1      -7.781   8.507  69.905  1.00  0.00    -0.091 C  
HETATM   17  C   UNL     1      -9.226   8.422  70.196  1.00  0.00    -0.159 C  
HETATM   18  C   UNL     1      -6.968   9.631  70.510  1.00  0.00    -0.133 C  
HETATM   19  C   UNL     1      -9.823   9.364  70.953  1.00  0.00    -0.338 C  
HETATM   20  C   UNL     1     -11.250   9.209  71.282  1.00  0.00    -0.337 C  
HETATM   21  O   UNL     1     -11.985  10.183  71.377  1.00  0.00    -0.369 OA 
HETATM   22  C   UNL     1     -11.671   7.811  71.606  1.00  0.00    -0.316 C  
ENDROOT
BRANCH   4  23
HETATM   23  C   UNL     1      -8.981   3.561  66.221  1.00  0.00    -0.144 C  
HETATM   24  O   UNL     1      -8.850   2.362  65.948  1.00  0.00    -0.122 OA 
HETATM   25  C   UNL     1     -10.003   4.335  65.415  1.00  0.00    -0.233 C  
ENDBRANCH   4  23
TORSDOF 1
ENDMDL
MODEL       72
REMARK 921   NORMALIZED FREE ENERGY PREDICTED BY IDOCK:   -3.76 KCAL/MOL
REMARK 922        TOTAL FREE ENERGY PREDICTED BY IDOCK:   -3.22 KCAL/MOL
REMARK 923 INTER-LIGAND FREE ENERGY PREDICTED BY IDOCK:   -3.97 KCAL/MOL
REMARK 924 INTRA-LIGAND FREE ENERGY PREDICTED BY IDOCK:    0.75 KCAL/MOL
REMARK 927      BINDING AFFINITY PREDICTED BY RF-SCORE:    0.00 PKD
ROOT
HETATM    1  C   UNL     1      -9.639  16.442  67.869  1.00  0.00    -0.228 C  
HETATM    2  C   UNL     1     -10.443  16.255  69.027  1.00  0.00    -0.276 C  
HETATM    3  C   UNL     1      -9.004  16.526  69.289  1.00  0.00    -0.083 C  
HETATM    4  C   UNL     1      -7.845  17.030  67.657  1.00  0.00    -0.183 C  
HETATM    5  C   UNL     1      -8.377  17.437  66.132  1.00  0.00    -0.217 C  
HETATM    6  C   UNL     1      -6.206  12.946  67.245  1.00  0.00    -0.005 C  
HETATM    7  C   UNL     1      -8.478  17.825  68.573  1.00  0.00    -0.296 C  
HETATM    8  C   UNL     1      -7.060  17.241  69.700  1.00  0.00     0.207 C  
HETATM    9  C   UNL     1      -9.057  19.217  68.591  1.00  0.00    -0.428 C  
HETATM   10  C   UNL     1      -7.104  12.965  68.499  1.00  0.00    -0.102 C  
HETATM   11  C   UNL     1      -6.230  12.541  69.739  1.00  0.00    -0.113 C  
HETATM   12  C   UNL     1      -6.582  15.577  69.287  1.00  0.00    -0.147 C  
HETATM   13  C   UNL     1      -7.684  14.408  68.769  1.00  0.00    -0.139 C  
HETATM   14  C   UNL     1      -8.763  14.854  67.601  1.00  0.00    -0.181 C  
HETATM   15  C   UNL     1      -9.739  13.744  67.350  1.00  0.00    -0.235 C  
HETATM   16  C   UNL     1      -9.542  12.452  67.667  1.00  0.00    -0.193 C  
HETATM   17  C   UNL     1      -8.277  11.960  68.246  1.00  0.00    -0.157 C  
HETATM   18  C   UNL     1     -10.672  11.475  67.417  1.00  0.00    -0.275 C  
HETATM   19  C   UNL     1      -8.112  10.648  68.504  1.00  0.00    -0.125 C  
HETATM   20  C   UNL     1      -6.865  10.204  69.148  1.00  0.00    -0.059 C  
HETATM   21  O   UNL     1      -6.360   9.124  68.868  1.00  0.00    -0.044 OA 
HETATM   22  C   UNL     1      -6.361  11.104  70.230  1.00  0.00    -0.097 C  
ENDROOT
BRANCH   4  23
HETATM   23  C   UNL     1      -6.458  17.920  67.433  1.00  0.00    -0.164 C  
HETATM   24  O   UNL     1      -6.253  19.037  67.923  1.00  0.00    -0.204 OA 
HETATM   25  C   UNL     1      -5.441  17.420  66.429  1.00  0.00    -0.228 C  
ENDBRANCH   4  23
TORSDOF 1
ENDMDL
MODEL       73
REMARK 921   NORMALIZED FREE ENERGY PREDICTED BY IDOCK:   -3.73 KCAL/MOL
REMARK 922        TOTAL FREE ENERGY PREDICTED BY IDOCK:   -3.18 KCAL/MOL
REMARK 923 INTER-LIGAND FREE ENERGY PREDICTED BY IDOCK:   -3.97 KCAL/MOL
REMARK 924 INTRA-LIGAND FREE ENERGY PREDICTED BY IDOCK:    0.78 KCAL/MOL
REMARK 927      BINDING AFFINITY PREDICTED BY RF-SCORE:    0.00 PKD
ROOT
HETATM    1  C   UNL     1      -7.777  13.384  68.119  1.00  0.00    -0.143 C  
HETATM    2  C   UNL     1      -7.322  13.921  69.355  1.00  0.00     0.127 C  
HETATM    3  C   UNL     1      -8.798  13.800  69.219  1.00  0.00     0.593 C  
HETATM    4  C   UNL     1      -9.497  12.818  67.544  1.00  0.00    -0.187 C  
HETATM    5  C   UNL     1      -8.609  11.907  66.468  1.00  0.00    -0.126 C  
HETATM    6  C   UNL     1     -10.381  16.580  65.400  1.00  0.00    -0.246 C  
HETATM    7  C   UNL     1      -9.266  12.354  68.811  1.00  0.00     0.127 C  
HETATM    8  C   UNL     1     -10.856  13.328  69.195  1.00  0.00    -0.148 C  
HETATM    9  C   UNL     1      -8.910  11.031  69.438  1.00  0.00     0.201 C  
HETATM   10  C   UNL     1      -9.892  16.953  66.815  1.00  0.00    -0.284 C  
HETATM   11  C   UNL     1     -11.020  17.795  67.522  1.00  0.00    -0.091 C  
HETATM   12  C   UNL     1     -10.966  14.773  68.162  1.00  0.00    -0.274 C  
HETATM   13  C   UNL     1      -9.615  15.665  67.685  1.00  0.00    -0.220 C  
HETATM   14  C   UNL     1      -8.316  14.818  67.114  1.00  0.00    -0.240 C  
HETATM   15  C   UNL     1      -7.169  15.748  66.855  1.00  0.00    -0.128 C  
HETATM   16  C   UNL     1      -7.271  17.077  66.679  1.00  0.00    -0.293 C  
HETATM   17  C   UNL     1      -8.572  17.775  66.649  1.00  0.00    -0.280 C  
HETATM   18  C   UNL     1      -5.997  17.877  66.511  1.00  0.00    -0.207 C  
HETATM   19  C   UNL     1      -8.625  19.103  66.424  1.00  0.00    -0.335 C  
HETATM   20  C   UNL     1      -9.933  19.778  66.472  1.00  0.00    -0.459 C  
HETATM   21  O   UNL     1     -10.185  20.718  65.729  1.00  0.00     0.181 OA 
HETATM   22  C   UNL     1     -10.842  19.308  67.561  1.00  0.00    -0.524 C  
ENDROOT
BRANCH   4  23
HETATM   23  C   UNL     1     -10.867  11.950  67.180  1.00  0.00    -0.255 C  
HETATM   24  O   UNL     1     -11.140  10.837  67.646  1.00  0.00    -0.284 OA 
HETATM   25  C   UNL     1     -11.768  12.464  66.077  1.00  0.00    -0.469 C  
ENDBRANCH   4  23
TORSDOF 1
ENDMDL
MODEL       74
REMARK 921   NORMALIZED FREE ENERGY PREDICTED BY IDOCK:   -3.50 KCAL/MOL
REMARK 922        TOTAL FREE ENERGY PREDICTED BY IDOCK:   -2.94 KCAL/MOL
REMARK 923 INTER-LIGAND FREE ENERGY PREDICTED BY IDOCK:   -4.60 KCAL/MOL
REMARK 924 INTRA-LIGAND FREE ENERGY PREDICTED BY IDOCK:    1.65 KCAL/MOL
REMARK 927      BINDING AFFINITY PREDICTED BY RF-SCORE:    0.00 PKD
ROOT
HETATM    1  C   UNL     1      -7.546   9.156  67.397  1.00  0.00    -0.085 C  
HETATM    2  C   UNL     1      -6.774   9.417  68.563  1.00  0.00    -0.058 C  
HETATM    3  C   UNL     1      -8.056   8.698  68.796  1.00  0.00    -0.116 C  
HETATM    4  C   UNL     1      -9.098   8.095  67.120  1.00  0.00    -0.163 C  
HETATM    5  C   UNL     1      -8.547   8.072  65.547  1.00  0.00    -0.158 C  
HETATM    6  C   UNL     1     -11.877  11.526  67.306  1.00  0.00    -0.061 C  
HETATM    7  C   UNL     1      -8.214   7.409  67.907  1.00  0.00    -0.120 C  
HETATM    8  C   UNL     1      -9.683   7.391  69.119  1.00  0.00    -0.165 C  
HETATM    9  C   UNL     1      -7.253   6.263  67.723  1.00  0.00    -0.083 C  
HETATM   10  C   UNL     1     -10.951  11.608  68.537  1.00  0.00    -0.264 C  
HETATM   11  C   UNL     1     -11.847  11.585  69.832  1.00  0.00    -0.430 C  
HETATM   12  C   UNL     1     -10.646   8.878  68.950  1.00  0.00    -0.188 C  
HETATM   13  C   UNL     1      -9.962  10.379  68.594  1.00  0.00    -0.186 C  
HETATM   14  C   UNL     1      -8.859  10.433  67.365  1.00  0.00    -0.133 C  
HETATM   15  C   UNL     1      -8.265  11.806  67.266  1.00  0.00    -0.163 C  
HETATM   16  C   UNL     1      -8.815  12.927  67.764  1.00  0.00    -0.188 C  
HETATM   17  C   UNL     1     -10.138  12.939  68.418  1.00  0.00    -0.227 C  
HETATM   18  C   UNL     1      -8.034  14.219  67.646  1.00  0.00    -0.191 C  
HETATM   19  C   UNL     1     -10.666  14.098  68.861  1.00  0.00    -0.270 C  
HETATM   20  C   UNL     1     -11.955  14.062  69.573  1.00  0.00    -0.339 C  
HETATM   21  O   UNL     1     -12.767  14.971  69.453  1.00  0.00     0.005 OA 
HETATM   22  C   UNL     1     -12.117  12.917  70.520  1.00  0.00    -0.364 C  
ENDROOT
BRANCH   4  23
HETATM   23  C   UNL     1     -10.172   6.872  66.784  1.00  0.00    -0.206 C  
HETATM   24  O   UNL     1     -11.364   6.873  67.114  1.00  0.00    -0.290 OA 
HETATM   25  C   UNL     1      -9.633   5.591  66.183  1.00  0.00    -0.158 C  
ENDBRANCH   4  23
TORSDOF 1
ENDMDL
MODEL       75
REMARK 921   NORMALIZED FREE ENERGY PREDICTED BY IDOCK:   -3.47 KCAL/MOL
REMARK 922        TOTAL FREE ENERGY PREDICTED BY IDOCK:   -2.91 KCAL/MOL
REMARK 923 INTER-LIGAND FREE ENERGY PREDICTED BY IDOCK:   -3.68 KCAL/MOL
REMARK 924 INTRA-LIGAND FREE ENERGY PREDICTED BY IDOCK:    0.76 KCAL/MOL
REMARK 927      BINDING AFFINITY PREDICTED BY RF-SCORE:    0.00 PKD
ROOT
HETATM    1  C   UNL     1      -9.583   8.096  71.477  1.00  0.00    -0.226 C  
HETATM    2  C   UNL     1     -10.888   8.415  71.010  1.00  0.00    -0.280 C  
HETATM    3  C   UNL     1     -10.566   6.963  71.057  1.00  0.00    -0.244 C  
HETATM    4  C   UNL     1      -8.776   6.440  71.941  1.00  0.00    -0.134 C  
HETATM    5  C   UNL     1      -7.778   7.418  72.849  1.00  0.00    -0.104 C  
HETATM    6  C   UNL     1      -6.708   5.984  68.062  1.00  0.00    -0.061 C  
HETATM    7  C   UNL     1     -10.040   6.492  72.463  1.00  0.00    -0.189 C  
HETATM    8  C   UNL     1     -10.268   4.907  71.433  1.00  0.00    -0.257 C  
HETATM    9  C   UNL     1     -10.647   6.712  73.825  1.00  0.00    -0.302 C  
HETATM   10  C   UNL     1      -8.187   6.307  67.767  1.00  0.00    -0.118 C  
HETATM   11  C   UNL     1      -8.786   5.135  66.902  1.00  0.00    -0.110 C  
HETATM   12  C   UNL     1      -9.294   4.986  69.946  1.00  0.00    -0.198 C  
HETATM   13  C   UNL     1      -9.027   6.421  69.099  1.00  0.00    -0.129 C  
HETATM   14  C   UNL     1      -8.583   7.746  69.982  1.00  0.00    -0.140 C  
HETATM   15  C   UNL     1      -8.509   8.953  69.096  1.00  0.00    -0.132 C  
HETATM   16  C   UNL     1      -8.381   8.927  67.758  1.00  0.00    -0.110 C  
HETATM   17  C   UNL     1      -8.221   7.670  67.000  1.00  0.00    -0.117 C  
HETATM   18  C   UNL     1      -8.406  10.244  67.012  1.00  0.00    -0.126 C  
HETATM   19  C   UNL     1      -8.050   7.700  65.663  1.00  0.00    -0.127 C  
HETATM   20  C   UNL     1      -7.966   6.425  64.932  1.00  0.00    -0.124 C  
HETATM   21  O   UNL     1      -7.240   6.306  63.953  1.00  0.00    -0.053 OA 
HETATM   22  C   UNL     1      -8.914   5.368  65.401  1.00  0.00    -0.130 C  
ENDROOT
BRANCH   4  23
HETATM   23  C   UNL     1      -8.208   5.091  72.730  1.00  0.00    -0.109 C  
HETATM   24  O   UNL     1      -8.615   4.697  73.830  1.00  0.00    -0.104 OA 
HETATM   25  C   UNL     1      -6.995   4.386  72.160  1.00  0.00    -0.055 C  
ENDBRANCH   4  23
TORSDOF 1
ENDMDL
MODEL       76
REMARK 921   NORMALIZED FREE ENERGY PREDICTED BY IDOCK:   -3.44 KCAL/MOL
REMARK 922        TOTAL FREE ENERGY PREDICTED BY IDOCK:   -2.87 KCAL/MOL
REMARK 923 INTER-LIGAND FREE ENERGY PREDICTED BY IDOCK:   -3.60 KCAL/MOL
REMARK 924 INTRA-LIGAND FREE ENERGY PREDICTED BY IDOCK:    0.73 KCAL/MOL
REMARK 927      BINDING AFFINITY PREDICTED BY RF-SCORE:    0.00 PKD
ROOT
HETATM    1  C   UNL     1     -12.272  13.122  66.388  1.00  0.00    -0.396 C  
HETATM    2  C   UNL     1     -13.083  14.206  65.952  1.00  0.00     0.061 C  
HETATM    3  C   UNL     1     -11.877  13.941  65.123  1.00  0.00    -0.370 C  
HETATM    4  C   UNL     1     -10.796  12.243  65.577  1.00  0.00    -0.319 C  
HETATM    5  C   UNL     1     -11.260  10.992  66.575  1.00  0.00    -0.079 C  
HETATM    6  C   UNL     1      -7.769  14.485  67.889  1.00  0.00    -0.147 C  
HETATM    7  C   UNL     1     -11.772  12.446  64.641  1.00  0.00    -0.426 C  
HETATM    8  C   UNL     1     -10.378  13.382  63.744  1.00  0.00     0.609 C  
HETATM    9  C   UNL     1     -12.809  11.601  63.947  1.00  0.00    -0.085 C  
HETATM   10  C   UNL     1      -8.751  15.511  67.287  1.00  0.00    -0.214 C  
HETATM   11  C   UNL     1      -7.932  16.513  66.389  1.00  0.00    -0.352 C  
HETATM   12  C   UNL     1      -9.293  14.159  64.921  1.00  0.00     1.233 C  
HETATM   13  C   UNL     1      -9.836  14.806  66.383  1.00  0.00    -0.297 C  
HETATM   14  C   UNL     1     -10.862  13.875  67.284  1.00  0.00    -0.292 C  
HETATM   15  C   UNL     1     -11.340  14.645  68.478  1.00  0.00    -0.305 C  
HETATM   16  C   UNL     1     -10.732  15.725  68.999  1.00  0.00    -0.235 C  
HETATM   17  C   UNL     1      -9.449  16.241  68.482  1.00  0.00    -0.219 C  
HETATM   18  C   UNL     1     -11.400  16.431  70.160  1.00  0.00    -0.202 C  
HETATM   19  C   UNL     1      -8.856  17.300  69.068  1.00  0.00    -0.081 C  
HETATM   20  C   UNL     1      -7.615  17.832  68.481  1.00  0.00    -0.276 C  
HETATM   21  O   UNL     1      -6.729  18.292  69.189  1.00  0.00    -0.258 OA 
HETATM   22  C   UNL     1      -7.595  17.874  66.987  1.00  0.00    -0.224 C  
ENDROOT
BRANCH   4  23
HETATM   23  C   UNL     1      -9.804  11.219  64.721  1.00  0.00    -0.266 C  
HETATM   24  O   UNL     1     -10.105  10.682  63.648  1.00  0.00    -0.326 OA 
HETATM   25  C   UNL     1      -8.510  10.770  65.367  1.00  0.00    -0.132 C  
ENDBRANCH   4  23
TORSDOF 1
ENDMDL
MODEL       77
REMARK 921   NORMALIZED FREE ENERGY PREDICTED BY IDOCK:   -3.39 KCAL/MOL
REMARK 922        TOTAL FREE ENERGY PREDICTED BY IDOCK:   -2.83 KCAL/MOL
REMARK 923 INTER-LIGAND FREE ENERGY PREDICTED BY IDOCK:   -4.50 KCAL/MOL
REMARK 924 INTRA-LIGAND FREE ENERGY PREDICTED BY IDOCK:    1.68 KCAL/MOL
REMARK 927      BINDING AFFINITY PREDICTED BY RF-SCORE:    0.00 PKD
ROOT
HETATM    1  C   UNL     1      -8.748   5.286  68.579  1.00  0.00    -0.099 C  
HETATM    2  C   UNL     1      -9.945   4.811  67.977  1.00  0.00    -0.154 C  
HETATM    3  C   UNL     1      -9.369   6.038  67.365  1.00  0.00    -0.111 C  
HETATM    4  C   UNL     1      -7.517   6.634  68.052  1.00  0.00    -0.098 C  
HETATM    5  C   UNL     1      -6.470   5.760  69.009  1.00  0.00    -0.049 C  
HETATM    6  C   UNL     1      -9.224   9.704  70.735  1.00  0.00    -0.059 C  
HETATM    7  C   UNL     1      -7.856   5.878  66.964  1.00  0.00    -0.102 C  
HETATM    8  C   UNL     1      -8.404   7.564  66.268  1.00  0.00    -0.134 C  
HETATM    9  C   UNL     1      -7.203   4.795  66.144  1.00  0.00    -0.076 C  
HETATM   10  C   UNL     1     -10.389   9.075  69.944  1.00  0.00    -0.219 C  
HETATM   11  C   UNL     1     -11.124  10.222  69.153  1.00  0.00    -0.283 C  
HETATM   12  C   UNL     1      -9.015   8.607  67.575  1.00  0.00    -0.143 C  
HETATM   13  C   UNL     1      -9.867   8.009  68.904  1.00  0.00    -0.176 C  
HETATM   14  C   UNL     1      -9.246   6.679  69.662  1.00  0.00    -0.145 C  
HETATM   15  C   UNL     1     -10.185   6.211  70.733  1.00  0.00    -0.249 C  
HETATM   16  C   UNL     1     -11.145   6.959  71.304  1.00  0.00    -0.293 C  
HETATM   17  C   UNL     1     -11.336   8.387  70.981  1.00  0.00    -0.303 C  
HETATM   18  C   UNL     1     -12.060   6.299  72.313  1.00  0.00    -0.255 C  
HETATM   19  C   UNL     1     -12.284   9.106  71.615  1.00  0.00    -0.433 C  
HETATM   20  C   UNL     1     -12.494  10.508  71.216  1.00  0.00    -0.419 C  
HETATM   21  O   UNL     1     -12.805  11.358  72.040  1.00  0.00    -0.359 OA 
HETATM   22  C   UNL     1     -12.422  10.759  69.744  1.00  0.00    -0.231 C  
ENDROOT
BRANCH   4  23
HETATM   23  C   UNL     1      -6.246   7.490  67.407  1.00  0.00    -0.049 C  
HETATM   24  O   UNL     1      -5.926   8.636  67.746  1.00  0.00    -0.045 OA 
HETATM   25  C   UNL     1      -5.528   6.909  66.208  1.00  0.00    -0.022 C  
ENDBRANCH   4  23
TORSDOF 1
ENDMDL
MODEL       78
REMARK 921   NORMALIZED FREE ENERGY PREDICTED BY IDOCK:   -3.37 KCAL/MOL
REMARK 922        TOTAL FREE ENERGY PREDICTED BY IDOCK:   -2.80 KCAL/MOL
REMARK 923 INTER-LIGAND FREE ENERGY PREDICTED BY IDOCK:   -3.56 KCAL/MOL
REMARK 924 INTRA-LIGAND FREE ENERGY PREDICTED BY IDOCK:    0.75 KCAL/MOL
REMARK 927      BINDING AFFINITY PREDICTED BY RF-SCORE:    0.00 PKD
ROOT
HETATM    1  C   UNL     1      -6.670   6.302  65.303  1.00  0.00    -0.047 C  
HETATM    2  C   UNL     1      -5.629   6.212  66.267  1.00  0.00    -0.013 C  
HETATM    3  C   UNL     1      -6.582   5.071  66.252  1.00  0.00    -0.049 C  
HETATM    4  C   UNL     1      -7.970   5.043  64.725  1.00  0.00    -0.100 C  
HETATM    5  C   UNL     1      -7.977   5.992  63.355  1.00  0.00    -0.112 C  
HETATM    6  C   UNL     1     -11.181   6.693  67.275  1.00  0.00    -0.304 C  
HETATM    7  C   UNL     1      -6.753   4.425  64.828  1.00  0.00    -0.045 C  
HETATM    8  C   UNL     1      -7.702   3.294  66.030  1.00  0.00    -0.081 C  
HETATM    9  C   UNL     1      -5.691   3.945  63.872  1.00  0.00    -0.014 C  
HETATM   10  C   UNL     1      -9.939   6.483  68.165  1.00  0.00    -0.145 C  
HETATM   11  C   UNL     1     -10.331   5.510  69.340  1.00  0.00    -0.348 C  
HETATM   12  C   UNL     1      -8.954   4.217  66.895  1.00  0.00    -0.134 C  
HETATM   13  C   UNL     1      -8.753   5.829  67.353  1.00  0.00    -0.107 C  
HETATM   14  C   UNL     1      -8.155   6.867  66.215  1.00  0.00    -0.112 C  
HETATM   15  C   UNL     1      -7.927   8.219  66.821  1.00  0.00    -0.099 C  
HETATM   16  C   UNL     1      -8.501   8.671  67.950  1.00  0.00    -0.129 C  
HETATM   17  C   UNL     1      -9.506   7.889  68.697  1.00  0.00    -0.149 C  
HETATM   18  C   UNL     1      -8.090  10.034  68.464  1.00  0.00    -0.103 C  
HETATM   19  C   UNL     1     -10.087   8.406  69.798  1.00  0.00    -0.197 C  
HETATM   20  C   UNL     1     -11.031   7.570  70.559  1.00  0.00    -0.252 C  
HETATM   21  O   UNL     1     -12.007   8.062  71.110  1.00  0.00    -0.293 OA 
HETATM   22  C   UNL     1     -10.630   6.136  70.697  1.00  0.00    -0.307 C  
ENDROOT
BRANCH   4  23
HETATM   23  C   UNL     1      -8.816   3.853  63.930  1.00  0.00    -0.112 C  
HETATM   24  O   UNL     1      -8.304   2.989  63.208  1.00  0.00    -0.084 OA 
HETATM   25  C   UNL     1     -10.328   3.919  63.945  1.00  0.00    -0.220 C  
ENDBRANCH   4  23
TORSDOF 1
ENDMDL
MODEL       79
REMARK 921   NORMALIZED FREE ENERGY PREDICTED BY IDOCK:   -3.26 KCAL/MOL
REMARK 922        TOTAL FREE ENERGY PREDICTED BY IDOCK:   -2.69 KCAL/MOL
REMARK 923 INTER-LIGAND FREE ENERGY PREDICTED BY IDOCK:   -3.41 KCAL/MOL
REMARK 924 INTRA-LIGAND FREE ENERGY PREDICTED BY IDOCK:    0.72 KCAL/MOL
REMARK 927      BINDING AFFINITY PREDICTED BY RF-SCORE:    0.00 PKD
ROOT
HETATM    1  C   UNL     1     -10.128   6.109  69.392  1.00  0.00    -0.230 C  
HETATM    2  C   UNL     1     -10.347   5.650  68.064  1.00  0.00    -0.258 C  
HETATM    3  C   UNL     1      -8.974   5.435  68.592  1.00  0.00    -0.115 C  
HETATM    4  C   UNL     1      -8.669   5.872  70.586  1.00  0.00    -0.137 C  
HETATM    5  C   UNL     1      -9.833   6.174  71.739  1.00  0.00    -0.185 C  
HETATM    6  C   UNL     1      -6.880   9.816  69.706  1.00  0.00    -0.074 C  
HETATM    7  C   UNL     1      -8.953   4.681  69.974  1.00  0.00    -0.140 C  
HETATM    8  C   UNL     1      -7.135   4.810  69.422  1.00  0.00    -0.051 C  
HETATM    9  C   UNL     1      -9.632   3.392  70.360  1.00  0.00    -0.227 C  
HETATM   10  C   UNL     1      -7.168   9.123  68.358  1.00  0.00    -0.077 C  
HETATM   11  C   UNL     1      -5.813   9.003  67.564  1.00  0.00    -0.043 C  
HETATM   12  C   UNL     1      -6.679   6.512  69.175  1.00  0.00    -0.049 C  
HETATM   13  C   UNL     1      -7.749   7.670  68.572  1.00  0.00    -0.119 C  
HETATM   14  C   UNL     1      -9.262   7.716  69.234  1.00  0.00    -0.145 C  
HETATM   15  C   UNL     1     -10.114   8.710  68.504  1.00  0.00    -0.211 C  
HETATM   16  C   UNL     1      -9.651   9.717  67.742  1.00  0.00    -0.161 C  
HETATM   17  C   UNL     1      -8.211  10.005  67.596  1.00  0.00    -0.114 C  
HETATM   18  C   UNL     1     -10.657  10.578  67.007  1.00  0.00    -0.310 C  
HETATM   19  C   UNL     1      -7.799  11.054  66.857  1.00  0.00    -0.140 C  
HETATM   20  C   UNL     1      -6.354  11.268  66.675  1.00  0.00    -0.135 C  
HETATM   21  O   UNL     1      -5.888  12.398  66.605  1.00  0.00    -0.199 OA 
HETATM   22  C   UNL     1      -5.556  10.022  66.461  1.00  0.00    -0.046 C  
ENDROOT
BRANCH   4  23
HETATM   23  C   UNL     1      -7.619   5.334  71.758  1.00  0.00    -0.107 C  
HETATM   24  O   UNL     1      -7.501   4.154  72.108  1.00  0.00    -0.065 OA 
HETATM   25  C   UNL     1      -6.873   6.365  72.578  1.00  0.00    -0.069 C  
ENDBRANCH   4  23
TORSDOF 1
ENDMDL
MODEL       80
REMARK 921   NORMALIZED FREE ENERGY PREDICTED BY IDOCK:   -3.14 KCAL/MOL
REMARK 922        TOTAL FREE ENERGY PREDICTED BY IDOCK:   -2.56 KCAL/MOL
REMARK 923 INTER-LIGAND FREE ENERGY PREDICTED BY IDOCK:   -3.70 KCAL/MOL
REMARK 924 INTRA-LIGAND FREE ENERGY PREDICTED BY IDOCK:    1.14 KCAL/MOL
REMARK 927      BINDING AFFINITY PREDICTED BY RF-SCORE:    0.00 PKD
ROOT
HETATM    1  C   UNL     1      -8.952  10.874  65.017  1.00  0.00    -0.184 C  
HETATM    2  C   UNL     1      -9.632  10.063  64.067  1.00  0.00    -0.243 C  
HETATM    3  C   UNL     1     -10.460  10.534  65.210  1.00  0.00    -0.232 C  
HETATM    4  C   UNL     1      -9.584  11.897  66.488  1.00  0.00    -0.226 C  
HETATM    5  C   UNL     1      -8.167  12.740  66.244  1.00  0.00     0.669 C  
HETATM    6  C   UNL     1      -8.577   8.814  69.489  1.00  0.00    -0.130 C  
HETATM    7  C   UNL     1     -10.405  12.094  65.412  1.00  0.00    -0.301 C  
HETATM    8  C   UNL     1     -11.734  11.458  66.618  1.00  0.00     0.178 C  
HETATM    9  C   UNL     1     -10.633  13.189  64.400  1.00  0.00    -0.441 C  
HETATM   10  C   UNL     1      -9.370   8.125  68.360  1.00  0.00    -0.135 C  
HETATM   11  C   UNL     1     -10.652   7.460  68.990  1.00  0.00    -0.203 C  
HETATM   12  C   UNL     1     -11.039  10.255  67.730  1.00  0.00    -0.335 C  
HETATM   13  C   UNL     1      -9.836   9.165  67.268  1.00  0.00    -0.244 C  
HETATM   14  C   UNL     1      -8.551   9.774  66.426  1.00  0.00    -0.132 C  
HETATM   15  C   UNL     1      -7.646   8.661  65.992  1.00  0.00    -0.093 C  
HETATM   16  C   UNL     1      -7.607   7.433  66.539  1.00  0.00    -0.092 C  
HETATM   17  C   UNL     1      -8.425   7.061  67.711  1.00  0.00    -0.120 C  
HETATM   18  C   UNL     1      -6.689   6.402  65.919  1.00  0.00    -0.048 C  
HETATM   19  C   UNL     1      -8.316   5.831  68.252  1.00  0.00    -0.107 C  
HETATM   20  C   UNL     1      -9.199   5.471  69.374  1.00  0.00    -0.117 C  
HETATM   21  O   UNL     1      -8.807   4.740  70.275  1.00  0.00    -0.097 OA 
HETATM   22  C   UNL     1     -10.606   5.959  69.248  1.00  0.00    -0.379 C  
ENDROOT
BRANCH   4  23
HETATM   23  C   UNL     1     -10.150  13.099  67.488  1.00  0.00    -0.222 C  
HETATM   24  O   UNL     1     -11.278  13.602  67.415  1.00  0.00    -0.284 OA 
HETATM   25  C   UNL     1      -9.175  13.750  68.446  1.00  0.00    -0.182 C  
ENDBRANCH   4  23
TORSDOF 1
ENDMDL
MODEL       81
REMARK 921   NORMALIZED FREE ENERGY PREDICTED BY IDOCK:   -3.11 KCAL/MOL
REMARK 922        TOTAL FREE ENERGY PREDICTED BY IDOCK:   -2.52 KCAL/MOL
REMARK 923 INTER-LIGAND FREE ENERGY PREDICTED BY IDOCK:   -3.39 KCAL/MOL
REMARK 924 INTRA-LIGAND FREE ENERGY PREDICTED BY IDOCK:    0.86 KCAL/MOL
REMARK 927      BINDING AFFINITY PREDICTED BY RF-SCORE:    0.00 PKD
ROOT
HETATM    1  C   UNL     1      -6.992   7.931  65.611  1.00  0.00    -0.053 C  
HETATM    2  C   UNL     1      -7.545   6.778  64.987  1.00  0.00    -0.100 C  
HETATM    3  C   UNL     1      -8.534   7.794  65.438  1.00  0.00    -0.124 C  
HETATM    4  C   UNL     1      -7.775   9.580  66.137  1.00  0.00    -0.101 C  
HETATM    5  C   UNL     1      -6.207  10.128  66.004  1.00  0.00    -0.086 C  
HETATM    6  C   UNL     1      -8.216   8.397  70.373  1.00  0.00    -0.115 C  
HETATM    7  C   UNL     1      -8.230   9.238  64.893  1.00  0.00    -0.146 C  
HETATM    8  C   UNL     1      -9.927   9.350  65.750  1.00  0.00    -0.278 C  
HETATM    9  C   UNL     1      -7.965   9.681  63.477  1.00  0.00    -0.140 C  
HETATM   10  C   UNL     1      -8.804   7.263  69.507  1.00  0.00    -0.137 C  
HETATM   11  C   UNL     1     -10.310   7.058  69.919  1.00  0.00    -0.225 C  
HETATM   12  C   UNL     1      -9.798   8.847  67.452  1.00  0.00    -0.247 C  
HETATM   13  C   UNL     1      -8.753   7.627  67.972  1.00  0.00    -0.125 C  
HETATM   14  C   UNL     1      -7.199   7.678  67.414  1.00  0.00    -0.087 C  
HETATM   15  C   UNL     1      -6.448   6.463  67.870  1.00  0.00    -0.049 C  
HETATM   16  C   UNL     1      -6.796   5.679  68.906  1.00  0.00    -0.058 C  
HETATM   17  C   UNL     1      -7.949   5.982  69.778  1.00  0.00    -0.106 C  
HETATM   18  C   UNL     1      -5.968   4.441  69.176  1.00  0.00    -0.022 C  
HETATM   19  C   UNL     1      -8.230   5.190  70.832  1.00  0.00    -0.110 C  
HETATM   20  C   UNL     1      -9.428   5.480  71.636  1.00  0.00    -0.147 C  
HETATM   21  O   UNL     1      -9.438   5.289  72.846  1.00  0.00    -0.143 OA 
HETATM   22  C   UNL     1     -10.629   5.892  70.847  1.00  0.00    -0.319 C  
ENDROOT
BRANCH   4  23
HETATM   23  C   UNL     1      -8.336  11.144  66.215  1.00  0.00    -0.163 C  
HETATM   24  O   UNL     1      -9.042  11.681  65.354  1.00  0.00    -0.136 OA 
HETATM   25  C   UNL     1      -7.818  12.035  67.323  1.00  0.00    -0.170 C  
ENDBRANCH   4  23
TORSDOF 1
ENDMDL
MODEL       82
REMARK 921   NORMALIZED FREE ENERGY PREDICTED BY IDOCK:   -3.07 KCAL/MOL
REMARK 922        TOTAL FREE ENERGY PREDICTED BY IDOCK:   -2.48 KCAL/MOL
REMARK 923 INTER-LIGAND FREE ENERGY PREDICTED BY IDOCK:   -3.20 KCAL/MOL
REMARK 924 INTRA-LIGAND FREE ENERGY PREDICTED BY IDOCK:    0.72 KCAL/MOL
REMARK 927      BINDING AFFINITY PREDICTED BY RF-SCORE:    0.00 PKD
ROOT
HETATM    1  C   UNL     1      -7.480   5.162  66.898  1.00  0.00    -0.087 C  
HETATM    2  C   UNL     1      -6.096   5.471  66.795  1.00  0.00    -0.026 C  
HETATM    3  C   UNL     1      -6.733   5.832  68.089  1.00  0.00    -0.058 C  
HETATM    4  C   UNL     1      -8.677   5.199  68.373  1.00  0.00    -0.104 C  
HETATM    5  C   UNL     1      -9.524   4.103  67.447  1.00  0.00    -0.223 C  
HETATM    6  C   UNL     1     -10.378   9.139  67.318  1.00  0.00    -0.338 C  
HETATM    7  C   UNL     1      -7.495   4.630  68.761  1.00  0.00    -0.064 C  
HETATM    8  C   UNL     1      -7.516   6.041  70.040  1.00  0.00    -0.083 C  
HETATM    9  C   UNL     1      -6.999   3.235  69.046  1.00  0.00    -0.045 C  
HETATM   10  C   UNL     1      -8.842   9.273  67.296  1.00  0.00    -0.132 C  
HETATM   11  C   UNL     1      -8.430  10.398  68.319  1.00  0.00    -0.123 C  
HETATM   12  C   UNL     1      -8.288   7.490  69.354  1.00  0.00    -0.132 C  
HETATM   13  C   UNL     1      -8.142   7.926  67.730  1.00  0.00    -0.128 C  
HETATM   14  C   UNL     1      -8.371   6.737  66.606  1.00  0.00    -0.118 C  
HETATM   15  C   UNL     1      -8.085   7.264  65.232  1.00  0.00    -0.134 C  
HETATM   16  C   UNL     1      -8.075   8.564  64.886  1.00  0.00    -0.145 C  
HETATM   17  C   UNL     1      -8.428   9.640  65.833  1.00  0.00    -0.136 C  
HETATM   18  C   UNL     1      -7.681   8.923  63.469  1.00  0.00    -0.128 C  
HETATM   19  C   UNL     1      -8.448  10.925  65.425  1.00  0.00    -0.088 C  
HETATM   20  C   UNL     1      -8.734  11.977  66.414  1.00  0.00    -0.088 C  
HETATM   21  O   UNL     1      -9.362  12.981  66.102  1.00  0.00    -0.198 OA 
HETATM   22  C   UNL     1      -8.098  11.773  67.751  1.00  0.00    -0.143 C  
ENDROOT
BRANCH   4  23
HETATM   23  C   UNL     1      -9.609   4.829  69.700  1.00  0.00    -0.183 C  
HETATM   24  O   UNL     1      -9.334   3.955  70.530  1.00  0.00    -0.123 OA 
HETATM   25  C   UNL     1     -10.970   5.480  69.822  1.00  0.00    -0.175 C  
ENDBRANCH   4  23
TORSDOF 1
ENDMDL
MODEL       83
REMARK 921   NORMALIZED FREE ENERGY PREDICTED BY IDOCK:   -2.84 KCAL/MOL
REMARK 922        TOTAL FREE ENERGY PREDICTED BY IDOCK:   -2.24 KCAL/MOL
REMARK 923 INTER-LIGAND FREE ENERGY PREDICTED BY IDOCK:   -2.97 KCAL/MOL
REMARK 924 INTRA-LIGAND FREE ENERGY PREDICTED BY IDOCK:    0.73 KCAL/MOL
REMARK 927      BINDING AFFINITY PREDICTED BY RF-SCORE:    0.00 PKD
ROOT
HETATM    1  C   UNL     1     -10.083   5.001  68.752  1.00  0.00    -0.200 C  
HETATM    2  C   UNL     1     -10.270   5.391  67.397  1.00  0.00    -0.247 C  
HETATM    3  C   UNL     1      -8.879   5.012  67.763  1.00  0.00    -0.106 C  
HETATM    4  C   UNL     1      -8.600   4.221  69.649  1.00  0.00    -0.103 C  
HETATM    5  C   UNL     1      -9.779   3.703  70.707  1.00  0.00    -0.222 C  
HETATM    6  C   UNL     1      -7.173   8.057  71.318  1.00  0.00    -0.062 C  
HETATM    7  C   UNL     1      -8.782   3.597  68.445  1.00  0.00    -0.135 C  
HETATM    8  C   UNL     1      -6.987   4.161  68.157  1.00  0.00    -0.051 C  
HETATM    9  C   UNL     1      -9.342   2.278  67.976  1.00  0.00    -0.251 C  
HETATM   10  C   UNL     1      -7.409   8.263  69.808  1.00  0.00    -0.065 C  
HETATM   11  C   UNL     1      -6.054   8.734  69.156  1.00  0.00    -0.043 C  
HETATM   12  C   UNL     1      -6.685   5.715  68.970  1.00  0.00    -0.060 C  
HETATM   13  C   UNL     1      -7.858   6.922  69.107  1.00  0.00    -0.111 C  
HETATM   14  C   UNL     1      -9.364   6.456  69.601  1.00  0.00    -0.148 C  
HETATM   15  C   UNL     1     -10.306   7.622  69.550  1.00  0.00    -0.217 C  
HETATM   16  C   UNL     1      -9.939   8.916  69.540  1.00  0.00    -0.191 C  
HETATM   17  C   UNL     1      -8.531   9.343  69.656  1.00  0.00    -0.166 C  
HETATM   18  C   UNL     1     -11.022   9.964  69.400  1.00  0.00    -0.263 C  
HETATM   19  C   UNL     1      -8.219  10.654  69.687  1.00  0.00     0.046 C  
HETATM   20  C   UNL     1      -6.799  11.043  69.731  1.00  0.00    -0.116 C  
HETATM   21  O   UNL     1      -6.435  12.031  70.356  1.00  0.00    -0.117 OA 
HETATM   22  C   UNL     1      -5.896  10.222  68.868  1.00  0.00    -0.041 C  
ENDROOT
BRANCH   4  23
HETATM   23  C   UNL     1      -7.499   3.181  70.334  1.00  0.00    -0.040 C  
HETATM   24  O   UNL     1      -7.333   2.005  69.989  1.00  0.00    -0.036 OA 
HETATM   25  C   UNL     1      -6.761   3.637  71.575  1.00  0.00    -0.026 C  
ENDBRANCH   4  23
TORSDOF 1
ENDMDL
MODEL       84
REMARK 921   NORMALIZED FREE ENERGY PREDICTED BY IDOCK:   -2.75 KCAL/MOL
REMARK 922        TOTAL FREE ENERGY PREDICTED BY IDOCK:   -2.14 KCAL/MOL
REMARK 923 INTER-LIGAND FREE ENERGY PREDICTED BY IDOCK:   -2.87 KCAL/MOL
REMARK 924 INTRA-LIGAND FREE ENERGY PREDICTED BY IDOCK:    0.73 KCAL/MOL
REMARK 927      BINDING AFFINITY PREDICTED BY RF-SCORE:    0.00 PKD
ROOT
HETATM    1  C   UNL     1      -8.764   5.865  64.907  1.00  0.00     0.030 C  
HETATM    2  C   UNL     1      -7.773   6.400  64.039  1.00  0.00    -0.104 C  
HETATM    3  C   UNL     1      -7.261   5.514  65.119  1.00  0.00    -0.067 C  
HETATM    4  C   UNL     1      -8.673   4.533  66.259  1.00  0.00    -0.113 C  
HETATM    5  C   UNL     1     -10.303   4.398  65.944  1.00  0.00    -0.234 C  
HETATM    6  C   UNL     1      -8.387   7.446  69.570  1.00  0.00    -0.132 C  
HETATM    7  C   UNL     1      -7.975   4.113  65.161  1.00  0.00    -0.093 C  
HETATM    8  C   UNL     1      -6.544   4.007  66.412  1.00  0.00    -0.041 C  
HETATM    9  C   UNL     1      -8.196   3.128  64.040  1.00  0.00    -0.086 C  
HETATM   10  C   UNL     1      -7.339   7.841  68.509  1.00  0.00    -0.091 C  
HETATM   11  C   UNL     1      -5.919   7.836  69.191  1.00  0.00    -0.034 C  
HETATM   12  C   UNL     1      -6.704   5.277  67.648  1.00  0.00    -0.055 C  
HETATM   13  C   UNL     1      -7.319   6.812  67.312  1.00  0.00    -0.091 C  
HETATM   14  C   UNL     1      -8.711   6.889  66.425  1.00  0.00    -0.147 C  
HETATM   15  C   UNL     1      -9.046   8.317  66.116  1.00  0.00    -0.238 C  
HETATM   16  C   UNL     1      -8.582   9.386  66.787  1.00  0.00    -0.134 C  
HETATM   17  C   UNL     1      -7.725   9.262  67.982  1.00  0.00    -0.088 C  
HETATM   18  C   UNL     1      -8.958  10.764  66.284  1.00  0.00    -0.184 C  
HETATM   19  C   UNL     1      -7.322  10.364  68.647  1.00  0.00    -0.085 C  
HETATM   20  C   UNL     1      -6.410  10.206  69.791  1.00  0.00    -0.064 C  
HETATM   21  O   UNL     1      -6.487  10.943  70.766  1.00  0.00    -0.339 OA 
HETATM   22  C   UNL     1      -5.336   9.183  69.602  1.00  0.00    -0.034 C  
ENDROOT
BRANCH   4  23
HETATM   23  C   UNL     1      -8.702   3.114  67.126  1.00  0.00    -0.123 C  
HETATM   24  O   UNL     1      -8.367   2.010  66.679  1.00  0.00    -0.083 OA 
HETATM   25  C   UNL     1      -9.336   3.128  68.500  1.00  0.00    -0.240 C  
ENDBRANCH   4  23
TORSDOF 1
ENDMDL
MODEL       85
REMARK 921   NORMALIZED FREE ENERGY PREDICTED BY IDOCK:   -2.65 KCAL/MOL
REMARK 922        TOTAL FREE ENERGY PREDICTED BY IDOCK:   -2.04 KCAL/MOL
REMARK 923 INTER-LIGAND FREE ENERGY PREDICTED BY IDOCK:   -3.73 KCAL/MOL
REMARK 924 INTRA-LIGAND FREE ENERGY PREDICTED BY IDOCK:    1.69 KCAL/MOL
REMARK 927      BINDING AFFINITY PREDICTED BY RF-SCORE:    0.00 PKD
ROOT
HETATM    1  C   UNL     1     -12.753  13.533  69.607  1.00  0.00     0.266 C  
HETATM    2  C   UNL     1     -11.918  12.394  69.444  1.00  0.00    -0.319 C  
HETATM    3  C   UNL     1     -11.440  13.396  70.434  1.00  0.00     0.116 C  
HETATM    4  C   UNL     1     -12.726  14.949  70.874  1.00  0.00    -0.420 C  
HETATM    5  C   UNL     1     -14.337  15.068  70.464  1.00  0.00     0.787 C  
HETATM    6  C   UNL     1     -10.649  17.765  68.175  1.00  0.00    -0.350 C  
HETATM    7  C   UNL     1     -12.522  13.760  71.518  1.00  0.00    -0.364 C  
HETATM    8  C   UNL     1     -10.916  14.617  72.076  1.00  0.00     1.107 C  
HETATM    9  C   UNL     1     -13.337  12.838  72.389  1.00  0.00    -0.479 C  
HETATM   10  C   UNL     1      -9.858  16.441  68.166  1.00  0.00    -0.238 C  
HETATM   11  C   UNL     1      -8.384  16.742  68.632  1.00  0.00    -0.252 C  
HETATM   12  C   UNL     1     -10.325  15.716  70.807  1.00  0.00     0.254 C  
HETATM   13  C   UNL     1     -10.489  15.389  69.159  1.00  0.00    -0.239 C  
HETATM   14  C   UNL     1     -11.971  14.876  68.637  1.00  0.00    -0.276 C  
HETATM   15  C   UNL     1     -11.907  14.516  67.183  1.00  0.00    -0.412 C  
HETATM   16  C   UNL     1     -10.965  14.935  66.320  1.00  0.00    -0.338 C  
HETATM   17  C   UNL     1      -9.902  15.884  66.705  1.00  0.00    -0.267 C  
HETATM   18  C   UNL     1     -11.007  14.404  64.903  1.00  0.00    -0.416 C  
HETATM   19  C   UNL     1      -9.008  16.310  65.790  1.00  0.00    -0.065 C  
HETATM   20  C   UNL     1      -7.918  17.199  66.226  1.00  0.00    -0.304 C  
HETATM   21  O   UNL     1      -7.492  18.081  65.492  1.00  0.00    -0.538 OA 
HETATM   22  C   UNL     1      -7.317  16.853  67.550  1.00  0.00    -0.177 C  
ENDROOT
BRANCH   4  23
HETATM   23  C   UNL     1     -12.967  15.936  72.190  1.00  0.00    -0.398 C  
HETATM   24  O   UNL     1     -12.063  16.486  72.831  1.00  0.00    -0.517 OA 
HETATM   25  C   UNL     1     -14.367  16.044  72.758  1.00  0.00     0.106 C  
ENDBRANCH   4  23
TORSDOF 1
ENDMDL
MODEL       86
REMARK 921   NORMALIZED FREE ENERGY PREDICTED BY IDOCK:   -2.60 KCAL/MOL
REMARK 922        TOTAL FREE ENERGY PREDICTED BY IDOCK:   -1.98 KCAL/MOL
REMARK 923 INTER-LIGAND FREE ENERGY PREDICTED BY IDOCK:   -3.64 KCAL/MOL
REMARK 924 INTRA-LIGAND FREE ENERGY PREDICTED BY IDOCK:    1.66 KCAL/MOL
REMARK 927      BINDING AFFINITY PREDICTED BY RF-SCORE:    0.00 PKD
ROOT
HETATM    1  C   UNL     1      -7.394   6.152  65.692  1.00  0.00    -0.080 C  
HETATM    2  C   UNL     1      -6.348   7.109  65.796  1.00  0.00    -0.044 C  
HETATM    3  C   UNL     1      -6.645   6.354  67.042  1.00  0.00    -0.058 C  
HETATM    4  C   UNL     1      -7.991   4.798  66.884  1.00  0.00    -0.103 C  
HETATM    5  C   UNL     1      -8.577   4.113  65.483  1.00  0.00    -0.118 C  
HETATM    6  C   UNL     1     -11.342   7.209  68.464  1.00  0.00     0.242 C  
HETATM    7  C   UNL     1      -6.624   4.793  66.840  1.00  0.00    -0.050 C  
HETATM    8  C   UNL     1      -6.805   5.074  68.715  1.00  0.00    -0.051 C  
HETATM    9  C   UNL     1      -5.557   3.934  66.211  1.00  0.00    -0.018 C  
HETATM   10  C   UNL     1     -10.071   8.080  68.525  1.00  0.00    -0.218 C  
HETATM   11  C   UNL     1      -9.843   8.516  70.021  1.00  0.00    -0.181 C  
HETATM   12  C   UNL     1      -8.256   6.045  69.060  1.00  0.00    -0.108 C  
HETATM   13  C   UNL     1      -8.800   7.277  68.042  1.00  0.00    -0.129 C  
HETATM   14  C   UNL     1      -8.876   6.941  66.426  1.00  0.00    -0.155 C  
HETATM   15  C   UNL     1      -9.258   8.172  65.662  1.00  0.00    -0.040 C  
HETATM   16  C   UNL     1      -9.868   9.252  66.183  1.00  0.00    -0.363 C  
HETATM   17  C   UNL     1     -10.307   9.312  67.591  1.00  0.00    -0.311 C  
HETATM   18  C   UNL     1     -10.104  10.444  65.281  1.00  0.00    -0.370 C  
HETATM   19  C   UNL     1     -10.955  10.399  68.054  1.00  0.00    -0.347 C  
HETATM   20  C   UNL     1     -11.314  10.455  69.481  1.00  0.00    -0.265 C  
HETATM   21  O   UNL     1     -12.350  10.994  69.850  1.00  0.00    -0.322 OA 
HETATM   22  C   UNL     1     -10.272   9.926  70.412  1.00  0.00    -0.299 C  
ENDROOT
BRANCH   4  23
HETATM   23  C   UNL     1      -8.245   3.377  67.709  1.00  0.00    -0.080 C  
HETATM   24  O   UNL     1      -9.067   3.231  68.622  1.00  0.00    -0.120 OA 
HETATM   25  C   UNL     1      -7.298   2.224  67.455  1.00  0.00    -0.056 C  
ENDBRANCH   4  23
TORSDOF 1
ENDMDL
MODEL       87
REMARK 921   NORMALIZED FREE ENERGY PREDICTED BY IDOCK:   -2.12 KCAL/MOL
REMARK 922        TOTAL FREE ENERGY PREDICTED BY IDOCK:   -1.48 KCAL/MOL
REMARK 923 INTER-LIGAND FREE ENERGY PREDICTED BY IDOCK:   -2.28 KCAL/MOL
REMARK 924 INTRA-LIGAND FREE ENERGY PREDICTED BY IDOCK:    0.80 KCAL/MOL
REMARK 927      BINDING AFFINITY PREDICTED BY RF-SCORE:    0.00 PKD
ROOT
HETATM    1  C   UNL     1      -8.308   9.762  68.472  1.00  0.00    -0.110 C  
HETATM    2  C   UNL     1      -8.191   8.977  69.652  1.00  0.00    -0.116 C  
HETATM    3  C   UNL     1      -6.985   9.000  68.782  1.00  0.00    -0.062 C  
HETATM    4  C   UNL     1      -7.022  10.302  67.181  1.00  0.00    -0.088 C  
HETATM    5  C   UNL     1      -8.121  11.523  66.903  1.00  0.00    -0.164 C  
HETATM    6  C   UNL     1      -8.093   7.125  64.301  1.00  0.00    -0.043 C  
HETATM    7  C   UNL     1      -6.499  10.456  68.436  1.00  0.00    -0.055 C  
HETATM    8  C   UNL     1      -5.160   9.284  67.757  1.00  0.00    -0.033 C  
HETATM    9  C   UNL     1      -6.223  11.609  69.367  1.00  0.00    -0.100 C  
HETATM   10  C   UNL     1      -7.883   6.457  65.676  1.00  0.00    -0.099 C  
HETATM   11  C   UNL     1      -6.751   5.372  65.531  1.00  0.00    -0.041 C  
HETATM   12  C   UNL     1      -5.870   8.136  66.597  1.00  0.00    -0.044 C  
HETATM   13  C   UNL     1      -7.428   7.509  66.762  1.00  0.00    -0.093 C  
HETATM   14  C   UNL     1      -8.638   8.579  67.111  1.00  0.00    -0.123 C  
HETATM   15  C   UNL     1      -9.924   7.845  67.344  1.00  0.00    -0.261 C  
HETATM   16  C   UNL     1     -10.192   6.597  66.922  1.00  0.00    -0.287 C  
HETATM   17  C   UNL     1      -9.248   5.818  66.095  1.00  0.00    -0.169 C  
HETATM   18  C   UNL     1     -11.515   5.977  67.319  1.00  0.00     0.505 C  
HETATM   19  C   UNL     1      -9.583   4.588  65.659  1.00  0.00    -0.191 C  
HETATM   20  C   UNL     1      -8.589   3.812  64.898  1.00  0.00    -0.113 C  
HETATM   21  O   UNL     1      -8.932   3.067  63.989  1.00  0.00    -0.099 OA 
HETATM   22  C   UNL     1      -7.187   3.918  65.406  1.00  0.00    -0.068 C  
ENDROOT
BRANCH   4  23
HETATM   23  C   UNL     1      -5.868  11.112  66.300  1.00  0.00    -0.139 C  
HETATM   24  O   UNL     1      -5.206  12.068  66.720  1.00  0.00    -0.273 OA 
HETATM   25  C   UNL     1      -5.725  10.778  64.830  1.00  0.00    -0.014 C  
ENDBRANCH   4  23
TORSDOF 1
ENDMDL
MODEL       88
REMARK 921   NORMALIZED FREE ENERGY PREDICTED BY IDOCK:   -2.10 KCAL/MOL
REMARK 922        TOTAL FREE ENERGY PREDICTED BY IDOCK:   -1.46 KCAL/MOL
REMARK 923 INTER-LIGAND FREE ENERGY PREDICTED BY IDOCK:   -2.30 KCAL/MOL
REMARK 924 INTRA-LIGAND FREE ENERGY PREDICTED BY IDOCK:    0.84 KCAL/MOL
REMARK 927      BINDING AFFINITY PREDICTED BY RF-SCORE:    0.00 PKD
ROOT
HETATM    1  C   UNL     1      -7.375   8.714  64.144  1.00  0.00    -0.102 C  
HETATM    2  C   UNL     1      -8.138   8.088  63.120  1.00  0.00    -0.114 C  
HETATM    3  C   UNL     1      -8.902   8.473  64.337  1.00  0.00     0.163 C  
HETATM    4  C   UNL     1      -7.893   9.588  65.750  1.00  0.00    -0.104 C  
HETATM    5  C   UNL     1      -6.416  10.338  65.572  1.00  0.00    -0.121 C  
HETATM    6  C   UNL     1      -7.087   6.075  68.308  1.00  0.00    -0.082 C  
HETATM    7  C   UNL     1      -8.715   9.985  64.732  1.00  0.00    -0.206 C  
HETATM    8  C   UNL     1     -10.069   9.308  65.887  1.00  0.00    -0.188 C  
HETATM    9  C   UNL     1      -8.871  11.215  63.873  1.00  0.00     0.089 C  
HETATM   10  C   UNL     1      -7.956   5.601  67.125  1.00  0.00    -0.102 C  
HETATM   11  C   UNL     1      -9.276   4.966  67.704  1.00  0.00    -0.138 C  
HETATM   12  C   UNL     1      -9.455   7.920  66.817  1.00  0.00    -0.257 C  
HETATM   13  C   UNL     1      -8.355   6.807  66.186  1.00  0.00    -0.130 C  
HETATM   14  C   UNL     1      -7.040   7.414  65.391  1.00  0.00    -0.061 C  
HETATM   15  C   UNL     1      -6.239   6.297  64.793  1.00  0.00    -0.030 C  
HETATM   16  C   UNL     1      -6.292   5.010  65.180  1.00  0.00    -0.035 C  
HETATM   17  C   UNL     1      -7.114   4.557  66.319  1.00  0.00    -0.075 C  
HETATM   18  C   UNL     1      -5.474   3.997  64.408  1.00  0.00    -0.013 C  
HETATM   19  C   UNL     1      -7.098   3.263  66.697  1.00  0.00    -0.055 C  
HETATM   20  C   UNL     1      -7.985   2.834  67.791  1.00  0.00    -0.067 C  
HETATM   21  O   UNL     1      -7.638   1.965  68.581  1.00  0.00    -0.046 OA 
HETATM   22  C   UNL     1      -9.350   3.445  67.769  1.00  0.00    -0.243 C  
ENDROOT
BRANCH   4  23
HETATM   23  C   UNL     1      -8.338  10.693  66.910  1.00  0.00    -0.125 C  
HETATM   24  O   UNL     1      -9.227  11.541  66.769  1.00  0.00    -0.172 OA 
HETATM   25  C   UNL     1      -7.495  10.792  68.164  1.00  0.00    -0.091 C  
ENDBRANCH   4  23
TORSDOF 1
ENDMDL
MODEL       89
REMARK 921   NORMALIZED FREE ENERGY PREDICTED BY IDOCK:   -1.99 KCAL/MOL
REMARK 922        TOTAL FREE ENERGY PREDICTED BY IDOCK:   -1.35 KCAL/MOL
REMARK 923 INTER-LIGAND FREE ENERGY PREDICTED BY IDOCK:   -2.91 KCAL/MOL
REMARK 924 INTRA-LIGAND FREE ENERGY PREDICTED BY IDOCK:    1.56 KCAL/MOL
REMARK 927      BINDING AFFINITY PREDICTED BY RF-SCORE:    0.00 PKD
ROOT
HETATM    1  C   UNL     1      -9.510   9.429  68.338  1.00  0.00    -0.148 C  
HETATM    2  C   UNL     1     -10.186  10.295  69.241  1.00  0.00    -0.244 C  
HETATM    3  C   UNL     1      -8.707  10.450  69.199  1.00  0.00    -0.173 C  
HETATM    4  C   UNL     1      -7.706   9.381  67.745  1.00  0.00    -0.088 C  
HETATM    5  C   UNL     1      -8.373   8.584  66.443  1.00  0.00    -0.115 C  
HETATM    6  C   UNL     1      -6.519   6.185  70.558  1.00  0.00    -0.043 C  
HETATM    7  C   UNL     1      -8.150  10.675  67.745  1.00  0.00    -0.111 C  
HETATM    8  C   UNL     1      -6.670  10.927  68.916  1.00  0.00    -0.067 C  
HETATM    9  C   UNL     1      -8.589  11.676  66.706  1.00  0.00    -0.180 C  
HETATM   10  C   UNL     1      -7.258   7.270  71.368  1.00  0.00    -0.076 C  
HETATM   11  C   UNL     1      -6.288   7.792  72.494  1.00  0.00    -0.061 C  
HETATM   12  C   UNL     1      -6.403   9.470  69.902  1.00  0.00    -0.050 C  
HETATM   13  C   UNL     1      -7.663   8.493  70.455  1.00  0.00    -0.084 C  
HETATM   14  C   UNL     1      -8.826   8.070  69.360  1.00  0.00    -0.144 C  
HETATM   15  C   UNL     1      -9.924   7.311  70.042  1.00  0.00    -0.184 C  
HETATM   16  C   UNL     1      -9.814   6.683  71.226  1.00  0.00    -0.190 C  
HETATM   17  C   UNL     1      -8.541   6.608  71.969  1.00  0.00    -0.123 C  
HETATM   18  C   UNL     1     -11.052   6.035  71.808  1.00  0.00    -0.332 C  
HETATM   19  C   UNL     1      -8.471   5.927  73.130  1.00  0.00    -0.116 C  
HETATM   20  C   UNL     1      -7.205   5.933  73.880  1.00  0.00    -0.082 C  
HETATM   21  O   UNL     1      -6.840   4.950  74.512  1.00  0.00    -0.069 OA 
HETATM   22  C   UNL     1      -6.495   7.249  73.903  1.00  0.00    -0.076 C  
ENDROOT
BRANCH   4  23
HETATM   23  C   UNL     1      -6.278   9.581  66.917  1.00  0.00    -0.065 C  
HETATM   24  O   UNL     1      -5.390  10.383  67.230  1.00  0.00    -0.040 OA 
HETATM   25  C   UNL     1      -6.111   8.863  65.594  1.00  0.00    -0.052 C  
ENDBRANCH   4  23
TORSDOF 1
ENDMDL
MODEL       90
REMARK 921   NORMALIZED FREE ENERGY PREDICTED BY IDOCK:   -1.96 KCAL/MOL
REMARK 922        TOTAL FREE ENERGY PREDICTED BY IDOCK:   -1.31 KCAL/MOL
REMARK 923 INTER-LIGAND FREE ENERGY PREDICTED BY IDOCK:   -2.96 KCAL/MOL
REMARK 924 INTRA-LIGAND FREE ENERGY PREDICTED BY IDOCK:    1.65 KCAL/MOL
REMARK 927      BINDING AFFINITY PREDICTED BY RF-SCORE:    0.00 PKD
ROOT
HETATM    1  C   UNL     1      -7.120  16.173  67.786  1.00  0.00    -0.157 C  
HETATM    2  C   UNL     1      -6.353  15.597  66.736  1.00  0.00     0.733 C  
HETATM    3  C   UNL     1      -7.776  15.874  66.405  1.00  0.00     0.055 C  
HETATM    4  C   UNL     1      -8.868  16.916  67.812  1.00  0.00    -0.217 C  
HETATM    5  C   UNL     1      -8.281  17.721  69.148  1.00  0.00     0.091 C  
HETATM    6  C   UNL     1     -10.757  13.258  69.420  1.00  0.00     0.104 C  
HETATM    7  C   UNL     1      -8.203  17.359  66.702  1.00  0.00    -0.290 C  
HETATM    8  C   UNL     1      -9.678  16.563  65.798  1.00  0.00    -0.237 C  
HETATM    9  C   UNL     1      -7.536  18.641  66.270  1.00  0.00    -0.291 C  
HETATM   10  C   UNL     1      -9.884  12.843  68.217  1.00  0.00    -0.228 C  
HETATM   11  C   UNL     1     -10.808  12.130  67.159  1.00  0.00    -0.286 C  
HETATM   12  C   UNL     1     -10.253  15.133  66.687  1.00  0.00    -0.270 C  
HETATM   13  C   UNL     1      -9.219  14.099  67.530  1.00  0.00    -0.192 C  
HETATM   14  C   UNL     1      -8.090  14.799  68.513  1.00  0.00    -0.146 C  
HETATM   15  C   UNL     1      -7.183  13.750  69.084  1.00  0.00    -0.016 C  
HETATM   16  C   UNL     1      -7.468  12.439  69.166  1.00  0.00     0.166 C  
HETATM   17  C   UNL     1      -8.774  11.883  68.759  1.00  0.00     0.056 C  
HETATM   18  C   UNL     1      -6.399  11.507  69.695  1.00  0.00    -0.133 C  
HETATM   19  C   UNL     1      -9.028  10.567  68.903  1.00  0.00    -0.175 C  
HETATM   20  C   UNL     1     -10.313  10.037  68.420  1.00  0.00    -0.191 C  
HETATM   21  O   UNL     1     -10.881   9.125  69.008  1.00  0.00    -0.191 OA 
HETATM   22  C   UNL     1     -10.778  10.607  67.119  1.00  0.00    -0.327 C  
ENDROOT
BRANCH   4  23
HETATM   23  C   UNL     1     -10.190  17.924  67.760  1.00  0.00    -0.368 C  
HETATM   24  O   UNL     1     -11.362  17.555  67.905  1.00  0.00     0.023 OA 
HETATM   25  C   UNL     1      -9.977  19.363  67.340  1.00  0.00    -0.476 C  
ENDBRANCH   4  23
TORSDOF 1
ENDMDL
MODEL       91
REMARK 921   NORMALIZED FREE ENERGY PREDICTED BY IDOCK:   -1.22 KCAL/MOL
REMARK 922        TOTAL FREE ENERGY PREDICTED BY IDOCK:   -0.52 KCAL/MOL
REMARK 923 INTER-LIGAND FREE ENERGY PREDICTED BY IDOCK:   -1.72 KCAL/MOL
REMARK 924 INTRA-LIGAND FREE ENERGY PREDICTED BY IDOCK:    1.20 KCAL/MOL
REMARK 927      BINDING AFFINITY PREDICTED BY RF-SCORE:    0.00 PKD
ROOT
HETATM    1  C   UNL     1      -8.544   6.952  66.776  1.00  0.00    -0.120 C  
HETATM    2  C   UNL     1      -7.258   6.490  66.381  1.00  0.00    -0.073 C  
HETATM    3  C   UNL     1      -7.715   6.031  67.720  1.00  0.00    -0.101 C  
HETATM    4  C   UNL     1      -9.660   6.484  68.241  1.00  0.00    -0.131 C  
HETATM    5  C   UNL     1     -10.862   7.059  67.240  1.00  0.00    -0.403 C  
HETATM    6  C   UNL     1      -8.458   9.959  70.694  1.00  0.00     0.328 C  
HETATM    7  C   UNL     1      -9.132   5.348  67.691  1.00  0.00    -0.109 C  
HETATM    8  C   UNL     1      -8.468   5.093  69.456  1.00  0.00    -0.093 C  
HETATM    9  C   UNL     1      -9.629   4.235  66.803  1.00  0.00    -0.221 C  
HETATM   10  C   UNL     1      -7.171   9.279  70.184  1.00  0.00    -0.083 C  
HETATM   11  C   UNL     1      -6.305   8.861  71.433  1.00  0.00    -0.073 C  
HETATM   12  C   UNL     1      -8.100   6.661  70.215  1.00  0.00    -0.121 C  
HETATM   13  C   UNL     1      -7.499   7.980  69.350  1.00  0.00    -0.096 C  
HETATM   14  C   UNL     1      -8.246   8.350  67.924  1.00  0.00    -0.127 C  
HETATM   15  C   UNL     1      -7.514   9.460  67.232  1.00  0.00    -0.091 C  
HETATM   16  C   UNL     1      -6.671  10.323  67.826  1.00  0.00    -0.073 C  
HETATM   17  C   UNL     1      -6.424  10.316  69.282  1.00  0.00    -0.049 C  
HETATM   18  C   UNL     1      -5.952  11.333  66.958  1.00  0.00    -0.100 C  
HETATM   19  C   UNL     1      -5.605  11.231  69.837  1.00  0.00    -0.080 C  
HETATM   20  C   UNL     1      -5.326  11.149  71.280  1.00  0.00    -0.022 C  
HETATM   21  O   UNL     1      -5.167  12.161  71.950  1.00  0.00    -0.355 OA 
HETATM   22  C   UNL     1      -5.134   9.763  71.805  1.00  0.00    -0.076 C  
ENDROOT
BRANCH   4  23
HETATM   23  C   UNL     1     -10.795   5.801  69.246  1.00  0.00    -0.303 C  
HETATM   24  O   UNL     1     -10.715   4.664  69.726  1.00  0.00     0.273 OA 
HETATM   25  C   UNL     1     -12.099   6.540  69.459  1.00  0.00     0.574 C  
ENDBRANCH   4  23
TORSDOF 1
ENDMDL
MODEL       92
REMARK 921   NORMALIZED FREE ENERGY PREDICTED BY IDOCK:   -1.20 KCAL/MOL
REMARK 922        TOTAL FREE ENERGY PREDICTED BY IDOCK:   -0.51 KCAL/MOL
REMARK 923 INTER-LIGAND FREE ENERGY PREDICTED BY IDOCK:   -2.19 KCAL/MOL
REMARK 924 INTRA-LIGAND FREE ENERGY PREDICTED BY IDOCK:    1.68 KCAL/MOL
REMARK 927      BINDING AFFINITY PREDICTED BY RF-SCORE:    0.00 PKD
ROOT
HETATM    1  C   UNL     1      -8.540  10.121  68.252  1.00  0.00    -0.116 C  
HETATM    2  C   UNL     1      -7.762  11.065  68.977  1.00  0.00    -0.132 C  
HETATM    3  C   UNL     1      -6.986  10.101  68.153  1.00  0.00    -0.075 C  
HETATM    4  C   UNL     1      -8.070   8.862  66.909  1.00  0.00    -0.109 C  
HETATM    5  C   UNL     1      -9.683   8.997  66.512  1.00  0.00    -0.311 C  
HETATM    6  C   UNL     1      -7.864   5.451  69.711  1.00  0.00    -0.081 C  
HETATM    7  C   UNL     1      -7.451  10.055  66.650  1.00  0.00    -0.104 C  
HETATM    8  C   UNL     1      -5.881   8.982  66.743  1.00  0.00    -0.052 C  
HETATM    9  C   UNL     1      -7.643  11.195  65.683  1.00  0.00     0.219 C  
HETATM   10  C   UNL     1      -7.031   6.601  70.313  1.00  0.00    -0.066 C  
HETATM   11  C   UNL     1      -5.557   6.086  70.524  1.00  0.00    -0.014 C  
HETATM   12  C   UNL     1      -6.095   7.668  67.924  1.00  0.00    -0.044 C  
HETATM   13  C   UNL     1      -6.988   7.848  69.345  1.00  0.00    -0.059 C  
HETATM   14  C   UNL     1      -8.471   8.564  69.218  1.00  0.00    -0.128 C  
HETATM   15  C   UNL     1      -9.070   8.755  70.578  1.00  0.00    -0.205 C  
HETATM   16  C   UNL     1      -8.708   8.084  71.687  1.00  0.00    -0.169 C  
HETATM   17  C   UNL     1      -7.704   7.003  71.667  1.00  0.00    -0.093 C  
HETATM   18  C   UNL     1      -9.362   8.465  72.998  1.00  0.00    -0.249 C  
HETATM   19  C   UNL     1      -7.409   6.329  72.796  1.00  0.00    -0.092 C  
HETATM   20  C   UNL     1      -6.351   5.306  72.755  1.00  0.00    -0.047 C  
HETATM   21  O   UNL     1      -6.429   4.290  73.434  1.00  0.00    -0.041 OA 
HETATM   22  C   UNL     1      -5.156   5.671  71.934  1.00  0.00    -0.009 C  
ENDROOT
BRANCH   4  23
HETATM   23  C   UNL     1      -7.762   8.077  65.476  1.00  0.00    -0.093 C  
HETATM   24  O   UNL     1      -6.854   7.254  65.306  1.00  0.00    -0.050 OA 
HETATM   25  C   UNL     1      -8.525   8.512  64.243  1.00  0.00    -0.068 C  
ENDBRANCH   4  23
TORSDOF 1
ENDMDL
MODEL       93
REMARK 921   NORMALIZED FREE ENERGY PREDICTED BY IDOCK:   -1.13 KCAL/MOL
REMARK 922        TOTAL FREE ENERGY PREDICTED BY IDOCK:   -0.43 KCAL/MOL
REMARK 923 INTER-LIGAND FREE ENERGY PREDICTED BY IDOCK:   -1.29 KCAL/MOL
REMARK 924 INTRA-LIGAND FREE ENERGY PREDICTED BY IDOCK:    0.86 KCAL/MOL
REMARK 927      BINDING AFFINITY PREDICTED BY RF-SCORE:    0.00 PKD
ROOT
HETATM    1  C   UNL     1      -8.183  14.130  67.213  1.00  0.00    -0.200 C  
HETATM    2  C   UNL     1      -7.172  14.393  68.178  1.00  0.00    -0.129 C  
HETATM    3  C   UNL     1      -7.947  13.142  68.394  1.00  0.00    -0.130 C  
HETATM    4  C   UNL     1      -9.265  12.599  66.902  1.00  0.00    -0.216 C  
HETATM    5  C   UNL     1      -9.366  13.241  65.367  1.00  0.00     0.399 C  
HETATM    6  C   UNL     1     -12.764  14.226  69.055  1.00  0.00     0.533 C  
HETATM    7  C   UNL     1      -7.975  12.205  67.131  1.00  0.00    -0.170 C  
HETATM    8  C   UNL     1      -8.786  11.209  68.536  1.00  0.00    -0.161 C  
HETATM    9  C   UNL     1      -6.823  11.708  66.295  1.00  0.00     0.244 C  
HETATM   10  C   UNL     1     -11.535  14.389  69.972  1.00  0.00    -0.295 C  
HETATM   11  C   UNL     1     -11.818  13.624  71.320  1.00  0.00     0.278 C  
HETATM   12  C   UNL     1     -10.187  12.088  69.193  1.00  0.00     0.127 C  
HETATM   13  C   UNL     1     -10.240  13.771  69.313  1.00  0.00     0.167 C  
HETATM   14  C   UNL     1      -9.764  14.637  67.989  1.00  0.00    -0.216 C  
HETATM   15  C   UNL     1      -9.756  16.101  68.307  1.00  0.00    -0.220 C  
HETATM   16  C   UNL     1     -10.427  16.680  69.319  1.00  0.00    -0.333 C  
HETATM   17  C   UNL     1     -11.330  15.922  70.207  1.00  0.00    -0.381 C  
HETATM   18  C   UNL     1     -10.238  18.164  69.546  1.00  0.00     0.267 C  
HETATM   19  C   UNL     1     -12.016  16.556  71.179  1.00  0.00     0.252 C  
HETATM   20  C   UNL     1     -12.852  15.758  72.092  1.00  0.00    -0.437 C  
HETATM   21  O   UNL     1     -13.907  16.199  72.529  1.00  0.00    -0.285 OA 
HETATM   22  C   UNL     1     -12.250  14.459  72.520  1.00  0.00    -0.144 C  
ENDROOT
BRANCH   4  23
HETATM   23  C   UNL     1      -9.901  11.160  66.364  1.00  0.00    -0.211 C  
HETATM   24  O   UNL     1      -9.288  10.334  65.678  1.00  0.00    -0.169 OA 
HETATM   25  C   UNL     1     -11.378  10.907  66.577  1.00  0.00     0.140 C  
ENDBRANCH   4  23
TORSDOF 1
ENDMDL
MODEL       94
REMARK 921   NORMALIZED FREE ENERGY PREDICTED BY IDOCK:   -1.03 KCAL/MOL
REMARK 922        TOTAL FREE ENERGY PREDICTED BY IDOCK:   -0.33 KCAL/MOL
REMARK 923 INTER-LIGAND FREE ENERGY PREDICTED BY IDOCK:   -2.09 KCAL/MOL
REMARK 924 INTRA-LIGAND FREE ENERGY PREDICTED BY IDOCK:    1.76 KCAL/MOL
REMARK 927      BINDING AFFINITY PREDICTED BY RF-SCORE:    0.00 PKD
ROOT
HETATM    1  C   UNL     1     -11.256  13.586  68.153  1.00  0.00    -0.302 C  
HETATM    2  C   UNL     1     -12.386  14.264  67.618  1.00  0.00    -0.061 C  
HETATM    3  C   UNL     1     -11.299  13.974  66.645  1.00  0.00    -0.345 C  
HETATM    4  C   UNL     1      -9.745  12.794  67.318  1.00  0.00    -0.206 C  
HETATM    5  C   UNL     1      -9.695  11.903  68.725  1.00  0.00    -0.051 C  
HETATM    6  C   UNL     1      -7.104  16.258  68.062  1.00  0.00    -0.143 C  
HETATM    7  C   UNL     1     -10.876  12.458  66.623  1.00  0.00    -0.281 C  
HETATM    8  C   UNL     1      -9.942  13.281  65.183  1.00  0.00    -0.174 C  
HETATM    9  C   UNL     1     -11.744  11.234  66.482  1.00  0.00     0.377 C  
HETATM   10  C   UNL     1      -8.407  16.791  67.431  1.00  0.00    -0.197 C  
HETATM   11  C   UNL     1      -8.037  17.559  66.107  1.00  0.00    -0.244 C  
HETATM   12  C   UNL     1      -8.932  14.620  65.780  1.00  0.00     0.501 C  
HETATM   13  C   UNL     1      -9.392  15.613  67.065  1.00  0.00    -0.241 C  
HETATM   14  C   UNL     1      -9.977  14.870  68.420  1.00  0.00    -0.222 C  
HETATM   15  C   UNL     1     -10.448  15.896  69.406  1.00  0.00    -0.265 C  
HETATM   16  C   UNL     1     -10.077  17.188  69.420  1.00  0.00    -0.116 C  
HETATM   17  C   UNL     1      -9.078  17.736  68.482  1.00  0.00    -0.282 C  
HETATM   18  C   UNL     1     -10.719  18.105  70.439  1.00  0.00     1.920 C  
HETATM   19  C   UNL     1      -8.705  19.029  68.565  1.00  0.00    -0.392 C  
HETATM   20  C   UNL     1      -7.760  19.559  67.569  1.00  0.00    -0.261 C  
HETATM   21  O   UNL     1      -6.929  20.405  67.874  1.00  0.00    -0.288 OA 
HETATM   22  C   UNL     1      -7.987  19.081  66.171  1.00  0.00    -0.273 C  
ENDROOT
BRANCH   4  23
HETATM   23  C   UNL     1      -8.663  11.756  66.598  1.00  0.00    -0.186 C  
HETATM   24  O   UNL     1      -7.437  11.804  66.748  1.00  0.00    -0.131 OA 
HETATM   25  C   UNL     1      -9.184  10.790  65.554  1.00  0.00    -0.230 C  
ENDBRANCH   4  23
TORSDOF 1
ENDMDL
MODEL       95
REMARK 921   NORMALIZED FREE ENERGY PREDICTED BY IDOCK:   -0.70 KCAL/MOL
REMARK 922        TOTAL FREE ENERGY PREDICTED BY IDOCK:    0.02 KCAL/MOL
REMARK 923 INTER-LIGAND FREE ENERGY PREDICTED BY IDOCK:   -0.72 KCAL/MOL
REMARK 924 INTRA-LIGAND FREE ENERGY PREDICTED BY IDOCK:    0.74 KCAL/MOL
REMARK 927      BINDING AFFINITY PREDICTED BY RF-SCORE:    0.00 PKD
ROOT
HETATM    1  C   UNL     1      -8.322  12.750  66.622  1.00  0.00     0.107 C  
HETATM    2  C   UNL     1      -7.399  12.335  67.620  1.00  0.00    -0.127 C  
HETATM    3  C   UNL     1      -8.406  11.316  67.223  1.00  0.00    -0.145 C  
HETATM    4  C   UNL     1      -9.619  11.788  65.621  1.00  0.00    -0.240 C  
HETATM    5  C   UNL     1      -9.426  13.050  64.550  1.00  0.00     0.595 C  
HETATM    6  C   UNL     1     -12.992  12.992  68.210  1.00  0.00     2.323 C  
HETATM    7  C   UNL     1      -8.457  11.068  65.669  1.00  0.00    -0.099 C  
HETATM    8  C   UNL     1      -9.590   9.749  66.445  1.00  0.00    -0.256 C  
HETATM    9  C   UNL     1      -7.325  10.761  64.722  1.00  0.00     0.274 C  
HETATM   10  C   UNL     1     -11.867  12.464  69.124  1.00  0.00    -0.352 C  
HETATM   11  C   UNL     1     -12.438  11.260  69.965  1.00  0.00    -0.251 C  
HETATM   12  C   UNL     1     -10.876  10.521  67.403  1.00  0.00    -0.349 C  
HETATM   13  C   UNL     1     -10.639  11.943  68.281  1.00  0.00    -0.236 C  
HETATM   14  C   UNL     1      -9.865  13.184  67.511  1.00  0.00    -0.216 C  
HETATM   15  C   UNL     1      -9.629  14.315  68.466  1.00  0.00    -0.220 C  
HETATM   16  C   UNL     1     -10.297  14.512  69.617  1.00  0.00     0.043 C  
HETATM   17  C   UNL     1     -11.418  13.650  70.040  1.00  0.00    -0.160 C  
HETATM   18  C   UNL     1      -9.870  15.662  70.503  1.00  0.00     0.577 C  
HETATM   19  C   UNL     1     -12.086  13.916  71.181  1.00  0.00    -0.320 C  
HETATM   20  C   UNL     1     -13.151  12.994  71.609  1.00  0.00    -0.347 C  
HETATM   21  O   UNL     1     -14.153  13.408  72.179  1.00  0.00    -0.466 OA 
HETATM   22  C   UNL     1     -12.847  11.545  71.406  1.00  0.00    -0.489 C  
ENDROOT
BRANCH   4  23
HETATM   23  C   UNL     1     -10.438  10.910  64.471  1.00  0.00    -0.323 C  
HETATM   24  O   UNL     1      -9.946   9.990  63.806  1.00  0.00    -0.061 OA 
HETATM   25  C   UNL     1     -11.828  11.364  64.080  1.00  0.00     0.017 C  
ENDBRANCH   4  23
TORSDOF 1
ENDMDL
MODEL       96
REMARK 921   NORMALIZED FREE ENERGY PREDICTED BY IDOCK:    0.09 KCAL/MOL
REMARK 922        TOTAL FREE ENERGY PREDICTED BY IDOCK:    0.85 KCAL/MOL
REMARK 923 INTER-LIGAND FREE ENERGY PREDICTED BY IDOCK:   -0.82 KCAL/MOL
REMARK 924 INTRA-LIGAND FREE ENERGY PREDICTED BY IDOCK:    1.68 KCAL/MOL
REMARK 927      BINDING AFFINITY PREDICTED BY RF-SCORE:    0.00 PKD
ROOT
HETATM    1  C   UNL     1      -8.034   7.428  64.431  1.00  0.00    -0.109 C  
HETATM    2  C   UNL     1      -9.337   7.244  63.891  1.00  0.00     2.445 C  
HETATM    3  C   UNL     1      -9.148   8.488  64.683  1.00  0.00     0.351 C  
HETATM    4  C   UNL     1      -7.223   8.915  65.293  1.00  0.00    -0.088 C  
HETATM    5  C   UNL     1      -5.818   8.183  64.775  1.00  0.00    -0.045 C  
HETATM    6  C   UNL     1      -7.897   7.342  69.368  1.00  0.00    -0.122 C  
HETATM    7  C   UNL     1      -7.922   9.349  64.201  1.00  0.00    -0.134 C  
HETATM    8  C   UNL     1      -8.823  10.408  65.502  1.00  0.00    -0.193 C  
HETATM    9  C   UNL     1      -7.586   9.822  62.809  1.00  0.00    -0.121 C  
HETATM   10  C   UNL     1      -9.237   7.259  68.607  1.00  0.00    -0.136 C  
HETATM   11  C   UNL     1     -10.309   8.095  69.403  1.00  0.00    -0.219 C  
HETATM   12  C   UNL     1      -8.919   9.539  67.052  1.00  0.00    -0.150 C  
HETATM   13  C   UNL     1      -9.112   7.865  67.155  1.00  0.00    -0.158 C  
HETATM   14  C   UNL     1      -8.144   6.934  66.193  1.00  0.00    -0.115 C  
HETATM   15  C   UNL     1      -8.529   5.491  66.318  1.00  0.00    -0.122 C  
HETATM   16  C   UNL     1      -9.223   4.958  67.340  1.00  0.00    -0.136 C  
HETATM   17  C   UNL     1      -9.628   5.747  68.520  1.00  0.00    -0.150 C  
HETATM   18  C   UNL     1      -9.598   3.494  67.262  1.00  0.00    -0.166 C  
HETATM   19  C   UNL     1     -10.283   5.156  69.539  1.00  0.00    -0.318 C  
HETATM   20  C   UNL     1     -10.735   5.988  70.667  1.00  0.00    -0.276 C  
HETATM   21  O   UNL     1     -10.742   5.551  71.811  1.00  0.00    -0.231 OA 
HETATM   22  C   UNL     1     -11.287   7.323  70.281  1.00  0.00    -0.266 C  
ENDROOT
BRANCH   4  23
HETATM   23  C   UNL     1      -6.388  10.306  65.656  1.00  0.00    -0.118 C  
HETATM   24  O   UNL     1      -6.705  11.105  66.545  1.00  0.00    -0.131 OA 
HETATM   25  C   UNL     1      -5.261  10.725  64.736  1.00  0.00    -0.116 C  
ENDBRANCH   4  23
TORSDOF 1
ENDMDL
MODEL       97
REMARK 921   NORMALIZED FREE ENERGY PREDICTED BY IDOCK:    0.46 KCAL/MOL
REMARK 922        TOTAL FREE ENERGY PREDICTED BY IDOCK:    1.25 KCAL/MOL
REMARK 923 INTER-LIGAND FREE ENERGY PREDICTED BY IDOCK:   -0.44 KCAL/MOL
REMARK 924 INTRA-LIGAND FREE ENERGY PREDICTED BY IDOCK:    1.69 KCAL/MOL
REMARK 927      BINDING AFFINITY PREDICTED BY RF-SCORE:    0.00 PKD
ROOT
HETATM    1  C   UNL     1     -11.109  10.111  71.141  1.00  0.00    -0.144 C  
HETATM    2  C   UNL     1     -12.139  10.995  70.718  1.00  0.00    -0.467 C  
HETATM    3  C   UNL     1     -12.200   9.626  70.140  1.00  0.00     0.124 C  
HETATM    4  C   UNL     1     -10.869   8.242  70.896  1.00  0.00    -0.261 C  
HETATM    5  C   UNL     1      -9.924   8.395  72.260  1.00  0.00    -0.383 C  
HETATM    6  C   UNL     1      -8.069   8.713  67.509  1.00  0.00    -0.106 C  
HETATM    7  C   UNL     1     -12.171   8.492  71.231  1.00  0.00    -0.310 C  
HETATM    8  C   UNL     1     -12.511   7.615  69.575  1.00  0.00     2.069 C  
HETATM    9  C   UNL     1     -13.028   8.340  72.462  1.00  0.00    -0.156 C  
HETATM   10  C   UNL     1      -9.304   9.590  67.219  1.00  0.00    -0.161 C  
HETATM   11  C   UNL     1      -9.932   9.123  65.852  1.00  0.00    -0.232 C  
HETATM   12  C   UNL     1     -11.206   7.954  68.413  1.00  0.00     0.506 C  
HETATM   13  C   UNL     1     -10.397   9.434  68.348  1.00  0.00    -0.238 C  
HETATM   14  C   UNL     1      -9.882  10.076  69.780  1.00  0.00    -0.270 C  
HETATM   15  C   UNL     1      -9.299  11.438  69.554  1.00  0.00     0.681 C  
HETATM   16  C   UNL     1      -8.851  11.905  68.375  1.00  0.00    -0.159 C  
HETATM   17  C   UNL     1      -8.815  11.075  67.155  1.00  0.00    -0.140 C  
HETATM   18  C   UNL     1      -8.370  13.339  68.310  1.00  0.00    -0.154 C  
HETATM   19  C   UNL     1      -8.313  11.574  66.008  1.00  0.00     0.042 C  
HETATM   20  C   UNL     1      -8.360  10.742  64.794  1.00  0.00     0.004 C  
HETATM   21  O   UNL     1      -7.463  10.790  63.962  1.00  0.00     0.145 OA 
HETATM   22  C   UNL     1      -9.620   9.959  64.617  1.00  0.00    -0.320 C  
ENDROOT
BRANCH   4  23
HETATM   23  C   UNL     1     -10.858   6.586  71.050  1.00  0.00    -0.253 C  
HETATM   24  O   UNL     1     -10.099   5.828  70.436  1.00  0.00    -0.186 OA 
HETATM   25  C   UNL     1     -11.958   5.937  71.863  1.00  0.00    -0.069 C  
ENDBRANCH   4  23
TORSDOF 1
ENDMDL
MODEL       98
REMARK 921   NORMALIZED FREE ENERGY PREDICTED BY IDOCK:    1.75 KCAL/MOL
REMARK 922        TOTAL FREE ENERGY PREDICTED BY IDOCK:    2.61 KCAL/MOL
REMARK 923 INTER-LIGAND FREE ENERGY PREDICTED BY IDOCK:    1.35 KCAL/MOL
REMARK 924 INTRA-LIGAND FREE ENERGY PREDICTED BY IDOCK:    1.26 KCAL/MOL
REMARK 927      BINDING AFFINITY PREDICTED BY RF-SCORE:    0.00 PKD
ROOT
HETATM    1  C   UNL     1     -12.818  10.444  69.978  1.00  0.00     0.012 C  
HETATM    2  C   UNL     1     -13.106  10.959  71.272  1.00  0.00    -0.405 C  
HETATM    3  C   UNL     1     -11.665  10.939  70.902  1.00  0.00    -0.265 C  
HETATM    4  C   UNL     1     -11.217  10.418  68.956  1.00  0.00    -0.289 C  
HETATM    5  C   UNL     1     -12.280  10.284  67.680  1.00  0.00     2.853 C  
HETATM    6  C   UNL     1     -10.203   6.255  70.041  1.00  0.00    -0.237 C  
HETATM    7  C   UNL     1     -11.369  11.651  69.529  1.00  0.00    -0.328 C  
HETATM    8  C   UNL     1      -9.669  11.241  70.282  1.00  0.00     2.146 C  
HETATM    9  C   UNL     1     -11.782  13.024  69.066  1.00  0.00    -0.376 C  
HETATM   10  C   UNL     1     -10.522   7.013  71.346  1.00  0.00    -0.225 C  
HETATM   11  C   UNL     1      -9.262   6.929  72.287  1.00  0.00    -0.144 C  
HETATM   12  C   UNL     1      -9.527   9.493  70.584  1.00  0.00    -0.277 C  
HETATM   13  C   UNL     1     -10.832   8.536  71.065  1.00  0.00    -0.290 C  
HETATM   14  C   UNL     1     -12.249   8.722  70.236  1.00  0.00     0.447 C  
HETATM   15  C   UNL     1     -13.327   7.894  70.868  1.00  0.00     0.169 C  
HETATM   16  C   UNL     1     -13.122   6.841  71.680  1.00  0.00    -0.258 C  
HETATM   17  C   UNL     1     -11.773   6.327  71.988  1.00  0.00    -0.374 C  
HETATM   18  C   UNL     1     -14.330   6.170  72.298  1.00  0.00     0.513 C  
HETATM   19  C   UNL     1     -11.622   5.241  72.771  1.00  0.00    -0.270 C  
HETATM   20  C   UNL     1     -10.261   4.799  73.116  1.00  0.00    -0.169 C  
HETATM   21  O   UNL     1      -9.995   3.611  73.239  1.00  0.00    -0.119 OA 
HETATM   22  C   UNL     1      -9.299   5.904  73.415  1.00  0.00    -0.134 C  
ENDROOT
BRANCH   4  23
HETATM   23  C   UNL     1      -9.970  10.754  67.909  1.00  0.00    -0.174 C  
HETATM   24  O   UNL     1      -9.093  11.603  68.109  1.00  0.00    -0.170 OA 
HETATM   25  C   UNL     1      -9.992  10.108  66.540  1.00  0.00    -0.283 C  
ENDBRANCH   4  23
TORSDOF 1
ENDMDL
MODEL       99
REMARK 921   NORMALIZED FREE ENERGY PREDICTED BY IDOCK:    1.77 KCAL/MOL
REMARK 922        TOTAL FREE ENERGY PREDICTED BY IDOCK:    2.64 KCAL/MOL
REMARK 923 INTER-LIGAND FREE ENERGY PREDICTED BY IDOCK:    0.53 KCAL/MOL
REMARK 924 INTRA-LIGAND FREE ENERGY PREDICTED BY IDOCK:    2.10 KCAL/MOL
REMARK 927      BINDING AFFINITY PREDICTED BY RF-SCORE:    0.00 PKD
ROOT
HETATM    1  C   UNL     1     -10.498  17.318  69.310  1.00  0.00    -0.220 C  
HETATM    2  C   UNL     1      -9.451  17.005  70.220  1.00  0.00     2.031 C  
HETATM    3  C   UNL     1      -9.124  16.808  68.782  1.00  0.00    -0.259 C  
HETATM    4  C   UNL     1     -10.524  17.463  67.415  1.00  0.00    -0.336 C  
HETATM    5  C   UNL     1     -11.848  18.430  67.716  1.00  0.00     2.189 C  
HETATM    6  C   UNL     1     -12.182  13.413  66.797  1.00  0.00    -0.367 C  
HETATM    7  C   UNL     1      -9.406  18.082  67.903  1.00  0.00    -0.264 C  
HETATM    8  C   UNL     1      -8.519  16.846  66.759  1.00  0.00    -0.266 C  
HETATM    9  C   UNL     1      -8.957  19.504  68.125  1.00  0.00    -0.380 C  
HETATM   10  C   UNL     1     -10.980  13.285  67.756  1.00  0.00    -0.278 C  
HETATM   11  C   UNL     1      -9.935  12.301  67.107  1.00  0.00    -0.213 C  
HETATM   12  C   UNL     1      -9.427  15.317  66.672  1.00  0.00    -0.281 C  
HETATM   13  C   UNL     1     -10.276  14.679  67.984  1.00  0.00    -0.231 C  
HETATM   14  C   UNL     1     -11.246  15.715  68.831  1.00  0.00    -0.311 C  
HETATM   15  C   UNL     1     -11.824  15.018  70.026  1.00  0.00    -0.360 C  
HETATM   16  C   UNL     1     -11.922  13.685  70.175  1.00  0.00    -0.407 C  
HETATM   17  C   UNL     1     -11.527  12.737  69.115  1.00  0.00    -0.361 C  
HETATM   18  C   UNL     1     -12.456  13.151  71.486  1.00  0.00    -0.199 C  
HETATM   19  C   UNL     1     -11.688  11.411  69.296  1.00  0.00    -0.404 C  
HETATM   20  C   UNL     1     -11.216  10.491  68.247  1.00  0.00    -0.291 C  
HETATM   21  O   UNL     1     -11.818   9.453  68.001  1.00  0.00     0.974 OA 
HETATM   22  C   UNL     1      -9.911  10.866  67.622  1.00  0.00    -0.197 C  
ENDROOT
BRANCH   4  23
HETATM   23  C   UNL     1     -10.468  17.995  65.841  1.00  0.00    -0.264 C  
HETATM   24  O   UNL     1     -10.871  19.099  65.457  1.00  0.00    -0.438 OA 
HETATM   25  C   UNL     1     -10.055  17.010  64.768  1.00  0.00     1.669 C  
ENDBRANCH   4  23
TORSDOF 1
ENDMDL
MODEL      100
REMARK 921   NORMALIZED FREE ENERGY PREDICTED BY IDOCK:    1.83 KCAL/MOL
REMARK 922        TOTAL FREE ENERGY PREDICTED BY IDOCK:    2.70 KCAL/MOL
REMARK 923 INTER-LIGAND FREE ENERGY PREDICTED BY IDOCK:    0.80 KCAL/MOL
REMARK 924 INTRA-LIGAND FREE ENERGY PREDICTED BY IDOCK:    1.90 KCAL/MOL
REMARK 927      BINDING AFFINITY PREDICTED BY RF-SCORE:    0.00 PKD
ROOT
HETATM    1  C   UNL     1     -11.088  10.241  68.213  1.00  0.00    -0.311 C  
HETATM    2  C   UNL     1      -9.768  10.006  67.739  1.00  0.00    -0.174 C  
HETATM    3  C   UNL     1      -9.897  11.090  68.749  1.00  0.00    -0.206 C  
HETATM    4  C   UNL     1     -11.748  11.316  69.634  1.00  0.00    -0.420 C  
HETATM    5  C   UNL     1     -13.035  10.261  69.558  1.00  0.00     0.988 C  
HETATM    6  C   UNL     1     -12.873  14.684  67.003  1.00  0.00     1.219 C  
HETATM    7  C   UNL     1     -10.641  10.632  70.058  1.00  0.00    -0.150 C  
HETATM    8  C   UNL     1      -9.993  12.387  70.413  1.00  0.00     4.201 C  
HETATM    9  C   UNL     1     -10.369   9.435  70.932  1.00  0.00    -0.380 C  
HETATM   10  C   UNL     1     -11.421  14.290  66.663  1.00  0.00    -0.374 C  
HETATM   11  C   UNL     1     -10.504  15.553  66.878  1.00  0.00    -0.301 C  
HETATM   12  C   UNL     1     -10.634  13.540  69.219  1.00  0.00     0.033 C  
HETATM   13  C   UNL     1     -10.904  13.133  67.604  1.00  0.00    -0.269 C  
HETATM   14  C   UNL     1     -11.695  11.713  67.306  1.00  0.00    -0.255 C  
HETATM   15  C   UNL     1     -11.741  11.448  65.831  1.00  0.00     0.358 C  
HETATM   16  C   UNL     1     -11.579  12.376  64.871  1.00  0.00    -0.392 C  
HETATM   17  C   UNL     1     -11.407  13.810  65.174  1.00  0.00    -0.317 C  
HETATM   18  C   UNL     1     -11.571  11.917  63.428  1.00  0.00    -0.477 C  
HETATM   19  C   UNL     1     -11.295  14.708  64.174  1.00  0.00     0.040 C  
HETATM   20  C   UNL     1     -11.053  16.120  64.513  1.00  0.00    -0.221 C  
HETATM   21  O   UNL     1     -11.535  17.022  63.839  1.00  0.00    -0.784 OA 
HETATM   22  C   UNL     1     -10.095  16.340  65.639  1.00  0.00    -0.340 C  
ENDROOT
BRANCH   4  23
HETATM   23  C   UNL     1     -12.287  11.899  71.095  1.00  0.00    -0.198 C  
HETATM   24  O   UNL     1     -12.862  11.220  71.954  1.00  0.00    -0.401 OA 
HETATM   25  C   UNL     1     -12.229  13.393  71.334  1.00  0.00    -0.071 C  
ENDBRANCH   4  23
TORSDOF 1
ENDMDL
MODEL      101
REMARK 921   NORMALIZED FREE ENERGY PREDICTED BY IDOCK:    3.66 KCAL/MOL
REMARK 922        TOTAL FREE ENERGY PREDICTED BY IDOCK:    4.64 KCAL/MOL
REMARK 923 INTER-LIGAND FREE ENERGY PREDICTED BY IDOCK:    3.87 KCAL/MOL
REMARK 924 INTRA-LIGAND FREE ENERGY PREDICTED BY IDOCK:    0.77 KCAL/MOL
REMARK 927      BINDING AFFINITY PREDICTED BY RF-SCORE:    0.00 PKD
ROOT
HETATM    1  C   UNL     1     -12.173  13.452  67.516  1.00  0.00    -0.231 C  
HETATM    2  C   UNL     1     -11.605  12.782  66.398  1.00  0.00    -0.435 C  
HETATM    3  C   UNL     1     -10.914  12.552  67.695  1.00  0.00    -0.279 C  
HETATM    4  C   UNL     1     -11.830  13.313  69.380  1.00  0.00    -0.386 C  
HETATM    5  C   UNL     1     -13.380  13.914  69.498  1.00  0.00     1.965 C  
HETATM    6  C   UNL     1      -9.213  16.873  69.499  1.00  0.00     0.319 C  
HETATM    7  C   UNL     1     -11.883  12.060  68.833  1.00  0.00    -0.356 C  
HETATM    8  C   UNL     1     -10.125  11.937  69.555  1.00  0.00     0.651 C  
HETATM    9  C   UNL     1     -12.872  10.923  68.810  1.00  0.00     1.737 C  
HETATM   10  C   UNL     1      -8.728  15.975  68.342  1.00  0.00    -0.186 C  
HETATM   11  C   UNL     1      -7.220  15.603  68.605  1.00  0.00    -0.129 C  
HETATM   12  C   UNL     1      -9.320  13.523  69.506  1.00  0.00     1.176 C  
HETATM   13  C   UNL     1      -9.564  14.638  68.263  1.00  0.00    -0.208 C  
HETATM   14  C   UNL     1     -11.125  14.928  67.805  1.00  0.00    -0.313 C  
HETATM   15  C   UNL     1     -11.153  15.841  66.617  1.00  0.00    -0.099 C  
HETATM   16  C   UNL     1     -10.149  16.652  66.239  1.00  0.00    -0.342 C  
HETATM   17  C   UNL     1      -8.902  16.789  67.018  1.00  0.00    -0.227 C  
HETATM   18  C   UNL     1     -10.316  17.447  64.961  1.00  0.00     0.716 C  
HETATM   19  C   UNL     1      -7.944  17.651  66.621  1.00  0.00    -0.285 C  
HETATM   20  C   UNL     1      -6.685  17.708  67.381  1.00  0.00    -0.160 C  
HETATM   21  O   UNL     1      -6.083  18.765  67.526  1.00  0.00    -0.177 OA 
HETATM   22  C   UNL     1      -6.163  16.382  67.833  1.00  0.00    -0.143 C  
ENDROOT
BRANCH   4  23
HETATM   23  C   UNL     1     -11.842  12.910  70.993  1.00  0.00     0.531 C  
HETATM   24  O   UNL     1     -11.953  11.758  71.429  1.00  0.00     0.164 OA 
HETATM   25  C   UNL     1     -11.890  14.031  72.010  1.00  0.00     0.561 C  
ENDBRANCH   4  23
TORSDOF 1
ENDMDL
MODEL      102
REMARK 921   NORMALIZED FREE ENERGY PREDICTED BY IDOCK:    4.47 KCAL/MOL
REMARK 922        TOTAL FREE ENERGY PREDICTED BY IDOCK:    5.50 KCAL/MOL
REMARK 923 INTER-LIGAND FREE ENERGY PREDICTED BY IDOCK:    3.74 KCAL/MOL
REMARK 924 INTRA-LIGAND FREE ENERGY PREDICTED BY IDOCK:    1.76 KCAL/MOL
REMARK 927      BINDING AFFINITY PREDICTED BY RF-SCORE:    0.00 PKD
ROOT
HETATM    1  C   UNL     1      -7.332  14.459  66.806  1.00  0.00     0.926 C  
HETATM    2  C   UNL     1      -8.338  15.089  66.023  1.00  0.00     0.927 C  
HETATM    3  C   UNL     1      -8.358  15.424  67.472  1.00  0.00    -0.190 C  
HETATM    4  C   UNL     1      -6.784  14.721  68.606  1.00  0.00    -0.088 C  
HETATM    5  C   UNL     1      -5.360  14.059  68.051  1.00  0.00    -0.104 C  
HETATM    6  C   UNL     1      -9.107  11.296  70.157  1.00  0.00     2.216 C  
HETATM    7  C   UNL     1      -6.969  15.937  68.007  1.00  0.00    -0.141 C  
HETATM    8  C   UNL     1      -8.202  16.181  69.437  1.00  0.00    -0.091 C  
HETATM    9  C   UNL     1      -6.084  17.025  67.455  1.00  0.00    -0.163 C  
HETATM   10  C   UNL     1     -10.055  12.146  69.286  1.00  0.00     0.365 C  
HETATM   11  C   UNL     1     -11.271  12.601  70.178  1.00  0.00     0.379 C  
HETATM   12  C   UNL     1      -8.962  14.632  69.875  1.00  0.00     0.605 C  
HETATM   13  C   UNL     1      -9.328  13.437  68.740  1.00  0.00     0.089 C  
HETATM   14  C   UNL     1      -8.152  13.052  67.645  1.00  0.00    -0.172 C  
HETATM   15  C   UNL     1      -8.683  12.071  66.644  1.00  0.00    -0.171 C  
HETATM   16  C   UNL     1      -9.760  11.285  66.822  1.00  0.00    -0.218 C  
HETATM   17  C   UNL     1     -10.515  11.250  68.090  1.00  0.00    -0.215 C  
HETATM   18  C   UNL     1     -10.205  10.411  65.669  1.00  0.00    -0.308 C  
HETATM   19  C   UNL     1     -11.561  10.411  68.235  1.00  0.00    -0.100 C  
HETATM   20  C   UNL     1     -12.335  10.455  69.486  1.00  0.00     0.091 C  
HETATM   21  O   UNL     1     -12.819   9.437  69.964  1.00  0.00     0.627 OA 
HETATM   22  C   UNL     1     -12.575  11.827  70.029  1.00  0.00    -0.007 C  
ENDROOT
BRANCH   4  23
HETATM   23  C   UNL     1      -6.032  15.215  70.005  1.00  0.00    -0.142 C  
HETATM   24  O   UNL     1      -5.846  14.498  70.994  1.00  0.00    -0.171 OA 
HETATM   25  C   UNL     1      -5.700  16.684  70.157  1.00  0.00    -0.203 C  
ENDBRANCH   4  23
TORSDOF 1
ENDMDL
MODEL      103
REMARK 921   NORMALIZED FREE ENERGY PREDICTED BY IDOCK:    4.49 KCAL/MOL
REMARK 922        TOTAL FREE ENERGY PREDICTED BY IDOCK:    5.51 KCAL/MOL
REMARK 923 INTER-LIGAND FREE ENERGY PREDICTED BY IDOCK:    3.87 KCAL/MOL
REMARK 924 INTRA-LIGAND FREE ENERGY PREDICTED BY IDOCK:    1.65 KCAL/MOL
REMARK 927      BINDING AFFINITY PREDICTED BY RF-SCORE:    0.00 PKD
ROOT
HETATM    1  C   UNL     1      -8.104  16.015  68.172  1.00  0.00    -0.147 C  
HETATM    2  C   UNL     1      -7.656  16.559  66.937  1.00  0.00    -0.272 C  
HETATM    3  C   UNL     1      -9.125  16.621  67.163  1.00  0.00    -0.227 C  
HETATM    4  C   UNL     1      -9.799  16.057  69.030  1.00  0.00    -0.239 C  
HETATM    5  C   UNL     1      -8.881  15.804  70.397  1.00  0.00     1.357 C  
HETATM    6  C   UNL     1     -10.956  12.015  67.668  1.00  0.00    -0.287 C  
HETATM    7  C   UNL     1      -9.513  17.297  68.529  1.00  0.00    -0.285 C  
HETATM    8  C   UNL     1     -11.151  17.031  67.596  1.00  0.00    -0.051 C  
HETATM    9  C   UNL     1      -9.064  18.622  69.092  1.00  0.00    -0.019 C  
HETATM   10  C   UNL     1     -10.460  12.799  66.435  1.00  0.00    -0.265 C  
HETATM   11  C   UNL     1     -11.622  12.834  65.372  1.00  0.00    -0.393 C  
HETATM   12  C   UNL     1     -11.370  15.308  67.205  1.00  0.00    -0.269 C  
HETATM   13  C   UNL     1     -10.086  14.286  66.813  1.00  0.00    -0.264 C  
HETATM   14  C   UNL     1      -8.751  14.345  67.784  1.00  0.00    -0.180 C  
HETATM   15  C   UNL     1      -7.668  13.472  67.225  1.00  0.00    -0.093 C  
HETATM   16  C   UNL     1      -7.856  12.467  66.351  1.00  0.00     0.602 C  
HETATM   17  C   UNL     1      -9.196  12.056  65.890  1.00  0.00    -0.106 C  
HETATM   18  C   UNL     1      -6.636  11.741  65.825  1.00  0.00     1.260 C  
HETATM   19  C   UNL     1      -9.335  11.012  65.048  1.00  0.00    -0.250 C  
HETATM   20  C   UNL     1     -10.680  10.676  64.552  1.00  0.00     0.074 C  
HETATM   21  O   UNL     1     -11.005   9.513  64.351  1.00  0.00     3.304 OA 
HETATM   22  C   UNL     1     -11.535  11.853  64.209  1.00  0.00    -0.423 C  
ENDROOT
BRANCH   4  23
HETATM   23  C   UNL     1     -11.122  16.436  69.964  1.00  0.00    -0.294 C  
HETATM   24  O   UNL     1     -12.210  16.818  69.519  1.00  0.00     0.686 OA 
HETATM   25  C   UNL     1     -10.946  16.484  71.467  1.00  0.00     0.648 C  
ENDBRANCH   4  23
TORSDOF 1
ENDMDL
MODEL      104
REMARK 921   NORMALIZED FREE ENERGY PREDICTED BY IDOCK:    7.49 KCAL/MOL
REMARK 922        TOTAL FREE ENERGY PREDICTED BY IDOCK:    8.69 KCAL/MOL
REMARK 923 INTER-LIGAND FREE ENERGY PREDICTED BY IDOCK:    7.02 KCAL/MOL
REMARK 924 INTRA-LIGAND FREE ENERGY PREDICTED BY IDOCK:    1.67 KCAL/MOL
REMARK 927      BINDING AFFINITY PREDICTED BY RF-SCORE:    0.00 PKD
ROOT
HETATM    1  C   UNL     1      -6.747  16.334  70.496  1.00  0.00     1.014 C  
HETATM    2  C   UNL     1      -5.335  16.501  70.543  1.00  0.00    -0.188 C  
HETATM    3  C   UNL     1      -5.882  16.083  69.225  1.00  0.00    -0.123 C  
HETATM    4  C   UNL     1      -7.937  16.049  69.043  1.00  0.00    -0.224 C  
HETATM    5  C   UNL     1      -9.052  16.694  70.101  1.00  0.00     1.676 C  
HETATM    6  C   UNL     1      -8.170  11.679  69.660  1.00  0.00     1.039 C  
HETATM    7  C   UNL     1      -7.035  17.021  68.707  1.00  0.00    -0.211 C  
HETATM    8  C   UNL     1      -6.650  15.827  67.274  1.00  0.00    -0.169 C  
HETATM    9  C   UNL     1      -7.048  18.523  68.578  1.00  0.00    -0.293 C  
HETATM   10  C   UNL     1      -6.678  12.070  69.644  1.00  0.00     0.016 C  
HETATM   11  C   UNL     1      -5.968  11.263  68.493  1.00  0.00    -0.042 C  
HETATM   12  C   UNL     1      -6.859  14.139  67.799  1.00  0.00    -0.188 C  
HETATM   13  C   UNL     1      -6.491  13.611  69.359  1.00  0.00    -0.106 C  
HETATM   14  C   UNL     1      -7.045  14.530  70.616  1.00  0.00     0.645 C  
HETATM   15  C   UNL     1      -6.528  13.990  71.916  1.00  0.00     1.282 C  
HETATM   16  C   UNL     1      -6.067  12.741  72.109  1.00  0.00     2.114 C  
HETATM   17  C   UNL     1      -6.090  11.714  71.049  1.00  0.00     0.554 C  
HETATM   18  C   UNL     1      -5.504  12.391  73.470  1.00  0.00     0.980 C  
HETATM   19  C   UNL     1      -5.659  10.463  71.307  1.00  0.00    -0.012 C  
HETATM   20  C   UNL     1      -5.629   9.484  70.207  1.00  0.00    -0.033 C  
HETATM   21  O   UNL     1      -5.870   8.301  70.409  1.00  0.00    -0.028 OA 
HETATM   22  C   UNL     1      -5.168  10.029  68.894  1.00  0.00    -0.035 C  
ENDROOT
BRANCH   4  23
HETATM   23  C   UNL     1      -9.007  16.219  67.781  1.00  0.00    -0.193 C  
HETATM   24  O   UNL     1      -9.628  15.288  67.255  1.00  0.00    -0.209 OA 
HETATM   25  C   UNL     1      -9.110  17.572  67.108  1.00  0.00    -0.247 C  
ENDBRANCH   4  23
TORSDOF 1
ENDMDL
MODEL      105
REMARK 921   NORMALIZED FREE ENERGY PREDICTED BY IDOCK:    7.91 KCAL/MOL
REMARK 922        TOTAL FREE ENERGY PREDICTED BY IDOCK:    9.14 KCAL/MOL
REMARK 923 INTER-LIGAND FREE ENERGY PREDICTED BY IDOCK:    7.48 KCAL/MOL
REMARK 924 INTRA-LIGAND FREE ENERGY PREDICTED BY IDOCK:    1.66 KCAL/MOL
REMARK 927      BINDING AFFINITY PREDICTED BY RF-SCORE:    0.00 PKD
ROOT
HETATM    1  C   UNL     1     -11.740  12.028  67.651  1.00  0.00    -0.365 C  
HETATM    2  C   UNL     1     -10.517  11.531  67.120  1.00  0.00    -0.259 C  
HETATM    3  C   UNL     1     -10.410  12.208  68.441  1.00  0.00    -0.236 C  
HETATM    4  C   UNL     1     -12.181  12.740  69.356  1.00  0.00    -0.131 C  
HETATM    5  C   UNL     1     -13.718  12.262  68.927  1.00  0.00     6.796 C  
HETATM    6  C   UNL     1     -11.885  16.949  68.040  1.00  0.00     0.886 C  
HETATM    7  C   UNL     1     -11.401  11.628  69.516  1.00  0.00    -0.328 C  
HETATM    8  C   UNL     1     -10.276  12.849  70.449  1.00  0.00     3.487 C  
HETATM    9  C   UNL     1     -11.620  10.194  69.927  1.00  0.00    -0.290 C  
HETATM   10  C   UNL     1     -10.603  16.225  67.581  1.00  0.00    -0.311 C  
HETATM   11  C   UNL     1      -9.364  16.966  68.212  1.00  0.00    -0.248 C  
HETATM   12  C   UNL     1     -10.383  14.471  69.724  1.00  0.00     0.118 C  
HETATM   13  C   UNL     1     -10.586  14.723  68.067  1.00  0.00    -0.244 C  
HETATM   14  C   UNL     1     -11.746  13.827  67.304  1.00  0.00    -0.416 C  
HETATM   15  C   UNL     1     -11.708  14.086  65.828  1.00  0.00    -0.368 C  
HETATM   16  C   UNL     1     -11.156  15.163  65.242  1.00  0.00    -0.389 C  
HETATM   17  C   UNL     1     -10.576  16.278  66.017  1.00  0.00    -0.288 C  
HETATM   18  C   UNL     1     -11.133  15.221  63.730  1.00  0.00     1.308 C  
HETATM   19  C   UNL     1     -10.075  17.357  65.384  1.00  0.00     0.277 C  
HETATM   20  C   UNL     1      -9.439  18.416  66.186  1.00  0.00    -0.156 C  
HETATM   21  O   UNL     1      -9.533  19.594  65.863  1.00  0.00    -0.378 OA 
HETATM   22  C   UNL     1      -8.592  17.926  67.315  1.00  0.00    -0.241 C  
ENDROOT
BRANCH   4  23
HETATM   23  C   UNL     1     -12.667  12.964  70.930  1.00  0.00    -0.207 C  
HETATM   24  O   UNL     1     -12.351  13.931  71.633  1.00  0.00    -0.293 OA 
HETATM   25  C   UNL     1     -13.407  11.836  71.618  1.00  0.00    -0.242 C  
ENDBRANCH   4  23
TORSDOF 1
ENDMDL
MODEL      106
REMARK 921   NORMALIZED FREE ENERGY PREDICTED BY IDOCK:    8.11 KCAL/MOL
REMARK 922        TOTAL FREE ENERGY PREDICTED BY IDOCK:    9.35 KCAL/MOL
REMARK 923 INTER-LIGAND FREE ENERGY PREDICTED BY IDOCK:    8.59 KCAL/MOL
REMARK 924 INTRA-LIGAND FREE ENERGY PREDICTED BY IDOCK:    0.75 KCAL/MOL
REMARK 927      BINDING AFFINITY PREDICTED BY RF-SCORE:    0.00 PKD
ROOT
HETATM    1  C   UNL     1     -10.122  14.288  65.490  1.00  0.00    -0.370 C  
HETATM    2  C   UNL     1     -10.912  13.234  66.026  1.00  0.00    -0.292 C  
HETATM    3  C   UNL     1     -11.073  14.552  66.696  1.00  0.00    -0.333 C  
HETATM    4  C   UNL     1     -10.127  16.160  65.814  1.00  0.00    -0.390 C  
HETATM    5  C   UNL     1      -9.434  16.214  64.300  1.00  0.00     5.029 C  
HETATM    6  C   UNL     1      -6.718  16.016  68.624  1.00  0.00    -0.125 C  
HETATM    7  C   UNL     1     -11.415  15.717  65.695  1.00  0.00     0.191 C  
HETATM    8  C   UNL     1     -11.576  16.464  67.439  1.00  0.00     0.448 C  
HETATM    9  C   UNL     1     -12.495  15.777  64.645  1.00  0.00     0.482 C  
HETATM   10  C   UNL     1      -7.733  14.941  69.065  1.00  0.00    -0.153 C  
HETATM   11  C   UNL     1      -8.165  15.248  70.549  1.00  0.00     1.352 C  
HETATM   12  C   UNL     1     -10.046  16.295  68.331  1.00  0.00    -0.237 C  
HETATM   13  C   UNL     1      -9.024  14.962  68.156  1.00  0.00    -0.176 C  
HETATM   14  C   UNL     1      -8.688  14.467  66.616  1.00  0.00    -0.162 C  
HETATM   15  C   UNL     1      -7.874  13.209  66.646  1.00  0.00     0.561 C  
HETATM   16  C   UNL     1      -7.153  12.775  67.696  1.00  0.00    -0.145 C  
HETATM   17  C   UNL     1      -7.022  13.553  68.944  1.00  0.00    -0.108 C  
HETATM   18  C   UNL     1      -6.457  11.436  67.581  1.00  0.00    -0.063 C  
HETATM   19  C   UNL     1      -6.250  13.097  69.950  1.00  0.00    -0.094 C  
HETATM   20  C   UNL     1      -6.199  13.863  71.207  1.00  0.00     0.202 C  
HETATM   21  O   UNL     1      -5.169  13.927  71.865  1.00  0.00    -0.161 OA 
HETATM   22  C   UNL     1      -7.511  14.426  71.652  1.00  0.00     3.497 C  
ENDROOT
BRANCH   4  23
HETATM   23  C   UNL     1     -10.395  17.801  65.772  1.00  0.00    -0.186 C  
HETATM   24  O   UNL     1     -11.370  18.340  65.234  1.00  0.00     0.098 OA 
HETATM   25  C   UNL     1      -9.299  18.719  66.271  1.00  0.00    -0.271 C  
ENDBRANCH   4  23
TORSDOF 1
ENDMDL
MODEL      107
REMARK 921   NORMALIZED FREE ENERGY PREDICTED BY IDOCK:   16.04 KCAL/MOL
REMARK 922        TOTAL FREE ENERGY PREDICTED BY IDOCK:   17.74 KCAL/MOL
REMARK 923 INTER-LIGAND FREE ENERGY PREDICTED BY IDOCK:   14.90 KCAL/MOL
REMARK 924 INTRA-LIGAND FREE ENERGY PREDICTED BY IDOCK:    2.84 KCAL/MOL
REMARK 927      BINDING AFFINITY PREDICTED BY RF-SCORE:    0.00 PKD
ROOT
HETATM    1  C   UNL     1     -11.240  18.535  68.598  1.00  0.00     1.318 C  
HETATM    2  C   UNL     1     -11.032  19.016  69.920  1.00  0.00     2.464 C  
HETATM    3  C   UNL     1     -10.007  19.429  68.924  1.00  0.00    -0.519 C  
HETATM    4  C   UNL     1     -10.386  18.949  66.953  1.00  0.00    -0.469 C  
HETATM    5  C   UNL     1     -11.821  18.402  66.308  1.00  0.00     3.090 C  
HETATM    6  C   UNL     1      -7.750  15.403  67.048  1.00  0.00    -0.220 C  
HETATM    7  C   UNL     1     -10.624  20.105  67.645  1.00  0.00    -0.332 C  
HETATM    8  C   UNL     1      -8.738  20.306  67.482  1.00  0.00    -0.401 C  
HETATM    9  C   UNL     1     -11.608  21.244  67.557  1.00  0.00     5.595 C  
HETATM   10  C   UNL     1      -7.638  16.105  68.417  1.00  0.00    -0.158 C  
HETATM   11  C   UNL     1      -6.128  16.485  68.655  1.00  0.00    -0.134 C  
HETATM   12  C   UNL     1      -7.939  18.716  67.517  1.00  0.00    -0.256 C  
HETATM   13  C   UNL     1      -8.497  17.429  68.456  1.00  0.00    -0.274 C  
HETATM   14  C   UNL     1     -10.115  17.102  68.400  1.00  0.00    -0.314 C  
HETATM   15  C   UNL     1     -10.456  16.018  69.378  1.00  0.00    -0.271 C  
HETATM   16  C   UNL     1      -9.580  15.141  69.900  1.00  0.00     0.009 C  
HETATM   17  C   UNL     1      -8.160  15.102  69.498  1.00  0.00    -0.167 C  
HETATM   18  C   UNL     1     -10.082  14.164  70.942  1.00  0.00     2.881 C  
HETATM   19  C   UNL     1      -7.332  14.173  70.016  1.00  0.00     0.440 C  
HETATM   20  C   UNL     1      -5.908  14.209  69.647  1.00  0.00    -0.107 C  
HETATM   21  O   UNL     1      -5.262  13.176  69.521  1.00  0.00    -0.075 OA 
HETATM   22  C   UNL     1      -5.314  15.578  69.569  1.00  0.00    -0.100 C  
ENDROOT
BRANCH   4  23
HETATM   23  C   UNL     1      -9.948  19.594  65.484  1.00  0.00     0.151 C  
HETATM   24  O   UNL     1     -10.470  19.297  64.403  1.00  0.00     1.955 OA 
HETATM   25  C   UNL     1      -8.719  20.476  65.427  1.00  0.00     0.793 C  
ENDBRANCH   4  23
TORSDOF 1
ENDMDL
MODEL      108
REMARK 921   NORMALIZED FREE ENERGY PREDICTED BY IDOCK:   17.10 KCAL/MOL
REMARK 922        TOTAL FREE ENERGY PREDICTED BY IDOCK:   18.86 KCAL/MOL
REMARK 923 INTER-LIGAND FREE ENERGY PREDICTED BY IDOCK:   17.43 KCAL/MOL
REMARK 924 INTRA-LIGAND FREE ENERGY PREDICTED BY IDOCK:    1.43 KCAL/MOL
REMARK 927      BINDING AFFINITY PREDICTED BY RF-SCORE:    0.00 PKD
ROOT
HETATM    1  C   UNL     1     -11.794  11.453  70.315  1.00  0.00    -0.438 C  
HETATM    2  C   UNL     1     -10.442  11.031  70.438  1.00  0.00     0.912 C  
HETATM    3  C   UNL     1     -10.743  12.373  71.005  1.00  0.00     4.528 C  
HETATM    4  C   UNL     1     -12.729  12.932  71.057  1.00  0.00    -0.338 C  
HETATM    5  C   UNL     1     -14.056  11.958  70.796  1.00  0.00     3.440 C  
HETATM    6  C   UNL     1     -12.388  15.402  67.408  1.00  0.00     0.907 C  
HETATM    7  C   UNL     1     -11.944  12.360  72.022  1.00  0.00     1.983 C  
HETATM    8  C   UNL     1     -11.203  14.111  72.113  1.00  0.00     2.024 C  
HETATM    9  C   UNL     1     -12.164  11.469  73.218  1.00  0.00     7.889 C  
HETATM   10  C   UNL     1     -10.981  14.863  67.740  1.00  0.00    -0.294 C  
HETATM   11  C   UNL     1     -10.015  16.091  67.935  1.00  0.00    -0.233 C  
HETATM   12  C   UNL     1     -11.224  14.880  70.508  1.00  0.00    -0.243 C  
HETATM   13  C   UNL     1     -10.990  14.019  69.075  1.00  0.00    -0.287 C  
HETATM   14  C   UNL     1     -11.834  12.611  68.895  1.00  0.00    -0.345 C  
HETATM   15  C   UNL     1     -11.417  11.919  67.632  1.00  0.00    -0.387 C  
HETATM   16  C   UNL     1     -10.805  12.508  66.589  1.00  0.00    -0.277 C  
HETATM   17  C   UNL     1     -10.537  13.959  66.544  1.00  0.00    -0.279 C  
HETATM   18  C   UNL     1     -10.379  11.638  65.426  1.00  0.00    -0.313 C  
HETATM   19  C   UNL     1      -9.962  14.509  65.456  1.00  0.00    -0.373 C  
HETATM   20  C   UNL     1      -9.643  15.946  65.474  1.00  0.00    -0.124 C  
HETATM   21  O   UNL     1      -9.729  16.625  64.459  1.00  0.00     1.485 OA 
HETATM   22  C   UNL     1      -9.099  16.452  66.772  1.00  0.00    -0.259 C  
ENDROOT
BRANCH   4  23
HETATM   23  C   UNL     1     -13.637  13.949  72.010  1.00  0.00    -0.477 C  
HETATM   24  O   UNL     1     -14.379  13.577  72.927  1.00  0.00    -0.466 OA 
HETATM   25  C   UNL     1     -13.702  15.413  71.633  1.00  0.00    -0.606 C  
ENDBRANCH   4  23
TORSDOF 1
ENDMDL
MODEL      109
REMARK 921   NORMALIZED FREE ENERGY PREDICTED BY IDOCK:   31.32 KCAL/MOL
REMARK 922        TOTAL FREE ENERGY PREDICTED BY IDOCK:   33.91 KCAL/MOL
REMARK 923 INTER-LIGAND FREE ENERGY PREDICTED BY IDOCK:   32.23 KCAL/MOL
REMARK 924 INTRA-LIGAND FREE ENERGY PREDICTED BY IDOCK:    1.68 KCAL/MOL
REMARK 927      BINDING AFFINITY PREDICTED BY RF-SCORE:    0.00 PKD
ROOT
HETATM    1  C   UNL     1     -11.849  16.831  72.289  1.00  0.00     0.023 C  
HETATM    2  C   UNL     1     -11.168  16.351  73.442  1.00  0.00     1.479 C  
HETATM    3  C   UNL     1     -10.363  16.374  72.192  1.00  0.00     3.784 C  
HETATM    4  C   UNL     1     -11.229  17.273  70.549  1.00  0.00     1.209 C  
HETATM    5  C   UNL     1     -12.603  18.215  70.525  1.00  0.00    14.000 C  
HETATM    6  C   UNL     1     -12.457  13.417  68.773  1.00  0.00     0.272 C  
HETATM    7  C   UNL     1     -10.364  17.778  71.480  1.00  0.00     3.807 C  
HETATM    8  C   UNL     1      -9.103  16.714  70.531  1.00  0.00     2.929 C  
HETATM    9  C   UNL     1     -10.060  19.135  72.063  1.00  0.00     3.827 C  
HETATM   10  C   UNL     1     -11.652  13.107  70.052  1.00  0.00    -0.202 C  
HETATM   11  C   UNL     1     -10.419  12.210  69.655  1.00  0.00     0.608 C  
HETATM   12  C   UNL     1      -9.882  15.243  69.899  1.00  0.00    -0.137 C  
HETATM   13  C   UNL     1     -11.109  14.429  70.723  1.00  0.00     0.230 C  
HETATM   14  C   UNL     1     -12.340  15.344  71.338  1.00  0.00    -0.442 C  
HETATM   15  C   UNL     1     -13.272  14.483  72.138  1.00  0.00    -0.455 C  
HETATM   16  C   UNL     1     -13.376  13.147  72.033  1.00  0.00    -0.587 C  
HETATM   17  C   UNL     1     -12.615  12.367  71.038  1.00  0.00    -0.349 C  
HETATM   18  C   UNL     1     -14.311  12.427  72.981  1.00  0.00     2.180 C  
HETATM   19  C   UNL     1     -12.788  11.033  70.942  1.00  0.00    -0.393 C  
HETATM   20  C   UNL     1     -11.960  10.278  69.988  1.00  0.00    -0.197 C  
HETATM   21  O   UNL     1     -12.410   9.308  69.391  1.00  0.00     1.121 OA 
HETATM   22  C   UNL     1     -10.532  10.712  69.915  1.00  0.00    -0.136 C  
ENDROOT
BRANCH   4  23
HETATM   23  C   UNL     1     -10.653  18.044  69.193  1.00  0.00     0.235 C  
HETATM   24  O   UNL     1     -10.711  17.586  68.045  1.00  0.00    -0.387 OA 
HETATM   25  C   UNL     1      -9.849  19.314  69.379  1.00  0.00    -0.186 C  
ENDBRANCH   4  23
TORSDOF 1
ENDMDL
MODEL      110
REMARK 921   NORMALIZED FREE ENERGY PREDICTED BY IDOCK:   33.03 KCAL/MOL
REMARK 922        TOTAL FREE ENERGY PREDICTED BY IDOCK:   35.72 KCAL/MOL
REMARK 923 INTER-LIGAND FREE ENERGY PREDICTED BY IDOCK:   34.23 KCAL/MOL
REMARK 924 INTRA-LIGAND FREE ENERGY PREDICTED BY IDOCK:    1.49 KCAL/MOL
REMARK 927      BINDING AFFINITY PREDICTED BY RF-SCORE:    0.00 PKD
ROOT
HETATM    1  C   UNL     1     -12.439  16.493  66.225  1.00  0.00     3.635 C  
HETATM    2  C   UNL     1     -11.869  17.767  66.496  1.00  0.00     2.823 C  
HETATM    3  C   UNL     1     -10.893  16.661  66.307  1.00  0.00    -0.015 C  
HETATM    4  C   UNL     1     -11.657  14.847  65.688  1.00  0.00    -0.245 C  
HETATM    5  C   UNL     1     -13.191  14.546  65.111  1.00  0.00     0.437 C  
HETATM    6  C   UNL     1     -11.618  13.153  69.770  1.00  0.00    -0.291 C  
HETATM    7  C   UNL     1     -11.106  15.869  64.964  1.00  0.00    -0.370 C  
HETATM    8  C   UNL     1      -9.487  15.202  65.711  1.00  0.00    -0.285 C  
HETATM    9  C   UNL     1     -11.235  16.403  63.560  1.00  0.00     2.871 C  
HETATM   10  C   UNL     1     -10.991  14.561  69.842  1.00  0.00    -0.147 C  
HETATM   11  C   UNL     1      -9.532  14.423  70.420  1.00  0.00     1.816 C  
HETATM   12  C   UNL     1      -9.777  14.552  67.343  1.00  0.00    -0.222 C  
HETATM   13  C   UNL     1     -10.898  15.223  68.412  1.00  0.00    -0.257 C  
HETATM   14  C   UNL     1     -12.396  15.574  67.810  1.00  0.00     0.839 C  
HETATM   15  C   UNL     1     -13.219  16.271  68.852  1.00  0.00     3.359 C  
HETATM   16  C   UNL     1     -12.985  16.238  70.176  1.00  0.00     1.721 C  
HETATM   17  C   UNL     1     -11.903  15.428  70.770  1.00  0.00    -0.394 C  
HETATM   18  C   UNL     1     -13.869  17.071  71.079  1.00  0.00     8.987 C  
HETATM   19  C   UNL     1     -11.738  15.393  72.108  1.00  0.00    -0.551 C  
HETATM   20  C   UNL     1     -10.605  14.632  72.661  1.00  0.00     2.998 C  
HETATM   21  O   UNL     1     -10.705  14.037  73.726  1.00  0.00     3.547 OA 
HETATM   22  C   UNL     1      -9.329  14.759  71.893  1.00  0.00     4.991 C  
ENDROOT
BRANCH   4  23
HETATM   23  C   UNL     1     -11.059  13.552  64.833  1.00  0.00    -0.346 C  
HETATM   24  O   UNL     1      -9.880  13.427  64.480  1.00  0.00    -0.158 OA 
HETATM   25  C   UNL     1     -12.042  12.533  64.297  1.00  0.00    -0.507 C  
ENDBRANCH   4  23
TORSDOF 1
ENDMDL
MODEL      111
REMARK 921   NORMALIZED FREE ENERGY PREDICTED BY IDOCK:   39.48 KCAL/MOL
REMARK 922        TOTAL FREE ENERGY PREDICTED BY IDOCK:   42.55 KCAL/MOL
REMARK 923 INTER-LIGAND FREE ENERGY PREDICTED BY IDOCK:   41.66 KCAL/MOL
REMARK 924 INTRA-LIGAND FREE ENERGY PREDICTED BY IDOCK:    0.90 KCAL/MOL
REMARK 927      BINDING AFFINITY PREDICTED BY RF-SCORE:    0.00 PKD
ROOT
HETATM    1  C   UNL     1      -6.979  14.268  69.377  1.00  0.00    -0.106 C  
HETATM    2  C   UNL     1      -7.916  15.134  68.747  1.00  0.00    -0.162 C  
HETATM    3  C   UNL     1      -8.140  14.903  70.199  1.00  0.00     0.588 C  
HETATM    4  C   UNL     1      -6.682  13.844  71.205  1.00  0.00     1.120 C  
HETATM    5  C   UNL     1      -5.159  13.454  70.651  1.00  0.00    -0.113 C  
HETATM    6  C   UNL     1      -8.962  10.062  71.039  1.00  0.00     1.244 C  
HETATM    7  C   UNL     1      -6.866  15.193  71.076  1.00  0.00     0.906 C  
HETATM    8  C   UNL     1      -8.283  14.872  72.306  1.00  0.00     6.403 C  
HETATM    9  C   UNL     1      -5.988  16.419  71.096  1.00  0.00     0.869 C  
HETATM   10  C   UNL     1      -9.843  11.166  70.418  1.00  0.00     2.111 C  
HETATM   11  C   UNL     1     -11.189  11.240  71.233  1.00  0.00     1.863 C  
HETATM   12  C   UNL     1      -8.993  13.263  72.029  1.00  0.00    16.277 C  
HETATM   13  C   UNL     1      -9.136  12.575  70.495  1.00  0.00     6.747 C  
HETATM   14  C   UNL     1      -7.809  12.640  69.513  1.00  0.00     0.967 C  
HETATM   15  C   UNL     1      -8.145  12.099  68.156  1.00  0.00    -0.161 C  
HETATM   16  C   UNL     1      -9.184  11.291  67.878  1.00  0.00    -0.157 C  
HETATM   17  C   UNL     1     -10.090  10.776  68.923  1.00  0.00    -0.217 C  
HETATM   18  C   UNL     1      -9.424  10.907  66.434  1.00  0.00    -0.214 C  
HETATM   19  C   UNL     1     -11.091   9.933  68.600  1.00  0.00    -0.182 C  
HETATM   20  C   UNL     1     -12.019   9.496  69.656  1.00  0.00     0.482 C  
HETATM   21  O   UNL     1     -12.494   8.368  69.652  1.00  0.00     1.545 OA 
HETATM   22  C   UNL     1     -12.412  10.563  70.626  1.00  0.00    -0.456 C  
ENDROOT
BRANCH   4  23
HETATM   23  C   UNL     1      -6.146  13.788  72.778  1.00  0.00     1.006 C  
HETATM   24  O   UNL     1      -6.123  14.756  73.547  1.00  0.00     0.361 OA 
HETATM   25  C   UNL     1      -5.482  12.517  73.263  1.00  0.00     0.937 C  
ENDBRANCH   4  23
TORSDOF 1
ENDMDL
MODEL      112
REMARK 921   NORMALIZED FREE ENERGY PREDICTED BY IDOCK:   43.07 KCAL/MOL
REMARK 922        TOTAL FREE ENERGY PREDICTED BY IDOCK:   46.35 KCAL/MOL
REMARK 923 INTER-LIGAND FREE ENERGY PREDICTED BY IDOCK:   43.51 KCAL/MOL
REMARK 924 INTRA-LIGAND FREE ENERGY PREDICTED BY IDOCK:    2.84 KCAL/MOL
REMARK 927      BINDING AFFINITY PREDICTED BY RF-SCORE:    0.00 PKD
ROOT
HETATM    1  C   UNL     1      -8.570   7.542  66.100  1.00  0.00    -0.159 C  
HETATM    2  C   UNL     1      -9.060   7.192  67.388  1.00  0.00    -0.124 C  
HETATM    3  C   UNL     1      -8.081   6.239  66.800  1.00  0.00    -0.109 C  
HETATM    4  C   UNL     1      -7.170   6.815  65.040  1.00  0.00    -0.074 C  
HETATM    5  C   UNL     1      -7.191   8.329  64.345  1.00  0.00    -0.088 C  
HETATM    6  C   UNL     1      -9.880   4.374  62.545  1.00  0.00    -0.071 C  
HETATM    7  C   UNL     1      -6.746   6.930  66.336  1.00  0.00    -0.052 C  
HETATM    8  C   UNL     1      -6.455   5.057  66.151  1.00  0.00    -0.044 C  
HETATM    9  C   UNL     1      -5.841   7.856  67.108  1.00  0.00    -0.041 C  
HETATM   10  C   UNL     1     -10.235   4.104  64.021  1.00  0.00    -0.099 C  
HETATM   11  C   UNL     1     -10.074   2.560  64.294  1.00  0.00     0.013 C  
HETATM   12  C   UNL     1      -7.672   4.344  65.066  1.00  0.00    -0.081 C  
HETATM   13  C   UNL     1      -9.269   4.884  64.996  1.00  0.00    -0.107 C  
HETATM   14  C   UNL     1      -9.510   6.516  64.907  1.00  0.00     1.265 C  
HETATM   15  C   UNL     1     -10.975   6.826  64.977  1.00  0.00     6.347 C  
HETATM   16  C   UNL     1     -11.965   5.955  64.713  1.00  0.00     6.148 C  
HETATM   17  C   UNL     1     -11.709   4.581  64.240  1.00  0.00     1.668 C  
HETATM   18  C   UNL     1     -13.393   6.415  64.917  1.00  0.00    10.803 C  
HETATM   19  C   UNL     1     -12.737   3.761  63.945  1.00  0.00     7.683 C  
HETATM   20  C   UNL     1     -12.445   2.374  63.544  1.00  0.00     5.499 C  
HETATM   21  O   UNL     1     -13.137   1.798  62.714  1.00  0.00     3.853 OA 
HETATM   22  C   UNL     1     -11.344   1.718  64.313  1.00  0.00     1.349 C  
ENDROOT
BRANCH   4  23
HETATM   23  C   UNL     1      -5.718   6.476  64.305  1.00  0.00    -0.030 C  
HETATM   24  O   UNL     1      -5.140   7.226  63.509  1.00  0.00    -0.031 OA 
HETATM   25  C   UNL     1      -5.134   5.089  64.479  1.00  0.00    -0.009 C  
ENDBRANCH   4  23
TORSDOF 1
ENDMDL
MODEL      113
REMARK 921   NORMALIZED FREE ENERGY PREDICTED BY IDOCK:   46.41 KCAL/MOL
REMARK 922        TOTAL FREE ENERGY PREDICTED BY IDOCK:   49.88 KCAL/MOL
REMARK 923 INTER-LIGAND FREE ENERGY PREDICTED BY IDOCK:   48.98 KCAL/MOL
REMARK 924 INTRA-LIGAND FREE ENERGY PREDICTED BY IDOCK:    0.90 KCAL/MOL
REMARK 927      BINDING AFFINITY PREDICTED BY RF-SCORE:    0.00 PKD
ROOT
HETATM    1  C   UNL     1      -8.229  15.393  64.528  1.00  0.00     9.514 C  
HETATM    2  C   UNL     1      -9.376  14.553  64.564  1.00  0.00     2.647 C  
HETATM    3  C   UNL     1      -9.339  15.624  65.596  1.00  0.00    -0.207 C  
HETATM    4  C   UNL     1      -7.814  17.006  65.442  1.00  0.00     1.715 C  
HETATM    5  C   UNL     1      -6.785  17.229  64.150  1.00  0.00     7.415 C  
HETATM    6  C   UNL     1      -5.358  15.012  68.528  1.00  0.00    -0.101 C  
HETATM    7  C   UNL     1      -9.105  17.058  64.992  1.00  0.00     2.662 C  
HETATM    8  C   UNL     1      -9.481  17.325  66.839  1.00  0.00    -0.264 C  
HETATM    9  C   UNL     1      -9.841  17.745  63.869  1.00  0.00    10.109 C  
HETATM   10  C   UNL     1      -6.698  14.253  68.435  1.00  0.00    -0.104 C  
HETATM   11  C   UNL     1      -7.380  14.280  69.855  1.00  0.00     0.262 C  
HETATM   12  C   UNL     1      -8.316  16.434  67.846  1.00  0.00    -0.174 C  
HETATM   13  C   UNL     1      -7.675  14.937  67.401  1.00  0.00    -0.231 C  
HETATM   14  C   UNL     1      -7.118  14.786  65.852  1.00  0.00     5.427 C  
HETATM   15  C   UNL     1      -6.701  13.370  65.591  1.00  0.00     7.494 C  
HETATM   16  C   UNL     1      -6.399  12.463  66.537  1.00  0.00     0.927 C  
HETATM   17  C   UNL     1      -6.373  12.794  67.975  1.00  0.00    -0.099 C  
HETATM   18  C   UNL     1      -6.078  11.051  66.095  1.00  0.00    -0.119 C  
HETATM   19  C   UNL     1      -6.020  11.860  68.881  1.00  0.00    -0.055 C  
HETATM   20  C   UNL     1      -6.075  12.205  70.311  1.00  0.00    -0.080 C  
HETATM   21  O   UNL     1      -5.258  11.751  71.101  1.00  0.00    -0.154 OA 
HETATM   22  C   UNL     1      -7.257  13.027  70.714  1.00  0.00     3.180 C  
ENDROOT
BRANCH   4  23
HETATM   23  C   UNL     1      -7.618  18.593  65.899  1.00  0.00    -0.149 C  
HETATM   24  O   UNL     1      -8.524  19.435  65.921  1.00  0.00    -0.433 OA 
HETATM   25  C   UNL     1      -6.212  19.098  66.144  1.00  0.00    -0.200 C  
ENDBRANCH   4  23
TORSDOF 1
ENDMDL
MODEL      114
REMARK 921   NORMALIZED FREE ENERGY PREDICTED BY IDOCK:   49.11 KCAL/MOL
REMARK 922        TOTAL FREE ENERGY PREDICTED BY IDOCK:   52.75 KCAL/MOL
REMARK 923 INTER-LIGAND FREE ENERGY PREDICTED BY IDOCK:   51.08 KCAL/MOL
REMARK 924 INTRA-LIGAND FREE ENERGY PREDICTED BY IDOCK:    1.67 KCAL/MOL
REMARK 927      BINDING AFFINITY PREDICTED BY RF-SCORE:    0.00 PKD
ROOT
HETATM    1  C   UNL     1      -6.891  16.416  70.933  1.00  0.00     2.259 C  
HETATM    2  C   UNL     1      -5.670  15.892  70.424  1.00  0.00    -0.110 C  
HETATM    3  C   UNL     1      -6.667  16.295  69.396  1.00  0.00    -0.209 C  
HETATM    4  C   UNL     1      -8.355  17.269  70.074  1.00  0.00     2.028 C  
HETATM    5  C   UNL     1      -8.609  17.901  71.595  1.00  0.00    11.716 C  
HETATM    6  C   UNL     1     -10.829  13.610  69.930  1.00  0.00     0.341 C  
HETATM    7  C   UNL     1      -7.183  17.770  69.578  1.00  0.00     0.154 C  
HETATM    8  C   UNL     1      -7.907  17.165  67.924  1.00  0.00    -0.196 C  
HETATM    9  C   UNL     1      -6.385  19.039  69.741  1.00  0.00    -0.238 C  
HETATM   10  C   UNL     1      -9.436  13.254  69.372  1.00  0.00     0.996 C  
HETATM   11  C   UNL     1      -9.616  12.708  67.905  1.00  0.00    -0.211 C  
HETATM   12  C   UNL     1      -8.884  15.698  68.173  1.00  0.00    -0.174 C  
HETATM   13  C   UNL     1      -8.497  14.522  69.320  1.00  0.00     0.099 C  
HETATM   14  C   UNL     1      -8.105  15.047  70.837  1.00  0.00     2.199 C  
HETATM   15  C   UNL     1      -7.673  13.890  71.687  1.00  0.00     5.846 C  
HETATM   16  C   UNL     1      -7.959  12.599  71.444  1.00  0.00    10.678 C  
HETATM   17  C   UNL     1      -8.818  12.174  70.321  1.00  0.00     4.646 C  
HETATM   18  C   UNL     1      -7.369  11.551  72.363  1.00  0.00    10.435 C  
HETATM   19  C   UNL     1      -9.113  10.870  70.146  1.00  0.00     1.370 C  
HETATM   20  C   UNL     1      -9.913  10.476  68.975  1.00  0.00    -0.211 C  
HETATM   21  O   UNL     1     -10.714   9.552  69.040  1.00  0.00    -0.222 OA 
HETATM   22  C   UNL     1      -9.573  11.197  67.710  1.00  0.00    -0.180 C  
ENDROOT
BRANCH   4  23
HETATM   23  C   UNL     1      -9.421  18.364  69.418  1.00  0.00     0.247 C  
HETATM   24  O   UNL     1     -10.559  18.086  69.022  1.00  0.00    -0.166 OA 
HETATM   25  C   UNL     1      -8.920  19.761  69.124  1.00  0.00    -0.018 C  
ENDBRANCH   4  23
TORSDOF 1
ENDMDL
MODEL      115
REMARK 921   NORMALIZED FREE ENERGY PREDICTED BY IDOCK:   50.99 KCAL/MOL
REMARK 922        TOTAL FREE ENERGY PREDICTED BY IDOCK:   54.73 KCAL/MOL
REMARK 923 INTER-LIGAND FREE ENERGY PREDICTED BY IDOCK:   51.92 KCAL/MOL
REMARK 924 INTRA-LIGAND FREE ENERGY PREDICTED BY IDOCK:    2.82 KCAL/MOL
REMARK 927      BINDING AFFINITY PREDICTED BY RF-SCORE:    0.00 PKD
ROOT
HETATM    1  C   UNL     1     -10.378  19.201  70.468  1.00  0.00     1.613 C  
HETATM    2  C   UNL     1     -11.267  18.364  71.198  1.00  0.00     4.012 C  
HETATM    3  C   UNL     1      -9.948  17.759  70.872  1.00  0.00     3.429 C  
HETATM    4  C   UNL     1      -8.542  19.005  70.019  1.00  0.00     1.292 C  
HETATM    5  C   UNL     1      -8.609  20.666  69.902  1.00  0.00     1.992 C  
HETATM    6  C   UNL     1      -9.360  17.540  65.930  1.00  0.00     0.028 C  
HETATM    7  C   UNL     1      -8.730  18.646  71.325  1.00  0.00     6.875 C  
HETATM    8  C   UNL     1      -7.982  17.001  70.727  1.00  0.00     4.797 C  
HETATM    9  C   UNL     1      -8.457  19.261  72.674  1.00  0.00     6.256 C  
HETATM   10  C   UNL     1     -10.226  16.714  66.904  1.00  0.00    -0.291 C  
HETATM   11  C   UNL     1      -9.855  15.193  66.726  1.00  0.00    -0.251 C  
HETATM   12  C   UNL     1      -8.449  16.683  69.039  1.00  0.00    -0.176 C  
HETATM   13  C   UNL     1      -9.950  17.121  68.404  1.00  0.00    -0.310 C  
HETATM   14  C   UNL     1     -10.486  18.651  68.724  1.00  0.00    -0.046 C  
HETATM   15  C   UNL     1     -11.877  18.830  68.194  1.00  0.00     2.610 C  
HETATM   16  C   UNL     1     -12.450  18.070  67.243  1.00  0.00     4.949 C  
HETATM   17  C   UNL     1     -11.723  16.992  66.545  1.00  0.00     1.813 C  
HETATM   18  C   UNL     1     -13.896  18.340  66.888  1.00  0.00    12.070 C  
HETATM   19  C   UNL     1     -12.327  16.289  65.566  1.00  0.00     2.253 C  
HETATM   20  C   UNL     1     -11.596  15.174  64.941  1.00  0.00    -0.336 C  
HETATM   21  O   UNL     1     -11.735  14.916  63.752  1.00  0.00    -0.088 OA 
HETATM   22  C   UNL     1     -10.797  14.337  65.888  1.00  0.00    -0.300 C  
ENDROOT
BRANCH   4  23
HETATM   23  C   UNL     1      -6.880  19.048  69.982  1.00  0.00     0.220 C  
HETATM   24  O   UNL     1      -6.207  20.078  69.860  1.00  0.00    -0.326 OA 
HETATM   25  C   UNL     1      -6.132  17.734  69.922  1.00  0.00    -0.168 C  
ENDBRANCH   4  23
TORSDOF 1
ENDMDL
MODEL      116
REMARK 921   NORMALIZED FREE ENERGY PREDICTED BY IDOCK:   58.93 KCAL/MOL
REMARK 922        TOTAL FREE ENERGY PREDICTED BY IDOCK:   63.14 KCAL/MOL
REMARK 923 INTER-LIGAND FREE ENERGY PREDICTED BY IDOCK:   60.71 KCAL/MOL
REMARK 924 INTRA-LIGAND FREE ENERGY PREDICTED BY IDOCK:    2.43 KCAL/MOL
REMARK 927      BINDING AFFINITY PREDICTED BY RF-SCORE:    0.00 PKD
ROOT
HETATM    1  C   UNL     1     -12.338  15.789  67.702  1.00  0.00     1.150 C  
HETATM    2  C   UNL     1     -12.990  16.802  68.457  1.00  0.00     4.016 C  
HETATM    3  C   UNL     1     -11.543  17.032  68.202  1.00  0.00     0.509 C  
HETATM    4  C   UNL     1     -10.607  15.713  66.921  1.00  0.00    -0.311 C  
HETATM    5  C   UNL     1     -11.333  14.590  65.926  1.00  0.00    -0.341 C  
HETATM    6  C   UNL     1      -8.860  13.354  70.225  1.00  0.00     4.067 C  
HETATM    7  C   UNL     1     -11.161  16.940  66.678  1.00  0.00     0.308 C  
HETATM    8  C   UNL     1      -9.596  17.553  67.573  1.00  0.00    -0.265 C  
HETATM    9  C   UNL     1     -11.791  17.637  65.500  1.00  0.00     3.222 C  
HETATM   10  C   UNL     1      -9.603  14.553  70.849  1.00  0.00     2.615 C  
HETATM   11  C   UNL     1      -8.571  15.385  71.700  1.00  0.00     5.078 C  
HETATM   12  C   UNL     1      -9.101  16.391  68.827  1.00  0.00    -0.244 C  
HETATM   13  C   UNL     1     -10.206  15.497  69.737  1.00  0.00    -0.301 C  
HETATM   14  C   UNL     1     -11.434  14.756  68.916  1.00  0.00    -0.321 C  
HETATM   15  C   UNL     1     -12.385  14.115  69.881  1.00  0.00    -0.382 C  
HETATM   16  C   UNL     1     -12.099  13.793  71.155  1.00  0.00    -0.272 C  
HETATM   17  C   UNL     1     -10.754  13.975  71.736  1.00  0.00     3.622 C  
HETATM   18  C   UNL     1     -13.208  13.227  72.016  1.00  0.00    -0.541 C  
HETATM   19  C   UNL     1     -10.505  13.594  73.005  1.00  0.00     8.819 C  
HETATM   20  C   UNL     1      -9.173  13.856  73.575  1.00  0.00    11.693 C  
HETATM   21  O   UNL     1      -8.660  13.075  74.366  1.00  0.00     8.566 OA 
HETATM   22  C   UNL     1      -8.583  15.181  73.210  1.00  0.00    10.207 C  
ENDROOT
BRANCH   4  23
HETATM   23  C   UNL     1      -9.295  15.797  65.902  1.00  0.00    -0.321 C  
HETATM   24  O   UNL     1      -9.287  15.397  64.732  1.00  0.00     0.464 OA 
HETATM   25  C   UNL     1      -7.967  16.234  66.481  1.00  0.00    -0.326 C  
ENDBRANCH   4  23
TORSDOF 1
ENDMDL
