MODEL        1
REMARK 921   NORMALIZED FREE ENERGY PREDICTED BY IDOCK:   -7.41 KCAL/MOL
REMARK 922        TOTAL FREE ENERGY PREDICTED BY IDOCK:   -6.99 KCAL/MOL
REMARK 923 INTER-LIGAND FREE ENERGY PREDICTED BY IDOCK:   -7.84 KCAL/MOL
REMARK 924 INTRA-LIGAND FREE ENERGY PREDICTED BY IDOCK:    0.85 KCAL/MOL
REMARK 927      BINDING AFFINITY PREDICTED BY RF-SCORE:    0.00 PKD
ROOT
HETATM    1  C   UNL     1     -11.626  15.572  68.828  1.00  0.00    -0.390 C  
HETATM    2  C   UNL     1     -10.816  16.018  69.905  1.00  0.00    -0.351 C  
HETATM    3  C   UNL     1      -9.967  15.386  68.846  1.00  0.00    -0.219 C  
HETATM    4  C   UNL     1     -10.970  14.991  67.105  1.00  0.00    -0.329 C  
HETATM    5  C   UNL     1     -11.285  10.603  67.712  1.00  0.00    -0.383 C  
HETATM    6  C   UNL     1     -10.414  16.173  67.484  1.00  0.00    -0.302 C  
HETATM    7  C   UNL     1      -8.935  15.047  67.027  1.00  0.00    -0.255 C  
HETATM    8  C   UNL     1     -10.562  17.625  67.123  1.00  0.00    -0.277 C  
HETATM    9  C   UNL     1     -10.504  11.272  68.863  1.00  0.00    -0.232 C  
HETATM   10  C   UNL     1      -9.052  10.629  68.902  1.00  0.00    -0.181 C  
HETATM   11  C   UNL     1      -9.331  13.318  67.346  1.00  0.00    -0.217 C  
HETATM   12  O   UNL     1      -9.890  12.778  66.143  1.00  0.00    -0.262 OA 
HETATM   13  C   UNL     1     -10.315  12.841  68.664  1.00  0.00    -0.194 C  
HETATM   14  H   UNL     1     -10.098  11.867  66.311  1.00  0.00     0.000 HD 
HETATM   15  C   UNL     1     -11.714  13.724  68.959  1.00  0.00    -0.372 C  
HETATM   16  C   UNL     1     -12.244  13.342  70.343  1.00  0.00    -0.415 C  
HETATM   17  C   UNL     1     -12.531  11.841  70.497  1.00  0.00    -0.317 C  
HETATM   18  C   UNL     1     -13.086  11.648  71.926  1.00  0.00    -0.490 C  
HETATM   19  C   UNL     1     -11.327  10.955  70.154  1.00  0.00    -0.367 C  
HETATM   20  C   UNL     1     -11.086   9.829  70.860  1.00  0.00    -0.428 C  
HETATM   21  C   UNL     1      -9.961   8.965  70.468  1.00  0.00    -0.201 C  
HETATM   22  O   UNL     1     -10.043   7.746  70.533  1.00  0.00    -0.191 OA 
HETATM   23  C   UNL     1      -8.732   9.705  70.066  1.00  0.00    -0.256 C  
ENDROOT
BRANCH   4  24
HETATM   24  C   UNL     1     -10.922  15.306  65.460  1.00  0.00    -0.359 C  
HETATM   25  C   UNL     1     -12.056  14.748  64.635  1.00  0.00    -0.437 C  
HETATM   26  O   UNL     1     -10.115  16.013  64.850  1.00  0.00    -0.419 OA 
ENDBRANCH   4  24
TORSDOF 1
ENDMDL
MODEL        2
REMARK 921   NORMALIZED FREE ENERGY PREDICTED BY IDOCK:   -7.16 KCAL/MOL
REMARK 922        TOTAL FREE ENERGY PREDICTED BY IDOCK:   -6.73 KCAL/MOL
REMARK 923 INTER-LIGAND FREE ENERGY PREDICTED BY IDOCK:   -7.23 KCAL/MOL
REMARK 924 INTRA-LIGAND FREE ENERGY PREDICTED BY IDOCK:    0.50 KCAL/MOL
REMARK 927      BINDING AFFINITY PREDICTED BY RF-SCORE:    0.00 PKD
ROOT
HETATM    1  C   UNL     1      -9.316  18.613  65.965  1.00  0.00    -0.026 C  
HETATM    2  C   UNL     1     -10.520  19.226  66.402  1.00  0.00    -0.563 C  
HETATM    3  C   UNL     1      -9.768  18.671  67.571  1.00  0.00    -0.336 C  
HETATM    4  C   UNL     1      -7.872  18.047  67.118  1.00  0.00    -0.231 C  
HETATM    5  C   UNL     1      -8.759  13.696  67.219  1.00  0.00    -0.223 C  
HETATM    6  C   UNL     1      -8.273  19.315  67.399  1.00  0.00    -0.311 C  
HETATM    7  C   UNL     1      -8.304  18.395  69.078  1.00  0.00    -0.080 C  
HETATM    8  C   UNL     1      -7.762  20.709  67.166  1.00  0.00    -0.348 C  
HETATM    9  C   UNL     1     -10.006  14.529  67.580  1.00  0.00    -0.224 C  
HETATM   10  C   UNL     1     -10.466  14.108  69.041  1.00  0.00    -0.193 C  
HETATM   11  C   UNL     1      -8.662  16.645  68.837  1.00  0.00    -0.238 C  
HETATM   12  O   UNL     1      -7.409  15.969  68.686  1.00  0.00    -0.143 OA 
HETATM   13  C   UNL     1      -9.726  16.097  67.613  1.00  0.00    -0.233 C  
HETATM   14  H   UNL     1      -7.598  15.046  68.560  1.00  0.00     0.000 HD 
HETATM   15  C   UNL     1      -9.582  16.780  66.084  1.00  0.00    -0.302 C  
HETATM   16  C   UNL     1     -10.815  16.397  65.264  1.00  0.00    -0.271 C  
HETATM   17  C   UNL     1     -11.022  14.880  65.141  1.00  0.00    -0.410 C  
HETATM   18  C   UNL     1     -12.276  14.680  64.261  1.00  0.00    -0.432 C  
HETATM   19  C   UNL     1     -11.072  14.162  66.496  1.00  0.00    -0.318 C  
HETATM   20  C   UNL     1     -11.911  13.121  66.685  1.00  0.00    -0.449 C  
HETATM   21  C   UNL     1     -11.891  12.412  67.975  1.00  0.00    -0.316 C  
HETATM   22  O   UNL     1     -12.039  11.199  68.036  1.00  0.00    -0.635 OA 
HETATM   23  C   UNL     1     -11.749  13.302  69.161  1.00  0.00    -0.379 C  
ENDROOT
BRANCH   4  24
HETATM   24  C   UNL     1      -6.270  18.280  67.554  1.00  0.00    -0.180 C  
HETATM   25  C   UNL     1      -5.250  18.185  66.446  1.00  0.00    -0.189 C  
HETATM   26  O   UNL     1      -5.829  18.606  68.660  1.00  0.00    -0.197 OA 
ENDBRANCH   4  24
TORSDOF 1
ENDMDL
MODEL        3
REMARK 921   NORMALIZED FREE ENERGY PREDICTED BY IDOCK:   -7.13 KCAL/MOL
REMARK 922        TOTAL FREE ENERGY PREDICTED BY IDOCK:   -6.70 KCAL/MOL
REMARK 923 INTER-LIGAND FREE ENERGY PREDICTED BY IDOCK:   -7.21 KCAL/MOL
REMARK 924 INTRA-LIGAND FREE ENERGY PREDICTED BY IDOCK:    0.51 KCAL/MOL
REMARK 927      BINDING AFFINITY PREDICTED BY RF-SCORE:    0.00 PKD
ROOT
HETATM    1  C   UNL     1     -12.042  13.601  67.382  1.00  0.00    -0.375 C  
HETATM    2  C   UNL     1     -11.431  14.569  68.224  1.00  0.00    -0.336 C  
HETATM    3  C   UNL     1     -10.389  13.829  67.444  1.00  0.00    -0.252 C  
HETATM    4  C   UNL     1     -11.150  12.635  65.965  1.00  0.00    -0.321 C  
HETATM    5  C   UNL     1     -10.510   8.782  68.080  1.00  0.00    -0.260 C  
HETATM    6  C   UNL     1     -10.904  13.971  65.897  1.00  0.00    -0.288 C  
HETATM    7  C   UNL     1      -9.180  13.139  65.846  1.00  0.00     0.166 C  
HETATM    8  C   UNL     1     -11.349  15.130  65.051  1.00  0.00    -0.381 C  
HETATM    9  C   UNL     1      -9.984   9.970  68.911  1.00  0.00    -0.198 C  
HETATM   10  C   UNL     1      -8.431   9.742  69.156  1.00  0.00    -0.143 C  
HETATM   11  C   UNL     1      -9.198  11.584  66.758  1.00  0.00    -0.181 C  
HETATM   12  O   UNL     1      -9.533  10.548  65.829  1.00  0.00    -0.181 OA 
HETATM   13  C   UNL     1     -10.139  11.372  68.171  1.00  0.00    -0.200 C  
HETATM   14  H   UNL     1      -9.542   9.728  66.309  1.00  0.00     0.000 HD 
HETATM   15  C   UNL     1     -11.719  11.946  68.156  1.00  0.00    -0.388 C  
HETATM   16  C   UNL     1     -12.246  11.951  69.592  1.00  0.00    -0.216 C  
HETATM   17  C   UNL     1     -12.198  10.572  70.268  1.00  0.00    -0.393 C  
HETATM   18  C   UNL     1     -12.795  10.758  71.680  1.00  0.00    -0.562 C  
HETATM   19  C   UNL     1     -10.804   9.933  70.242  1.00  0.00    -0.367 C  
HETATM   20  C   UNL     1     -10.366   9.210  71.296  1.00  0.00    -0.405 C  
HETATM   21  C   UNL     1      -9.050   8.555  71.218  1.00  0.00    -0.196 C  
HETATM   22  O   UNL     1      -8.860   7.451  71.708  1.00  0.00    -0.116 OA 
HETATM   23  C   UNL     1      -7.995   9.379  70.566  1.00  0.00    -0.199 C  
ENDROOT
BRANCH   4  24
HETATM   24  C   UNL     1     -11.057  12.365  64.314  1.00  0.00    -0.349 C  
HETATM   25  C   UNL     1     -12.363  12.126  63.596  1.00  0.00    -0.673 C  
HETATM   26  O   UNL     1     -10.055  12.423  63.595  1.00  0.00    -0.401 OA 
ENDBRANCH   4  24
TORSDOF 1
ENDMDL
MODEL        4
REMARK 921   NORMALIZED FREE ENERGY PREDICTED BY IDOCK:   -7.11 KCAL/MOL
REMARK 922        TOTAL FREE ENERGY PREDICTED BY IDOCK:   -6.67 KCAL/MOL
REMARK 923 INTER-LIGAND FREE ENERGY PREDICTED BY IDOCK:   -7.17 KCAL/MOL
REMARK 924 INTRA-LIGAND FREE ENERGY PREDICTED BY IDOCK:    0.50 KCAL/MOL
REMARK 927      BINDING AFFINITY PREDICTED BY RF-SCORE:    0.00 PKD
ROOT
HETATM    1  C   UNL     1     -11.952  13.929  67.868  1.00  0.00    -0.393 C  
HETATM    2  C   UNL     1     -11.306  14.804  68.782  1.00  0.00    -0.301 C  
HETATM    3  C   UNL     1     -10.291  14.062  67.968  1.00  0.00    -0.240 C  
HETATM    4  C   UNL     1     -11.089  13.013  66.402  1.00  0.00    -0.313 C  
HETATM    5  C   UNL     1     -10.694   8.998  68.260  1.00  0.00    -0.155 C  
HETATM    6  C   UNL     1     -10.771  14.334  66.428  1.00  0.00    -0.297 C  
HETATM    7  C   UNL     1      -9.093  13.415  66.345  1.00  0.00    -0.063 C  
HETATM    8  C   UNL     1     -11.138  15.570  65.656  1.00  0.00    -0.235 C  
HETATM    9  C   UNL     1     -10.119  10.097  69.178  1.00  0.00    -0.226 C  
HETATM   10  C   UNL     1      -8.586   9.769  69.427  1.00  0.00    -0.168 C  
HETATM   11  C   UNL     1      -9.210  11.806  67.149  1.00  0.00    -0.179 C  
HETATM   12  O   UNL     1      -9.584  10.854  66.147  1.00  0.00    -0.189 OA 
HETATM   13  C   UNL     1     -10.187  11.552  68.532  1.00  0.00    -0.219 C  
HETATM   14  H   UNL     1      -9.646  10.006  66.571  1.00  0.00     0.000 HD 
HETATM   15  C   UNL     1     -11.733  12.211  68.533  1.00  0.00    -0.382 C  
HETATM   16  C   UNL     1     -12.284  12.149  69.959  1.00  0.00    -0.270 C  
HETATM   17  C   UNL     1     -12.321  10.728  70.541  1.00  0.00    -0.458 C  
HETATM   18  C   UNL     1     -12.933  10.851  71.954  1.00  0.00    -0.502 C  
HETATM   19  C   UNL     1     -10.963  10.016  70.492  1.00  0.00    -0.392 C  
HETATM   20  C   UNL     1     -10.584   9.202  71.500  1.00  0.00    -0.428 C  
HETATM   21  C   UNL     1      -9.304   8.483  71.396  1.00  0.00    -0.211 C  
HETATM   22  O   UNL     1      -9.181   7.339  71.813  1.00  0.00    -0.142 OA 
HETATM   23  C   UNL     1      -8.194   9.290  70.816  1.00  0.00    -0.210 C  
ENDROOT
BRANCH   4  24
HETATM   24  C   UNL     1     -10.982  12.848  64.738  1.00  0.00    -0.318 C  
HETATM   25  C   UNL     1     -12.268  12.551  64.006  1.00  0.00    -0.566 C  
HETATM   26  O   UNL     1      -9.991  13.027  64.024  1.00  0.00    -0.308 OA 
ENDBRANCH   4  24
TORSDOF 1
ENDMDL
MODEL        5
REMARK 921   NORMALIZED FREE ENERGY PREDICTED BY IDOCK:   -6.96 KCAL/MOL
REMARK 922        TOTAL FREE ENERGY PREDICTED BY IDOCK:   -6.51 KCAL/MOL
REMARK 923 INTER-LIGAND FREE ENERGY PREDICTED BY IDOCK:   -7.01 KCAL/MOL
REMARK 924 INTRA-LIGAND FREE ENERGY PREDICTED BY IDOCK:    0.50 KCAL/MOL
REMARK 927      BINDING AFFINITY PREDICTED BY RF-SCORE:    0.00 PKD
ROOT
HETATM    1  C   UNL     1     -10.767  12.818  63.868  1.00  0.00    -0.443 C  
HETATM    2  C   UNL     1     -11.927  12.179  63.355  1.00  0.00    -0.578 C  
HETATM    3  C   UNL     1     -12.049  12.362  64.836  1.00  0.00    -0.470 C  
HETATM    4  C   UNL     1     -10.594  13.552  65.648  1.00  0.00    -0.284 C  
HETATM    5  C   UNL     1      -8.259  10.262  67.505  1.00  0.00    -0.114 C  
HETATM    6  C   UNL     1     -11.745  13.956  65.046  1.00  0.00    -0.365 C  
HETATM    7  C   UNL     1     -12.286  13.254  66.743  1.00  0.00    -0.340 C  
HETATM    8  C   UNL     1     -12.269  15.208  64.401  1.00  0.00    -0.289 C  
HETATM    9  C   UNL     1      -9.525   9.724  66.807  1.00  0.00    -0.209 C  
HETATM   10  C   UNL     1     -10.410   8.989  67.903  1.00  0.00    -0.290 C  
HETATM   11  C   UNL     1     -11.160  11.952  67.280  1.00  0.00    -0.288 C  
HETATM   12  O   UNL     1     -10.131  12.571  68.059  1.00  0.00    -0.207 OA 
HETATM   13  C   UNL     1     -10.428  10.872  66.172  1.00  0.00    -0.290 C  
HETATM   14  H   UNL     1      -9.538  11.885  68.342  1.00  0.00     0.000 HD 
HETATM   15  C   UNL     1      -9.791  11.514  64.755  1.00  0.00    -0.286 C  
HETATM   16  C   UNL     1      -9.498  10.362  63.791  1.00  0.00    -0.353 C  
HETATM   17  C   UNL     1      -8.539   9.310  64.366  1.00  0.00    -0.216 C  
HETATM   18  C   UNL     1      -8.331   8.255  63.256  1.00  0.00    -0.041 C  
HETATM   19  C   UNL     1      -9.001   8.738  65.712  1.00  0.00    -0.253 C  
HETATM   20  C   UNL     1      -8.803   7.435  66.003  1.00  0.00    -0.173 C  
HETATM   21  C   UNL     1      -9.199   6.928  67.327  1.00  0.00    -0.127 C  
HETATM   22  O   UNL     1      -8.530   6.088  67.914  1.00  0.00    -0.115 OA 
HETATM   23  C   UNL     1     -10.491   7.473  67.829  1.00  0.00    -0.288 C  
ENDROOT
BRANCH   4  24
HETATM   24  C   UNL     1     -10.390  14.941  66.563  1.00  0.00    -0.293 C  
HETATM   25  C   UNL     1      -9.243  15.841  66.174  1.00  0.00    -0.385 C  
HETATM   26  O   UNL     1     -11.118  15.363  67.466  1.00  0.00    -0.314 OA 
ENDBRANCH   4  24
TORSDOF 1
ENDMDL
MODEL        6
REMARK 921   NORMALIZED FREE ENERGY PREDICTED BY IDOCK:   -6.73 KCAL/MOL
REMARK 922        TOTAL FREE ENERGY PREDICTED BY IDOCK:   -6.27 KCAL/MOL
REMARK 923 INTER-LIGAND FREE ENERGY PREDICTED BY IDOCK:   -6.77 KCAL/MOL
REMARK 924 INTRA-LIGAND FREE ENERGY PREDICTED BY IDOCK:    0.50 KCAL/MOL
REMARK 927      BINDING AFFINITY PREDICTED BY RF-SCORE:    0.00 PKD
ROOT
HETATM    1  C   UNL     1     -10.688  12.632  64.636  1.00  0.00    -0.353 C  
HETATM    2  C   UNL     1     -11.907  11.993  64.285  1.00  0.00    -0.431 C  
HETATM    3  C   UNL     1     -12.011  12.593  65.653  1.00  0.00    -0.507 C  
HETATM    4  C   UNL     1     -10.442  13.812  66.147  1.00  0.00    -0.297 C  
HETATM    5  C   UNL     1      -8.463  10.957  68.914  1.00  0.00    -0.142 C  
HETATM    6  C   UNL     1     -11.544  14.144  65.422  1.00  0.00    -0.334 C  
HETATM    7  C   UNL     1     -12.157  14.001  67.230  1.00  0.00    -0.405 C  
HETATM    8  C   UNL     1     -11.935  15.212  64.440  1.00  0.00    -0.321 C  
HETATM    9  C   UNL     1      -9.777  10.373  68.355  1.00  0.00    -0.167 C  
HETATM   10  C   UNL     1     -10.735  10.065  69.584  1.00  0.00    -0.282 C  
HETATM   11  C   UNL     1     -11.173  12.796  68.141  1.00  0.00    -0.272 C  
HETATM   12  O   UNL     1     -10.086  13.502  68.748  1.00  0.00    -0.356 OA 
HETATM   13  C   UNL     1     -10.555  11.382  67.398  1.00  0.00    -0.257 C  
HETATM   14  H   UNL     1      -9.568  12.867  69.228  1.00  0.00     0.000 HD 
HETATM   15  C   UNL     1      -9.853  11.536  65.879  1.00  0.00    -0.262 C  
HETATM   16  C   UNL     1      -9.680  10.138  65.282  1.00  0.00    -0.365 C  
HETATM   17  C   UNL     1      -8.835   9.199  66.155  1.00  0.00    -0.187 C  
HETATM   18  C   UNL     1      -8.737   7.861  65.388  1.00  0.00    -0.078 C  
HETATM   19  C   UNL     1      -9.356   9.074  67.593  1.00  0.00    -0.154 C  
HETATM   20  C   UNL     1      -9.295   7.891  68.240  1.00  0.00    -0.145 C  
HETATM   21  C   UNL     1      -9.743   7.816  69.640  1.00  0.00    -0.172 C  
HETATM   22  O   UNL     1      -9.165   7.111  70.456  1.00  0.00    -0.158 OA 
HETATM   23  C   UNL     1     -10.973   8.605  69.931  1.00  0.00    -0.169 C  
ENDROOT
BRANCH   4  24
HETATM   24  C   UNL     1     -10.096  15.374  66.646  1.00  0.00    -0.265 C  
HETATM   25  C   UNL     1      -8.834  15.993  66.098  1.00  0.00    -0.366 C  
HETATM   26  O   UNL     1     -10.795  16.115  67.344  1.00  0.00    -0.322 OA 
ENDBRANCH   4  24
TORSDOF 1
ENDMDL
MODEL        7
REMARK 921   NORMALIZED FREE ENERGY PREDICTED BY IDOCK:   -6.72 KCAL/MOL
REMARK 922        TOTAL FREE ENERGY PREDICTED BY IDOCK:   -6.27 KCAL/MOL
REMARK 923 INTER-LIGAND FREE ENERGY PREDICTED BY IDOCK:   -6.77 KCAL/MOL
REMARK 924 INTRA-LIGAND FREE ENERGY PREDICTED BY IDOCK:    0.51 KCAL/MOL
REMARK 927      BINDING AFFINITY PREDICTED BY RF-SCORE:    0.00 PKD
ROOT
HETATM    1  C   UNL     1     -10.682  12.762  64.154  1.00  0.00    -0.441 C  
HETATM    2  C   UNL     1     -11.832  12.079  63.676  1.00  0.00    -0.602 C  
HETATM    3  C   UNL     1     -11.987  12.400  65.131  1.00  0.00    -0.454 C  
HETATM    4  C   UNL     1     -10.547  13.660  65.860  1.00  0.00    -0.289 C  
HETATM    5  C   UNL     1      -8.265  10.557  68.070  1.00  0.00    -0.112 C  
HETATM    6  C   UNL     1     -11.683  14.006  65.197  1.00  0.00    -0.353 C  
HETATM    7  C   UNL     1     -12.263  13.467  66.940  1.00  0.00    -0.377 C  
HETATM    8  C   UNL     1     -12.189  15.193  64.426  1.00  0.00    -0.289 C  
HETATM    9  C   UNL     1      -9.516   9.956  67.397  1.00  0.00    -0.173 C  
HETATM   10  C   UNL     1     -10.427   9.329  68.537  1.00  0.00    -0.240 C  
HETATM   11  C   UNL     1     -11.155  12.221  67.622  1.00  0.00    -0.268 C  
HETATM   12  O   UNL     1     -10.141  12.909  68.362  1.00  0.00    -0.233 OA 
HETATM   13  C   UNL     1     -10.401  11.041  66.637  1.00  0.00    -0.288 C  
HETATM   14  H   UNL     1      -9.557  12.252  68.722  1.00  0.00     0.000 HD 
HETATM   15  C   UNL     1      -9.730  11.546  65.181  1.00  0.00    -0.268 C  
HETATM   16  C   UNL     1      -9.420  10.308  64.336  1.00  0.00    -0.360 C  
HETATM   17  C   UNL     1      -8.476   9.314  65.029  1.00  0.00    -0.178 C  
HETATM   18  C   UNL     1      -8.247   8.160  64.028  1.00  0.00    -0.077 C  
HETATM   19  C   UNL     1      -8.970   8.871  66.412  1.00  0.00    -0.193 C  
HETATM   20  C   UNL     1      -8.783   7.601  66.829  1.00  0.00    -0.139 C  
HETATM   21  C   UNL     1      -9.211   7.222  68.185  1.00  0.00    -0.132 C  
HETATM   22  O   UNL     1      -8.557   6.440  68.863  1.00  0.00    -0.123 OA 
HETATM   23  C   UNL     1     -10.512   7.812  68.604  1.00  0.00    -0.199 C  
ENDROOT
BRANCH   4  24
HETATM   24  C   UNL     1     -10.359  15.128  66.645  1.00  0.00    -0.274 C  
HETATM   25  C   UNL     1      -9.243  16.017  66.154  1.00  0.00    -0.388 C  
HETATM   26  O   UNL     1     -11.079  15.611  67.524  1.00  0.00    -0.326 OA 
ENDBRANCH   4  24
TORSDOF 1
ENDMDL
MODEL        8
REMARK 921   NORMALIZED FREE ENERGY PREDICTED BY IDOCK:   -6.68 KCAL/MOL
REMARK 922        TOTAL FREE ENERGY PREDICTED BY IDOCK:   -6.22 KCAL/MOL
REMARK 923 INTER-LIGAND FREE ENERGY PREDICTED BY IDOCK:   -6.95 KCAL/MOL
REMARK 924 INTRA-LIGAND FREE ENERGY PREDICTED BY IDOCK:    0.73 KCAL/MOL
REMARK 927      BINDING AFFINITY PREDICTED BY RF-SCORE:    0.00 PKD
ROOT
HETATM    1  C   UNL     1     -11.776  12.970  67.901  1.00  0.00    -0.402 C  
HETATM    2  C   UNL     1     -11.322  13.949  68.825  1.00  0.00    -0.310 C  
HETATM    3  C   UNL     1     -10.161  13.190  68.262  1.00  0.00    -0.247 C  
HETATM    4  C   UNL     1     -10.648  11.974  66.689  1.00  0.00    -0.266 C  
HETATM    5  C   UNL     1     -10.441   8.156  68.949  1.00  0.00    -0.202 C  
HETATM    6  C   UNL     1     -10.382  13.306  66.645  1.00  0.00    -0.274 C  
HETATM    7  C   UNL     1      -8.685  12.465  66.926  1.00  0.00    -0.191 C  
HETATM    8  C   UNL     1     -10.654  14.453  65.712  1.00  0.00    -0.326 C  
HETATM    9  C   UNL     1     -10.065   9.356  69.843  1.00  0.00    -0.243 C  
HETATM   10  C   UNL     1      -8.586   9.124  70.373  1.00  0.00    -0.236 C  
HETATM   11  C   UNL     1      -8.883  10.927  67.844  1.00  0.00    -0.134 C  
HETATM   12  O   UNL     1      -9.051   9.876  66.887  1.00  0.00    -0.140 OA 
HETATM   13  C   UNL     1     -10.070  10.745  69.064  1.00  0.00    -0.225 C  
HETATM   14  H   UNL     1      -9.155   9.065  67.371  1.00  0.00     0.000 HD 
HETATM   15  C   UNL     1     -11.615  11.327  68.749  1.00  0.00    -0.383 C  
HETATM   16  C   UNL     1     -12.397  11.361  70.064  1.00  0.00    -0.311 C  
HETATM   17  C   UNL     1     -12.486   9.995  70.759  1.00  0.00    -0.386 C  
HETATM   18  C   UNL     1     -13.331  10.209  72.035  1.00  0.00    -0.492 C  
HETATM   19  C   UNL     1     -11.116   9.347  71.002  1.00  0.00    -0.414 C  
HETATM   20  C   UNL     1     -10.886   8.641  72.129  1.00  0.00    -0.424 C  
HETATM   21  C   UNL     1      -9.583   7.978  72.305  1.00  0.00    -0.223 C  
HETATM   22  O   UNL     1      -9.496   6.881  72.841  1.00  0.00    -0.138 OA 
HETATM   23  C   UNL     1      -8.419   8.784  71.845  1.00  0.00    -0.151 C  
ENDROOT
BRANCH   4  24
HETATM   24  C   UNL     1     -10.256  11.674  65.087  1.00  0.00    -0.274 C  
HETATM   25  C   UNL     1     -11.361  11.858  64.077  1.00  0.00    -0.475 C  
HETATM   26  O   UNL     1      -9.146  11.401  64.621  1.00  0.00    -0.085 OA 
ENDBRANCH   4  24
TORSDOF 1
ENDMDL
MODEL        9
REMARK 921   NORMALIZED FREE ENERGY PREDICTED BY IDOCK:   -6.67 KCAL/MOL
REMARK 922        TOTAL FREE ENERGY PREDICTED BY IDOCK:   -6.21 KCAL/MOL
REMARK 923 INTER-LIGAND FREE ENERGY PREDICTED BY IDOCK:   -7.01 KCAL/MOL
REMARK 924 INTRA-LIGAND FREE ENERGY PREDICTED BY IDOCK:    0.80 KCAL/MOL
REMARK 927      BINDING AFFINITY PREDICTED BY RF-SCORE:    0.00 PKD
ROOT
HETATM    1  C   UNL     1     -10.542   9.430  66.759  1.00  0.00    -0.210 C  
HETATM    2  C   UNL     1      -9.372   9.268  65.971  1.00  0.00    -0.283 C  
HETATM    3  C   UNL     1      -9.080  10.129  67.161  1.00  0.00    -0.149 C  
HETATM    4  C   UNL     1     -10.591  10.178  68.541  1.00  0.00    -0.245 C  
HETATM    5  C   UNL     1     -12.045  14.248  67.521  1.00  0.00    -0.347 C  
HETATM    6  C   UNL     1      -9.622   9.232  68.418  1.00  0.00    -0.158 C  
HETATM    7  C   UNL     1      -8.739  10.763  69.154  1.00  0.00    -0.101 C  
HETATM    8  C   UNL     1      -9.415   7.806  68.842  1.00  0.00    -0.150 C  
HETATM    9  C   UNL     1     -10.814  13.866  66.674  1.00  0.00    -0.289 C  
HETATM   10  C   UNL     1      -9.674  14.933  66.964  1.00  0.00    -0.240 C  
HETATM   11  C   UNL     1      -9.538  12.282  68.604  1.00  0.00    -0.043 C  
HETATM   12  O   UNL     1     -10.541  12.612  69.571  1.00  0.00    -0.416 OA 
HETATM   13  C   UNL     1     -10.219  12.435  67.041  1.00  0.00    -0.232 C  
HETATM   14  H   UNL     1     -10.962  13.413  69.281  1.00  0.00     0.000 HD 
HETATM   15  C   UNL     1     -11.147  11.159  66.461  1.00  0.00    -0.233 C  
HETATM   16  C   UNL     1     -11.367  11.363  64.960  1.00  0.00    -0.090 C  
HETATM   17  C   UNL     1     -12.043  12.699  64.616  1.00  0.00    -0.484 C  
HETATM   18  C   UNL     1     -12.216  12.717  63.082  1.00  0.00    -0.341 C  
HETATM   19  C   UNL     1     -11.307  13.917  65.191  1.00  0.00    -0.319 C  
HETATM   20  C   UNL     1     -11.236  15.065  64.484  1.00  0.00    -0.276 C  
HETATM   21  C   UNL     1     -10.579  16.236  65.087  1.00  0.00    -0.304 C  
HETATM   22  O   UNL     1     -11.006  17.369  64.905  1.00  0.00    -0.862 OA 
HETATM   23  C   UNL     1      -9.343  15.917  65.854  1.00  0.00    -0.353 C  
ENDROOT
BRANCH   4  24
HETATM   24  C   UNL     1     -10.903   9.884  70.161  1.00  0.00    -0.304 C  
HETATM   25  C   UNL     1     -12.349   9.943  70.590  1.00  0.00    -0.299 C  
HETATM   26  O   UNL     1     -10.101   9.540  71.034  1.00  0.00    -0.286 OA 
ENDBRANCH   4  24
TORSDOF 1
ENDMDL
MODEL       10
REMARK 921   NORMALIZED FREE ENERGY PREDICTED BY IDOCK:   -6.66 KCAL/MOL
REMARK 922        TOTAL FREE ENERGY PREDICTED BY IDOCK:   -6.20 KCAL/MOL
REMARK 923 INTER-LIGAND FREE ENERGY PREDICTED BY IDOCK:   -6.71 KCAL/MOL
REMARK 924 INTRA-LIGAND FREE ENERGY PREDICTED BY IDOCK:    0.51 KCAL/MOL
REMARK 927      BINDING AFFINITY PREDICTED BY RF-SCORE:    0.00 PKD
ROOT
HETATM    1  C   UNL     1      -9.830   9.400  65.798  1.00  0.00    -0.345 C  
HETATM    2  C   UNL     1      -8.868   9.440  64.753  1.00  0.00    -0.243 C  
HETATM    3  C   UNL     1      -8.306  10.054  65.998  1.00  0.00    -0.126 C  
HETATM    4  C   UNL     1      -9.468   9.773  67.660  1.00  0.00    -0.164 C  
HETATM    5  C   UNL     1     -11.067  13.913  67.837  1.00  0.00    -0.278 C  
HETATM    6  C   UNL     1      -8.563   8.906  67.135  1.00  0.00    -0.112 C  
HETATM    7  C   UNL     1      -7.519  10.288  67.951  1.00  0.00    -0.088 C  
HETATM    8  C   UNL     1      -8.282   7.431  67.204  1.00  0.00    -0.118 C  
HETATM    9  C   UNL     1     -10.062  13.751  66.678  1.00  0.00    -0.277 C  
HETATM   10  C   UNL     1      -8.874  14.777  66.918  1.00  0.00    -0.274 C  
HETATM   11  C   UNL     1      -8.404  11.858  67.913  1.00  0.00    -0.152 C  
HETATM   12  O   UNL     1      -9.160  11.952  69.125  1.00  0.00    -0.364 OA 
HETATM   13  C   UNL     1      -9.417  12.297  66.605  1.00  0.00    -0.227 C  
HETATM   14  H   UNL     1      -9.626  12.780  69.105  1.00  0.00     0.000 HD 
HETATM   15  C   UNL     1     -10.466  11.131  65.999  1.00  0.00    -0.312 C  
HETATM   16  C   UNL     1     -11.015  11.624  64.659  1.00  0.00    -0.363 C  
HETATM   17  C   UNL     1     -11.735  12.978  64.752  1.00  0.00    -0.389 C  
HETATM   18  C   UNL     1     -12.249  13.297  63.331  1.00  0.00    -0.476 C  
HETATM   19  C   UNL     1     -10.876  14.081  65.383  1.00  0.00    -0.331 C  
HETATM   20  C   UNL     1     -10.951  15.349  64.927  1.00  0.00    -0.453 C  
HETATM   21  C   UNL     1     -10.162  16.398  65.593  1.00  0.00    -0.324 C  
HETATM   22  O   UNL     1     -10.606  17.528  65.744  1.00  0.00    -0.473 OA 
HETATM   23  C   UNL     1      -8.790  15.975  65.986  1.00  0.00    -0.314 C  
ENDROOT
BRANCH   4  24
HETATM   24  C   UNL     1      -9.412   9.150  69.215  1.00  0.00    -0.158 C  
HETATM   25  C   UNL     1     -10.612   8.355  69.666  1.00  0.00    -0.219 C  
HETATM   26  O   UNL     1      -8.468   9.191  70.010  1.00  0.00    -0.127 OA 
ENDBRANCH   4  24
TORSDOF 1
ENDMDL
MODEL       11
REMARK 921   NORMALIZED FREE ENERGY PREDICTED BY IDOCK:   -6.65 KCAL/MOL
REMARK 922        TOTAL FREE ENERGY PREDICTED BY IDOCK:   -6.19 KCAL/MOL
REMARK 923 INTER-LIGAND FREE ENERGY PREDICTED BY IDOCK:   -6.74 KCAL/MOL
REMARK 924 INTRA-LIGAND FREE ENERGY PREDICTED BY IDOCK:    0.55 KCAL/MOL
REMARK 927      BINDING AFFINITY PREDICTED BY RF-SCORE:    0.00 PKD
ROOT
HETATM    1  C   UNL     1      -8.263  15.422  69.217  1.00  0.00    -0.252 C  
HETATM    2  C   UNL     1      -7.214  14.494  68.981  1.00  0.00    -0.130 C  
HETATM    3  C   UNL     1      -7.429  15.351  67.772  1.00  0.00    -0.173 C  
HETATM    4  C   UNL     1      -8.689  16.934  68.090  1.00  0.00    -0.226 C  
HETATM    5  C   UNL     1     -12.177  15.212  65.947  1.00  0.00     0.379 C  
HETATM    6  C   UNL     1      -7.360  16.872  68.371  1.00  0.00    -0.202 C  
HETATM    7  C   UNL     1      -7.464  17.018  66.465  1.00  0.00    -0.327 C  
HETATM    8  C   UNL     1      -6.388  17.597  69.259  1.00  0.00    -0.247 C  
HETATM    9  C   UNL     1     -10.956  14.273  65.872  1.00  0.00    -0.304 C  
HETATM   10  C   UNL     1     -10.596  14.064  64.340  1.00  0.00    -0.196 C  
HETATM   11  C   UNL     1      -8.982  16.264  65.852  1.00  0.00    -0.186 C  
HETATM   12  O   UNL     1      -9.983  17.287  65.812  1.00  0.00    -0.532 OA 
HETATM   13  C   UNL     1      -9.660  14.870  66.580  1.00  0.00    -0.297 C  
HETATM   14  H   UNL     1     -10.783  16.890  65.489  1.00  0.00     0.000 HD 
HETATM   15  C   UNL     1      -9.732  14.816  68.258  1.00  0.00    -0.218 C  
HETATM   16  C   UNL     1     -10.054  13.382  68.683  1.00  0.00    -0.162 C  
HETATM   17  C   UNL     1     -11.364  12.846  68.087  1.00  0.00    -0.327 C  
HETATM   18  C   UNL     1     -11.544  11.417  68.646  1.00  0.00    -0.384 C  
HETATM   19  C   UNL     1     -11.419  12.945  66.557  1.00  0.00    -0.390 C  
HETATM   20  C   UNL     1     -12.010  11.971  65.832  1.00  0.00    -0.125 C  
HETATM   21  C   UNL     1     -12.105  12.124  64.371  1.00  0.00    -0.357 C  
HETATM   22  O   UNL     1     -13.093  11.746  63.755  1.00  0.00    -0.561 OA 
HETATM   23  C   UNL     1     -10.888  12.700  63.736  1.00  0.00    -0.466 C  
ENDROOT
BRANCH   4  24
HETATM   24  C   UNL     1      -8.758  18.604  67.977  1.00  0.00    -0.303 C  
HETATM   25  C   UNL     1      -9.732  19.302  68.893  1.00  0.00    -0.493 C  
HETATM   26  O   UNL     1      -8.044  19.344  67.292  1.00  0.00    -0.260 OA 
ENDBRANCH   4  24
TORSDOF 1
ENDMDL
MODEL       12
REMARK 921   NORMALIZED FREE ENERGY PREDICTED BY IDOCK:   -6.62 KCAL/MOL
REMARK 922        TOTAL FREE ENERGY PREDICTED BY IDOCK:   -6.15 KCAL/MOL
REMARK 923 INTER-LIGAND FREE ENERGY PREDICTED BY IDOCK:   -6.65 KCAL/MOL
REMARK 924 INTRA-LIGAND FREE ENERGY PREDICTED BY IDOCK:    0.50 KCAL/MOL
REMARK 927      BINDING AFFINITY PREDICTED BY RF-SCORE:    0.00 PKD
ROOT
HETATM    1  C   UNL     1     -11.531  15.181  66.129  1.00  0.00    -0.157 C  
HETATM    2  C   UNL     1     -11.319  15.195  64.724  1.00  0.00    -0.399 C  
HETATM    3  C   UNL     1     -10.187  14.497  65.412  1.00  0.00    -0.415 C  
HETATM    4  C   UNL     1     -10.523  14.128  67.397  1.00  0.00    -0.271 C  
HETATM    5  C   UNL     1      -7.846  17.317  68.943  1.00  0.00    -0.206 C  
HETATM    6  C   UNL     1     -10.940  13.380  66.341  1.00  0.00    -0.297 C  
HETATM    7  C   UNL     1      -9.059  13.052  66.476  1.00  0.00    -0.136 C  
HETATM    8  C   UNL     1     -11.999  12.348  66.072  1.00  0.00    -0.419 C  
HETATM    9  C   UNL     1      -7.811  17.256  67.401  1.00  0.00    -0.198 C  
HETATM   10  C   UNL     1      -6.314  16.962  66.960  1.00  0.00    -0.229 C  
HETATM   11  C   UNL     1      -8.210  14.492  67.151  1.00  0.00    -0.188 C  
HETATM   12  O   UNL     1      -8.164  14.333  68.573  1.00  0.00    -0.139 OA 
HETATM   13  C   UNL     1      -8.714  16.090  66.799  1.00  0.00    -0.287 C  
HETATM   14  H   UNL     1      -7.716  15.092  68.929  1.00  0.00     0.000 HD 
HETATM   15  C   UNL     1     -10.360  16.424  66.854  1.00  0.00    -0.300 C  
HETATM   16  C   UNL     1     -10.600  17.785  66.196  1.00  0.00    -0.235 C  
HETATM   17  C   UNL     1      -9.812  18.929  66.851  1.00  0.00    -0.371 C  
HETATM   18  C   UNL     1     -10.200  20.217  66.090  1.00  0.00    -0.518 C  
HETATM   19  C   UNL     1      -8.303  18.662  66.925  1.00  0.00    -0.269 C  
HETATM   20  C   UNL     1      -7.423  19.670  66.745  1.00  0.00    -0.264 C  
HETATM   21  C   UNL     1      -5.983  19.397  66.885  1.00  0.00    -0.173 C  
HETATM   22  O   UNL     1      -5.227  20.215  67.392  1.00  0.00    -0.167 OA 
HETATM   23  C   UNL     1      -5.547  18.097  66.302  1.00  0.00    -0.205 C  
ENDROOT
BRANCH   4  24
HETATM   24  C   UNL     1     -10.572  12.878  68.513  1.00  0.00    -0.253 C  
HETATM   25  C   UNL     1     -11.640  12.965  69.576  1.00  0.00    -0.348 C  
HETATM   26  O   UNL     1      -9.894  11.847  68.521  1.00  0.00    -0.208 OA 
ENDBRANCH   4  24
TORSDOF 1
ENDMDL
MODEL       13
REMARK 921   NORMALIZED FREE ENERGY PREDICTED BY IDOCK:   -6.60 KCAL/MOL
REMARK 922        TOTAL FREE ENERGY PREDICTED BY IDOCK:   -6.14 KCAL/MOL
REMARK 923 INTER-LIGAND FREE ENERGY PREDICTED BY IDOCK:   -6.65 KCAL/MOL
REMARK 924 INTRA-LIGAND FREE ENERGY PREDICTED BY IDOCK:    0.52 KCAL/MOL
REMARK 927      BINDING AFFINITY PREDICTED BY RF-SCORE:    0.00 PKD
ROOT
HETATM    1  C   UNL     1     -11.828   9.576  71.844  1.00  0.00    -0.349 C  
HETATM    2  C   UNL     1     -13.172   9.241  71.530  1.00  0.00    -0.433 C  
HETATM    3  C   UNL     1     -12.249   8.728  70.469  1.00  0.00     0.171 C  
HETATM    4  C   UNL     1     -10.265   8.863  70.958  1.00  0.00    -0.322 C  
HETATM    5  C   UNL     1      -9.353  12.319  68.322  1.00  0.00    -0.199 C  
HETATM    6  C   UNL     1     -11.134   7.881  71.315  1.00  0.00    -0.278 C  
HETATM    7  C   UNL     1     -10.779   7.585  69.458  1.00  0.00    -0.222 C  
HETATM    8  C   UNL     1     -11.221   6.820  72.377  1.00  0.00    -0.300 C  
HETATM    9  C   UNL     1     -10.824  11.879  68.177  1.00  0.00    -0.259 C  
HETATM   10  C   UNL     1     -11.063  11.475  66.659  1.00  0.00    -0.355 C  
HETATM   11  C   UNL     1     -10.416   9.141  68.625  1.00  0.00    -0.207 C  
HETATM   12  O   UNL     1      -8.999   9.339  68.686  1.00  0.00    -0.131 OA 
HETATM   13  C   UNL     1     -11.188  10.605  69.061  1.00  0.00    -0.324 C  
HETATM   14  H   UNL     1      -8.808  10.159  68.247  1.00  0.00     0.000 HD 
HETATM   15  C   UNL     1     -11.344  10.953  70.698  1.00  0.00    -0.097 C  
HETATM   16  C   UNL     1     -12.333  12.110  70.856  1.00  0.00    -0.370 C  
HETATM   17  C   UNL     1     -11.922  13.376  70.089  1.00  0.00    -0.396 C  
HETATM   18  C   UNL     1     -13.004  14.437  70.389  1.00  0.00    -0.208 C  
HETATM   19  C   UNL     1     -11.668  13.127  68.597  1.00  0.00    -0.362 C  
HETATM   20  C   UNL     1     -12.023  14.053  67.681  1.00  0.00    -0.404 C  
HETATM   21  C   UNL     1     -11.709  13.814  66.263  1.00  0.00    -0.376 C  
HETATM   22  O   UNL     1     -11.363  14.727  65.525  1.00  0.00    -0.335 OA 
HETATM   23  C   UNL     1     -11.919  12.408  65.818  1.00  0.00    -0.437 C  
ENDROOT
BRANCH   4  24
HETATM   24  C   UNL     1      -8.883   7.929  71.119  1.00  0.00    -0.138 C  
HETATM   25  C   UNL     1      -8.026   8.198  72.332  1.00  0.00    -0.185 C  
HETATM   26  O   UNL     1      -8.524   6.985  70.410  1.00  0.00    -0.137 OA 
ENDBRANCH   4  24
TORSDOF 1
ENDMDL
MODEL       14
REMARK 921   NORMALIZED FREE ENERGY PREDICTED BY IDOCK:   -6.55 KCAL/MOL
REMARK 922        TOTAL FREE ENERGY PREDICTED BY IDOCK:   -6.08 KCAL/MOL
REMARK 923 INTER-LIGAND FREE ENERGY PREDICTED BY IDOCK:   -6.60 KCAL/MOL
REMARK 924 INTRA-LIGAND FREE ENERGY PREDICTED BY IDOCK:    0.52 KCAL/MOL
REMARK 927      BINDING AFFINITY PREDICTED BY RF-SCORE:    0.00 PKD
ROOT
HETATM    1  C   UNL     1      -8.721  12.385  66.985  1.00  0.00    -0.207 C  
HETATM    2  C   UNL     1      -8.562  12.134  68.374  1.00  0.00    -0.141 C  
HETATM    3  C   UNL     1      -9.922  12.698  68.102  1.00  0.00    -0.225 C  
HETATM    4  C   UNL     1     -10.394  12.805  66.113  1.00  0.00    -0.283 C  
HETATM    5  C   UNL     1      -9.864  17.197  65.724  1.00  0.00    -0.091 C  
HETATM    6  C   UNL     1     -10.508  11.722  66.927  1.00  0.00    -0.256 C  
HETATM    7  C   UNL     1     -11.928  12.895  67.449  1.00  0.00    -0.360 C  
HETATM    8  C   UNL     1     -10.609  10.231  66.769  1.00  0.00    -0.252 C  
HETATM    9  C   UNL     1      -9.628  16.732  67.176  1.00  0.00    -0.238 C  
HETATM   10  C   UNL     1     -10.676  17.484  68.104  1.00  0.00    -0.330 C  
HETATM   11  C   UNL     1     -11.467  14.615  67.168  1.00  0.00    -0.368 C  
HETATM   12  O   UNL     1     -11.897  14.963  65.848  1.00  0.00    -0.256 OA 
HETATM   13  C   UNL     1      -9.861  15.169  67.380  1.00  0.00    -0.224 C  
HETATM   14  H   UNL     1     -11.654  15.870  65.700  1.00  0.00     0.000 HD 
HETATM   15  C   UNL     1      -8.616  14.224  66.763  1.00  0.00    -0.113 C  
HETATM   16  C   UNL     1      -7.293  14.726  67.345  1.00  0.00    -0.214 C  
HETATM   17  C   UNL     1      -7.018  16.208  67.052  1.00  0.00    -0.234 C  
HETATM   18  C   UNL     1      -5.641  16.528  67.674  1.00  0.00    -0.162 C  
HETATM   19  C   UNL     1      -8.153  17.137  67.501  1.00  0.00    -0.196 C  
HETATM   20  C   UNL     1      -7.875  18.353  68.016  1.00  0.00    -0.286 C  
HETATM   21  C   UNL     1      -8.986  19.248  68.380  1.00  0.00    -0.352 C  
HETATM   22  O   UNL     1      -8.914  20.456  68.201  1.00  0.00    -0.110 OA 
HETATM   23  C   UNL     1     -10.137  18.562  69.030  1.00  0.00    -0.276 C  
ENDROOT
BRANCH   4  24
HETATM   24  C   UNL     1     -11.547  12.301  65.005  1.00  0.00    -0.343 C  
HETATM   25  C   UNL     1     -11.031  11.769  63.691  1.00  0.00    -0.513 C  
HETATM   26  O   UNL     1     -12.768  12.232  65.167  1.00  0.00    -0.571 OA 
ENDBRANCH   4  24
TORSDOF 1
ENDMDL
MODEL       15
REMARK 921   NORMALIZED FREE ENERGY PREDICTED BY IDOCK:   -6.43 KCAL/MOL
REMARK 922        TOTAL FREE ENERGY PREDICTED BY IDOCK:   -5.95 KCAL/MOL
REMARK 923 INTER-LIGAND FREE ENERGY PREDICTED BY IDOCK:   -6.50 KCAL/MOL
REMARK 924 INTRA-LIGAND FREE ENERGY PREDICTED BY IDOCK:    0.55 KCAL/MOL
REMARK 927      BINDING AFFINITY PREDICTED BY RF-SCORE:    0.00 PKD
ROOT
HETATM    1  C   UNL     1     -11.962   7.842  72.306  1.00  0.00    -0.387 C  
HETATM    2  C   UNL     1     -13.242   7.516  71.785  1.00  0.00    -0.364 C  
HETATM    3  C   UNL     1     -12.167   6.954  70.907  1.00  0.00    -0.404 C  
HETATM    4  C   UNL     1     -10.289   7.077  71.713  1.00  0.00    -0.216 C  
HETATM    5  C   UNL     1      -8.886  10.430  69.161  1.00  0.00    -0.180 C  
HETATM    6  C   UNL     1     -11.225   6.120  71.952  1.00  0.00    -0.336 C  
HETATM    7  C   UNL     1     -10.574   5.757  70.189  1.00  0.00    -0.377 C  
HETATM    8  C   UNL     1     -11.506   5.097  73.017  1.00  0.00    -0.349 C  
HETATM    9  C   UNL     1     -10.322  10.006  68.787  1.00  0.00    -0.216 C  
HETATM   10  C   UNL     1     -10.315   9.556  67.264  1.00  0.00    -0.319 C  
HETATM   11  C   UNL     1     -10.047   7.279  69.380  1.00  0.00    -0.183 C  
HETATM   12  O   UNL     1      -8.657   7.458  69.669  1.00  0.00    -0.135 OA 
HETATM   13  C   UNL     1     -10.852   8.768  69.638  1.00  0.00    -0.175 C  
HETATM   14  H   UNL     1      -8.379   8.261  69.243  1.00  0.00     0.000 HD 
HETATM   15  C   UNL     1     -11.268   9.173  71.215  1.00  0.00    -0.407 C  
HETATM   16  C   UNL     1     -12.247  10.349  71.171  1.00  0.00    -0.498 C  
HETATM   17  C   UNL     1     -11.690  11.582  70.445  1.00  0.00    -0.328 C  
HETATM   18  C   UNL     1     -12.785  12.669  70.529  1.00  0.00    -0.066 C  
HETATM   19  C   UNL     1     -11.198  11.279  69.024  1.00  0.00    -0.321 C  
HETATM   20  C   UNL     1     -11.379  12.179  68.034  1.00  0.00    -0.353 C  
HETATM   21  C   UNL     1     -10.841  11.889  66.695  1.00  0.00    -0.276 C  
HETATM   22  O   UNL     1     -10.360  12.772  65.998  1.00  0.00    -0.265 OA 
HETATM   23  C   UNL     1     -11.002  10.472  66.265  1.00  0.00     0.031 C  
ENDROOT
BRANCH   4  24
HETATM   24  C   UNL     1      -8.971   6.129  72.130  1.00  0.00    -0.142 C  
HETATM   25  C   UNL     1      -8.076   6.662  73.222  1.00  0.00    -0.111 C  
HETATM   26  O   UNL     1      -8.690   5.003  71.710  1.00  0.00    -0.126 OA 
ENDBRANCH   4  24
TORSDOF 1
ENDMDL
MODEL       16
REMARK 921   NORMALIZED FREE ENERGY PREDICTED BY IDOCK:   -6.38 KCAL/MOL
REMARK 922        TOTAL FREE ENERGY PREDICTED BY IDOCK:   -5.90 KCAL/MOL
REMARK 923 INTER-LIGAND FREE ENERGY PREDICTED BY IDOCK:   -6.58 KCAL/MOL
REMARK 924 INTRA-LIGAND FREE ENERGY PREDICTED BY IDOCK:    0.68 KCAL/MOL
REMARK 927      BINDING AFFINITY PREDICTED BY RF-SCORE:    0.00 PKD
ROOT
HETATM    1  C   UNL     1      -9.239   8.235  67.060  1.00  0.00    -0.187 C  
HETATM    2  C   UNL     1      -7.887   8.328  66.635  1.00  0.00    -0.094 C  
HETATM    3  C   UNL     1      -8.098   9.143  67.873  1.00  0.00    -0.105 C  
HETATM    4  C   UNL     1      -9.915   8.841  68.766  1.00  0.00    -0.197 C  
HETATM    5  C   UNL     1     -11.745  12.666  67.444  1.00  0.00    -0.432 C  
HETATM    6  C   UNL     1      -8.794   8.084  68.908  1.00  0.00    -0.141 C  
HETATM    7  C   UNL     1      -8.444   9.689  69.891  1.00  0.00    -0.211 C  
HETATM    8  C   UNL     1      -8.457   6.688  69.350  1.00  0.00    -0.131 C  
HETATM    9  C   UNL     1     -10.279  12.556  66.976  1.00  0.00    -0.231 C  
HETATM   10  C   UNL     1      -9.477  13.779  67.597  1.00  0.00    -0.217 C  
HETATM   11  C   UNL     1      -9.322  11.085  69.162  1.00  0.00    -0.021 C  
HETATM   12  O   UNL     1     -10.596  11.173  69.809  1.00  0.00    -0.449 OA 
HETATM   13  C   UNL     1      -9.559  11.225  67.473  1.00  0.00    -0.181 C  
HETATM   14  H   UNL     1     -11.059  11.909  69.425  1.00  0.00     0.000 HD 
HETATM   15  C   UNL     1     -10.042   9.852  66.631  1.00  0.00    -0.297 C  
HETATM   16  C   UNL     1      -9.871  10.118  65.134  1.00  0.00    -0.394 C  
HETATM   17  C   UNL     1     -10.656  11.339  64.634  1.00  0.00    -0.392 C  
HETATM   18  C   UNL     1     -10.398  11.432  63.114  1.00  0.00    -0.357 C  
HETATM   19  C   UNL     1     -10.343  12.623  65.414  1.00  0.00    -0.311 C  
HETATM   20  C   UNL     1     -10.288  13.812  64.777  1.00  0.00    -0.422 C  
HETATM   21  C   UNL     1     -10.049  15.034  65.561  1.00  0.00    -0.369 C  
HETATM   22  O   UNL     1     -10.607  16.087  65.285  1.00  0.00    -0.407 OA 
HETATM   23  C   UNL     1      -9.037  14.878  66.644  1.00  0.00    -0.309 C  
ENDROOT
BRANCH   4  24
HETATM   24  C   UNL     1     -10.605   8.390  70.226  1.00  0.00    -0.227 C  
HETATM   25  C   UNL     1     -11.514   7.186  70.197  1.00  0.00    -0.245 C  
HETATM   26  O   UNL     1     -10.392   8.873  71.341  1.00  0.00    -0.251 OA 
ENDBRANCH   4  24
TORSDOF 1
ENDMDL
MODEL       17
REMARK 921   NORMALIZED FREE ENERGY PREDICTED BY IDOCK:   -6.28 KCAL/MOL
REMARK 922        TOTAL FREE ENERGY PREDICTED BY IDOCK:   -5.80 KCAL/MOL
REMARK 923 INTER-LIGAND FREE ENERGY PREDICTED BY IDOCK:   -6.32 KCAL/MOL
REMARK 924 INTRA-LIGAND FREE ENERGY PREDICTED BY IDOCK:    0.51 KCAL/MOL
REMARK 927      BINDING AFFINITY PREDICTED BY RF-SCORE:    0.00 PKD
ROOT
HETATM    1  C   UNL     1     -10.248   9.842  70.245  1.00  0.00    -0.346 C  
HETATM    2  C   UNL     1     -11.598   9.469  70.479  1.00  0.00    -0.316 C  
HETATM    3  C   UNL     1     -11.149   8.974  69.139  1.00  0.00     0.072 C  
HETATM    4  C   UNL     1      -9.137   9.165  68.815  1.00  0.00    -0.136 C  
HETATM    5  C   UNL     1      -9.419  12.628  66.049  1.00  0.00    -0.140 C  
HETATM    6  C   UNL     1      -9.770   8.162  69.479  1.00  0.00    -0.170 C  
HETATM    7  C   UNL     1     -10.161   7.864  67.629  1.00  0.00    -0.262 C  
HETATM    8  C   UNL     1      -9.407   7.106  70.485  1.00  0.00    -0.158 C  
HETATM    9  C   UNL     1     -10.818  12.147  66.488  1.00  0.00    -0.307 C  
HETATM   10  C   UNL     1     -11.620  11.728  65.182  1.00  0.00    -0.211 C  
HETATM   11  C   UNL     1     -10.194   9.424  66.728  1.00  0.00    -0.250 C  
HETATM   12  O   UNL     1      -8.872   9.660  66.232  1.00  0.00    -0.145 OA 
HETATM   13  C   UNL     1     -10.773  10.870  67.438  1.00  0.00    -0.305 C  
HETATM   14  H   UNL     1      -8.889  10.482  65.757  1.00  0.00     0.000 HD 
HETATM   15  C   UNL     1     -10.286  11.224  69.008  1.00  0.00    -0.189 C  
HETATM   16  C   UNL     1     -11.166  12.355  69.544  1.00  0.00    -0.171 C  
HETATM   17  C   UNL     1     -11.121  13.627  68.684  1.00  0.00    -0.299 C  
HETATM   18  C   UNL     1     -12.028  14.661  69.387  1.00  0.00    -0.351 C  
HETATM   19  C   UNL     1     -11.464  13.375  67.210  1.00  0.00    -0.374 C  
HETATM   20  C   UNL     1     -12.173  14.285  66.510  1.00  0.00    -0.419 C  
HETATM   21  C   UNL     1     -12.432  14.046  65.081  1.00  0.00    -0.452 C  
HETATM   22  O   UNL     1     -12.426  14.964  64.271  1.00  0.00    -0.670 OA 
HETATM   23  C   UNL     1     -12.761  12.633  64.746  1.00  0.00    -0.460 C  
ENDROOT
BRANCH   4  24
HETATM   24  C   UNL     1      -7.777   8.269  68.420  1.00  0.00    -0.105 C  
HETATM   25  C   UNL     1      -6.521   8.571  69.199  1.00  0.00    -0.043 C  
HETATM   26  O   UNL     1      -7.699   7.328  67.624  1.00  0.00    -0.107 OA 
ENDBRANCH   4  24
TORSDOF 1
ENDMDL
MODEL       18
REMARK 921   NORMALIZED FREE ENERGY PREDICTED BY IDOCK:   -6.23 KCAL/MOL
REMARK 922        TOTAL FREE ENERGY PREDICTED BY IDOCK:   -5.75 KCAL/MOL
REMARK 923 INTER-LIGAND FREE ENERGY PREDICTED BY IDOCK:   -6.24 KCAL/MOL
REMARK 924 INTRA-LIGAND FREE ENERGY PREDICTED BY IDOCK:    0.50 KCAL/MOL
REMARK 927      BINDING AFFINITY PREDICTED BY RF-SCORE:    0.00 PKD
ROOT
HETATM    1  C   UNL     1     -10.783  10.974  69.318  1.00  0.00    -0.263 C  
HETATM    2  C   UNL     1     -12.168  10.935  69.006  1.00  0.00    -0.112 C  
HETATM    3  C   UNL     1     -11.353  10.844  67.754  1.00  0.00    -0.366 C  
HETATM    4  C   UNL     1      -9.351  10.568  68.085  1.00  0.00    -0.150 C  
HETATM    5  C   UNL     1      -8.120  14.719  67.096  1.00  0.00    -0.226 C  
HETATM    6  C   UNL     1     -10.320   9.614  68.065  1.00  0.00    -0.262 C  
HETATM    7  C   UNL     1     -10.069  10.114  66.234  1.00  0.00    -0.303 C  
HETATM    8  C   UNL     1     -10.497   8.213  68.580  1.00  0.00    -0.195 C  
HETATM    9  C   UNL     1      -9.638  14.525  66.902  1.00  0.00    -0.258 C  
HETATM   10  C   UNL     1      -9.978  14.839  65.382  1.00  0.00    -0.369 C  
HETATM   11  C   UNL     1      -9.550  11.836  66.112  1.00  0.00    -0.232 C  
HETATM   12  O   UNL     1      -8.119  11.853  66.132  1.00  0.00    -0.378 OA 
HETATM   13  C   UNL     1     -10.123  13.035  67.191  1.00  0.00    -0.244 C  
HETATM   14  H   UNL     1      -7.845  12.760  66.067  1.00  0.00     0.000 HD 
HETATM   15  C   UNL     1     -10.176  12.657  68.828  1.00  0.00    -0.094 C  
HETATM   16  C   UNL     1     -11.011  13.722  69.543  1.00  0.00    -0.081 C  
HETATM   17  C   UNL     1     -10.477  15.149  69.354  1.00  0.00    -0.259 C  
HETATM   18  C   UNL     1     -11.410  16.075  70.165  1.00  0.00    -0.369 C  
HETATM   19  C   UNL     1     -10.309  15.544  67.881  1.00  0.00    -0.250 C  
HETATM   20  C   UNL     1     -10.581  16.803  67.477  1.00  0.00    -0.309 C  
HETATM   21  C   UNL     1     -10.349  17.170  66.070  1.00  0.00    -0.309 C  
HETATM   22  O   UNL     1      -9.921  18.274  65.763  1.00  0.00    -0.540 OA 
HETATM   23  C   UNL     1     -10.744  16.119  65.091  1.00  0.00    -0.391 C  
ENDROOT
BRANCH   4  24
HETATM   24  C   UNL     1      -8.088   9.529  67.719  1.00  0.00    -0.106 C  
HETATM   25  C   UNL     1      -7.071   9.295  68.808  1.00  0.00    -0.073 C  
HETATM   26  O   UNL     1      -7.934   8.862  66.691  1.00  0.00    -0.102 OA 
ENDBRANCH   4  24
TORSDOF 1
ENDMDL
MODEL       19
REMARK 921   NORMALIZED FREE ENERGY PREDICTED BY IDOCK:   -6.22 KCAL/MOL
REMARK 922        TOTAL FREE ENERGY PREDICTED BY IDOCK:   -5.74 KCAL/MOL
REMARK 923 INTER-LIGAND FREE ENERGY PREDICTED BY IDOCK:   -6.23 KCAL/MOL
REMARK 924 INTRA-LIGAND FREE ENERGY PREDICTED BY IDOCK:    0.50 KCAL/MOL
REMARK 927      BINDING AFFINITY PREDICTED BY RF-SCORE:    0.00 PKD
ROOT
HETATM    1  C   UNL     1     -12.072  13.139  67.819  1.00  0.00    -0.262 C  
HETATM    2  C   UNL     1     -11.736  14.095  68.814  1.00  0.00    -0.380 C  
HETATM    3  C   UNL     1     -10.530  13.755  67.993  1.00  0.00    -0.245 C  
HETATM    4  C   UNL     1     -10.947  12.635  66.331  1.00  0.00    -0.304 C  
HETATM    5  C   UNL     1      -9.394   8.795  67.932  1.00  0.00    -0.155 C  
HETATM    6  C   UNL     1     -11.042  13.986  66.456  1.00  0.00    -0.315 C  
HETATM    7  C   UNL     1      -9.165  13.620  66.379  1.00  0.00    -0.142 C  
HETATM    8  C   UNL     1     -11.751  15.110  65.755  1.00  0.00    -0.016 C  
HETATM    9  C   UNL     1      -9.194   9.944  68.942  1.00  0.00    -0.160 C  
HETATM   10  C   UNL     1      -7.637  10.072  69.230  1.00  0.00    -0.109 C  
HETATM   11  C   UNL     1      -8.806  11.994  67.069  1.00  0.00    -0.197 C  
HETATM   12  O   UNL     1      -8.858  11.051  65.993  1.00  0.00    -0.182 OA 
HETATM   13  C   UNL     1      -9.684  11.356  68.392  1.00  0.00    -0.203 C  
HETATM   14  H   UNL     1      -8.668  10.194  66.356  1.00  0.00     0.000 HD 
HETATM   15  C   UNL     1     -11.357  11.520  68.377  1.00  0.00    -0.342 C  
HETATM   16  C   UNL     1     -11.889  11.189  69.773  1.00  0.00    -0.422 C  
HETATM   17  C   UNL     1     -11.507   9.782  70.256  1.00  0.00    -0.317 C  
HETATM   18  C   UNL     1     -12.152   9.610  71.649  1.00  0.00    -0.481 C  
HETATM   19  C   UNL     1      -9.997   9.515  70.214  1.00  0.00    -0.310 C  
HETATM   20  C   UNL     1      -9.408   8.779  71.180  1.00  0.00    -0.297 C  
HETATM   21  C   UNL     1      -7.969   8.485  71.079  1.00  0.00    -0.117 C  
HETATM   22  O   UNL     1      -7.515   7.402  71.424  1.00  0.00    -0.078 OA 
HETATM   23  C   UNL     1      -7.144   9.628  70.598  1.00  0.00    -0.117 C  
ENDROOT
BRANCH   4  24
HETATM   24  C   UNL     1     -10.766  12.637  64.664  1.00  0.00    -0.326 C  
HETATM   25  C   UNL     1     -11.904  12.053  63.863  1.00  0.00    -0.543 C  
HETATM   26  O   UNL     1      -9.850  13.137  64.006  1.00  0.00    -0.209 OA 
ENDBRANCH   4  24
TORSDOF 1
ENDMDL
MODEL       20
REMARK 921   NORMALIZED FREE ENERGY PREDICTED BY IDOCK:   -6.21 KCAL/MOL
REMARK 922        TOTAL FREE ENERGY PREDICTED BY IDOCK:   -5.72 KCAL/MOL
REMARK 923 INTER-LIGAND FREE ENERGY PREDICTED BY IDOCK:   -6.22 KCAL/MOL
REMARK 924 INTRA-LIGAND FREE ENERGY PREDICTED BY IDOCK:    0.50 KCAL/MOL
REMARK 927      BINDING AFFINITY PREDICTED BY RF-SCORE:    0.00 PKD
ROOT
HETATM    1  C   UNL     1     -10.176  15.489  65.222  1.00  0.00    -0.380 C  
HETATM    2  C   UNL     1     -11.559  15.412  64.907  1.00  0.00    -0.248 C  
HETATM    3  C   UNL     1     -11.371  15.548  66.387  1.00  0.00    -0.005 C  
HETATM    4  C   UNL     1      -9.451  15.988  66.943  1.00  0.00    -0.242 C  
HETATM    5  C   UNL     1      -8.443  11.934  68.450  1.00  0.00    -0.155 C  
HETATM    6  C   UNL     1     -10.406  16.862  66.526  1.00  0.00    -0.299 C  
HETATM    7  C   UNL     1     -10.929  16.354  68.296  1.00  0.00    -0.355 C  
HETATM    8  C   UNL     1     -10.453  18.252  65.956  1.00  0.00    -0.380 C  
HETATM    9  C   UNL     1      -9.907  12.003  67.968  1.00  0.00    -0.199 C  
HETATM   10  C   UNL     1     -10.842  11.639  69.199  1.00  0.00    -0.231 C  
HETATM   11  C   UNL     1     -10.379  14.678  68.664  1.00  0.00    -0.246 C  
HETATM   12  O   UNL     1      -9.082  14.775  69.263  1.00  0.00    -0.355 OA 
HETATM   13  C   UNL     1     -10.336  13.454  67.468  1.00  0.00    -0.226 C  
HETATM   14  H   UNL     1      -8.793  13.891  69.457  1.00  0.00     0.000 HD 
HETATM   15  C   UNL     1      -9.709  13.852  65.960  1.00  0.00    -0.270 C  
HETATM   16  C   UNL     1     -10.068  12.735  64.977  1.00  0.00    -0.239 C  
HETATM   17  C   UNL     1      -9.557  11.352  65.407  1.00  0.00    -0.255 C  
HETATM   18  C   UNL     1      -9.974  10.368  64.292  1.00  0.00    -0.368 C  
HETATM   19  C   UNL     1     -10.008  10.949  66.817  1.00  0.00    -0.245 C  
HETATM   20  C   UNL     1     -10.328   9.666  67.089  1.00  0.00    -0.319 C  
HETATM   21  C   UNL     1     -10.697   9.297  68.466  1.00  0.00    -0.142 C  
HETATM   22  O   UNL     1     -10.357   8.226  68.949  1.00  0.00    -0.214 OA 
HETATM   23  C   UNL     1     -11.555  10.297  69.158  1.00  0.00    -0.166 C  
ENDROOT
BRANCH   4  24
HETATM   24  C   UNL     1      -8.555  17.119  67.796  1.00  0.00    -0.216 C  
HETATM   25  C   UNL     1      -7.165  17.404  67.281  1.00  0.00    -0.192 C  
HETATM   26  O   UNL     1      -8.925  17.812  68.748  1.00  0.00    -0.277 OA 
ENDBRANCH   4  24
TORSDOF 1
ENDMDL
MODEL       21
REMARK 921   NORMALIZED FREE ENERGY PREDICTED BY IDOCK:   -6.20 KCAL/MOL
REMARK 922        TOTAL FREE ENERGY PREDICTED BY IDOCK:   -5.72 KCAL/MOL
REMARK 923 INTER-LIGAND FREE ENERGY PREDICTED BY IDOCK:   -6.21 KCAL/MOL
REMARK 924 INTRA-LIGAND FREE ENERGY PREDICTED BY IDOCK:    0.50 KCAL/MOL
REMARK 927      BINDING AFFINITY PREDICTED BY RF-SCORE:    0.00 PKD
ROOT
HETATM    1  C   UNL     1     -10.506  10.520  65.558  1.00  0.00    -0.220 C  
HETATM    2  C   UNL     1      -9.791  10.560  64.332  1.00  0.00    -0.405 C  
HETATM    3  C   UNL     1      -8.864  10.816  65.480  1.00  0.00    -0.203 C  
HETATM    4  C   UNL     1      -9.703  10.471  67.316  1.00  0.00    -0.197 C  
HETATM    5  C   UNL     1     -10.234  14.741  68.416  1.00  0.00    -0.224 C  
HETATM    6  C   UNL     1      -9.146   9.553  66.482  1.00  0.00    -0.185 C  
HETATM    7  C   UNL     1      -7.670  10.533  67.207  1.00  0.00    -0.106 C  
HETATM    8  C   UNL     1      -9.206   8.064  66.286  1.00  0.00    -0.237 C  
HETATM    9  C   UNL     1      -9.547  14.599  67.042  1.00  0.00    -0.246 C  
HETATM   10  C   UNL     1      -8.130  15.311  67.131  1.00  0.00    -0.248 C  
HETATM   11  C   UNL     1      -8.157  12.226  67.588  1.00  0.00    -0.165 C  
HETATM   12  O   UNL     1      -8.613  12.244  68.945  1.00  0.00    -0.365 OA 
HETATM   13  C   UNL     1      -9.283  13.084  66.625  1.00  0.00    -0.222 C  
HETATM   14  H   UNL     1      -8.869  13.137  69.146  1.00  0.00     0.000 HD 
HETATM   15  C   UNL     1     -10.672  12.276  66.133  1.00  0.00    -0.296 C  
HETATM   16  C   UNL     1     -11.349  13.102  65.037  1.00  0.00    -0.325 C  
HETATM   17  C   UNL     1     -11.704  14.530  65.477  1.00  0.00    -0.343 C  
HETATM   18  C   UNL     1     -12.404  15.196  64.272  1.00  0.00    -0.198 C  
HETATM   19  C   UNL     1     -10.504  15.310  66.030  1.00  0.00    -0.328 C  
HETATM   20  C   UNL     1     -10.375  16.630  65.778  1.00  0.00    -0.338 C  
HETATM   21  C   UNL     1      -9.248  17.366  66.375  1.00  0.00    -0.249 C  
HETATM   22  O   UNL     1      -9.379  18.515  66.776  1.00  0.00    -0.279 OA 
HETATM   23  C   UNL     1      -7.960  16.618  66.374  1.00  0.00    -0.360 C  
ENDROOT
BRANCH   4  24
HETATM   24  C   UNL     1      -9.482   9.577  68.717  1.00  0.00    -0.147 C  
HETATM   25  C   UNL     1     -10.726   9.020  69.363  1.00  0.00    -0.202 C  
HETATM   26  O   UNL     1      -8.413   9.246  69.239  1.00  0.00    -0.127 OA 
ENDBRANCH   4  24
TORSDOF 1
ENDMDL
MODEL       22
REMARK 921   NORMALIZED FREE ENERGY PREDICTED BY IDOCK:   -6.18 KCAL/MOL
REMARK 922        TOTAL FREE ENERGY PREDICTED BY IDOCK:   -5.69 KCAL/MOL
REMARK 923 INTER-LIGAND FREE ENERGY PREDICTED BY IDOCK:   -6.28 KCAL/MOL
REMARK 924 INTRA-LIGAND FREE ENERGY PREDICTED BY IDOCK:    0.59 KCAL/MOL
REMARK 927      BINDING AFFINITY PREDICTED BY RF-SCORE:    0.00 PKD
ROOT
HETATM    1  C   UNL     1      -9.907   9.241  65.844  1.00  0.00    -0.335 C  
HETATM    2  C   UNL     1      -8.828   9.595  64.991  1.00  0.00    -0.221 C  
HETATM    3  C   UNL     1      -8.445   9.801  66.424  1.00  0.00    -0.128 C  
HETATM    4  C   UNL     1      -9.790   9.030  67.761  1.00  0.00    -0.209 C  
HETATM    5  C   UNL     1     -11.552  12.922  68.974  1.00  0.00    -0.372 C  
HETATM    6  C   UNL     1      -8.795   8.362  67.119  1.00  0.00    -0.139 C  
HETATM    7  C   UNL     1      -7.912   9.429  68.440  1.00  0.00    -0.094 C  
HETATM    8  C   UNL     1      -8.470   6.935  66.776  1.00  0.00    -0.118 C  
HETATM    9  C   UNL     1     -10.408  13.119  67.957  1.00  0.00    -0.240 C  
HETATM   10  C   UNL     1      -9.297  14.021  68.645  1.00  0.00    -0.130 C  
HETATM   11  C   UNL     1      -8.843  10.938  68.765  1.00  0.00    -0.161 C  
HETATM   12  O   UNL     1      -9.744  10.660  69.842  1.00  0.00    -0.411 OA 
HETATM   13  C   UNL     1      -9.705  11.755  67.532  1.00  0.00    -0.185 C  
HETATM   14  H   UNL     1     -10.235  11.455  70.014  1.00  0.00     0.000 HD 
HETATM   15  C   UNL     1     -10.628  10.830  66.475  1.00  0.00    -0.279 C  
HETATM   16  C   UNL     1     -11.028  11.708  65.287  1.00  0.00    -0.327 C  
HETATM   17  C   UNL     1     -11.804  12.970  65.692  1.00  0.00    -0.445 C  
HETATM   18  C   UNL     1     -12.152  13.707  64.379  1.00  0.00    -0.470 C  
HETATM   19  C   UNL     1     -11.069  13.828  66.730  1.00  0.00    -0.316 C  
HETATM   20  C   UNL     1     -11.136  15.175  66.672  1.00  0.00    -0.308 C  
HETATM   21  C   UNL     1     -10.474  15.971  67.718  1.00  0.00    -0.298 C  
HETATM   22  O   UNL     1     -10.975  17.002  68.146  1.00  0.00    -0.367 OA 
HETATM   23  C   UNL     1      -9.145  15.446  68.137  1.00  0.00    -0.184 C  
ENDROOT
BRANCH   4  24
HETATM   24  C   UNL     1      -9.900   7.964  69.050  1.00  0.00    -0.171 C  
HETATM   25  C   UNL     1     -10.978   6.912  68.963  1.00  0.00    -0.225 C  
HETATM   26  O   UNL     1      -9.149   7.881  70.026  1.00  0.00    -0.151 OA 
ENDBRANCH   4  24
TORSDOF 1
ENDMDL
MODEL       23
REMARK 921   NORMALIZED FREE ENERGY PREDICTED BY IDOCK:   -6.08 KCAL/MOL
REMARK 922        TOTAL FREE ENERGY PREDICTED BY IDOCK:   -5.59 KCAL/MOL
REMARK 923 INTER-LIGAND FREE ENERGY PREDICTED BY IDOCK:   -6.08 KCAL/MOL
REMARK 924 INTRA-LIGAND FREE ENERGY PREDICTED BY IDOCK:    0.50 KCAL/MOL
REMARK 927      BINDING AFFINITY PREDICTED BY RF-SCORE:    0.00 PKD
ROOT
HETATM    1  C   UNL     1      -9.921  12.324  64.484  1.00  0.00    -0.217 C  
HETATM    2  C   UNL     1     -11.024  11.942  63.675  1.00  0.00    -0.511 C  
HETATM    3  C   UNL     1     -11.399  11.882  65.123  1.00  0.00    -0.328 C  
HETATM    4  C   UNL     1     -10.008  12.710  66.376  1.00  0.00    -0.262 C  
HETATM    5  C   UNL     1      -8.398   8.870  67.919  1.00  0.00    -0.118 C  
HETATM    6  C   UNL     1     -10.981  13.361  65.684  1.00  0.00    -0.292 C  
HETATM    7  C   UNL     1     -11.893  12.455  67.102  1.00  0.00    -0.361 C  
HETATM    8  C   UNL     1     -11.249  14.764  65.216  1.00  0.00    -0.366 C  
HETATM    9  C   UNL     1      -9.561   8.632  66.933  1.00  0.00    -0.254 C  
HETATM   10  C   UNL     1     -10.702   7.844  67.707  1.00  0.00    -0.189 C  
HETATM   11  C   UNL     1     -11.023  10.943  67.554  1.00  0.00    -0.293 C  
HETATM   12  O   UNL     1     -10.098  11.276  68.595  1.00  0.00    -0.197 OA 
HETATM   13  C   UNL     1     -10.211   9.983  66.393  1.00  0.00    -0.290 C  
HETATM   14  H   UNL     1      -9.640  10.479  68.833  1.00  0.00     0.000 HD 
HETATM   15  C   UNL     1      -9.262  10.768  65.249  1.00  0.00    -0.233 C  
HETATM   16  C   UNL     1      -8.913   9.771  64.142  1.00  0.00    -0.276 C  
HETATM   17  C   UNL     1      -8.186   8.518  64.652  1.00  0.00    -0.162 C  
HETATM   18  C   UNL     1      -7.885   7.653  63.409  1.00  0.00    -0.125 C  
HETATM   19  C   UNL     1      -8.945   7.789  65.769  1.00  0.00    -0.109 C  
HETATM   20  C   UNL     1      -8.935   6.441  65.831  1.00  0.00    -0.111 C  
HETATM   21  C   UNL     1      -9.618   5.771  66.950  1.00  0.00    -0.141 C  
HETATM   22  O   UNL     1      -9.157   4.761  67.464  1.00  0.00    -0.111 OA 
HETATM   23  C   UNL     1     -10.920   6.388  67.330  1.00  0.00    -0.474 C  
ENDROOT
BRANCH   4  24
HETATM   24  C   UNL     1      -9.837  13.882  67.563  1.00  0.00    -0.236 C  
HETATM   25  C   UNL     1      -8.511  14.599  67.616  1.00  0.00    -0.187 C  
HETATM   26  O   UNL     1     -10.698  14.290  68.347  1.00  0.00    -0.238 OA 
ENDBRANCH   4  24
TORSDOF 1
ENDMDL
MODEL       24
REMARK 921   NORMALIZED FREE ENERGY PREDICTED BY IDOCK:   -6.08 KCAL/MOL
REMARK 922        TOTAL FREE ENERGY PREDICTED BY IDOCK:   -5.58 KCAL/MOL
REMARK 923 INTER-LIGAND FREE ENERGY PREDICTED BY IDOCK:   -6.11 KCAL/MOL
REMARK 924 INTRA-LIGAND FREE ENERGY PREDICTED BY IDOCK:    0.53 KCAL/MOL
REMARK 927      BINDING AFFINITY PREDICTED BY RF-SCORE:    0.00 PKD
ROOT
HETATM    1  C   UNL     1      -9.286  12.850  67.631  1.00  0.00    -0.195 C  
HETATM    2  C   UNL     1      -9.881  12.865  68.921  1.00  0.00     0.136 C  
HETATM    3  C   UNL     1     -10.578  13.834  68.017  1.00  0.00    -0.258 C  
HETATM    4  C   UNL     1     -10.029  13.679  66.051  1.00  0.00    -0.313 C  
HETATM    5  C   UNL     1      -7.508  17.334  65.963  1.00  0.00    -0.232 C  
HETATM    6  C   UNL     1     -10.953  12.928  66.708  1.00  0.00    -0.300 C  
HETATM    7  C   UNL     1     -11.777  14.639  66.466  1.00  0.00    -0.335 C  
HETATM    8  C   UNL     1     -11.619  11.594  66.523  1.00  0.00    -0.166 C  
HETATM    9  C   UNL     1      -8.165  17.141  67.346  1.00  0.00    -0.197 C  
HETATM   10  C   UNL     1      -9.061  18.420  67.641  1.00  0.00    -0.282 C  
HETATM   11  C   UNL     1     -10.534  15.944  66.444  1.00  0.00    -0.308 C  
HETATM   12  O   UNL     1     -10.139  16.136  65.081  1.00  0.00    -0.503 OA 
HETATM   13  C   UNL     1      -9.125  15.872  67.413  1.00  0.00    -0.205 C  
HETATM   14  H   UNL     1      -9.485  16.824  65.069  1.00  0.00     0.000 HD 
HETATM   15  C   UNL     1      -8.296  14.412  67.486  1.00  0.00    -0.198 C  
HETATM   16  C   UNL     1      -7.293  14.482  68.640  1.00  0.00    -0.128 C  
HETATM   17  C   UNL     1      -6.296  15.643  68.515  1.00  0.00    -0.104 C  
HETATM   18  C   UNL     1      -5.350  15.537  69.732  1.00  0.00    -0.104 C  
HETATM   19  C   UNL     1      -6.973  17.010  68.350  1.00  0.00    -0.180 C  
HETATM   20  C   UNL     1      -6.445  18.107  68.933  1.00  0.00    -0.230 C  
HETATM   21  C   UNL     1      -7.081  19.415  68.705  1.00  0.00    -0.347 C  
HETATM   22  O   UNL     1      -6.414  20.434  68.582  1.00  0.00    -0.306 OA 
HETATM   23  C   UNL     1      -8.570  19.381  68.711  1.00  0.00    -0.371 C  
ENDROOT
BRANCH   4  24
HETATM   24  C   UNL     1     -10.668  13.428  64.522  1.00  0.00    -0.419 C  
HETATM   25  C   UNL     1      -9.941  12.443  63.641  1.00  0.00    -0.199 C  
HETATM   26  O   UNL     1     -11.714  13.889  64.057  1.00  0.00    -0.370 OA 
ENDBRANCH   4  24
TORSDOF 1
ENDMDL
MODEL       25
REMARK 921   NORMALIZED FREE ENERGY PREDICTED BY IDOCK:   -6.06 KCAL/MOL
REMARK 922        TOTAL FREE ENERGY PREDICTED BY IDOCK:   -5.57 KCAL/MOL
REMARK 923 INTER-LIGAND FREE ENERGY PREDICTED BY IDOCK:   -6.58 KCAL/MOL
REMARK 924 INTRA-LIGAND FREE ENERGY PREDICTED BY IDOCK:    1.01 KCAL/MOL
REMARK 927      BINDING AFFINITY PREDICTED BY RF-SCORE:    0.00 PKD
ROOT
HETATM    1  C   UNL     1      -8.728  14.062  68.569  1.00  0.00    -0.156 C  
HETATM    2  C   UNL     1      -8.284  15.087  67.693  1.00  0.00    -0.181 C  
HETATM    3  C   UNL     1      -9.657  14.633  67.306  1.00  0.00    -0.221 C  
HETATM    4  C   UNL     1     -10.537  13.391  68.675  1.00  0.00    -0.257 C  
HETATM    5  C   UNL     1     -10.003   9.648  66.345  1.00  0.00    -0.323 C  
HETATM    6  C   UNL     1     -10.501  14.750  68.703  1.00  0.00    -0.250 C  
HETATM    7  C   UNL     1     -11.751  14.310  67.322  1.00  0.00    -0.422 C  
HETATM    8  C   UNL     1     -10.666  15.835  69.730  1.00  0.00    -0.317 C  
HETATM    9  C   UNL     1      -9.476  10.872  65.566  1.00  0.00    -0.249 C  
HETATM   10  C   UNL     1     -10.287  10.967  64.203  1.00  0.00    -0.432 C  
HETATM   11  C   UNL     1     -11.321  12.737  66.554  1.00  0.00    -0.322 C  
HETATM   12  O   UNL     1     -12.014  11.708  67.269  1.00  0.00    -0.627 OA 
HETATM   13  C   UNL     1      -9.696  12.248  66.337  1.00  0.00    -0.243 C  
HETATM   14  H   UNL     1     -11.788  10.880  66.864  1.00  0.00     0.000 HD 
HETATM   15  C   UNL     1      -8.631  12.472  67.618  1.00  0.00    -0.178 C  
HETATM   16  C   UNL     1      -7.203  12.281  67.100  1.00  0.00    -0.100 C  
HETATM   17  C   UNL     1      -6.964  10.908  66.455  1.00  0.00    -0.134 C  
HETATM   18  C   UNL     1      -5.479  10.881  66.028  1.00  0.00    -0.139 C  
HETATM   19  C   UNL     1      -7.957  10.584  65.332  1.00  0.00    -0.129 C  
HETATM   20  C   UNL     1      -7.549   9.912  64.234  1.00  0.00    -0.139 C  
HETATM   21  C   UNL     1      -8.538   9.558  63.202  1.00  0.00    -0.217 C  
HETATM   22  O   UNL     1      -8.478   8.493  62.603  1.00  0.00    -0.190 OA 
HETATM   23  C   UNL     1      -9.540  10.625  62.924  1.00  0.00    -0.358 C  
ENDROOT
BRANCH   4  24
HETATM   24  C   UNL     1     -11.909  13.243  69.626  1.00  0.00    -0.327 C  
HETATM   25  C   UNL     1     -12.085  11.933  70.354  1.00  0.00    -0.421 C  
HETATM   26  O   UNL     1     -12.753  14.109  69.873  1.00  0.00    -0.255 OA 
ENDBRANCH   4  24
TORSDOF 1
ENDMDL
MODEL       26
REMARK 921   NORMALIZED FREE ENERGY PREDICTED BY IDOCK:   -6.02 KCAL/MOL
REMARK 922        TOTAL FREE ENERGY PREDICTED BY IDOCK:   -5.52 KCAL/MOL
REMARK 923 INTER-LIGAND FREE ENERGY PREDICTED BY IDOCK:   -6.02 KCAL/MOL
REMARK 924 INTRA-LIGAND FREE ENERGY PREDICTED BY IDOCK:    0.50 KCAL/MOL
REMARK 927      BINDING AFFINITY PREDICTED BY RF-SCORE:    0.00 PKD
ROOT
HETATM    1  C   UNL     1      -7.431  11.839  67.351  1.00  0.00    -0.143 C  
HETATM    2  C   UNL     1      -6.713  11.752  68.573  1.00  0.00    -0.070 C  
HETATM    3  C   UNL     1      -7.946  10.905  68.636  1.00  0.00    -0.140 C  
HETATM    4  C   UNL     1      -8.897  10.690  66.836  1.00  0.00    -0.143 C  
HETATM    5  C   UNL     1     -12.260  13.449  67.732  1.00  0.00    -0.171 C  
HETATM    6  C   UNL     1      -7.835   9.976  67.294  1.00  0.00    -0.102 C  
HETATM    7  C   UNL     1      -9.336   9.341  68.298  1.00  0.00    -0.141 C  
HETATM    8  C   UNL     1      -6.743   9.126  66.706  1.00  0.00    -0.076 C  
HETATM    9  C   UNL     1     -11.312  13.312  68.941  1.00  0.00    -0.333 C  
HETATM   10  C   UNL     1     -12.158  12.749  70.162  1.00  0.00    -0.370 C  
HETATM   11  C   UNL     1     -10.563  10.647  68.499  1.00  0.00    -0.200 C  
HETATM   12  O   UNL     1     -11.476  10.548  67.401  1.00  0.00    -0.448 OA 
HETATM   13  C   UNL     1     -10.117  12.288  68.690  1.00  0.00    -0.153 C  
HETATM   14  H   UNL     1     -12.123  11.235  67.507  1.00  0.00     0.000 HD 
HETATM   15  C   UNL     1      -8.918  12.898  67.683  1.00  0.00    -0.192 C  
HETATM   16  C   UNL     1      -8.459  14.248  68.240  1.00  0.00    -0.167 C  
HETATM   17  C   UNL     1      -9.596  15.272  68.378  1.00  0.00    -0.206 C  
HETATM   18  C   UNL     1      -8.950  16.570  68.912  1.00  0.00    -0.245 C  
HETATM   19  C   UNL     1     -10.778  14.758  69.208  1.00  0.00    -0.263 C  
HETATM   20  C   UNL     1     -11.447  15.593  70.032  1.00  0.00    -0.352 C  
HETATM   21  C   UNL     1     -12.617  15.087  70.768  1.00  0.00    -0.370 C  
HETATM   22  O   UNL     1     -13.603  15.788  70.955  1.00  0.00    -0.568 OA 
HETATM   23  C   UNL     1     -12.453  13.707  71.304  1.00  0.00    -0.412 C  
ENDROOT
BRANCH   4  24
HETATM   24  C   UNL     1      -9.432   9.519  65.762  1.00  0.00    -0.250 C  
HETATM   25  C   UNL     1      -9.397   9.882  64.298  1.00  0.00    -0.313 C  
HETATM   26  O   UNL     1      -9.773   8.361  66.017  1.00  0.00    -0.195 OA 
ENDBRANCH   4  24
TORSDOF 1
ENDMDL
MODEL       27
REMARK 921   NORMALIZED FREE ENERGY PREDICTED BY IDOCK:   -6.01 KCAL/MOL
REMARK 922        TOTAL FREE ENERGY PREDICTED BY IDOCK:   -5.52 KCAL/MOL
REMARK 923 INTER-LIGAND FREE ENERGY PREDICTED BY IDOCK:   -6.06 KCAL/MOL
REMARK 924 INTRA-LIGAND FREE ENERGY PREDICTED BY IDOCK:    0.54 KCAL/MOL
REMARK 927      BINDING AFFINITY PREDICTED BY RF-SCORE:    0.00 PKD
ROOT
HETATM    1  C   UNL     1      -9.640   9.690  64.369  1.00  0.00    -0.038 C  
HETATM    2  C   UNL     1      -8.592  10.410  63.735  1.00  0.00    -0.178 C  
HETATM    3  C   UNL     1      -8.268  10.189  65.180  1.00  0.00    -0.151 C  
HETATM    4  C   UNL     1      -9.539   8.893  66.127  1.00  0.00    -0.335 C  
HETATM    5  C   UNL     1     -11.780  11.985  68.394  1.00  0.00    -0.390 C  
HETATM    6  C   UNL     1      -8.458   8.575  65.366  1.00  0.00    -0.190 C  
HETATM    7  C   UNL     1      -7.737   9.253  67.005  1.00  0.00    -0.095 C  
HETATM    8  C   UNL     1      -7.957   7.375  64.612  1.00  0.00    -0.127 C  
HETATM    9  C   UNL     1     -10.647  12.616  67.559  1.00  0.00    -0.236 C  
HETATM   10  C   UNL     1      -9.666  13.366  68.559  1.00  0.00    -0.156 C  
HETATM   11  C   UNL     1      -8.849  10.471  67.732  1.00  0.00    -0.125 C  
HETATM   12  O   UNL     1      -9.734   9.771  68.613  1.00  0.00    -0.150 OA 
HETATM   13  C   UNL     1      -9.776  11.541  66.769  1.00  0.00    -0.220 C  
HETATM   14  H   UNL     1     -10.320  10.413  68.996  1.00  0.00     0.000 HD 
HETATM   15  C   UNL     1     -10.559  10.909  65.423  1.00  0.00    -0.243 C  
HETATM   16  C   UNL     1     -11.035  12.072  64.549  1.00  0.00    -0.369 C  
HETATM   17  C   UNL     1     -11.965  13.049  65.284  1.00  0.00    -0.446 C  
HETATM   18  C   UNL     1     -12.371  14.123  64.251  1.00  0.00    -0.398 C  
HETATM   19  C   UNL     1     -11.361  13.604  66.580  1.00  0.00    -0.335 C  
HETATM   20  C   UNL     1     -11.588  14.884  66.943  1.00  0.00    -0.286 C  
HETATM   21  C   UNL     1     -11.048  15.371  68.223  1.00  0.00    -0.309 C  
HETATM   22  O   UNL     1     -11.678  16.153  68.923  1.00  0.00    -0.357 OA 
HETATM   23  C   UNL     1      -9.675  14.886  68.533  1.00  0.00    -0.215 C  
ENDROOT
BRANCH   4  24
HETATM   24  C   UNL     1      -9.549   7.467  67.007  1.00  0.00    -0.172 C  
HETATM   25  C   UNL     1     -10.813   6.646  66.946  1.00  0.00    -0.415 C  
HETATM   26  O   UNL     1      -8.613   6.961  67.633  1.00  0.00    -0.122 OA 
ENDBRANCH   4  24
TORSDOF 1
ENDMDL
MODEL       28
REMARK 921   NORMALIZED FREE ENERGY PREDICTED BY IDOCK:   -6.01 KCAL/MOL
REMARK 922        TOTAL FREE ENERGY PREDICTED BY IDOCK:   -5.51 KCAL/MOL
REMARK 923 INTER-LIGAND FREE ENERGY PREDICTED BY IDOCK:   -6.01 KCAL/MOL
REMARK 924 INTRA-LIGAND FREE ENERGY PREDICTED BY IDOCK:    0.50 KCAL/MOL
REMARK 927      BINDING AFFINITY PREDICTED BY RF-SCORE:    0.00 PKD
ROOT
HETATM    1  C   UNL     1     -10.869   7.047  71.304  1.00  0.00    -0.260 C  
HETATM    2  C   UNL     1     -12.126   6.607  70.811  1.00  0.00    -0.364 C  
HETATM    3  C   UNL     1     -11.104   6.583  69.717  1.00  0.00    -0.430 C  
HETATM    4  C   UNL     1      -9.186   6.887  70.367  1.00  0.00    -0.156 C  
HETATM    5  C   UNL     1      -8.835  11.065  68.900  1.00  0.00    -0.120 C  
HETATM    6  C   UNL     1      -9.877   5.716  70.365  1.00  0.00    -0.253 C  
HETATM    7  C   UNL     1      -9.435   6.040  68.531  1.00  0.00    -0.127 C  
HETATM    8  C   UNL     1      -9.800   4.391  71.071  1.00  0.00    -0.260 C  
HETATM    9  C   UNL     1     -10.203  10.455  68.529  1.00  0.00    -0.191 C  
HETATM   10  C   UNL     1     -10.334  10.482  66.946  1.00  0.00    -0.293 C  
HETATM   11  C   UNL     1      -9.332   7.810  68.206  1.00  0.00    -0.143 C  
HETATM   12  O   UNL     1      -7.973   8.206  68.423  1.00  0.00    -0.119 OA 
HETATM   13  C   UNL     1     -10.358   8.936  68.985  1.00  0.00    -0.226 C  
HETATM   14  H   UNL     1      -7.919   9.139  68.251  1.00  0.00     0.000 HD 
HETATM   15  C   UNL     1     -10.608   8.759  70.637  1.00  0.00    -0.258 C  
HETATM   16  C   UNL     1     -11.788   9.643  71.046  1.00  0.00    -0.428 C  
HETATM   17  C   UNL     1     -11.589  11.127  70.705  1.00  0.00    -0.188 C  
HETATM   18  C   UNL     1     -12.846  11.865  71.216  1.00  0.00    -0.391 C  
HETATM   19  C   UNL     1     -11.262  11.371  69.226  1.00  0.00    -0.342 C  
HETATM   20  C   UNL     1     -11.754  12.456  68.589  1.00  0.00    -0.372 C  
HETATM   21  C   UNL     1     -11.372  12.698  67.188  1.00  0.00    -0.319 C  
HETATM   22  O   UNL     1     -11.175  13.830  66.770  1.00  0.00    -0.303 OA 
HETATM   23  C   UNL     1     -11.322  11.470  66.347  1.00  0.00    -0.246 C  
ENDROOT
BRANCH   4  24
HETATM   24  C   UNL     1      -7.666   6.182  70.354  1.00  0.00    -0.098 C  
HETATM   25  C   UNL     1      -6.803   6.421  71.569  1.00  0.00    -0.067 C  
HETATM   26  O   UNL     1      -7.196   5.417  69.507  1.00  0.00    -0.061 OA 
ENDBRANCH   4  24
TORSDOF 1
ENDMDL
MODEL       29
REMARK 921   NORMALIZED FREE ENERGY PREDICTED BY IDOCK:   -5.99 KCAL/MOL
REMARK 922        TOTAL FREE ENERGY PREDICTED BY IDOCK:   -5.49 KCAL/MOL
REMARK 923 INTER-LIGAND FREE ENERGY PREDICTED BY IDOCK:   -6.04 KCAL/MOL
REMARK 924 INTRA-LIGAND FREE ENERGY PREDICTED BY IDOCK:    0.55 KCAL/MOL
REMARK 927      BINDING AFFINITY PREDICTED BY RF-SCORE:    0.00 PKD
ROOT
HETATM    1  C   UNL     1     -11.753  11.373  68.537  1.00  0.00    -0.386 C  
HETATM    2  C   UNL     1     -11.102  11.183  69.785  1.00  0.00    -0.271 C  
HETATM    3  C   UNL     1     -10.225  11.966  68.857  1.00  0.00    -0.095 C  
HETATM    4  C   UNL     1     -11.167  12.581  67.147  1.00  0.00    -0.352 C  
HETATM    5  C   UNL     1      -9.252   9.619  64.448  1.00  0.00    -0.258 C  
HETATM    6  C   UNL     1     -11.194  13.188  68.363  1.00  0.00    -0.305 C  
HETATM    7  C   UNL     1      -9.445  13.536  67.667  1.00  0.00    -0.222 C  
HETATM    8  C   UNL     1     -12.070  14.175  69.081  1.00  0.00    -0.362 C  
HETATM    9  C   UNL     1      -8.721   9.486  65.891  1.00  0.00    -0.168 C  
HETATM   10  C   UNL     1      -7.152   9.726  65.856  1.00  0.00    -0.102 C  
HETATM   11  C   UNL     1      -8.913  12.195  66.586  1.00  0.00    -0.198 C  
HETATM   12  O   UNL     1      -9.321  12.531  65.256  1.00  0.00    -0.443 OA 
HETATM   13  C   UNL     1      -9.337  10.564  66.888  1.00  0.00    -0.181 C  
HETATM   14  H   UNL     1      -9.040  11.825  64.686  1.00  0.00     0.000 HD 
HETATM   15  C   UNL     1     -10.925  10.234  67.329  1.00  0.00    -0.277 C  
HETATM   16  C   UNL     1     -10.992   8.801  67.861  1.00  0.00     0.056 C  
HETATM   17  C   UNL     1     -10.500   7.750  66.855  1.00  0.00    -0.388 C  
HETATM   18  C   UNL     1     -10.672   6.376  67.540  1.00  0.00    -0.396 C  
HETATM   19  C   UNL     1      -9.087   8.029  66.328  1.00  0.00    -0.232 C  
HETATM   20  C   UNL     1      -8.234   7.009  66.092  1.00  0.00    -0.125 C  
HETATM   21  C   UNL     1      -6.906   7.302  65.527  1.00  0.00    -0.052 C  
HETATM   22  O   UNL     1      -6.385   6.557  64.709  1.00  0.00    -0.036 OA 
HETATM   23  C   UNL     1      -6.257   8.519  66.089  1.00  0.00    -0.052 C  
ENDROOT
BRANCH   4  24
HETATM   24  C   UNL     1     -11.525  13.961  66.265  1.00  0.00    -0.339 C  
HETATM   25  C   UNL     1     -12.733  13.890  65.364  1.00  0.00    -0.525 C  
HETATM   26  O   UNL     1     -10.968  15.061  66.327  1.00  0.00    -0.332 OA 
ENDBRANCH   4  24
TORSDOF 1
ENDMDL
MODEL       30
REMARK 921   NORMALIZED FREE ENERGY PREDICTED BY IDOCK:   -5.90 KCAL/MOL
REMARK 922        TOTAL FREE ENERGY PREDICTED BY IDOCK:   -5.40 KCAL/MOL
REMARK 923 INTER-LIGAND FREE ENERGY PREDICTED BY IDOCK:   -5.90 KCAL/MOL
REMARK 924 INTRA-LIGAND FREE ENERGY PREDICTED BY IDOCK:    0.51 KCAL/MOL
REMARK 927      BINDING AFFINITY PREDICTED BY RF-SCORE:    0.00 PKD
ROOT
HETATM    1  C   UNL     1     -10.228   6.999  69.651  1.00  0.00    -0.212 C  
HETATM    2  C   UNL     1     -11.535   6.567  69.301  1.00  0.00    -0.307 C  
HETATM    3  C   UNL     1     -10.734   6.846  68.067  1.00  0.00    -0.276 C  
HETATM    4  C   UNL     1      -8.744   7.166  68.424  1.00  0.00    -0.125 C  
HETATM    5  C   UNL     1      -8.849  11.567  67.839  1.00  0.00    -0.152 C  
HETATM    6  C   UNL     1      -9.373   5.967  68.294  1.00  0.00    -0.116 C  
HETATM    7  C   UNL     1      -9.293   6.687  66.522  1.00  0.00    -0.191 C  
HETATM    8  C   UNL     1      -9.109   4.538  68.678  1.00  0.00    -0.164 C  
HETATM    9  C   UNL     1     -10.235  10.937  67.589  1.00  0.00    -0.214 C  
HETATM   10  C   UNL     1     -10.659  11.270  66.096  1.00  0.00    -0.312 C  
HETATM   11  C   UNL     1      -9.328   8.489  66.566  1.00  0.00    -0.203 C  
HETATM   12  O   UNL     1      -7.970   8.941  66.624  1.00  0.00    -0.102 OA 
HETATM   13  C   UNL     1     -10.238   9.350  67.732  1.00  0.00    -0.273 C  
HETATM   14  H   UNL     1      -7.989   9.891  66.647  1.00  0.00     0.000 HD 
HETATM   15  C   UNL     1     -10.168   8.825  69.327  1.00  0.00    -0.215 C  
HETATM   16  C   UNL     1     -11.287   9.512  70.113  1.00  0.00    -0.241 C  
HETATM   17  C   UNL     1     -11.218  11.045  70.064  1.00  0.00    -0.303 C  
HETATM   18  C   UNL     1     -12.388  11.562  70.931  1.00  0.00    -0.460 C  
HETATM   19  C   UNL     1     -11.183  11.606  68.637  1.00  0.00    -0.308 C  
HETATM   20  C   UNL     1     -11.830  12.754  68.340  1.00  0.00    -0.353 C  
HETATM   21  C   UNL     1     -11.726  13.302  66.978  1.00  0.00    -0.389 C  
HETATM   22  O   UNL     1     -11.658  14.508  66.781  1.00  0.00    -0.357 OA 
HETATM   23  C   UNL     1     -11.782  12.276  65.900  1.00  0.00    -0.451 C  
ENDROOT
BRANCH   4  24
HETATM   24  C   UNL     1      -7.223   6.602  67.999  1.00  0.00    -0.091 C  
HETATM   25  C   UNL     1      -6.212   6.486  69.113  1.00  0.00    -0.034 C  
HETATM   26  O   UNL     1      -6.854   6.187  66.897  1.00  0.00    -0.059 OA 
ENDBRANCH   4  24
TORSDOF 1
ENDMDL
MODEL       31
REMARK 921   NORMALIZED FREE ENERGY PREDICTED BY IDOCK:   -5.87 KCAL/MOL
REMARK 922        TOTAL FREE ENERGY PREDICTED BY IDOCK:   -5.36 KCAL/MOL
REMARK 923 INTER-LIGAND FREE ENERGY PREDICTED BY IDOCK:   -5.86 KCAL/MOL
REMARK 924 INTRA-LIGAND FREE ENERGY PREDICTED BY IDOCK:    0.50 KCAL/MOL
REMARK 927      BINDING AFFINITY PREDICTED BY RF-SCORE:    0.00 PKD
ROOT
HETATM    1  C   UNL     1      -9.169  10.259  66.768  1.00  0.00    -0.180 C  
HETATM    2  C   UNL     1      -9.966   9.515  65.857  1.00  0.00    -0.342 C  
HETATM    3  C   UNL     1     -10.837  10.235  66.840  1.00  0.00    -0.205 C  
HETATM    4  C   UNL     1      -9.834  11.590  68.001  1.00  0.00    -0.192 C  
HETATM    5  C   UNL     1      -9.823   9.139  71.704  1.00  0.00    -0.295 C  
HETATM    6  C   UNL     1     -10.316  11.782  66.744  1.00  0.00    -0.251 C  
HETATM    7  C   UNL     1     -11.859  11.774  67.877  1.00  0.00    -0.289 C  
HETATM    8  C   UNL     1     -10.065  12.726  65.601  1.00  0.00    -0.281 C  
HETATM    9  C   UNL     1     -10.577   8.425  70.564  1.00  0.00    -0.236 C  
HETATM   10  C   UNL     1     -12.069   8.176  71.048  1.00  0.00    -0.223 C  
HETATM   11  C   UNL     1     -11.585  10.724  69.316  1.00  0.00    -0.305 C  
HETATM   12  O   UNL     1     -11.044  11.552  70.351  1.00  0.00    -0.378 OA 
HETATM   13  C   UNL     1     -10.658   9.288  69.228  1.00  0.00    -0.234 C  
HETATM   14  H   UNL     1     -10.899  10.999  71.110  1.00  0.00     0.000 HD 
HETATM   15  C   UNL     1      -9.208   9.340  68.379  1.00  0.00    -0.132 C  
HETATM   16  C   UNL     1      -8.728   7.905  68.152  1.00  0.00    -0.126 C  
HETATM   17  C   UNL     1      -8.544   7.107  69.451  1.00  0.00    -0.134 C  
HETATM   18  C   UNL     1      -8.027   5.712  69.037  1.00  0.00    -0.096 C  
HETATM   19  C   UNL     1      -9.799   7.088  70.334  1.00  0.00    -0.184 C  
HETATM   20  C   UNL     1     -10.126   5.977  71.029  1.00  0.00    -0.241 C  
HETATM   21  C   UNL     1     -11.300   6.008  71.917  1.00  0.00    -0.279 C  
HETATM   22  O   UNL     1     -11.301   5.421  72.990  1.00  0.00    -0.302 OA 
HETATM   23  C   UNL     1     -12.469   6.743  71.359  1.00  0.00    -0.379 C  
ENDROOT
BRANCH   4  24
HETATM   24  C   UNL     1      -9.833  13.211  68.427  1.00  0.00    -0.206 C  
HETATM   25  C   UNL     1      -8.484  13.879  68.532  1.00  0.00    -0.127 C  
HETATM   26  O   UNL     1     -10.809  13.950  68.583  1.00  0.00    -0.248 OA 
ENDBRANCH   4  24
TORSDOF 1
ENDMDL
MODEL       32
REMARK 921   NORMALIZED FREE ENERGY PREDICTED BY IDOCK:   -5.86 KCAL/MOL
REMARK 922        TOTAL FREE ENERGY PREDICTED BY IDOCK:   -5.36 KCAL/MOL
REMARK 923 INTER-LIGAND FREE ENERGY PREDICTED BY IDOCK:   -7.42 KCAL/MOL
REMARK 924 INTRA-LIGAND FREE ENERGY PREDICTED BY IDOCK:    2.06 KCAL/MOL
REMARK 927      BINDING AFFINITY PREDICTED BY RF-SCORE:    0.00 PKD
ROOT
HETATM    1  C   UNL     1     -10.777  16.445  68.749  1.00  0.00    -0.321 C  
HETATM    2  C   UNL     1      -9.658  16.281  69.609  1.00  0.00     0.007 C  
HETATM    3  C   UNL     1      -9.246  16.099  68.181  1.00  0.00    -0.193 C  
HETATM    4  C   UNL     1     -10.689  16.622  66.827  1.00  0.00    -0.133 C  
HETATM    5  C   UNL     1     -11.837  12.477  65.719  1.00  0.00    -0.494 C  
HETATM    6  C   UNL     1      -9.809  17.449  67.450  1.00  0.00    -0.281 C  
HETATM    7  C   UNL     1      -8.771  16.495  66.155  1.00  0.00    -0.335 C  
HETATM    8  C   UNL     1      -9.705  18.917  67.755  1.00  0.00    -0.371 C  
HETATM    9  C   UNL     1     -10.678  12.482  66.738  1.00  0.00    -0.261 C  
HETATM   10  C   UNL     1      -9.441  11.742  66.071  1.00  0.00    -0.245 C  
HETATM   11  C   UNL     1      -9.461  14.855  65.871  1.00  0.00    -0.254 C  
HETATM   12  O   UNL     1     -10.392  14.964  64.789  1.00  0.00    -0.478 OA 
HETATM   13  C   UNL     1     -10.191  13.949  67.126  1.00  0.00    -0.258 C  
HETATM   14  H   UNL     1     -10.756  14.099  64.639  1.00  0.00     0.000 HD 
HETATM   15  C   UNL     1     -11.246  14.749  68.161  1.00  0.00    -0.307 C  
HETATM   16  C   UNL     1     -11.510  13.851  69.372  1.00  0.00    -0.334 C  
HETATM   17  C   UNL     1     -12.085  12.476  69.002  1.00  0.00    -0.181 C  
HETATM   18  C   UNL     1     -12.320  11.729  70.333  1.00  0.00    -0.362 C  
HETATM   19  C   UNL     1     -11.226  11.714  67.984  1.00  0.00    -0.327 C  
HETATM   20  C   UNL     1     -11.088  10.374  68.078  1.00  0.00    -0.359 C  
HETATM   21  C   UNL     1     -10.310   9.661  67.051  1.00  0.00    -0.248 C  
HETATM   22  O   UNL     1     -10.648   8.555  66.651  1.00  0.00    -0.255 OA 
HETATM   23  C   UNL     1      -9.075  10.371  66.616  1.00  0.00    -0.169 C  
ENDROOT
BRANCH   4  24
HETATM   24  C   UNL     1     -10.958  17.625  65.511  1.00  0.00     0.214 C  
HETATM   25  C   UNL     1     -10.710  19.098  65.726  1.00  0.00    -0.388 C  
HETATM   26  O   UNL     1     -11.251  17.295  64.359  1.00  0.00    -1.082 OA 
ENDBRANCH   4  24
TORSDOF 1
ENDMDL
MODEL       33
REMARK 921   NORMALIZED FREE ENERGY PREDICTED BY IDOCK:   -5.86 KCAL/MOL
REMARK 922        TOTAL FREE ENERGY PREDICTED BY IDOCK:   -5.35 KCAL/MOL
REMARK 923 INTER-LIGAND FREE ENERGY PREDICTED BY IDOCK:   -5.89 KCAL/MOL
REMARK 924 INTRA-LIGAND FREE ENERGY PREDICTED BY IDOCK:    0.53 KCAL/MOL
REMARK 927      BINDING AFFINITY PREDICTED BY RF-SCORE:    0.00 PKD
ROOT
HETATM    1  C   UNL     1      -8.330  12.285  68.264  1.00  0.00    -0.174 C  
HETATM    2  C   UNL     1      -7.456  11.775  67.267  1.00  0.00    -0.151 C  
HETATM    3  C   UNL     1      -8.875  11.424  66.941  1.00  0.00    -0.173 C  
HETATM    4  C   UNL     1     -10.256  12.368  68.121  1.00  0.00    -0.225 C  
HETATM    5  C   UNL     1     -11.267   8.829  70.607  1.00  0.00    -0.294 C  
HETATM    6  C   UNL     1      -9.646  12.865  67.012  1.00  0.00    -0.231 C  
HETATM    7  C   UNL     1     -10.906  11.580  66.359  1.00  0.00    -0.334 C  
HETATM    8  C   UNL     1      -9.378  14.218  66.416  1.00  0.00    -0.270 C  
HETATM    9  C   UNL     1     -10.238   8.470  69.515  1.00  0.00    -0.206 C  
HETATM   10  C   UNL     1     -10.873   7.335  68.602  1.00  0.00    -0.112 C  
HETATM   11  C   UNL     1     -11.154  10.264  67.565  1.00  0.00    -0.232 C  
HETATM   12  O   UNL     1     -12.248  10.652  68.404  1.00  0.00    -0.822 OA 
HETATM   13  C   UNL     1      -9.883   9.694  68.559  1.00  0.00    -0.170 C  
HETATM   14  H   UNL     1     -12.378   9.959  69.039  1.00  0.00     0.000 HD 
HETATM   15  C   UNL     1      -8.879  10.833  69.280  1.00  0.00    -0.039 C  
HETATM   16  C   UNL     1      -7.647  10.112  69.833  1.00  0.00    -0.174 C  
HETATM   17  C   UNL     1      -7.987   9.003  70.841  1.00  0.00    -0.194 C  
HETATM   18  C   UNL     1      -6.639   8.417  71.315  1.00  0.00    -0.053 C  
HETATM   19  C   UNL     1      -8.977   7.967  70.292  1.00  0.00    -0.151 C  
HETATM   20  C   UNL     1      -8.847   6.663  70.616  1.00  0.00    -0.148 C  
HETATM   21  C   UNL     1      -9.848   5.701  70.126  1.00  0.00    -0.190 C  
HETATM   22  O   UNL     1     -10.222   4.764  70.819  1.00  0.00    -0.225 OA 
HETATM   23  C   UNL     1     -10.289   5.937  68.724  1.00  0.00    -0.279 C  
ENDROOT
BRANCH   4  24
HETATM   24  C   UNL     1     -11.600  13.366  68.033  1.00  0.00    -0.334 C  
HETATM   25  C   UNL     1     -11.861  14.251  69.227  1.00  0.00    -0.372 C  
HETATM   26  O   UNL     1     -12.356  13.529  67.071  1.00  0.00    -0.335 OA 
ENDBRANCH   4  24
TORSDOF 1
ENDMDL
MODEL       34
REMARK 921   NORMALIZED FREE ENERGY PREDICTED BY IDOCK:   -5.77 KCAL/MOL
REMARK 922        TOTAL FREE ENERGY PREDICTED BY IDOCK:   -5.26 KCAL/MOL
REMARK 923 INTER-LIGAND FREE ENERGY PREDICTED BY IDOCK:   -5.86 KCAL/MOL
REMARK 924 INTRA-LIGAND FREE ENERGY PREDICTED BY IDOCK:    0.60 KCAL/MOL
REMARK 927      BINDING AFFINITY PREDICTED BY RF-SCORE:    0.00 PKD
ROOT
HETATM    1  C   UNL     1      -6.865  17.800  67.762  1.00  0.00    -0.187 C  
HETATM    2  C   UNL     1      -5.994  17.699  66.644  1.00  0.00    -0.217 C  
HETATM    3  C   UNL     1      -7.367  18.098  66.197  1.00  0.00    -0.309 C  
HETATM    4  C   UNL     1      -8.629  18.587  67.733  1.00  0.00    -0.286 C  
HETATM    5  C   UNL     1     -11.029  14.853  67.593  1.00  0.00    -0.300 C  
HETATM    6  C   UNL     1      -7.709  19.392  67.139  1.00  0.00    -0.272 C  
HETATM    7  C   UNL     1      -9.128  19.228  65.865  1.00  0.00     0.034 C  
HETATM    8  C   UNL     1      -6.969  20.656  67.478  1.00  0.00    -0.395 C  
HETATM    9  C   UNL     1      -9.953  14.867  66.488  1.00  0.00    -0.277 C  
HETATM   10  C   UNL     1     -10.693  14.756  65.087  1.00  0.00    -0.433 C  
HETATM   11  C   UNL     1      -9.953  17.634  66.035  1.00  0.00    -0.209 C  
HETATM   12  O   UNL     1     -11.034  17.808  66.958  1.00  0.00    -0.156 OA 
HETATM   13  C   UNL     1      -9.100  16.212  66.460  1.00  0.00    -0.311 C  
HETATM   14  H   UNL     1     -11.469  16.969  67.047  1.00  0.00     0.000 HD 
HETATM   15  C   UNL     1      -7.975  16.314  67.704  1.00  0.00    -0.160 C  
HETATM   16  C   UNL     1      -7.118  15.046  67.687  1.00  0.00    -0.206 C  
HETATM   17  C   UNL     1      -7.935  13.753  67.825  1.00  0.00    -0.170 C  
HETATM   18  C   UNL     1      -6.915  12.592  67.825  1.00  0.00    -0.121 C  
HETATM   19  C   UNL     1      -9.050  13.624  66.780  1.00  0.00    -0.230 C  
HETATM   20  C   UNL     1      -9.350  12.420  66.248  1.00  0.00    -0.189 C  
HETATM   21  C   UNL     1     -10.467  12.317  65.294  1.00  0.00    -0.282 C  
HETATM   22  O   UNL     1     -11.209  11.344  65.287  1.00  0.00    -0.198 OA 
HETATM   23  C   UNL     1     -10.552  13.447  64.328  1.00  0.00    -0.358 C  
ENDROOT
BRANCH   4  24
HETATM   24  C   UNL     1      -9.603  19.833  68.290  1.00  0.00    -0.368 C  
HETATM   25  C   UNL     1      -9.947  19.813  69.759  1.00  0.00     0.120 C  
HETATM   26  O   UNL     1     -10.005  20.815  67.661  1.00  0.00    -0.377 OA 
ENDBRANCH   4  24
TORSDOF 1
ENDMDL
MODEL       35
REMARK 921   NORMALIZED FREE ENERGY PREDICTED BY IDOCK:   -5.75 KCAL/MOL
REMARK 922        TOTAL FREE ENERGY PREDICTED BY IDOCK:   -5.24 KCAL/MOL
REMARK 923 INTER-LIGAND FREE ENERGY PREDICTED BY IDOCK:   -5.73 KCAL/MOL
REMARK 924 INTRA-LIGAND FREE ENERGY PREDICTED BY IDOCK:    0.50 KCAL/MOL
REMARK 927      BINDING AFFINITY PREDICTED BY RF-SCORE:    0.00 PKD
ROOT
HETATM    1  C   UNL     1      -9.150  11.148  65.938  1.00  0.00    -0.218 C  
HETATM    2  C   UNL     1      -9.962  10.460  64.998  1.00  0.00    -0.399 C  
HETATM    3  C   UNL     1     -10.793  10.941  66.147  1.00  0.00    -0.166 C  
HETATM    4  C   UNL     1      -9.808  12.218  67.407  1.00  0.00    -0.199 C  
HETATM    5  C   UNL     1      -9.207   9.289  70.691  1.00  0.00    -0.321 C  
HETATM    6  C   UNL     1     -10.427  12.533  66.238  1.00  0.00    -0.268 C  
HETATM    7  C   UNL     1     -11.843  12.206  67.484  1.00  0.00    -0.307 C  
HETATM    8  C   UNL     1     -10.377  13.647  65.231  1.00  0.00    -0.362 C  
HETATM    9  C   UNL     1     -10.002   8.666  69.525  1.00  0.00    -0.196 C  
HETATM   10  C   UNL     1     -11.410   8.198  70.093  1.00  0.00    -0.071 C  
HETATM   11  C   UNL     1     -11.333  11.000  68.723  1.00  0.00    -0.283 C  
HETATM   12  O   UNL     1     -10.769  11.726  69.820  1.00  0.00    -0.439 OA 
HETATM   13  C   UNL     1     -10.293   9.694  68.344  1.00  0.00    -0.233 C  
HETATM   14  H   UNL     1     -10.501  11.091  70.473  1.00  0.00     0.000 HD 
HETATM   15  C   UNL     1      -8.945  10.015  67.392  1.00  0.00    -0.139 C  
HETATM   16  C   UNL     1      -8.362   8.683  66.915  1.00  0.00    -0.108 C  
HETATM   17  C   UNL     1      -7.978   7.736  68.061  1.00  0.00    -0.122 C  
HETATM   18  C   UNL     1      -7.381   6.473  67.401  1.00  0.00    -0.091 C  
HETATM   19  C   UNL     1      -9.133   7.463  69.034  1.00  0.00    -0.133 C  
HETATM   20  C   UNL     1      -9.287   6.238  69.582  1.00  0.00    -0.150 C  
HETATM   21  C   UNL     1     -10.365   6.023  70.561  1.00  0.00    -0.221 C  
HETATM   22  O   UNL     1     -10.206   5.295  71.531  1.00  0.00    -0.197 OA 
HETATM   23  C   UNL     1     -11.646   6.702  70.220  1.00  0.00    -0.454 C  
ENDROOT
BRANCH   4  24
HETATM   24  C   UNL     1      -9.911  13.755  68.068  1.00  0.00    -0.246 C  
HETATM   25  C   UNL     1      -8.610  14.494  68.261  1.00  0.00    -0.171 C  
HETATM   26  O   UNL     1     -10.933  14.392  68.338  1.00  0.00    -0.235 OA 
ENDBRANCH   4  24
TORSDOF 1
ENDMDL
MODEL       36
REMARK 921   NORMALIZED FREE ENERGY PREDICTED BY IDOCK:   -5.71 KCAL/MOL
REMARK 922        TOTAL FREE ENERGY PREDICTED BY IDOCK:   -5.20 KCAL/MOL
REMARK 923 INTER-LIGAND FREE ENERGY PREDICTED BY IDOCK:   -5.69 KCAL/MOL
REMARK 924 INTRA-LIGAND FREE ENERGY PREDICTED BY IDOCK:    0.50 KCAL/MOL
REMARK 927      BINDING AFFINITY PREDICTED BY RF-SCORE:    0.00 PKD
ROOT
HETATM    1  C   UNL     1      -8.745   9.244  66.811  1.00  0.00    -0.138 C  
HETATM    2  C   UNL     1      -9.557   8.434  65.974  1.00  0.00    -0.196 C  
HETATM    3  C   UNL     1     -10.413   9.308  66.836  1.00  0.00    -0.284 C  
HETATM    4  C   UNL     1      -9.371  10.745  67.855  1.00  0.00    -0.154 C  
HETATM    5  C   UNL     1      -9.573   8.765  71.825  1.00  0.00    -0.371 C  
HETATM    6  C   UNL     1      -9.811  10.806  66.570  1.00  0.00    -0.246 C  
HETATM    7  C   UNL     1     -11.380  11.009  67.649  1.00  0.00    -0.355 C  
HETATM    8  C   UNL     1      -9.485  11.591  65.331  1.00  0.00    -0.220 C  
HETATM    9  C   UNL     1     -10.335   7.954  70.757  1.00  0.00    -0.211 C  
HETATM   10  C   UNL     1     -11.849   7.838  71.223  1.00  0.00    -0.318 C  
HETATM   11  C   UNL     1     -11.194  10.131  69.212  1.00  0.00    -0.196 C  
HETATM   12  O   UNL     1     -10.636  11.051  70.156  1.00  0.00    -0.420 OA 
HETATM   13  C   UNL     1     -10.340   8.651  69.325  1.00  0.00    -0.228 C  
HETATM   14  H   UNL     1     -10.539  10.588  70.980  1.00  0.00     0.000 HD 
HETATM   15  C   UNL     1      -8.869   8.531  68.520  1.00  0.00    -0.139 C  
HETATM   16  C   UNL     1      -8.458   7.057  68.481  1.00  0.00    -0.121 C  
HETATM   17  C   UNL     1      -8.347   6.415  69.872  1.00  0.00    -0.130 C  
HETATM   18  C   UNL     1      -7.892   4.957  69.644  1.00  0.00    -0.067 C  
HETATM   19  C   UNL     1      -9.622   6.563  70.713  1.00  0.00    -0.190 C  
HETATM   20  C   UNL     1     -10.022   5.563  71.526  1.00  0.00    -0.229 C  
HETATM   21  C   UNL     1     -11.213   5.757  72.368  1.00  0.00    -0.290 C  
HETATM   22  O   UNL     1     -11.270   5.306  73.504  1.00  0.00    -0.296 OA 
HETATM   23  C   UNL     1     -12.330   6.474  71.692  1.00  0.00    -0.315 C  
ENDROOT
BRANCH   4  24
HETATM   24  C   UNL     1      -9.297  12.404  68.084  1.00  0.00    -0.209 C  
HETATM   25  C   UNL     1      -7.919  13.005  68.214  1.00  0.00    -0.151 C  
HETATM   26  O   UNL     1     -10.232  13.209  68.073  1.00  0.00    -0.220 OA 
ENDBRANCH   4  24
TORSDOF 1
ENDMDL
MODEL       37
REMARK 921   NORMALIZED FREE ENERGY PREDICTED BY IDOCK:   -5.69 KCAL/MOL
REMARK 922        TOTAL FREE ENERGY PREDICTED BY IDOCK:   -5.18 KCAL/MOL
REMARK 923 INTER-LIGAND FREE ENERGY PREDICTED BY IDOCK:   -5.69 KCAL/MOL
REMARK 924 INTRA-LIGAND FREE ENERGY PREDICTED BY IDOCK:    0.51 KCAL/MOL
REMARK 927      BINDING AFFINITY PREDICTED BY RF-SCORE:    0.00 PKD
ROOT
HETATM    1  C   UNL     1     -10.720   5.350  70.270  1.00  0.00    -0.286 C  
HETATM    2  C   UNL     1      -9.448   4.846  70.652  1.00  0.00    -0.237 C  
HETATM    3  C   UNL     1      -9.559   6.296  71.009  1.00  0.00    -0.191 C  
HETATM    4  C   UNL     1     -11.448   7.059  70.805  1.00  0.00    -0.360 C  
HETATM    5  C   UNL     1     -10.653   9.327  67.070  1.00  0.00    -0.263 C  
HETATM    6  C   UNL     1     -10.951   6.368  71.865  1.00  0.00    -0.295 C  
HETATM    7  C   UNL     1     -10.136   8.097  71.965  1.00  0.00    -0.304 C  
HETATM    8  C   UNL     1     -11.501   5.584  73.024  1.00  0.00    -0.288 C  
HETATM    9  C   UNL     1      -9.378   8.624  67.580  1.00  0.00    -0.162 C  
HETATM   10  C   UNL     1      -8.283   9.743  67.853  1.00  0.00    -0.113 C  
HETATM   11  C   UNL     1      -9.948   8.807  70.319  1.00  0.00    -0.186 C  
HETATM   12  O   UNL     1     -11.128   9.571  70.046  1.00  0.00    -0.236 OA 
HETATM   13  C   UNL     1      -9.597   7.841  68.950  1.00  0.00    -0.154 C  
HETATM   14  H   UNL     1     -11.029   9.945  69.178  1.00  0.00     0.000 HD 
HETATM   15  C   UNL     1     -10.444   6.401  68.766  1.00  0.00    -0.260 C  
HETATM   16  C   UNL     1      -9.750   5.566  67.688  1.00  0.00    -0.145 C  
HETATM   17  C   UNL     1      -9.638   6.282  66.334  1.00  0.00    -0.159 C  
HETATM   18  C   UNL     1      -8.953   5.288  65.370  1.00  0.00    -0.147 C  
HETATM   19  C   UNL     1      -8.957   7.654  66.428  1.00  0.00    -0.198 C  
HETATM   20  C   UNL     1      -8.137   8.076  65.442  1.00  0.00    -0.135 C  
HETATM   21  C   UNL     1      -7.547   9.422  65.529  1.00  0.00    -0.099 C  
HETATM   22  O   UNL     1      -7.398  10.116  64.532  1.00  0.00    -0.138 OA 
HETATM   23  C   UNL     1      -7.103   9.809  66.896  1.00  0.00    -0.089 C  
ENDROOT
BRANCH   4  24
HETATM   24  C   UNL     1     -12.650   7.846  71.668  1.00  0.00    -0.321 C  
HETATM   25  C   UNL     1     -14.061   7.356  71.459  1.00  0.00    -0.541 C  
HETATM   26  O   UNL     1     -12.511   8.726  72.523  1.00  0.00    -0.382 OA 
ENDBRANCH   4  24
TORSDOF 1
ENDMDL
MODEL       38
REMARK 921   NORMALIZED FREE ENERGY PREDICTED BY IDOCK:   -5.62 KCAL/MOL
REMARK 922        TOTAL FREE ENERGY PREDICTED BY IDOCK:   -5.10 KCAL/MOL
REMARK 923 INTER-LIGAND FREE ENERGY PREDICTED BY IDOCK:   -5.66 KCAL/MOL
REMARK 924 INTRA-LIGAND FREE ENERGY PREDICTED BY IDOCK:    0.57 KCAL/MOL
REMARK 927      BINDING AFFINITY PREDICTED BY RF-SCORE:    0.00 PKD
ROOT
HETATM    1  C   UNL     1     -10.046   5.355  71.623  1.00  0.00    -0.259 C  
HETATM    2  C   UNL     1      -8.674   5.266  71.979  1.00  0.00    -0.133 C  
HETATM    3  C   UNL     1      -8.979   6.623  71.424  1.00  0.00    -0.139 C  
HETATM    4  C   UNL     1     -10.978   6.987  71.173  1.00  0.00    -0.275 C  
HETATM    5  C   UNL     1     -10.995   6.553  66.753  1.00  0.00    -0.309 C  
HETATM    6  C   UNL     1     -10.257   7.118  72.318  1.00  0.00    -0.213 C  
HETATM    7  C   UNL     1      -9.728   8.595  71.221  1.00  0.00    -0.305 C  
HETATM    8  C   UNL     1     -10.536   7.170  73.794  1.00  0.00    -0.371 C  
HETATM    9  C   UNL     1      -9.572   6.386  67.325  1.00  0.00    -0.143 C  
HETATM   10  C   UNL     1      -8.651   7.503  66.672  1.00  0.00    -0.131 C  
HETATM   11  C   UNL     1      -9.848   8.164  69.475  1.00  0.00    -0.181 C  
HETATM   12  O   UNL     1     -11.160   8.530  69.034  1.00  0.00    -0.431 OA 
HETATM   13  C   UNL     1      -9.503   6.588  68.904  1.00  0.00    -0.129 C  
HETATM   14  H   UNL     1     -11.224   8.304  68.113  1.00  0.00     0.000 HD 
HETATM   15  C   UNL     1     -10.119   5.286  69.770  1.00  0.00    -0.334 C  
HETATM   16  C   UNL     1      -9.425   4.011  69.286  1.00  0.00    -0.260 C  
HETATM   17  C   UNL     1      -9.587   3.760  67.779  1.00  0.00    -0.193 C  
HETATM   18  C   UNL     1      -8.864   2.428  67.480  1.00  0.00    -0.162 C  
HETATM   19  C   UNL     1      -9.133   4.942  66.914  1.00  0.00    -0.118 C  
HETATM   20  C   UNL     1      -8.511   4.725  65.736  1.00  0.00    -0.119 C  
HETATM   21  C   UNL     1      -8.143   5.878  64.898  1.00  0.00    -0.132 C  
HETATM   22  O   UNL     1      -8.224   5.828  63.678  1.00  0.00    -0.121 OA 
HETATM   23  C   UNL     1      -7.615   7.044  65.658  1.00  0.00    -0.093 C  
ENDROOT
BRANCH   4  24
HETATM   24  C   UNL     1     -12.185   8.063  71.613  1.00  0.00    -0.307 C  
HETATM   25  C   UNL     1     -13.601   7.542  71.568  1.00  0.00    -0.439 C  
HETATM   26  O   UNL     1     -12.051   9.208  72.054  1.00  0.00    -0.367 OA 
ENDBRANCH   4  24
TORSDOF 1
ENDMDL
MODEL       39
REMARK 921   NORMALIZED FREE ENERGY PREDICTED BY IDOCK:   -5.58 KCAL/MOL
REMARK 922        TOTAL FREE ENERGY PREDICTED BY IDOCK:   -5.06 KCAL/MOL
REMARK 923 INTER-LIGAND FREE ENERGY PREDICTED BY IDOCK:   -5.61 KCAL/MOL
REMARK 924 INTRA-LIGAND FREE ENERGY PREDICTED BY IDOCK:    0.56 KCAL/MOL
REMARK 927      BINDING AFFINITY PREDICTED BY RF-SCORE:    0.00 PKD
ROOT
HETATM    1  C   UNL     1      -7.626   7.438  71.072  1.00  0.00    -0.086 C  
HETATM    2  C   UNL     1      -7.095   8.679  71.513  1.00  0.00    -0.098 C  
HETATM    3  C   UNL     1      -8.591   8.732  71.497  1.00  0.00    -0.253 C  
HETATM    4  C   UNL     1      -9.483   6.915  71.190  1.00  0.00    -0.166 C  
HETATM    5  C   UNL     1     -10.657   7.661  66.972  1.00  0.00    -0.406 C  
HETATM    6  C   UNL     1      -9.025   7.416  72.368  1.00  0.00    -0.161 C  
HETATM    7  C   UNL     1     -10.624   8.399  71.991  1.00  0.00    -0.387 C  
HETATM    8  C   UNL     1      -8.616   6.876  73.709  1.00  0.00    -0.165 C  
HETATM    9  C   UNL     1      -9.967   8.896  67.587  1.00  0.00    -0.248 C  
HETATM   10  C   UNL     1     -10.990  10.109  67.520  1.00  0.00    -0.319 C  
HETATM   11  C   UNL     1     -10.881   8.538  70.213  1.00  0.00    -0.238 C  
HETATM   12  O   UNL     1     -11.679   7.421  69.807  1.00  0.00    -0.488 OA 
HETATM   13  C   UNL     1      -9.575   8.699  69.118  1.00  0.00    -0.163 C  
HETATM   14  H   UNL     1     -11.815   7.494  68.870  1.00  0.00     0.000 HD 
HETATM   15  C   UNL     1      -8.236   7.707  69.341  1.00  0.00    -0.129 C  
HETATM   16  C   UNL     1      -7.089   8.241  68.480  1.00  0.00    -0.077 C  
HETATM   17  C   UNL     1      -7.433   8.326  66.986  1.00  0.00    -0.088 C  
HETATM   18  C   UNL     1      -6.163   8.844  66.276  1.00  0.00    -0.064 C  
HETATM   19  C   UNL     1      -8.702   9.140  66.700  1.00  0.00    -0.140 C  
HETATM   20  C   UNL     1      -8.774   9.927  65.605  1.00  0.00    -0.168 C  
HETATM   21  C   UNL     1     -10.027  10.647  65.323  1.00  0.00    -0.294 C  
HETATM   22  O   UNL     1     -10.432  10.792  64.177  1.00  0.00    -0.364 OA 
HETATM   23  C   UNL     1     -10.688  11.220  66.528  1.00  0.00    -0.323 C  
ENDROOT
BRANCH   4  24
HETATM   24  C   UNL     1     -10.587   5.858  71.877  1.00  0.00    -0.231 C  
HETATM   25  C   UNL     1     -10.160   4.415  71.986  1.00  0.00    -0.256 C  
HETATM   26  O   UNL     1     -11.678   6.132  72.386  1.00  0.00    -0.304 OA 
ENDBRANCH   4  24
TORSDOF 1
ENDMDL
MODEL       40
REMARK 921   NORMALIZED FREE ENERGY PREDICTED BY IDOCK:   -5.57 KCAL/MOL
REMARK 922        TOTAL FREE ENERGY PREDICTED BY IDOCK:   -5.04 KCAL/MOL
REMARK 923 INTER-LIGAND FREE ENERGY PREDICTED BY IDOCK:   -5.54 KCAL/MOL
REMARK 924 INTRA-LIGAND FREE ENERGY PREDICTED BY IDOCK:    0.50 KCAL/MOL
REMARK 927      BINDING AFFINITY PREDICTED BY RF-SCORE:    0.00 PKD
ROOT
HETATM    1  C   UNL     1      -8.411  15.515  68.197  1.00  0.00    -0.147 C  
HETATM    2  C   UNL     1      -8.052  16.092  66.949  1.00  0.00    -0.282 C  
HETATM    3  C   UNL     1      -9.442  15.538  66.883  1.00  0.00    -0.244 C  
HETATM    4  C   UNL     1     -10.195  14.968  68.700  1.00  0.00    -0.231 C  
HETATM    5  C   UNL     1      -9.765  10.595  68.050  1.00  0.00    -0.170 C  
HETATM    6  C   UNL     1     -10.182  16.221  68.173  1.00  0.00    -0.258 C  
HETATM    7  C   UNL     1     -11.523  15.276  67.186  1.00  0.00    -0.202 C  
HETATM    8  C   UNL     1     -10.292  17.631  68.682  1.00  0.00    -0.359 C  
HETATM    9  C   UNL     1      -9.319  11.392  66.806  1.00  0.00    -0.192 C  
HETATM   10  C   UNL     1     -10.229  10.938  65.586  1.00  0.00    -0.323 C  
HETATM   11  C   UNL     1     -11.121  13.521  67.089  1.00  0.00    -0.293 C  
HETATM   12  O   UNL     1     -11.740  12.879  68.209  1.00  0.00    -0.312 OA 
HETATM   13  C   UNL     1      -9.507  12.965  66.968  1.00  0.00    -0.235 C  
HETATM   14  H   UNL     1     -11.529  11.954  68.158  1.00  0.00     0.000 HD 
HETATM   15  C   UNL     1      -8.355  13.675  67.965  1.00  0.00    -0.170 C  
HETATM   16  C   UNL     1      -6.966  13.273  67.463  1.00  0.00    -0.152 C  
HETATM   17  C   UNL     1      -6.749  11.753  67.413  1.00  0.00    -0.120 C  
HETATM   18  C   UNL     1      -5.300  11.536  66.925  1.00  0.00    -0.118 C  
HETATM   19  C   UNL     1      -7.816  11.014  66.595  1.00  0.00    -0.153 C  
HETATM   20  C   UNL     1      -7.478   9.950  65.836  1.00  0.00    -0.108 C  
HETATM   21  C   UNL     1      -8.533   9.222  65.112  1.00  0.00    -0.159 C  
HETATM   22  O   UNL     1      -8.498   8.005  64.992  1.00  0.00    -0.143 OA 
HETATM   23  C   UNL     1      -9.572  10.097  64.503  1.00  0.00    -0.376 C  
ENDROOT
BRANCH   4  24
HETATM   24  C   UNL     1     -11.491  15.234  69.729  1.00  0.00    -0.313 C  
HETATM   25  C   UNL     1     -11.185  15.248  71.207  1.00  0.00    -0.375 C  
HETATM   26  O   UNL     1     -12.654  15.507  69.422  1.00  0.00    -0.104 OA 
ENDBRANCH   4  24
TORSDOF 1
ENDMDL
MODEL       41
REMARK 921   NORMALIZED FREE ENERGY PREDICTED BY IDOCK:   -5.56 KCAL/MOL
REMARK 922        TOTAL FREE ENERGY PREDICTED BY IDOCK:   -5.04 KCAL/MOL
REMARK 923 INTER-LIGAND FREE ENERGY PREDICTED BY IDOCK:   -5.53 KCAL/MOL
REMARK 924 INTRA-LIGAND FREE ENERGY PREDICTED BY IDOCK:    0.50 KCAL/MOL
REMARK 927      BINDING AFFINITY PREDICTED BY RF-SCORE:    0.00 PKD
ROOT
HETATM    1  C   UNL     1      -9.856  16.332  65.786  1.00  0.00    -0.332 C  
HETATM    2  C   UNL     1     -11.241  16.521  66.040  1.00  0.00     0.372 C  
HETATM    3  C   UNL     1     -10.533  16.126  67.299  1.00  0.00    -0.309 C  
HETATM    4  C   UNL     1      -8.492  16.135  67.141  1.00  0.00    -0.218 C  
HETATM    5  C   UNL     1      -8.001  11.724  66.963  1.00  0.00    -0.164 C  
HETATM    6  C   UNL     1      -9.301  17.198  67.392  1.00  0.00    -0.234 C  
HETATM    7  C   UNL     1      -9.290  16.182  69.014  1.00  0.00    -0.248 C  
HETATM    8  C   UNL     1      -9.215  18.695  67.288  1.00  0.00    -0.297 C  
HETATM    9  C   UNL     1      -9.483  12.115  67.142  1.00  0.00    -0.190 C  
HETATM   10  C   UNL     1      -9.998  11.462  68.495  1.00  0.00    -0.203 C  
HETATM   11  C   UNL     1      -9.053  14.430  68.664  1.00  0.00    -0.178 C  
HETATM   12  O   UNL     1      -7.645  14.174  68.699  1.00  0.00    -0.118 OA 
HETATM   13  C   UNL     1      -9.707  13.687  67.267  1.00  0.00    -0.243 C  
HETATM   14  H   UNL     1      -7.520  13.250  68.515  1.00  0.00     0.000 HD 
HETATM   15  C   UNL     1      -9.559  14.500  65.804  1.00  0.00    -0.242 C  
HETATM   16  C   UNL     1     -10.482  13.831  64.783  1.00  0.00    -0.448 C  
HETATM   17  C   UNL     1     -10.191  12.337  64.582  1.00  0.00    -0.311 C  
HETATM   18  C   UNL     1     -11.181  11.841  63.504  1.00  0.00    -0.494 C  
HETATM   19  C   UNL     1     -10.214  11.532  65.888  1.00  0.00    -0.286 C  
HETATM   20  C   UNL     1     -10.710  10.277  65.907  1.00  0.00     0.019 C  
HETATM   21  C   UNL     1     -10.661   9.506  67.160  1.00  0.00    -0.225 C  
HETATM   22  O   UNL     1     -10.435   8.304  67.159  1.00  0.00    -0.293 OA 
HETATM   23  C   UNL     1     -10.974  10.301  68.380  1.00  0.00    -0.308 C  
ENDROOT
BRANCH   4  24
HETATM   24  C   UNL     1      -7.121  16.801  67.838  1.00  0.00    -0.141 C  
HETATM   25  C   UNL     1      -6.005  17.184  66.897  1.00  0.00    -0.224 C  
HETATM   26  O   UNL     1      -6.946  17.098  69.023  1.00  0.00    -0.218 OA 
ENDBRANCH   4  24
TORSDOF 1
ENDMDL
MODEL       42
REMARK 921   NORMALIZED FREE ENERGY PREDICTED BY IDOCK:   -5.56 KCAL/MOL
REMARK 922        TOTAL FREE ENERGY PREDICTED BY IDOCK:   -5.04 KCAL/MOL
REMARK 923 INTER-LIGAND FREE ENERGY PREDICTED BY IDOCK:   -5.55 KCAL/MOL
REMARK 924 INTRA-LIGAND FREE ENERGY PREDICTED BY IDOCK:    0.51 KCAL/MOL
REMARK 927      BINDING AFFINITY PREDICTED BY RF-SCORE:    0.00 PKD
ROOT
HETATM    1  C   UNL     1      -7.687   7.943  70.646  1.00  0.00    -0.090 C  
HETATM    2  C   UNL     1      -7.067   8.778  71.614  1.00  0.00    -0.091 C  
HETATM    3  C   UNL     1      -8.542   8.704  71.862  1.00  0.00    -0.231 C  
HETATM    4  C   UNL     1      -9.503   7.287  70.740  1.00  0.00    -0.164 C  
HETATM    5  C   UNL     1     -11.388  10.123  67.890  1.00  0.00    -0.108 C  
HETATM    6  C   UNL     1      -8.837   7.096  71.910  1.00  0.00    -0.131 C  
HETATM    7  C   UNL     1     -10.462   7.984  72.396  1.00  0.00    -0.368 C  
HETATM    8  C   UNL     1      -8.208   5.945  72.643  1.00  0.00    -0.112 C  
HETATM    9  C   UNL     1     -10.581  10.871  68.970  1.00  0.00    -0.248 C  
HETATM   10  C   UNL     1     -11.580  11.830  69.748  1.00  0.00    -0.372 C  
HETATM   11  C   UNL     1     -11.025   9.055  71.059  1.00  0.00    -0.284 C  
HETATM   12  O   UNL     1     -11.899   8.281  70.231  1.00  0.00    -0.473 OA 
HETATM   13  C   UNL     1      -9.929   9.900  70.052  1.00  0.00    -0.302 C  
HETATM   14  H   UNL     1     -12.196   8.845  69.527  1.00  0.00     0.000 HD 
HETATM   15  C   UNL     1      -8.588   9.066  69.476  1.00  0.00    -0.138 C  
HETATM   16  C   UNL     1      -7.602  10.079  68.892  1.00  0.00    -0.086 C  
HETATM   17  C   UNL     1      -8.202  10.942  67.771  1.00  0.00    -0.116 C  
HETATM   18  C   UNL     1      -7.068  11.869  67.281  1.00  0.00    -0.143 C  
HETATM   19  C   UNL     1      -9.487  11.668  68.186  1.00  0.00    -0.191 C  
HETATM   20  C   UNL     1      -9.739  12.917  67.739  1.00  0.00    -0.214 C  
HETATM   21  C   UNL     1     -11.010  13.565  68.102  1.00  0.00    -0.254 C  
HETATM   22  O   UNL     1     -11.608  14.280  67.310  1.00  0.00    -0.338 OA 
HETATM   23  C   UNL     1     -11.440  13.324  69.507  1.00  0.00    -0.299 C  
ENDROOT
BRANCH   4  24
HETATM   24  C   UNL     1     -10.486   5.937  70.886  1.00  0.00    -0.244 C  
HETATM   25  C   UNL     1     -10.159   4.767  69.991  1.00  0.00    -0.308 C  
HETATM   26  O   UNL     1     -11.394   5.750  71.700  1.00  0.00    -0.242 OA 
ENDBRANCH   4  24
TORSDOF 1
ENDMDL
MODEL       43
REMARK 921   NORMALIZED FREE ENERGY PREDICTED BY IDOCK:   -5.54 KCAL/MOL
REMARK 922        TOTAL FREE ENERGY PREDICTED BY IDOCK:   -5.02 KCAL/MOL
REMARK 923 INTER-LIGAND FREE ENERGY PREDICTED BY IDOCK:   -5.96 KCAL/MOL
REMARK 924 INTRA-LIGAND FREE ENERGY PREDICTED BY IDOCK:    0.94 KCAL/MOL
REMARK 927      BINDING AFFINITY PREDICTED BY RF-SCORE:    0.00 PKD
ROOT
HETATM    1  C   UNL     1      -7.994  11.200  66.809  1.00  0.00    -0.156 C  
HETATM    2  C   UNL     1      -8.142  10.754  68.150  1.00  0.00    -0.117 C  
HETATM    3  C   UNL     1      -9.467  11.177  67.595  1.00  0.00    -0.173 C  
HETATM    4  C   UNL     1      -9.446  11.537  65.580  1.00  0.00    -0.234 C  
HETATM    5  C   UNL     1      -9.563  15.966  65.877  1.00  0.00    -0.378 C  
HETATM    6  C   UNL     1      -9.578  10.333  66.198  1.00  0.00    -0.248 C  
HETATM    7  C   UNL     1     -11.255  11.219  66.460  1.00  0.00    -0.222 C  
HETATM    8  C   UNL     1      -9.392   8.885  65.841  1.00  0.00    -0.301 C  
HETATM    9  C   UNL     1      -9.619  15.311  67.273  1.00  0.00    -0.214 C  
HETATM   10  C   UNL     1     -10.971  15.767  67.971  1.00  0.00    -0.330 C  
HETATM   11  C   UNL     1     -11.027  13.006  66.522  1.00  0.00    -0.285 C  
HETATM   12  O   UNL     1     -11.171  13.501  65.186  1.00  0.00    -0.298 OA 
HETATM   13  C   UNL     1      -9.636  13.719  67.218  1.00  0.00    -0.237 C  
HETATM   14  H   UNL     1     -11.051  14.443  65.218  1.00  0.00     0.000 HD 
HETATM   15  C   UNL     1      -8.140  13.049  66.846  1.00  0.00     0.047 C  
HETATM   16  C   UNL     1      -7.100  13.617  67.816  1.00  0.00    -0.167 C  
HETATM   17  C   UNL     1      -7.008  15.149  67.786  1.00  0.00    -0.190 C  
HETATM   18  C   UNL     1      -5.898  15.538  68.787  1.00  0.00    -0.096 C  
HETATM   19  C   UNL     1      -8.355  15.843  68.025  1.00  0.00    -0.161 C  
HETATM   20  C   UNL     1      -8.415  16.988  68.738  1.00  0.00    -0.237 C  
HETATM   21  C   UNL     1      -9.713  17.665  68.898  1.00  0.00    -0.258 C  
HETATM   22  O   UNL     1      -9.798  18.886  68.891  1.00  0.00    -0.399 OA 
HETATM   23  C   UNL     1     -10.859  16.744  69.131  1.00  0.00    -0.287 C  
ENDROOT
BRANCH   4  24
HETATM   24  C   UNL     1     -10.193  11.073  64.153  1.00  0.00    -0.357 C  
HETATM   25  C   UNL     1      -9.359  10.268  63.187  1.00  0.00    -0.343 C  
HETATM   26  O   UNL     1     -11.374  11.236  63.832  1.00  0.00    -0.317 OA 
ENDBRANCH   4  24
TORSDOF 1
ENDMDL
MODEL       44
REMARK 921   NORMALIZED FREE ENERGY PREDICTED BY IDOCK:   -5.54 KCAL/MOL
REMARK 922        TOTAL FREE ENERGY PREDICTED BY IDOCK:   -5.01 KCAL/MOL
REMARK 923 INTER-LIGAND FREE ENERGY PREDICTED BY IDOCK:   -5.51 KCAL/MOL
REMARK 924 INTRA-LIGAND FREE ENERGY PREDICTED BY IDOCK:    0.50 KCAL/MOL
REMARK 927      BINDING AFFINITY PREDICTED BY RF-SCORE:    0.00 PKD
ROOT
HETATM    1  C   UNL     1      -8.884  14.925  68.075  1.00  0.00    -0.167 C  
HETATM    2  C   UNL     1      -8.740  15.075  66.670  1.00  0.00    -0.289 C  
HETATM    3  C   UNL     1     -10.076  14.483  66.993  1.00  0.00    -0.254 C  
HETATM    4  C   UNL     1     -10.537  14.511  68.987  1.00  0.00    -0.250 C  
HETATM    5  C   UNL     1      -9.841  10.183  69.704  1.00  0.00    -0.254 C  
HETATM    6  C   UNL     1     -10.694  15.523  68.094  1.00  0.00    -0.282 C  
HETATM    7  C   UNL     1     -12.071  14.262  67.672  1.00  0.00    -0.332 C  
HETATM    8  C   UNL     1     -10.850  17.017  68.139  1.00  0.00    -0.338 C  
HETATM    9  C   UNL     1      -9.628  10.545  68.220  1.00  0.00    -0.164 C  
HETATM   10  C   UNL     1     -10.650   9.686  67.359  1.00  0.00    -0.333 C  
HETATM   11  C   UNL     1     -11.545  12.587  68.079  1.00  0.00    -0.342 C  
HETATM   12  O   UNL     1     -11.957  12.324  69.424  1.00  0.00    -0.297 OA 
HETATM   13  C   UNL     1      -9.920  12.078  67.899  1.00  0.00    -0.199 C  
HETATM   14  H   UNL     1     -11.680  11.441  69.639  1.00  0.00     0.000 HD 
HETATM   15  C   UNL     1      -8.709  13.113  68.435  1.00  0.00    -0.120 C  
HETATM   16  C   UNL     1      -7.370  12.617  67.884  1.00  0.00    -0.116 C  
HETATM   17  C   UNL     1      -7.039  11.173  68.288  1.00  0.00    -0.073 C  
HETATM   18  C   UNL     1      -5.653  10.858  67.682  1.00  0.00    -0.043 C  
HETATM   19  C   UNL     1      -8.140  10.171  67.917  1.00  0.00    -0.109 C  
HETATM   20  C   UNL     1      -7.819   8.930  67.494  1.00  0.00    -0.101 C  
HETATM   21  C   UNL     1      -8.897   7.970  67.206  1.00  0.00    -0.131 C  
HETATM   22  O   UNL     1      -8.779   6.782  67.476  1.00  0.00    -0.120 OA 
HETATM   23  C   UNL     1     -10.074   8.562  66.513  1.00  0.00    -0.328 C  
ENDROOT
BRANCH   4  24
HETATM   24  C   UNL     1     -11.704  15.054  70.061  1.00  0.00    -0.306 C  
HETATM   25  C   UNL     1     -11.222  15.449  71.436  1.00  0.00    -0.402 C  
HETATM   26  O   UNL     1     -12.901  15.253  69.836  1.00  0.00    -0.163 OA 
ENDBRANCH   4  24
TORSDOF 1
ENDMDL
MODEL       45
REMARK 921   NORMALIZED FREE ENERGY PREDICTED BY IDOCK:   -5.46 KCAL/MOL
REMARK 922        TOTAL FREE ENERGY PREDICTED BY IDOCK:   -4.93 KCAL/MOL
REMARK 923 INTER-LIGAND FREE ENERGY PREDICTED BY IDOCK:   -5.44 KCAL/MOL
REMARK 924 INTRA-LIGAND FREE ENERGY PREDICTED BY IDOCK:    0.51 KCAL/MOL
REMARK 927      BINDING AFFINITY PREDICTED BY RF-SCORE:    0.00 PKD
ROOT
HETATM    1  C   UNL     1     -11.003  12.896  66.162  1.00  0.00    -0.304 C  
HETATM    2  C   UNL     1     -10.543  12.803  64.821  1.00  0.00    -0.348 C  
HETATM    3  C   UNL     1      -9.441  12.452  65.772  1.00  0.00    -0.094 C  
HETATM    4  C   UNL     1     -10.057  12.236  67.712  1.00  0.00    -0.202 C  
HETATM    5  C   UNL     1      -8.399  16.087  69.177  1.00  0.00    -0.244 C  
HETATM    6  C   UNL     1     -10.115  11.304  66.724  1.00  0.00    -0.254 C  
HETATM    7  C   UNL     1      -8.264  11.417  67.198  1.00  0.00    -0.157 C  
HETATM    8  C   UNL     1     -10.879  10.040  66.446  1.00  0.00     0.043 C  
HETATM    9  C   UNL     1      -8.070  15.868  67.686  1.00  0.00    -0.160 C  
HETATM   10  C   UNL     1      -6.489  15.866  67.532  1.00  0.00    -0.205 C  
HETATM   11  C   UNL     1      -7.858  13.074  67.781  1.00  0.00    -0.157 C  
HETATM   12  O   UNL     1      -8.043  13.085  69.200  1.00  0.00    -0.312 OA 
HETATM   13  C   UNL     1      -8.595  14.472  67.125  1.00  0.00    -0.242 C  
HETATM   14  H   UNL     1      -7.828  13.958  69.508  1.00  0.00     0.000 HD 
HETATM   15  C   UNL     1     -10.257  14.439  66.873  1.00  0.00    -0.265 C  
HETATM   16  C   UNL     1     -10.638  15.633  65.995  1.00  0.00    -0.336 C  
HETATM   17  C   UNL     1     -10.227  16.987  66.591  1.00  0.00    -0.310 C  
HETATM   18  C   UNL     1     -10.718  18.066  65.600  1.00  0.00    -0.049 C  
HETATM   19  C   UNL     1      -8.735  17.070  66.939  1.00  0.00    -0.251 C  
HETATM   20  C   UNL     1      -8.056  18.222  66.754  1.00  0.00    -0.268 C  
HETATM   21  C   UNL     1      -6.641  18.291  67.157  1.00  0.00    -0.186 C  
HETATM   22  O   UNL     1      -6.170  19.306  67.651  1.00  0.00    -0.201 OA 
HETATM   23  C   UNL     1      -5.856  17.065  66.845  1.00  0.00    -0.225 C  
ENDROOT
BRANCH   4  24
HETATM   24  C   UNL     1     -10.060  11.135  68.977  1.00  0.00    -0.155 C  
HETATM   25  C   UNL     1     -11.334  11.035  69.779  1.00  0.00    -0.366 C  
HETATM   26  O   UNL     1      -9.174  10.332  69.280  1.00  0.00    -0.189 OA 
ENDBRANCH   4  24
TORSDOF 1
ENDMDL
MODEL       46
REMARK 921   NORMALIZED FREE ENERGY PREDICTED BY IDOCK:   -5.44 KCAL/MOL
REMARK 922        TOTAL FREE ENERGY PREDICTED BY IDOCK:   -4.91 KCAL/MOL
REMARK 923 INTER-LIGAND FREE ENERGY PREDICTED BY IDOCK:   -5.47 KCAL/MOL
REMARK 924 INTRA-LIGAND FREE ENERGY PREDICTED BY IDOCK:    0.56 KCAL/MOL
REMARK 927      BINDING AFFINITY PREDICTED BY RF-SCORE:    0.00 PKD
ROOT
HETATM    1  C   UNL     1      -7.902  10.166  69.192  1.00  0.00    -0.120 C  
HETATM    2  C   UNL     1      -7.106   9.177  68.555  1.00  0.00    -0.072 C  
HETATM    3  C   UNL     1      -8.559   8.905  68.315  1.00  0.00    -0.134 C  
HETATM    4  C   UNL     1      -9.796  10.426  68.904  1.00  0.00    -0.206 C  
HETATM    5  C   UNL     1     -11.313   8.424  72.566  1.00  0.00    -0.416 C  
HETATM    6  C   UNL     1      -9.117  10.328  67.730  1.00  0.00    -0.138 C  
HETATM    7  C   UNL     1     -10.544   9.061  67.592  1.00  0.00    -0.298 C  
HETATM    8  C   UNL     1      -8.655  11.259  66.644  1.00  0.00    -0.167 C  
HETATM    9  C   UNL     1     -10.341   7.510  71.792  1.00  0.00    -0.221 C  
HETATM   10  C   UNL     1     -11.128   6.189  71.395  1.00  0.00    -0.346 C  
HETATM   11  C   UNL     1     -10.983   8.418  69.218  1.00  0.00     0.046 C  
HETATM   12  O   UNL     1     -12.013   9.259  69.746  1.00  0.00    -0.328 OA 
HETATM   13  C   UNL     1      -9.811   8.162  70.438  1.00  0.00    -0.188 C  
HETATM   14  H   UNL     1     -12.245   8.921  70.603  1.00  0.00     0.000 HD 
HETATM   15  C   UNL     1      -8.657   9.360  70.683  1.00  0.00    -0.247 C  
HETATM   16  C   UNL     1      -7.544   8.788  71.563  1.00  0.00    -0.130 C  
HETATM   17  C   UNL     1      -8.043   8.259  72.916  1.00  0.00    -0.211 C  
HETATM   18  C   UNL     1      -6.795   7.761  73.677  1.00  0.00    -0.107 C  
HETATM   19  C   UNL     1      -9.168   7.224  72.786  1.00  0.00    -0.178 C  
HETATM   20  C   UNL     1      -9.228   6.173  73.631  1.00  0.00    -0.131 C  
HETATM   21  C   UNL     1     -10.354   5.231  73.523  1.00  0.00    -0.220 C  
HETATM   22  O   UNL     1     -10.861   4.729  74.517  1.00  0.00    -0.347 OA 
HETATM   23  C   UNL     1     -10.750   4.909  72.124  1.00  0.00    -0.193 C  
ENDROOT
BRANCH   4  24
HETATM   24  C   UNL     1     -10.983  11.458  68.323  1.00  0.00    -0.216 C  
HETATM   25  C   UNL     1     -10.807  12.925  68.627  1.00  0.00    -0.288 C  
HETATM   26  O   UNL     1     -11.942  11.172  67.600  1.00  0.00    -0.613 OA 
ENDBRANCH   4  24
TORSDOF 1
ENDMDL
MODEL       47
REMARK 921   NORMALIZED FREE ENERGY PREDICTED BY IDOCK:   -5.44 KCAL/MOL
REMARK 922        TOTAL FREE ENERGY PREDICTED BY IDOCK:   -4.90 KCAL/MOL
REMARK 923 INTER-LIGAND FREE ENERGY PREDICTED BY IDOCK:   -5.40 KCAL/MOL
REMARK 924 INTRA-LIGAND FREE ENERGY PREDICTED BY IDOCK:    0.50 KCAL/MOL
REMARK 927      BINDING AFFINITY PREDICTED BY RF-SCORE:    0.00 PKD
ROOT
HETATM    1  C   UNL     1     -10.806  14.342  65.820  1.00  0.00    -0.308 C  
HETATM    2  C   UNL     1     -12.169  13.977  65.661  1.00  0.00    -0.462 C  
HETATM    3  C   UNL     1     -11.691  13.609  67.031  1.00  0.00    -0.419 C  
HETATM    4  C   UNL     1      -9.847  14.366  67.498  1.00  0.00    -0.220 C  
HETATM    5  C   UNL     1      -7.630  10.543  67.057  1.00  0.00    -0.107 C  
HETATM    6  C   UNL     1     -11.044  15.003  67.593  1.00  0.00    -0.317 C  
HETATM    7  C   UNL     1     -11.027  13.748  69.039  1.00  0.00    -0.277 C  
HETATM    8  C   UNL     1     -11.534  16.422  67.663  1.00  0.00     0.144 C  
HETATM    9  C   UNL     1      -9.140  10.343  66.817  1.00  0.00    -0.161 C  
HETATM   10  C   UNL     1      -9.667   9.290  67.883  1.00  0.00    -0.180 C  
HETATM   11  C   UNL     1     -10.041  12.300  68.612  1.00  0.00    -0.144 C  
HETATM   12  O   UNL     1      -8.700  12.554  69.045  1.00  0.00    -0.334 OA 
HETATM   13  C   UNL     1      -9.989  11.676  67.019  1.00  0.00    -0.226 C  
HETATM   14  H   UNL     1      -8.181  11.791  68.820  1.00  0.00     0.000 HD 
HETATM   15  C   UNL     1      -9.825  12.769  65.752  1.00  0.00    -0.222 C  
HETATM   16  C   UNL     1     -10.131  12.041  64.442  1.00  0.00    -0.298 C  
HETATM   17  C   UNL     1      -9.235  10.818  64.196  1.00  0.00    -0.251 C  
HETATM   18  C   UNL     1      -9.656  10.237  62.828  1.00  0.00    -0.277 C  
HETATM   19  C   UNL     1      -9.255   9.809  65.352  1.00  0.00    -0.282 C  
HETATM   20  C   UNL     1      -9.204   8.484  65.100  1.00  0.00     0.124 C  
HETATM   21  C   UNL     1      -9.160   7.542  66.231  1.00  0.00    -0.157 C  
HETATM   22  O   UNL     1      -8.486   6.522  66.183  1.00  0.00    -0.125 OA 
HETATM   23  C   UNL     1     -10.046   7.911  67.369  1.00  0.00    -0.292 C  
ENDROOT
BRANCH   4  24
HETATM   24  C   UNL     1      -9.063  15.314  68.636  1.00  0.00    -0.193 C  
HETATM   25  C   UNL     1      -7.923  16.165  68.134  1.00  0.00    -0.148 C  
HETATM   26  O   UNL     1      -9.362  15.468  69.824  1.00  0.00    -0.274 OA 
ENDBRANCH   4  24
TORSDOF 1
ENDMDL
MODEL       48
REMARK 921   NORMALIZED FREE ENERGY PREDICTED BY IDOCK:   -5.41 KCAL/MOL
REMARK 922        TOTAL FREE ENERGY PREDICTED BY IDOCK:   -4.87 KCAL/MOL
REMARK 923 INTER-LIGAND FREE ENERGY PREDICTED BY IDOCK:   -5.37 KCAL/MOL
REMARK 924 INTRA-LIGAND FREE ENERGY PREDICTED BY IDOCK:    0.50 KCAL/MOL
REMARK 927      BINDING AFFINITY PREDICTED BY RF-SCORE:    0.00 PKD
ROOT
HETATM    1  C   UNL     1      -9.799   5.322  68.328  1.00  0.00    -0.206 C  
HETATM    2  C   UNL     1     -10.735   5.417  67.264  1.00  0.00    -0.180 C  
HETATM    3  C   UNL     1      -9.807   6.592  67.244  1.00  0.00    -0.175 C  
HETATM    4  C   UNL     1      -8.217   6.416  68.522  1.00  0.00    -0.113 C  
HETATM    5  C   UNL     1      -9.737   9.259  71.577  1.00  0.00    -0.210 C  
HETATM    6  C   UNL     1      -8.323   5.901  67.268  1.00  0.00    -0.105 C  
HETATM    7  C   UNL     1      -8.068   7.782  67.019  1.00  0.00    -0.117 C  
HETATM    8  C   UNL     1      -7.672   4.809  66.467  1.00  0.00    -0.091 C  
HETATM    9  C   UNL     1     -10.698   9.165  70.374  1.00  0.00    -0.282 C  
HETATM   10  C   UNL     1     -10.827  10.616  69.740  1.00  0.00    -0.317 C  
HETATM   11  C   UNL     1      -8.753   8.705  68.407  1.00  0.00    -0.142 C  
HETATM   12  O   UNL     1      -7.707   8.867  69.371  1.00  0.00    -0.088 OA 
HETATM   13  C   UNL     1     -10.170   8.198  69.223  1.00  0.00    -0.216 C  
HETATM   14  H   UNL     1      -8.068   9.354  70.102  1.00  0.00     0.000 HD 
HETATM   15  C   UNL     1     -10.316   6.568  69.602  1.00  0.00    -0.234 C  
HETATM   16  C   UNL     1     -11.765   6.294  70.014  1.00  0.00    -0.248 C  
HETATM   17  C   UNL     1     -12.237   7.151  71.198  1.00  0.00    -0.405 C  
HETATM   18  C   UNL     1     -13.691   6.720  71.495  1.00  0.00    -0.157 C  
HETATM   19  C   UNL     1     -12.051   8.657  70.970  1.00  0.00    -0.247 C  
HETATM   20  C   UNL     1     -12.969   9.534  71.429  1.00  0.00    -0.450 C  
HETATM   21  C   UNL     1     -12.733  10.976  71.252  1.00  0.00    -0.432 C  
HETATM   22  O   UNL     1     -13.053  11.784  72.114  1.00  0.00    -0.452 OA 
HETATM   23  C   UNL     1     -12.149  11.343  69.932  1.00  0.00    -0.404 C  
ENDROOT
BRANCH   4  24
HETATM   24  C   UNL     1      -6.541   6.441  68.549  1.00  0.00    -0.055 C  
HETATM   25  C   UNL     1      -5.869   5.476  69.494  1.00  0.00    -0.016 C  
HETATM   26  O   UNL     1      -5.785   7.094  67.825  1.00  0.00    -0.026 OA 
ENDBRANCH   4  24
TORSDOF 1
ENDMDL
MODEL       49
REMARK 921   NORMALIZED FREE ENERGY PREDICTED BY IDOCK:   -5.37 KCAL/MOL
REMARK 922        TOTAL FREE ENERGY PREDICTED BY IDOCK:   -4.84 KCAL/MOL
REMARK 923 INTER-LIGAND FREE ENERGY PREDICTED BY IDOCK:   -5.34 KCAL/MOL
REMARK 924 INTRA-LIGAND FREE ENERGY PREDICTED BY IDOCK:    0.50 KCAL/MOL
REMARK 927      BINDING AFFINITY PREDICTED BY RF-SCORE:    0.00 PKD
ROOT
HETATM    1  C   UNL     1      -7.551   9.201  69.265  1.00  0.00    -0.079 C  
HETATM    2  C   UNL     1      -7.311   9.514  70.629  1.00  0.00    -0.133 C  
HETATM    3  C   UNL     1      -8.778   9.335  70.388  1.00  0.00    -0.263 C  
HETATM    4  C   UNL     1      -9.229   8.571  68.544  1.00  0.00    -0.135 C  
HETATM    5  C   UNL     1     -10.676  12.382  66.781  1.00  0.00    -0.263 C  
HETATM    6  C   UNL     1      -8.865   7.876  69.654  1.00  0.00    -0.138 C  
HETATM    7  C   UNL     1     -10.661   8.450  69.987  1.00  0.00    -0.235 C  
HETATM    8  C   UNL     1      -8.301   6.519  69.968  1.00  0.00    -0.134 C  
HETATM    9  C   UNL     1     -10.274  12.567  68.260  1.00  0.00    -0.235 C  
HETATM   10  C   UNL     1     -11.554  13.074  69.052  1.00  0.00    -0.367 C  
HETATM   11  C   UNL     1     -10.998  10.006  69.142  1.00  0.00    -0.220 C  
HETATM   12  O   UNL     1     -11.524   9.685  67.850  1.00  0.00    -0.485 OA 
HETATM   13  C   UNL     1      -9.800  11.214  68.955  1.00  0.00    -0.176 C  
HETATM   14  H   UNL     1     -11.702  10.504  67.404  1.00  0.00     0.000 HD 
HETATM   15  C   UNL     1      -8.260  10.729  68.487  1.00  0.00    -0.136 C  
HETATM   16  C   UNL     1      -7.297  11.898  68.704  1.00  0.00    -0.115 C  
HETATM   17  C   UNL     1      -7.697  13.170  67.943  1.00  0.00    -0.147 C  
HETATM   18  C   UNL     1      -6.606  14.221  68.246  1.00  0.00    -0.113 C  
HETATM   19  C   UNL     1      -9.129  13.632  68.242  1.00  0.00    -0.193 C  
HETATM   20  C   UNL     1      -9.418  14.949  68.324  1.00  0.00    -0.210 C  
HETATM   21  C   UNL     1     -10.812  15.363  68.550  1.00  0.00    -0.264 C  
HETATM   22  O   UNL     1     -11.275  16.357  68.007  1.00  0.00    -0.325 OA 
HETATM   23  C   UNL     1     -11.551  14.518  69.528  1.00  0.00    -0.350 C  
ENDROOT
BRANCH   4  24
HETATM   24  C   UNL     1     -10.034   7.298  67.808  1.00  0.00    -0.166 C  
HETATM   25  C   UNL     1      -9.449   6.791  66.512  1.00  0.00    -0.193 C  
HETATM   26  O   UNL     1     -11.001   6.665  68.242  1.00  0.00    -0.262 OA 
ENDBRANCH   4  24
TORSDOF 1
ENDMDL
MODEL       50
REMARK 921   NORMALIZED FREE ENERGY PREDICTED BY IDOCK:   -5.36 KCAL/MOL
REMARK 922        TOTAL FREE ENERGY PREDICTED BY IDOCK:   -4.82 KCAL/MOL
REMARK 923 INTER-LIGAND FREE ENERGY PREDICTED BY IDOCK:   -5.32 KCAL/MOL
REMARK 924 INTRA-LIGAND FREE ENERGY PREDICTED BY IDOCK:    0.50 KCAL/MOL
REMARK 927      BINDING AFFINITY PREDICTED BY RF-SCORE:    0.00 PKD
ROOT
HETATM    1  C   UNL     1      -9.196   9.613  68.698  1.00  0.00    -0.136 C  
HETATM    2  C   UNL     1     -10.400   8.890  68.912  1.00  0.00    -0.229 C  
HETATM    3  C   UNL     1      -9.916   8.687  67.509  1.00  0.00    -0.256 C  
HETATM    4  C   UNL     1      -8.032   9.411  67.168  1.00  0.00    -0.102 C  
HETATM    5  C   UNL     1      -9.299  13.001  64.881  1.00  0.00     0.650 C  
HETATM    6  C   UNL     1      -8.365   8.209  67.711  1.00  0.00    -0.128 C  
HETATM    7  C   UNL     1      -8.769   8.048  65.846  1.00  0.00    -0.184 C  
HETATM    8  C   UNL     1      -7.701   7.164  68.563  1.00  0.00    -0.120 C  
HETATM    9  C   UNL     1     -10.513  12.138  65.285  1.00  0.00    -0.311 C  
HETATM   10  C   UNL     1     -11.257  11.693  63.954  1.00  0.00    -0.479 C  
HETATM   11  C   UNL     1      -9.231   9.648  65.156  1.00  0.00    -0.246 C  
HETATM   12  O   UNL     1      -8.035  10.263  64.666  1.00  0.00    -0.148 OA 
HETATM   13  C   UNL     1     -10.107  10.807  66.061  1.00  0.00    -0.305 C  
HETATM   14  H   UNL     1      -8.278  11.106  64.302  1.00  0.00     0.000 HD 
HETATM   15  C   UNL     1      -9.637  11.080  67.652  1.00  0.00    -0.181 C  
HETATM   16  C   UNL     1     -10.737  11.884  68.350  1.00  0.00    -0.248 C  
HETATM   17  C   UNL     1     -11.050  13.220  67.661  1.00  0.00    -0.292 C  
HETATM   18  C   UNL     1     -12.142  13.904  68.513  1.00  0.00    -0.331 C  
HETATM   19  C   UNL     1     -11.399  13.070  66.175  1.00  0.00    -0.349 C  
HETATM   20  C   UNL     1     -12.346  13.853  65.615  1.00  0.00    -0.511 C  
HETATM   21  C   UNL     1     -12.615  13.731  64.173  1.00  0.00    -0.102 C  
HETATM   22  O   UNL     1     -12.877  14.711  63.489  1.00  0.00    -0.570 OA 
HETATM   23  C   UNL     1     -12.606  12.330  63.665  1.00  0.00    -0.599 C  
ENDROOT
BRANCH   4  24
HETATM   24  C   UNL     1      -6.517   8.936  66.630  1.00  0.00    -0.063 C  
HETATM   25  C   UNL     1      -5.331   9.617  67.267  1.00  0.00    -0.036 C  
HETATM   26  O   UNL     1      -6.250   8.032  65.833  1.00  0.00    -0.041 OA 
ENDBRANCH   4  24
TORSDOF 1
ENDMDL
MODEL       51
REMARK 921   NORMALIZED FREE ENERGY PREDICTED BY IDOCK:   -5.33 KCAL/MOL
REMARK 922        TOTAL FREE ENERGY PREDICTED BY IDOCK:   -4.79 KCAL/MOL
REMARK 923 INTER-LIGAND FREE ENERGY PREDICTED BY IDOCK:   -5.31 KCAL/MOL
REMARK 924 INTRA-LIGAND FREE ENERGY PREDICTED BY IDOCK:    0.52 KCAL/MOL
REMARK 927      BINDING AFFINITY PREDICTED BY RF-SCORE:    0.00 PKD
ROOT
HETATM    1  C   UNL     1      -7.631  10.383  68.132  1.00  0.00    -0.091 C  
HETATM    2  C   UNL     1      -8.410  10.505  69.313  1.00  0.00    -0.144 C  
HETATM    3  C   UNL     1      -9.162   9.732  68.274  1.00  0.00    -0.130 C  
HETATM    4  C   UNL     1      -8.032   9.211  66.649  1.00  0.00    -0.104 C  
HETATM    5  C   UNL     1      -9.766  12.212  63.872  1.00  0.00    -0.143 C  
HETATM    6  C   UNL     1      -8.107   8.559  67.840  1.00  0.00    -0.115 C  
HETATM    7  C   UNL     1      -9.764   8.185  66.958  1.00  0.00    -0.275 C  
HETATM    8  C   UNL     1      -7.274   7.573  68.609  1.00  0.00    -0.086 C  
HETATM    9  C   UNL     1     -10.443  12.275  65.257  1.00  0.00    -0.315 C  
HETATM   10  C   UNL     1     -11.992  11.988  65.054  1.00  0.00    -0.262 C  
HETATM   11  C   UNL     1     -10.230   9.549  65.875  1.00  0.00    -0.115 C  
HETATM   12  O   UNL     1      -9.680   9.275  64.582  1.00  0.00    -0.356 OA 
HETATM   13  C   UNL     1      -9.895  11.179  66.274  1.00  0.00    -0.253 C  
HETATM   14  H   UNL     1      -9.926   9.993  64.011  1.00  0.00     0.000 HD 
HETATM   15  C   UNL     1      -8.371  11.540  66.885  1.00  0.00    -0.166 C  
HETATM   16  C   UNL     1      -8.407  12.954  67.470  1.00  0.00    -0.183 C  
HETATM   17  C   UNL     1      -8.830  14.026  66.456  1.00  0.00    -0.048 C  
HETATM   18  C   UNL     1      -8.775  15.378  67.202  1.00  0.00    -0.243 C  
HETATM   19  C   UNL     1     -10.174  13.725  65.779  1.00  0.00    -0.322 C  
HETATM   20  C   UNL     1     -11.033  14.726  65.493  1.00  0.00    -0.350 C  
HETATM   21  C   UNL     1     -12.286  14.414  64.786  1.00  0.00    -0.446 C  
HETATM   22  O   UNL     1     -12.747  15.174  63.945  1.00  0.00    -0.759 OA 
HETATM   23  C   UNL     1     -12.946  13.158  65.236  1.00  0.00    -0.159 C  
ENDROOT
BRANCH   4  24
HETATM   24  C   UNL     1      -7.541   7.877  65.761  1.00  0.00    -0.083 C  
HETATM   25  C   UNL     1      -6.086   7.830  65.365  1.00  0.00    -0.038 C  
HETATM   26  O   UNL     1      -8.208   6.881  65.464  1.00  0.00    -0.126 OA 
ENDBRANCH   4  24
TORSDOF 1
ENDMDL
MODEL       52
REMARK 921   NORMALIZED FREE ENERGY PREDICTED BY IDOCK:   -5.10 KCAL/MOL
REMARK 922        TOTAL FREE ENERGY PREDICTED BY IDOCK:   -4.55 KCAL/MOL
REMARK 923 INTER-LIGAND FREE ENERGY PREDICTED BY IDOCK:   -5.05 KCAL/MOL
REMARK 924 INTRA-LIGAND FREE ENERGY PREDICTED BY IDOCK:    0.50 KCAL/MOL
REMARK 927      BINDING AFFINITY PREDICTED BY RF-SCORE:    0.00 PKD
ROOT
HETATM    1  C   UNL     1      -9.543   6.677  67.088  1.00  0.00    -0.168 C  
HETATM    2  C   UNL     1     -10.866   6.309  66.726  1.00  0.00    -0.367 C  
HETATM    3  C   UNL     1     -10.893   7.336  67.816  1.00  0.00    -0.214 C  
HETATM    4  C   UNL     1      -9.070   8.182  68.204  1.00  0.00    -0.134 C  
HETATM    5  C   UNL     1      -8.320   5.994  71.996  1.00  0.00    -0.118 C  
HETATM    6  C   UNL     1      -9.948   8.535  67.228  1.00  0.00    -0.289 C  
HETATM    7  C   UNL     1     -10.725   9.173  68.857  1.00  0.00    -0.167 C  
HETATM    8  C   UNL     1      -9.902   9.277  65.922  1.00  0.00    -0.335 C  
HETATM    9  C   UNL     1      -9.699   5.633  71.405  1.00  0.00    -0.204 C  
HETATM   10  C   UNL     1     -10.804   6.021  72.478  1.00  0.00    -0.286 C  
HETATM   11  C   UNL     1     -10.246   8.124  70.243  1.00  0.00    -0.200 C  
HETATM   12  O   UNL     1      -9.048   8.674  70.801  1.00  0.00    -0.151 OA 
HETATM   13  C   UNL     1     -10.040   6.434  70.071  1.00  0.00    -0.208 C  
HETATM   14  H   UNL     1      -8.796   8.122  71.532  1.00  0.00     0.000 HD 
HETATM   15  C   UNL     1      -9.199   5.878  68.726  1.00  0.00    -0.120 C  
HETATM   16  C   UNL     1      -9.422   4.368  68.607  1.00  0.00    -0.219 C  
HETATM   17  C   UNL     1      -8.988   3.584  69.854  1.00  0.00    -0.173 C  
HETATM   18  C   UNL     1      -9.248   2.093  69.544  1.00  0.00    -0.179 C  
HETATM   19  C   UNL     1      -9.641   4.091  71.147  1.00  0.00    -0.242 C  
HETATM   20  C   UNL     1     -10.006   3.221  72.112  1.00  0.00    -0.231 C  
HETATM   21  C   UNL     1     -10.572   3.741  73.368  1.00  0.00    -0.193 C  
HETATM   22  O   UNL     1     -10.314   3.221  74.445  1.00  0.00    -0.161 OA 
HETATM   23  C   UNL     1     -11.514   4.881  73.189  1.00  0.00    -0.362 C  
ENDROOT
BRANCH   4  24
HETATM   24  C   UNL     1      -8.297   9.667  68.277  1.00  0.00    -0.117 C  
HETATM   25  C   UNL     1      -6.895   9.725  67.723  1.00  0.00    -0.081 C  
HETATM   26  O   UNL     1      -8.768  10.744  68.653  1.00  0.00    -0.138 OA 
ENDBRANCH   4  24
TORSDOF 1
ENDMDL
MODEL       53
REMARK 921   NORMALIZED FREE ENERGY PREDICTED BY IDOCK:   -5.01 KCAL/MOL
REMARK 922        TOTAL FREE ENERGY PREDICTED BY IDOCK:   -4.45 KCAL/MOL
REMARK 923 INTER-LIGAND FREE ENERGY PREDICTED BY IDOCK:   -4.95 KCAL/MOL
REMARK 924 INTRA-LIGAND FREE ENERGY PREDICTED BY IDOCK:    0.50 KCAL/MOL
REMARK 927      BINDING AFFINITY PREDICTED BY RF-SCORE:    0.00 PKD
ROOT
HETATM    1  C   UNL     1     -11.764   8.109  70.855  1.00  0.00    -0.259 C  
HETATM    2  C   UNL     1     -11.917   8.801  72.086  1.00  0.00    -0.436 C  
HETATM    3  C   UNL     1     -10.543   9.022  71.536  1.00  0.00    -0.415 C  
HETATM    4  C   UNL     1     -10.298   8.348  69.618  1.00  0.00    -0.218 C  
HETATM    5  C   UNL     1      -7.936   4.738  70.673  1.00  0.00    -0.073 C  
HETATM    6  C   UNL     1     -10.826   9.538  70.009  1.00  0.00    -0.286 C  
HETATM    7  C   UNL     1      -8.944   9.698  70.320  1.00  0.00    -0.263 C  
HETATM    8  C   UNL     1     -11.715  10.595  69.417  1.00  0.00    -0.344 C  
HETATM    9  C   UNL     1      -8.279   5.568  71.928  1.00  0.00    -0.119 C  
HETATM   10  C   UNL     1      -6.912   6.001  72.613  1.00  0.00    -0.079 C  
HETATM   11  C   UNL     1      -8.225   8.090  70.704  1.00  0.00    -0.114 C  
HETATM   12  O   UNL     1      -7.796   7.508  69.469  1.00  0.00    -0.114 OA 
HETATM   13  C   UNL     1      -9.079   6.905  71.597  1.00  0.00    -0.139 C  
HETATM   14  H   UNL     1      -7.417   6.660  69.672  1.00  0.00     0.000 HD 
HETATM   15  C   UNL     1     -10.691   6.636  71.204  1.00  0.00    -0.274 C  
HETATM   16  C   UNL     1     -11.328   5.802  72.317  1.00  0.00    -0.334 C  
HETATM   17  C   UNL     1     -10.620   4.461  72.560  1.00  0.00    -0.203 C  
HETATM   18  C   UNL     1     -11.411   3.747  73.678  1.00  0.00    -0.231 C  
HETATM   19  C   UNL     1      -9.118   4.610  72.835  1.00  0.00    -0.131 C  
HETATM   20  C   UNL     1      -8.506   3.806  73.732  1.00  0.00    -0.090 C  
HETATM   21  C   UNL     1      -7.053   3.929  73.928  1.00  0.00    -0.060 C  
HETATM   22  O   UNL     1      -6.353   2.945  74.129  1.00  0.00    -0.018 OA 
HETATM   23  C   UNL     1      -6.551   5.331  73.929  1.00  0.00    -0.074 C  
ENDROOT
BRANCH   4  24
HETATM   24  C   UNL     1      -9.841   8.863  68.090  1.00  0.00    -0.167 C  
HETATM   25  C   UNL     1     -10.509   8.183  66.921  1.00  0.00    -0.379 C  
HETATM   26  O   UNL     1      -9.083   9.795  67.804  1.00  0.00    -0.131 OA 
ENDBRANCH   4  24
TORSDOF 1
ENDMDL
MODEL       54
REMARK 921   NORMALIZED FREE ENERGY PREDICTED BY IDOCK:   -4.88 KCAL/MOL
REMARK 922        TOTAL FREE ENERGY PREDICTED BY IDOCK:   -4.31 KCAL/MOL
REMARK 923 INTER-LIGAND FREE ENERGY PREDICTED BY IDOCK:   -4.81 KCAL/MOL
REMARK 924 INTRA-LIGAND FREE ENERGY PREDICTED BY IDOCK:    0.50 KCAL/MOL
REMARK 927      BINDING AFFINITY PREDICTED BY RF-SCORE:    0.00 PKD
ROOT
HETATM    1  C   UNL     1      -8.125   7.649  64.837  1.00  0.00    -0.128 C  
HETATM    2  C   UNL     1      -6.878   8.249  64.517  1.00  0.00    -0.068 C  
HETATM    3  C   UNL     1      -7.051   8.175  66.003  1.00  0.00    -0.061 C  
HETATM    4  C   UNL     1      -8.654   7.048  66.596  1.00  0.00    -0.124 C  
HETATM    5  C   UNL     1     -11.260  10.464  67.718  1.00  0.00    -0.309 C  
HETATM    6  C   UNL     1      -7.413   6.601  66.263  1.00  0.00    -0.081 C  
HETATM    7  C   UNL     1      -7.206   7.425  67.978  1.00  0.00    -0.090 C  
HETATM    8  C   UNL     1      -6.791   5.305  65.825  1.00  0.00    -0.064 C  
HETATM    9  C   UNL     1      -9.874  10.950  67.246  1.00  0.00    -0.202 C  
HETATM   10  C   UNL     1      -9.211  11.763  68.438  1.00  0.00    -0.175 C  
HETATM   11  C   UNL     1      -8.395   8.762  68.189  1.00  0.00    -0.122 C  
HETATM   12  O   UNL     1      -9.566   8.202  68.792  1.00  0.00    -0.148 OA 
HETATM   13  C   UNL     1      -8.881   9.758  66.884  1.00  0.00    -0.150 C  
HETATM   14  H   UNL     1     -10.193   8.907  68.904  1.00  0.00     0.000 HD 
HETATM   15  C   UNL     1      -9.237   9.015  65.419  1.00  0.00    -0.241 C  
HETATM   16  C   UNL     1      -9.318  10.094  64.336  1.00  0.00    -0.348 C  
HETATM   17  C   UNL     1     -10.357  11.185  64.635  1.00  0.00    -0.393 C  
HETATM   18  C   UNL     1     -10.327  12.155  63.433  1.00  0.00    -0.438 C  
HETATM   19  C   UNL     1     -10.159  11.854  66.001  1.00  0.00    -0.261 C  
HETATM   20  C   UNL     1     -10.392  13.175  66.153  1.00  0.00    -0.287 C  
HETATM   21  C   UNL     1     -10.255  13.776  67.490  1.00  0.00    -0.241 C  
HETATM   22  O   UNL     1     -11.014  14.657  67.872  1.00  0.00    -0.263 OA 
HETATM   23  C   UNL     1      -9.095  13.270  68.273  1.00  0.00    -0.184 C  
ENDROOT
BRANCH   4  24
HETATM   24  C   UNL     1      -9.053   5.729  67.550  1.00  0.00    -0.106 C  
HETATM   25  C   UNL     1     -10.145   4.827  67.029  1.00  0.00    -0.228 C  
HETATM   26  O   UNL     1      -8.503   5.356  68.590  1.00  0.00    -0.093 OA 
ENDBRANCH   4  24
TORSDOF 1
ENDMDL
MODEL       55
REMARK 921   NORMALIZED FREE ENERGY PREDICTED BY IDOCK:   -4.85 KCAL/MOL
REMARK 922        TOTAL FREE ENERGY PREDICTED BY IDOCK:   -4.28 KCAL/MOL
REMARK 923 INTER-LIGAND FREE ENERGY PREDICTED BY IDOCK:   -4.80 KCAL/MOL
REMARK 924 INTRA-LIGAND FREE ENERGY PREDICTED BY IDOCK:    0.52 KCAL/MOL
REMARK 927      BINDING AFFINITY PREDICTED BY RF-SCORE:    0.00 PKD
ROOT
HETATM    1  C   UNL     1      -9.890  17.443  66.493  1.00  0.00    -0.310 C  
HETATM    2  C   UNL     1     -10.947  17.254  67.421  1.00  0.00    -0.053 C  
HETATM    3  C   UNL     1      -9.788  17.930  68.086  1.00  0.00    -0.334 C  
HETATM    4  C   UNL     1      -8.330  18.545  66.788  1.00  0.00    -0.279 C  
HETATM    5  C   UNL     1      -5.419  15.340  67.776  1.00  0.00    -0.101 C  
HETATM    6  C   UNL     1      -9.478  19.201  67.104  1.00  0.00    -0.367 C  
HETATM    7  C   UNL     1      -8.354  19.387  68.642  1.00  0.00    -0.397 C  
HETATM    8  C   UNL     1     -10.332  20.280  66.500  1.00  0.00    -0.420 C  
HETATM    9  C   UNL     1      -6.692  15.226  68.641  1.00  0.00    -0.101 C  
HETATM   10  C   UNL     1      -6.257  15.345  70.164  1.00  0.00    -0.113 C  
HETATM   11  C   UNL     1      -7.255  17.967  68.801  1.00  0.00    -0.278 C  
HETATM   12  O   UNL     1      -6.048  18.280  68.096  1.00  0.00    -0.175 OA 
HETATM   13  C   UNL     1      -7.746  16.387  68.363  1.00  0.00    -0.177 C  
HETATM   14  H   UNL     1      -5.469  17.532  68.180  1.00  0.00     0.000 HD 
HETATM   15  C   UNL     1      -8.582  16.197  66.918  1.00  0.00    -0.253 C  
HETATM   16  C   UNL     1      -9.197  14.795  66.895  1.00  0.00    -0.263 C  
HETATM   17  C   UNL     1      -8.163  13.670  67.052  1.00  0.00    -0.056 C  
HETATM   18  C   UNL     1      -8.947  12.342  66.970  1.00  0.00    -0.209 C  
HETATM   19  C   UNL     1      -7.289  13.820  68.304  1.00  0.00    -0.118 C  
HETATM   20  C   UNL     1      -6.909  12.730  69.005  1.00  0.00    -0.081 C  
HETATM   21  C   UNL     1      -6.019  12.898  70.165  1.00  0.00    -0.136 C  
HETATM   22  O   UNL     1      -5.142  12.083  70.417  1.00  0.00    -0.083 OA 
HETATM   23  C   UNL     1      -6.332  14.084  71.009  1.00  0.00     0.129 C  
ENDROOT
BRANCH   4  24
HETATM   24  C   UNL     1      -7.485  19.912  66.309  1.00  0.00    -0.300 C  
HETATM   25  C   UNL     1      -7.016  19.946  64.876  1.00  0.00    -0.000 C  
HETATM   26  O   UNL     1      -7.274  20.936  66.965  1.00  0.00    -0.321 OA 
ENDBRANCH   4  24
TORSDOF 1
ENDMDL
MODEL       56
REMARK 921   NORMALIZED FREE ENERGY PREDICTED BY IDOCK:   -4.81 KCAL/MOL
REMARK 922        TOTAL FREE ENERGY PREDICTED BY IDOCK:   -4.24 KCAL/MOL
REMARK 923 INTER-LIGAND FREE ENERGY PREDICTED BY IDOCK:   -4.79 KCAL/MOL
REMARK 924 INTRA-LIGAND FREE ENERGY PREDICTED BY IDOCK:    0.54 KCAL/MOL
REMARK 927      BINDING AFFINITY PREDICTED BY RF-SCORE:    0.00 PKD
ROOT
HETATM    1  C   UNL     1      -6.686  10.690  66.660  1.00  0.00    -0.106 C  
HETATM    2  C   UNL     1      -6.718   9.943  67.868  1.00  0.00    -0.068 C  
HETATM    3  C   UNL     1      -8.025   9.819  67.148  1.00  0.00    -0.102 C  
HETATM    4  C   UNL     1      -8.001  10.581  65.248  1.00  0.00    -0.112 C  
HETATM    5  C   UNL     1     -10.293  14.270  66.179  1.00  0.00    -0.305 C  
HETATM    6  C   UNL     1      -7.584   9.349  65.644  1.00  0.00    -0.095 C  
HETATM    7  C   UNL     1      -9.495   9.280  65.721  1.00  0.00    -0.329 C  
HETATM    8  C   UNL     1      -6.683   8.269  65.114  1.00  0.00    -0.055 C  
HETATM    9  C   UNL     1     -10.146  13.373  67.426  1.00  0.00    -0.237 C  
HETATM   10  C   UNL     1     -11.605  12.989  67.923  1.00  0.00    -0.385 C  
HETATM   11  C   UNL     1     -10.175  10.908  66.091  1.00  0.00    -0.249 C  
HETATM   12  O   UNL     1     -10.423  11.562  64.841  1.00  0.00    -0.264 OA 
HETATM   13  C   UNL     1      -9.379  12.009  67.132  1.00  0.00    -0.187 C  
HETATM   14  H   UNL     1     -10.781  12.420  65.036  1.00  0.00     0.000 HD 
HETATM   15  C   UNL     1      -7.719  12.204  66.946  1.00  0.00    -0.049 C  
HETATM   16  C   UNL     1      -7.182  12.958  68.165  1.00  0.00    -0.114 C  
HETATM   17  C   UNL     1      -7.847  14.324  68.383  1.00  0.00    -0.140 C  
HETATM   18  C   UNL     1      -7.163  14.950  69.619  1.00  0.00    -0.166 C  
HETATM   19  C   UNL     1      -9.377  14.247  68.470  1.00  0.00    -0.200 C  
HETATM   20  C   UNL     1     -10.052  15.047  69.323  1.00  0.00    -0.236 C  
HETATM   21  C   UNL     1     -11.523  14.996  69.340  1.00  0.00    -0.300 C  
HETATM   22  O   UNL     1     -12.193  16.008  69.501  1.00  0.00    -0.238 OA 
HETATM   23  C   UNL     1     -12.089  13.624  69.216  1.00  0.00    -0.360 C  
ENDROOT
BRANCH   4  24
HETATM   24  C   UNL     1      -8.295  10.152  63.655  1.00  0.00    -0.170 C  
HETATM   25  C   UNL     1      -7.247  10.552  62.646  1.00  0.00    -0.113 C  
HETATM   26  O   UNL     1      -9.227   9.471  63.217  1.00  0.00    -0.205 OA 
ENDBRANCH   4  24
TORSDOF 1
ENDMDL
MODEL       57
REMARK 921   NORMALIZED FREE ENERGY PREDICTED BY IDOCK:   -4.77 KCAL/MOL
REMARK 922        TOTAL FREE ENERGY PREDICTED BY IDOCK:   -4.20 KCAL/MOL
REMARK 923 INTER-LIGAND FREE ENERGY PREDICTED BY IDOCK:   -4.69 KCAL/MOL
REMARK 924 INTRA-LIGAND FREE ENERGY PREDICTED BY IDOCK:    0.50 KCAL/MOL
REMARK 927      BINDING AFFINITY PREDICTED BY RF-SCORE:    0.00 PKD
ROOT
HETATM    1  C   UNL     1     -10.406  11.247  67.756  1.00  0.00    -0.208 C  
HETATM    2  C   UNL     1     -10.950  11.567  66.484  1.00  0.00    -0.346 C  
HETATM    3  C   UNL     1      -9.454  11.552  66.419  1.00  0.00    -0.230 C  
HETATM    4  C   UNL     1      -8.558  10.795  68.097  1.00  0.00    -0.129 C  
HETATM    5  C   UNL     1      -7.201  14.698  69.723  1.00  0.00    -0.058 C  
HETATM    6  C   UNL     1      -9.064  10.093  67.048  1.00  0.00    -0.155 C  
HETATM    7  C   UNL     1      -7.445  10.878  66.393  1.00  0.00    -0.145 C  
HETATM    8  C   UNL     1      -9.532   8.689  66.786  1.00  0.00    -0.250 C  
HETATM    9  C   UNL     1      -7.912  14.875  68.365  1.00  0.00    -0.134 C  
HETATM   10  C   UNL     1      -6.881  15.547  67.360  1.00  0.00    -0.224 C  
HETATM   11  C   UNL     1      -7.112  12.439  67.231  1.00  0.00    -0.128 C  
HETATM   12  O   UNL     1      -6.303  12.145  68.375  1.00  0.00    -0.050 OA 
HETATM   13  C   UNL     1      -8.369  13.496  67.712  1.00  0.00    -0.181 C  
HETATM   14  H   UNL     1      -6.127  12.968  68.816  1.00  0.00     0.000 HD 
HETATM   15  C   UNL     1      -9.721  12.824  68.452  1.00  0.00    -0.186 C  
HETATM   16  C   UNL     1     -10.827  13.881  68.490  1.00  0.00    -0.274 C  
HETATM   17  C   UNL     1     -10.420  15.170  69.218  1.00  0.00    -0.261 C  
HETATM   18  C   UNL     1     -11.656  16.096  69.190  1.00  0.00    -0.285 C  
HETATM   19  C   UNL     1      -9.136  15.801  68.662  1.00  0.00    -0.204 C  
HETATM   20  C   UNL     1      -9.013  17.143  68.590  1.00  0.00    -0.267 C  
HETATM   21  C   UNL     1      -7.746  17.721  68.113  1.00  0.00    -0.254 C  
HETATM   22  O   UNL     1      -7.291  18.747  68.600  1.00  0.00    -0.287 OA 
HETATM   23  C   UNL     1      -7.135  16.993  66.967  1.00  0.00    -0.228 C  
ENDROOT
BRANCH   4  24
HETATM   24  C   UNL     1      -7.489   9.603  68.594  1.00  0.00    -0.075 C  
HETATM   25  C   UNL     1      -7.771   8.960  69.930  1.00  0.00    -0.076 C  
HETATM   26  O   UNL     1      -6.544   9.125  67.960  1.00  0.00    -0.059 OA 
ENDBRANCH   4  24
TORSDOF 1
ENDMDL
MODEL       58
REMARK 921   NORMALIZED FREE ENERGY PREDICTED BY IDOCK:   -4.75 KCAL/MOL
REMARK 922        TOTAL FREE ENERGY PREDICTED BY IDOCK:   -4.18 KCAL/MOL
REMARK 923 INTER-LIGAND FREE ENERGY PREDICTED BY IDOCK:   -4.67 KCAL/MOL
REMARK 924 INTRA-LIGAND FREE ENERGY PREDICTED BY IDOCK:    0.50 KCAL/MOL
REMARK 927      BINDING AFFINITY PREDICTED BY RF-SCORE:    0.00 PKD
ROOT
HETATM    1  C   UNL     1     -10.300   9.515  71.079  1.00  0.00    -0.353 C  
HETATM    2  C   UNL     1     -11.049  10.200  70.086  1.00  0.00    -0.378 C  
HETATM    3  C   UNL     1     -11.252   8.722  69.960  1.00  0.00    -0.113 C  
HETATM    4  C   UNL     1     -10.487   7.644  71.523  1.00  0.00    -0.231 C  
HETATM    5  C   UNL     1      -6.946   6.081  69.345  1.00  0.00    -0.064 C  
HETATM    6  C   UNL     1     -11.692   8.271  71.470  1.00  0.00    -0.337 C  
HETATM    7  C   UNL     1     -11.877   6.734  70.345  1.00  0.00    -0.395 C  
HETATM    8  C   UNL     1     -12.714   8.776  72.450  1.00  0.00    -0.433 C  
HETATM    9  C   UNL     1      -7.834   6.943  68.423  1.00  0.00    -0.121 C  
HETATM   10  C   UNL     1      -8.307   6.031  67.212  1.00  0.00    -0.105 C  
HETATM   11  C   UNL     1     -10.294   6.296  69.602  1.00  0.00    -0.215 C  
HETATM   12  O   UNL     1      -9.655   5.362  70.479  1.00  0.00    -0.161 OA 
HETATM   13  C   UNL     1      -9.148   7.482  69.143  1.00  0.00    -0.138 C  
HETATM   14  H   UNL     1      -8.821   5.131  70.087  1.00  0.00     0.000 HD 
HETATM   15  C   UNL     1      -8.852   8.744  70.214  1.00  0.00    -0.171 C  
HETATM   16  C   UNL     1      -8.069   9.832  69.475  1.00  0.00    -0.141 C  
HETATM   17  C   UNL     1      -6.746   9.334  68.875  1.00  0.00    -0.052 C  
HETATM   18  C   UNL     1      -6.081  10.559  68.209  1.00  0.00    -0.047 C  
HETATM   19  C   UNL     1      -6.916   8.119  67.954  1.00  0.00    -0.078 C  
HETATM   20  C   UNL     1      -6.160   7.996  66.842  1.00  0.00    -0.053 C  
HETATM   21  C   UNL     1      -6.300   6.789  66.011  1.00  0.00    -0.049 C  
HETATM   22  O   UNL     1      -5.332   6.274  65.469  1.00  0.00    -0.013 OA 
HETATM   23  C   UNL     1      -7.704   6.319  65.847  1.00  0.00    -0.093 C  
ENDROOT
BRANCH   4  24
HETATM   24  C   UNL     1     -10.931   6.533  72.697  1.00  0.00    -0.255 C  
HETATM   25  C   UNL     1     -10.278   6.685  74.049  1.00  0.00    -0.395 C  
HETATM   26  O   UNL     1     -11.794   5.654  72.616  1.00  0.00    -0.283 OA 
ENDBRANCH   4  24
TORSDOF 1
ENDMDL
MODEL       59
REMARK 921   NORMALIZED FREE ENERGY PREDICTED BY IDOCK:   -4.69 KCAL/MOL
REMARK 922        TOTAL FREE ENERGY PREDICTED BY IDOCK:   -4.11 KCAL/MOL
REMARK 923 INTER-LIGAND FREE ENERGY PREDICTED BY IDOCK:   -4.61 KCAL/MOL
REMARK 924 INTRA-LIGAND FREE ENERGY PREDICTED BY IDOCK:    0.50 KCAL/MOL
REMARK 927      BINDING AFFINITY PREDICTED BY RF-SCORE:    0.00 PKD
ROOT
HETATM    1  C   UNL     1      -7.038  15.977  68.564  1.00  0.00    -0.132 C  
HETATM    2  C   UNL     1      -5.917  15.845  67.702  1.00  0.00    -0.177 C  
HETATM    3  C   UNL     1      -7.168  16.030  66.900  1.00  0.00    -0.212 C  
HETATM    4  C   UNL     1      -8.802  16.551  68.019  1.00  0.00    -0.197 C  
HETATM    5  C   UNL     1     -10.782  12.579  67.861  1.00  0.00    -0.239 C  
HETATM    6  C   UNL     1      -7.833  17.379  67.545  1.00  0.00    -0.209 C  
HETATM    7  C   UNL     1      -8.882  16.906  66.015  1.00  0.00    -0.194 C  
HETATM    8  C   UNL     1      -7.304  18.749  67.862  1.00  0.00    -0.259 C  
HETATM    9  C   UNL     1      -9.474  12.584  67.042  1.00  0.00    -0.217 C  
HETATM   10  C   UNL     1      -9.840  12.226  65.539  1.00  0.00    -0.223 C  
HETATM   11  C   UNL     1      -9.591  15.261  66.215  1.00  0.00    -0.303 C  
HETATM   12  O   UNL     1     -10.874  15.419  66.830  1.00  0.00    -0.310 OA 
HETATM   13  C   UNL     1      -8.753  14.005  67.021  1.00  0.00    -0.220 C  
HETATM   14  H   UNL     1     -11.247  14.552  66.935  1.00  0.00     0.000 HD 
HETATM   15  C   UNL     1      -7.976  14.379  68.464  1.00  0.00    -0.144 C  
HETATM   16  C   UNL     1      -7.040  13.223  68.824  1.00  0.00    -0.100 C  
HETATM   17  C   UNL     1      -7.757  11.871  68.952  1.00  0.00    -0.016 C  
HETATM   18  C   UNL     1      -6.677  10.841  69.351  1.00  0.00    -0.097 C  
HETATM   19  C   UNL     1      -8.571  11.495  67.707  1.00  0.00    -0.138 C  
HETATM   20  C   UNL     1      -8.633  10.210  67.296  1.00  0.00    -0.125 C  
HETATM   21  C   UNL     1      -9.472   9.869  66.136  1.00  0.00    -0.200 C  
HETATM   22  O   UNL     1     -10.108   8.825  66.096  1.00  0.00    -0.269 OA 
HETATM   23  C   UNL     1      -9.413  10.860  65.026  1.00  0.00    -0.274 C  
ENDROOT
BRANCH   4  24
HETATM   24  C   UNL     1      -9.980  17.735  68.156  1.00  0.00    -0.342 C  
HETATM   25  C   UNL     1     -10.399  18.110  69.556  1.00  0.00     0.364 C  
HETATM   26  O   UNL     1     -10.487  18.402  67.249  1.00  0.00    -0.377 OA 
ENDBRANCH   4  24
TORSDOF 1
ENDMDL
MODEL       60
REMARK 921   NORMALIZED FREE ENERGY PREDICTED BY IDOCK:   -4.69 KCAL/MOL
REMARK 922        TOTAL FREE ENERGY PREDICTED BY IDOCK:   -4.11 KCAL/MOL
REMARK 923 INTER-LIGAND FREE ENERGY PREDICTED BY IDOCK:   -4.61 KCAL/MOL
REMARK 924 INTRA-LIGAND FREE ENERGY PREDICTED BY IDOCK:    0.50 KCAL/MOL
REMARK 927      BINDING AFFINITY PREDICTED BY RF-SCORE:    0.00 PKD
ROOT
HETATM    1  C   UNL     1      -7.728  10.862  66.233  1.00  0.00    -0.147 C  
HETATM    2  C   UNL     1      -6.949  11.741  67.031  1.00  0.00    -0.135 C  
HETATM    3  C   UNL     1      -6.616  10.317  67.353  1.00  0.00    -0.068 C  
HETATM    4  C   UNL     1      -7.432   8.961  66.054  1.00  0.00    -0.090 C  
HETATM    5  C   UNL     1     -10.618   7.524  68.795  1.00  0.00    -0.179 C  
HETATM    6  C   UNL     1      -6.283   9.668  65.888  1.00  0.00    -0.069 C  
HETATM    7  C   UNL     1      -5.870   8.339  67.204  1.00  0.00    -0.043 C  
HETATM    8  C   UNL     1      -5.400  10.081  64.745  1.00  0.00    -0.082 C  
HETATM    9  C   UNL     1      -9.722   8.575  69.482  1.00  0.00    -0.176 C  
HETATM   10  C   UNL     1      -9.066   7.895  70.759  1.00  0.00    -0.154 C  
HETATM   11  C   UNL     1      -7.337   7.918  68.163  1.00  0.00    -0.099 C  
HETATM   12  O   UNL     1      -7.976   6.819  67.505  1.00  0.00    -0.112 OA 
HETATM   13  C   UNL     1      -8.527   9.082  68.558  1.00  0.00    -0.128 C  
HETATM   14  H   UNL     1      -8.749   6.596  68.011  1.00  0.00     0.000 HD 
HETATM   15  C   UNL     1      -9.023  10.140  67.349  1.00  0.00    -0.142 C  
HETATM   16  C   UNL     1      -9.820  11.275  67.995  1.00  0.00    -0.186 C  
HETATM   17  C   UNL     1     -11.038  10.790  68.796  1.00  0.00    -0.312 C  
HETATM   18  C   UNL     1     -11.735  12.057  69.340  1.00  0.00    -0.402 C  
HETATM   19  C   UNL     1     -10.685   9.747  69.865  1.00  0.00    -0.303 C  
HETATM   20  C   UNL     1     -11.322   9.748  71.055  1.00  0.00    -0.460 C  
HETATM   21  C   UNL     1     -11.008   8.696  72.036  1.00  0.00    -0.362 C  
HETATM   22  O   UNL     1     -11.878   8.209  72.746  1.00  0.00    -0.389 OA 
HETATM   23  C   UNL     1      -9.562   8.351  72.122  1.00  0.00    -0.367 C  
ENDROOT
BRANCH   4  24
HETATM   24  C   UNL     1      -7.010   7.713  65.018  1.00  0.00    -0.058 C  
HETATM   25  C   UNL     1      -7.827   7.580  63.756  1.00  0.00    -0.112 C  
HETATM   26  O   UNL     1      -6.055   6.938  65.120  1.00  0.00    -0.035 OA 
ENDBRANCH   4  24
TORSDOF 1
ENDMDL
MODEL       61
REMARK 921   NORMALIZED FREE ENERGY PREDICTED BY IDOCK:   -4.69 KCAL/MOL
REMARK 922        TOTAL FREE ENERGY PREDICTED BY IDOCK:   -4.11 KCAL/MOL
REMARK 923 INTER-LIGAND FREE ENERGY PREDICTED BY IDOCK:   -4.61 KCAL/MOL
REMARK 924 INTRA-LIGAND FREE ENERGY PREDICTED BY IDOCK:    0.50 KCAL/MOL
REMARK 927      BINDING AFFINITY PREDICTED BY RF-SCORE:    0.00 PKD
ROOT
HETATM    1  C   UNL     1      -7.080   5.248  69.295  1.00  0.00    -0.057 C  
HETATM    2  C   UNL     1      -7.312   4.123  70.130  1.00  0.00    -0.045 C  
HETATM    3  C   UNL     1      -8.439   4.288  69.158  1.00  0.00    -0.099 C  
HETATM    4  C   UNL     1      -8.076   5.673  67.694  1.00  0.00    -0.101 C  
HETATM    5  C   UNL     1     -10.708   8.838  69.361  1.00  0.00    -0.180 C  
HETATM    6  C   UNL     1      -7.679   4.372  67.711  1.00  0.00    -0.080 C  
HETATM    7  C   UNL     1      -9.561   4.319  67.361  1.00  0.00    -0.219 C  
HETATM    8  C   UNL     1      -6.632   3.532  67.036  1.00  0.00    -0.038 C  
HETATM    9  C   UNL     1     -10.765   7.556  70.217  1.00  0.00    -0.247 C  
HETATM   10  C   UNL     1     -12.271   7.050  70.233  1.00  0.00    -0.052 C  
HETATM   11  C   UNL     1     -10.390   5.724  68.128  1.00  0.00    -0.212 C  
HETATM   12  O   UNL     1     -10.416   6.782  67.164  1.00  0.00    -0.221 OA 
HETATM   13  C   UNL     1      -9.880   6.369  69.629  1.00  0.00    -0.182 C  
HETATM   14  H   UNL     1     -10.853   7.523  67.568  1.00  0.00     0.000 HD 
HETATM   15  C   UNL     1      -8.231   6.584  69.872  1.00  0.00    -0.126 C  
HETATM   16  C   UNL     1      -7.991   6.846  71.361  1.00  0.00    -0.108 C  
HETATM   17  C   UNL     1      -8.761   8.060  71.900  1.00  0.00    -0.184 C  
HETATM   18  C   UNL     1      -8.375   8.195  73.390  1.00  0.00    -0.282 C  
HETATM   19  C   UNL     1     -10.271   7.988  71.636  1.00  0.00    -0.256 C  
HETATM   20  C   UNL     1     -11.147   8.448  72.555  1.00  0.00    -0.397 C  
HETATM   21  C   UNL     1     -12.586   8.424  72.247  1.00  0.00    -0.349 C  
HETATM   22  O   UNL     1     -13.329   9.326  72.610  1.00  0.00    -0.430 OA 
HETATM   23  C   UNL     1     -13.039   7.196  71.537  1.00  0.00    -0.427 C  
ENDROOT
BRANCH   4  24
HETATM   24  C   UNL     1      -8.020   5.842  66.027  1.00  0.00    -0.103 C  
HETATM   25  C   UNL     1      -6.929   6.727  65.477  1.00  0.00    -0.063 C  
HETATM   26  O   UNL     1      -8.711   5.259  65.187  1.00  0.00    -0.149 OA 
ENDBRANCH   4  24
TORSDOF 1
ENDMDL
MODEL       62
REMARK 921   NORMALIZED FREE ENERGY PREDICTED BY IDOCK:   -4.64 KCAL/MOL
REMARK 922        TOTAL FREE ENERGY PREDICTED BY IDOCK:   -4.06 KCAL/MOL
REMARK 923 INTER-LIGAND FREE ENERGY PREDICTED BY IDOCK:   -4.57 KCAL/MOL
REMARK 924 INTRA-LIGAND FREE ENERGY PREDICTED BY IDOCK:    0.50 KCAL/MOL
REMARK 927      BINDING AFFINITY PREDICTED BY RF-SCORE:    0.00 PKD
ROOT
HETATM    1  C   UNL     1      -9.497   8.518  71.397  1.00  0.00    -0.279 C  
HETATM    2  C   UNL     1     -10.593   9.417  71.303  1.00  0.00    -0.400 C  
HETATM    3  C   UNL     1     -10.798   8.252  70.384  1.00  0.00    -0.241 C  
HETATM    4  C   UNL     1      -9.453   6.733  70.658  1.00  0.00    -0.171 C  
HETATM    5  C   UNL     1      -7.035   7.568  67.028  1.00  0.00    -0.083 C  
HETATM    6  C   UNL     1     -10.593   6.958  71.364  1.00  0.00    -0.242 C  
HETATM    7  C   UNL     1     -11.178   6.295  69.666  1.00  0.00    -0.506 C  
HETATM    8  C   UNL     1     -11.153   6.569  72.704  1.00  0.00    -0.291 C  
HETATM    9  C   UNL     1      -8.234   8.534  67.135  1.00  0.00    -0.108 C  
HETATM   10  C   UNL     1      -9.129   8.344  65.837  1.00  0.00    -0.225 C  
HETATM   11  C   UNL     1     -10.010   6.751  68.371  1.00  0.00    -0.151 C  
HETATM   12  O   UNL     1      -9.056   5.689  68.262  1.00  0.00    -0.111 OA 
HETATM   13  C   UNL     1      -9.166   8.239  68.393  1.00  0.00    -0.135 C  
HETATM   14  H   UNL     1      -8.441   5.929  67.579  1.00  0.00     0.000 HD 
HETATM   15  C   UNL     1      -8.496   8.740  69.851  1.00  0.00    -0.131 C  
HETATM   16  C   UNL     1      -8.093  10.211  69.719  1.00  0.00    -0.167 C  
HETATM   17  C   UNL     1      -7.106  10.475  68.572  1.00  0.00    -0.075 C  
HETATM   18  C   UNL     1      -6.787  11.986  68.612  1.00  0.00    -0.091 C  
HETATM   19  C   UNL     1      -7.602   9.962  67.214  1.00  0.00    -0.088 C  
HETATM   20  C   UNL     1      -7.347  10.661  66.087  1.00  0.00    -0.138 C  
HETATM   21  C   UNL     1      -7.780  10.113  64.791  1.00  0.00    -0.141 C  
HETATM   22  O   UNL     1      -7.095  10.242  63.786  1.00  0.00    -0.125 OA 
HETATM   23  C   UNL     1      -9.123   9.470  64.817  1.00  0.00    -0.271 C  
ENDROOT
BRANCH   4  24
HETATM   24  C   UNL     1      -9.371   5.093  70.995  1.00  0.00    -0.151 C  
HETATM   25  C   UNL     1      -8.175   4.627  71.788  1.00  0.00    -0.105 C  
HETATM   26  O   UNL     1     -10.217   4.229  70.745  1.00  0.00    -0.142 OA 
ENDBRANCH   4  24
TORSDOF 1
ENDMDL
MODEL       63
REMARK 921   NORMALIZED FREE ENERGY PREDICTED BY IDOCK:   -4.63 KCAL/MOL
REMARK 922        TOTAL FREE ENERGY PREDICTED BY IDOCK:   -4.05 KCAL/MOL
REMARK 923 INTER-LIGAND FREE ENERGY PREDICTED BY IDOCK:   -4.58 KCAL/MOL
REMARK 924 INTRA-LIGAND FREE ENERGY PREDICTED BY IDOCK:    0.53 KCAL/MOL
REMARK 927      BINDING AFFINITY PREDICTED BY RF-SCORE:    0.00 PKD
ROOT
HETATM    1  C   UNL     1      -9.042   7.957  66.986  1.00  0.00    -0.162 C  
HETATM    2  C   UNL     1     -10.380   7.754  66.555  1.00  0.00    -0.126 C  
HETATM    3  C   UNL     1     -10.339   8.765  67.659  1.00  0.00    -0.317 C  
HETATM    4  C   UNL     1      -8.450   9.383  68.148  1.00  0.00    -0.120 C  
HETATM    5  C   UNL     1      -8.155   7.083  71.936  1.00  0.00    -0.098 C  
HETATM    6  C   UNL     1      -9.230   9.849  67.137  1.00  0.00    -0.158 C  
HETATM    7  C   UNL     1     -10.005  10.558  68.736  1.00  0.00    -0.200 C  
HETATM    8  C   UNL     1      -9.031  10.594  65.847  1.00  0.00    -0.192 C  
HETATM    9  C   UNL     1      -9.536   6.894  71.274  1.00  0.00    -0.165 C  
HETATM   10  C   UNL     1     -10.640   7.401  72.297  1.00  0.00    -0.270 C  
HETATM   11  C   UNL     1      -9.725   9.446  70.126  1.00  0.00    -0.235 C  
HETATM   12  O   UNL     1      -8.499   9.843  70.751  1.00  0.00    -0.379 OA 
HETATM   13  C   UNL     1      -9.712   7.744  69.938  1.00  0.00    -0.176 C  
HETATM   14  H   UNL     1      -8.352   9.257  71.484  1.00  0.00     0.000 HD 
HETATM   15  C   UNL     1      -8.878   7.106  68.626  1.00  0.00    -0.126 C  
HETATM   16  C   UNL     1      -9.272   5.635  68.472  1.00  0.00    -0.131 C  
HETATM   17  C   UNL     1      -8.997   4.792  69.726  1.00  0.00    -0.139 C  
HETATM   18  C   UNL     1      -9.416   3.346  69.379  1.00  0.00    -0.221 C  
HETATM   19  C   UNL     1      -9.649   5.360  70.993  1.00  0.00    -0.224 C  
HETATM   20  C   UNL     1     -10.163   4.530  71.926  1.00  0.00    -0.241 C  
HETATM   21  C   UNL     1     -10.725   5.101  73.161  1.00  0.00    -0.265 C  
HETATM   22  O   UNL     1     -10.584   4.543  74.241  1.00  0.00    -0.250 OA 
HETATM   23  C   UNL     1     -11.515   6.346  72.955  1.00  0.00    -0.107 C  
ENDROOT
BRANCH   4  24
HETATM   24  C   UNL     1      -7.511  10.765  68.283  1.00  0.00    -0.092 C  
HETATM   25  C   UNL     1      -6.028  10.596  68.060  1.00  0.00    -0.046 C  
HETATM   26  O   UNL     1      -7.896  11.924  68.458  1.00  0.00    -0.134 OA 
ENDBRANCH   4  24
TORSDOF 1
ENDMDL
MODEL       64
REMARK 921   NORMALIZED FREE ENERGY PREDICTED BY IDOCK:   -4.62 KCAL/MOL
REMARK 922        TOTAL FREE ENERGY PREDICTED BY IDOCK:   -4.04 KCAL/MOL
REMARK 923 INTER-LIGAND FREE ENERGY PREDICTED BY IDOCK:   -4.53 KCAL/MOL
REMARK 924 INTRA-LIGAND FREE ENERGY PREDICTED BY IDOCK:    0.50 KCAL/MOL
REMARK 927      BINDING AFFINITY PREDICTED BY RF-SCORE:    0.00 PKD
ROOT
HETATM    1  C   UNL     1      -8.193   7.834  65.085  1.00  0.00    -0.135 C  
HETATM    2  C   UNL     1      -7.112   8.696  65.411  1.00  0.00    -0.083 C  
HETATM    3  C   UNL     1      -7.023   7.429  66.205  1.00  0.00    -0.069 C  
HETATM    4  C   UNL     1      -8.333   5.977  65.601  1.00  0.00    -0.145 C  
HETATM    5  C   UNL     1     -11.161   6.434  68.995  1.00  0.00    -0.424 C  
HETATM    6  C   UNL     1      -7.116   6.261  65.064  1.00  0.00    -0.060 C  
HETATM    7  C   UNL     1      -6.741   5.396  66.730  1.00  0.00    -0.061 C  
HETATM    8  C   UNL     1      -6.403   6.018  63.764  1.00  0.00    -0.029 C  
HETATM    9  C   UNL     1      -9.953   7.383  69.142  1.00  0.00    -0.173 C  
HETATM   10  C   UNL     1      -9.219   7.028  70.505  1.00  0.00    -0.159 C  
HETATM   11  C   UNL     1      -8.051   5.721  67.924  1.00  0.00    -0.098 C  
HETATM   12  O   UNL     1      -9.016   4.672  67.796  1.00  0.00    -0.107 OA 
HETATM   13  C   UNL     1      -8.880   7.218  67.976  1.00  0.00    -0.129 C  
HETATM   14  H   UNL     1      -9.707   4.843  68.425  1.00  0.00     0.000 HD 
HETATM   15  C   UNL     1      -9.370   7.895  66.518  1.00  0.00    -0.255 C  
HETATM   16  C   UNL     1      -9.779   9.348  66.772  1.00  0.00    -0.257 C  
HETATM   17  C   UNL     1     -10.893   9.497  67.818  1.00  0.00    -0.258 C  
HETATM   18  C   UNL     1     -11.198  11.008  67.917  1.00  0.00    -0.375 C  
HETATM   19  C   UNL     1     -10.564   8.823  69.156  1.00  0.00    -0.200 C  
HETATM   20  C   UNL     1     -10.947   9.392  70.319  1.00  0.00    -0.305 C  
HETATM   21  C   UNL     1     -10.674   8.690  71.584  1.00  0.00    -0.303 C  
HETATM   22  O   UNL     1     -11.473   8.716  72.511  1.00  0.00    -0.348 OA 
HETATM   23  C   UNL     1      -9.340   8.030  71.641  1.00  0.00    -0.208 C  
ENDROOT
BRANCH   4  24
HETATM   24  C   UNL     1      -8.382   4.388  65.069  1.00  0.00    -0.117 C  
HETATM   25  C   UNL     1      -9.437   4.054  64.043  1.00  0.00    -0.158 C  
HETATM   26  O   UNL     1      -7.603   3.474  65.351  1.00  0.00    -0.076 OA 
ENDBRANCH   4  24
TORSDOF 1
ENDMDL
MODEL       65
REMARK 921   NORMALIZED FREE ENERGY PREDICTED BY IDOCK:   -4.60 KCAL/MOL
REMARK 922        TOTAL FREE ENERGY PREDICTED BY IDOCK:   -4.02 KCAL/MOL
REMARK 923 INTER-LIGAND FREE ENERGY PREDICTED BY IDOCK:   -4.52 KCAL/MOL
REMARK 924 INTRA-LIGAND FREE ENERGY PREDICTED BY IDOCK:    0.50 KCAL/MOL
REMARK 927      BINDING AFFINITY PREDICTED BY RF-SCORE:    0.00 PKD
ROOT
HETATM    1  C   UNL     1     -11.196  10.242  68.282  1.00  0.00    -0.295 C  
HETATM    2  C   UNL     1     -11.737  11.212  69.167  1.00  0.00    -0.408 C  
HETATM    3  C   UNL     1     -10.242  11.281  69.176  1.00  0.00    -0.123 C  
HETATM    4  C   UNL     1      -9.351  10.160  67.712  1.00  0.00    -0.153 C  
HETATM    5  C   UNL     1      -7.969   6.890  70.381  1.00  0.00    -0.114 C  
HETATM    6  C   UNL     1      -9.861  11.415  67.590  1.00  0.00    -0.189 C  
HETATM    7  C   UNL     1      -8.237  11.627  68.582  1.00  0.00    -0.110 C  
HETATM    8  C   UNL     1     -10.338  12.306  66.478  1.00  0.00    -0.250 C  
HETATM    9  C   UNL     1      -8.678   8.002  71.181  1.00  0.00    -0.149 C  
HETATM   10  C   UNL     1      -7.643   8.575  72.241  1.00  0.00    -0.107 C  
HETATM   11  C   UNL     1      -7.894  10.153  69.562  1.00  0.00    -0.162 C  
HETATM   12  O   UNL     1      -7.087   9.285  68.760  1.00  0.00    -0.070 OA 
HETATM   13  C   UNL     1      -9.145   9.227  70.275  1.00  0.00    -0.271 C  
HETATM   14  H   UNL     1      -6.906   8.509  69.276  1.00  0.00     0.000 HD 
HETATM   15  C   UNL     1     -10.500   8.887  69.342  1.00  0.00    -0.228 C  
HETATM   16  C   UNL     1     -11.600   8.353  70.262  1.00  0.00     0.016 C  
HETATM   17  C   UNL     1     -11.184   7.104  71.053  1.00  0.00    -0.298 C  
HETATM   18  C   UNL     1     -12.415   6.689  71.889  1.00  0.00    -0.334 C  
HETATM   19  C   UNL     1      -9.897   7.300  71.864  1.00  0.00    -0.180 C  
HETATM   20  C   UNL     1      -9.765   6.731  73.081  1.00  0.00    -0.189 C  
HETATM   21  C   UNL     1      -8.495   6.884  73.809  1.00  0.00    -0.130 C  
HETATM   22  O   UNL     1      -8.033   5.971  74.481  1.00  0.00    -0.102 OA 
HETATM   23  C   UNL     1      -7.888   8.240  73.703  1.00  0.00    -0.213 C  
ENDROOT
BRANCH   4  24
HETATM   24  C   UNL     1      -8.290  10.287  66.421  1.00  0.00    -0.132 C  
HETATM   25  C   UNL     1      -8.617   9.466  65.197  1.00  0.00    -0.188 C  
HETATM   26  O   UNL     1      -7.316  11.038  66.316  1.00  0.00    -0.139 OA 
ENDBRANCH   4  24
TORSDOF 1
ENDMDL
MODEL       66
REMARK 921   NORMALIZED FREE ENERGY PREDICTED BY IDOCK:   -4.58 KCAL/MOL
REMARK 922        TOTAL FREE ENERGY PREDICTED BY IDOCK:   -4.00 KCAL/MOL
REMARK 923 INTER-LIGAND FREE ENERGY PREDICTED BY IDOCK:   -4.95 KCAL/MOL
REMARK 924 INTRA-LIGAND FREE ENERGY PREDICTED BY IDOCK:    0.95 KCAL/MOL
REMARK 927      BINDING AFFINITY PREDICTED BY RF-SCORE:    0.00 PKD
ROOT
HETATM    1  C   UNL     1      -8.703  18.412  69.049  1.00  0.00    -0.058 C  
HETATM    2  C   UNL     1      -7.563  17.838  69.672  1.00  0.00     0.598 C  
HETATM    3  C   UNL     1      -7.572  17.516  68.210  1.00  0.00    -0.240 C  
HETATM    4  C   UNL     1      -8.982  18.546  67.141  1.00  0.00    -0.281 C  
HETATM    5  C   UNL     1     -11.786  15.140  66.632  1.00  0.00    -0.050 C  
HETATM    6  C   UNL     1      -7.745  18.981  67.501  1.00  0.00    -0.262 C  
HETATM    7  C   UNL     1      -7.443  17.708  66.104  1.00  0.00    -0.334 C  
HETATM    8  C   UNL     1      -7.045  20.301  67.659  1.00  0.00    -0.325 C  
HETATM    9  C   UNL     1     -10.513  14.707  67.389  1.00  0.00    -0.255 C  
HETATM   10  C   UNL     1      -9.814  13.557  66.546  1.00  0.00    -0.292 C  
HETATM   11  C   UNL     1      -8.732  16.449  66.101  1.00  0.00    -0.312 C  
HETATM   12  O   UNL     1      -9.771  16.902  65.227  1.00  0.00    -0.334 OA 
HETATM   13  C   UNL     1      -9.448  15.882  67.549  1.00  0.00    -0.219 C  
HETATM   14  H   UNL     1     -10.450  16.238  65.226  1.00  0.00     0.000 HD 
HETATM   15  C   UNL     1      -9.880  17.019  68.709  1.00  0.00    -0.278 C  
HETATM   16  C   UNL     1     -10.182  16.285  70.017  1.00  0.00     0.003 C  
HETATM   17  C   UNL     1     -11.288  15.227  69.886  1.00  0.00    -0.308 C  
HETATM   18  C   UNL     1     -11.482  14.622  71.293  1.00  0.00    -0.163 C  
HETATM   19  C   UNL     1     -11.016  14.199  68.780  1.00  0.00    -0.275 C  
HETATM   20  C   UNL     1     -11.363  12.906  68.951  1.00  0.00    -0.335 C  
HETATM   21  C   UNL     1     -11.148  11.955  67.849  1.00  0.00    -0.242 C  
HETATM   22  O   UNL     1     -11.948  11.058  67.618  1.00  0.00    -0.583 OA 
HETATM   23  C   UNL     1      -9.867  12.148  67.115  1.00  0.00    -0.205 C  
ENDROOT
BRANCH   4  24
HETATM   24  C   UNL     1      -9.145  19.579  65.831  1.00  0.00    -0.052 C  
HETATM   25  C   UNL     1     -10.553  19.959  65.445  1.00  0.00    -0.187 C  
HETATM   26  O   UNL     1      -8.247  20.137  65.194  1.00  0.00     0.034 OA 
ENDBRANCH   4  24
TORSDOF 1
ENDMDL
MODEL       67
REMARK 921   NORMALIZED FREE ENERGY PREDICTED BY IDOCK:   -4.45 KCAL/MOL
REMARK 922        TOTAL FREE ENERGY PREDICTED BY IDOCK:   -3.86 KCAL/MOL
REMARK 923 INTER-LIGAND FREE ENERGY PREDICTED BY IDOCK:   -4.35 KCAL/MOL
REMARK 924 INTRA-LIGAND FREE ENERGY PREDICTED BY IDOCK:    0.50 KCAL/MOL
REMARK 927      BINDING AFFINITY PREDICTED BY RF-SCORE:    0.00 PKD
ROOT
HETATM    1  C   UNL     1      -9.451   8.856  69.592  1.00  0.00    -0.168 C  
HETATM    2  C   UNL     1     -10.251   9.252  68.488  1.00  0.00    -0.225 C  
HETATM    3  C   UNL     1     -10.818   8.020  69.123  1.00  0.00    -0.038 C  
HETATM    4  C   UNL     1      -9.946   7.531  70.910  1.00  0.00    -0.181 C  
HETATM    5  C   UNL     1      -7.557   4.122  69.364  1.00  0.00    -0.054 C  
HETATM    6  C   UNL     1     -10.943   8.432  70.702  1.00  0.00    -0.266 C  
HETATM    7  C   UNL     1     -11.766   6.717  70.498  1.00  0.00    -0.453 C  
HETATM    8  C   UNL     1     -11.529   9.612  71.425  1.00  0.00    -0.455 C  
HETATM    9  C   UNL     1      -8.428   4.743  68.252  1.00  0.00    -0.100 C  
HETATM   10  C   UNL     1      -9.398   3.611  67.705  1.00  0.00    -0.246 C  
HETATM   11  C   UNL     1     -10.578   5.511  69.880  1.00  0.00    -0.317 C  
HETATM   12  O   UNL     1      -9.968   4.890  71.017  1.00  0.00    -0.189 OA 
HETATM   13  C   UNL     1      -9.347   5.937  68.769  1.00  0.00    -0.133 C  
HETATM   14  H   UNL     1      -9.342   4.254  70.692  1.00  0.00     0.000 HD 
HETATM   15  C   UNL     1      -8.498   7.361  69.046  1.00  0.00    -0.129 C  
HETATM   16  C   UNL     1      -7.702   7.703  67.785  1.00  0.00    -0.122 C  
HETATM   17  C   UNL     1      -6.734   6.593  67.351  1.00  0.00    -0.067 C  
HETATM   18  C   UNL     1      -5.999   7.121  66.098  1.00  0.00    -0.036 C  
HETATM   19  C   UNL     1      -7.415   5.231  67.165  1.00  0.00    -0.084 C  
HETATM   20  C   UNL     1      -7.025   4.403  66.173  1.00  0.00    -0.066 C  
HETATM   21  C   UNL     1      -7.653   3.077  66.058  1.00  0.00    -0.077 C  
HETATM   22  O   UNL     1      -7.005   2.094  65.724  1.00  0.00    -0.041 OA 
HETATM   23  C   UNL     1      -9.120   3.071  66.311  1.00  0.00    -0.150 C  
ENDROOT
BRANCH   4  24
HETATM   24  C   UNL     1     -10.315   7.245  72.519  1.00  0.00    -0.218 C  
HETATM   25  C   UNL     1      -9.302   7.710  73.536  1.00  0.00    -0.339 C  
HETATM   26  O   UNL     1     -11.359   6.774  72.981  1.00  0.00    -0.200 OA 
ENDBRANCH   4  24
TORSDOF 1
ENDMDL
MODEL       68
REMARK 921   NORMALIZED FREE ENERGY PREDICTED BY IDOCK:   -4.42 KCAL/MOL
REMARK 922        TOTAL FREE ENERGY PREDICTED BY IDOCK:   -3.83 KCAL/MOL
REMARK 923 INTER-LIGAND FREE ENERGY PREDICTED BY IDOCK:   -4.37 KCAL/MOL
REMARK 924 INTRA-LIGAND FREE ENERGY PREDICTED BY IDOCK:    0.54 KCAL/MOL
REMARK 927      BINDING AFFINITY PREDICTED BY RF-SCORE:    0.00 PKD
ROOT
HETATM    1  C   UNL     1     -10.809   7.171  71.575  1.00  0.00    -0.250 C  
HETATM    2  C   UNL     1     -11.945   6.535  71.007  1.00  0.00    -0.358 C  
HETATM    3  C   UNL     1     -10.723   5.696  70.797  1.00  0.00    -0.320 C  
HETATM    4  C   UNL     1      -9.084   6.341  71.841  1.00  0.00    -0.143 C  
HETATM    5  C   UNL     1      -6.953   8.093  68.361  1.00  0.00    -0.073 C  
HETATM    6  C   UNL     1     -10.096   5.559  72.302  1.00  0.00    -0.225 C  
HETATM    7  C   UNL     1      -9.067   4.424  71.155  1.00  0.00    -0.180 C  
HETATM    8  C   UNL     1     -10.671   5.177  73.637  1.00  0.00    -0.345 C  
HETATM    9  C   UNL     1      -8.279   7.434  67.930  1.00  0.00    -0.120 C  
HETATM   10  C   UNL     1      -7.937   6.292  66.879  1.00  0.00    -0.109 C  
HETATM   11  C   UNL     1      -8.289   5.384  69.843  1.00  0.00    -0.100 C  
HETATM   12  O   UNL     1      -6.999   5.786  70.314  1.00  0.00    -0.054 OA 
HETATM   13  C   UNL     1      -9.056   6.741  69.135  1.00  0.00    -0.138 C  
HETATM   14  H   UNL     1      -6.589   6.291  69.622  1.00  0.00     0.000 HD 
HETATM   15  C   UNL     1      -9.812   7.838  70.160  1.00  0.00    -0.184 C  
HETATM   16  C   UNL     1     -10.692   8.762  69.315  1.00  0.00    -0.166 C  
HETATM   17  C   UNL     1      -9.919   9.515  68.222  1.00  0.00    -0.184 C  
HETATM   18  C   UNL     1     -10.947  10.416  67.503  1.00  0.00    -0.358 C  
HETATM   19  C   UNL     1      -9.122   8.588  67.295  1.00  0.00    -0.152 C  
HETATM   20  C   UNL     1      -9.019   8.866  65.978  1.00  0.00    -0.235 C  
HETATM   21  C   UNL     1      -8.196   7.994  65.124  1.00  0.00    -0.144 C  
HETATM   22  O   UNL     1      -7.520   8.451  64.212  1.00  0.00    -0.098 OA 
HETATM   23  C   UNL     1      -8.322   6.542  65.430  1.00  0.00    -0.140 C  
ENDROOT
BRANCH   4  24
HETATM   24  C   UNL     1      -7.950   5.824  72.962  1.00  0.00    -0.107 C  
HETATM   25  C   UNL     1      -7.675   6.752  74.119  1.00  0.00    -0.112 C  
HETATM   26  O   UNL     1      -7.374   4.733  73.003  1.00  0.00    -0.078 OA 
ENDBRANCH   4  24
TORSDOF 1
ENDMDL
MODEL       69
REMARK 921   NORMALIZED FREE ENERGY PREDICTED BY IDOCK:   -4.41 KCAL/MOL
REMARK 922        TOTAL FREE ENERGY PREDICTED BY IDOCK:   -3.82 KCAL/MOL
REMARK 923 INTER-LIGAND FREE ENERGY PREDICTED BY IDOCK:   -4.38 KCAL/MOL
REMARK 924 INTRA-LIGAND FREE ENERGY PREDICTED BY IDOCK:    0.56 KCAL/MOL
REMARK 927      BINDING AFFINITY PREDICTED BY RF-SCORE:    0.00 PKD
ROOT
HETATM    1  C   UNL     1      -7.512   5.895  66.814  1.00  0.00    -0.087 C  
HETATM    2  C   UNL     1      -6.402   6.713  67.155  1.00  0.00    -0.041 C  
HETATM    3  C   UNL     1      -6.793   5.859  68.321  1.00  0.00    -0.067 C  
HETATM    4  C   UNL     1      -8.168   4.412  67.865  1.00  0.00    -0.095 C  
HETATM    5  C   UNL     1     -11.638   6.422  69.772  1.00  0.00    -0.397 C  
HETATM    6  C   UNL     1      -6.821   4.349  67.691  1.00  0.00    -0.055 C  
HETATM    7  C   UNL     1      -7.092   4.179  69.578  1.00  0.00    -0.049 C  
HETATM    8  C   UNL     1      -5.854   3.551  66.863  1.00  0.00    -0.023 C  
HETATM    9  C   UNL     1     -10.343   7.238  69.966  1.00  0.00    -0.222 C  
HETATM   10  C   UNL     1     -10.089   7.383  71.528  1.00  0.00    -0.197 C  
HETATM   11  C   UNL     1      -8.575   5.066  70.089  1.00  0.00    -0.098 C  
HETATM   12  O   UNL     1      -9.668   4.143  70.025  1.00  0.00    -0.198 OA 
HETATM   13  C   UNL     1      -9.057   6.531  69.348  1.00  0.00    -0.141 C  
HETATM   14  H   UNL     1     -10.450   4.610  70.295  1.00  0.00     0.000 HD 
HETATM   15  C   UNL     1      -8.988   6.622  67.671  1.00  0.00    -0.111 C  
HETATM   16  C   UNL     1      -9.138   8.088  67.259  1.00  0.00    -0.153 C  
HETATM   17  C   UNL     1     -10.435   8.738  67.764  1.00  0.00    -0.292 C  
HETATM   18  C   UNL     1     -10.433  10.187  67.230  1.00  0.00    -0.313 C  
HETATM   19  C   UNL     1     -10.622   8.617  69.282  1.00  0.00    -0.204 C  
HETATM   20  C   UNL     1     -11.174   9.630  69.984  1.00  0.00    -0.271 C  
HETATM   21  C   UNL     1     -11.400   9.461  71.428  1.00  0.00    -0.381 C  
HETATM   22  O   UNL     1     -12.394   9.921  71.975  1.00  0.00    -0.348 OA 
HETATM   23  C   UNL     1     -10.298   8.758  72.142  1.00  0.00    -0.378 C  
ENDROOT
BRANCH   4  24
HETATM   24  C   UNL     1      -8.404   2.753  67.930  1.00  0.00    -0.080 C  
HETATM   25  C   UNL     1      -8.888   2.092  66.663  1.00  0.00    -0.132 C  
HETATM   26  O   UNL     1      -8.146   1.991  68.866  1.00  0.00    -0.048 OA 
ENDBRANCH   4  24
TORSDOF 1
ENDMDL
MODEL       70
REMARK 921   NORMALIZED FREE ENERGY PREDICTED BY IDOCK:   -4.40 KCAL/MOL
REMARK 922        TOTAL FREE ENERGY PREDICTED BY IDOCK:   -3.81 KCAL/MOL
REMARK 923 INTER-LIGAND FREE ENERGY PREDICTED BY IDOCK:   -5.03 KCAL/MOL
REMARK 924 INTRA-LIGAND FREE ENERGY PREDICTED BY IDOCK:    1.22 KCAL/MOL
REMARK 927      BINDING AFFINITY PREDICTED BY RF-SCORE:    0.00 PKD
ROOT
HETATM    1  C   UNL     1     -11.611   6.766  69.982  1.00  0.00    -0.367 C  
HETATM    2  C   UNL     1     -10.989   5.743  70.747  1.00  0.00    -0.312 C  
HETATM    3  C   UNL     1     -10.179   7.000  70.808  1.00  0.00    -0.208 C  
HETATM    4  C   UNL     1     -11.123   8.635  70.017  1.00  0.00    -0.161 C  
HETATM    5  C   UNL     1      -8.764   8.783  66.257  1.00  0.00    -0.169 C  
HETATM    6  C   UNL     1     -11.269   8.129  71.271  1.00  0.00    -0.297 C  
HETATM    7  C   UNL     1      -9.550   8.971  71.266  1.00  0.00    -0.361 C  
HETATM    8  C   UNL     1     -12.284   8.203  72.376  1.00  0.00    -0.374 C  
HETATM    9  C   UNL     1      -8.276   7.646  67.179  1.00  0.00    -0.118 C  
HETATM   10  C   UNL     1      -6.747   7.914  67.514  1.00  0.00    -0.069 C  
HETATM   11  C   UNL     1      -8.820   8.915  69.619  1.00  0.00    -0.142 C  
HETATM   12  O   UNL     1      -9.214  10.110  68.936  1.00  0.00    -0.154 OA 
HETATM   13  C   UNL     1      -9.055   7.586  68.567  1.00  0.00    -0.134 C  
HETATM   14  H   UNL     1      -8.829  10.081  68.068  1.00  0.00     0.000 HD 
HETATM   15  C   UNL     1     -10.607   6.955  68.434  1.00  0.00    -0.249 C  
HETATM   16  C   UNL     1     -10.521   5.603  67.721  1.00  0.00    -0.275 C  
HETATM   17  C   UNL     1      -9.868   5.683  66.333  1.00  0.00    -0.184 C  
HETATM   18  C   UNL     1      -9.899   4.250  65.755  1.00  0.00    -0.228 C  
HETATM   19  C   UNL     1      -8.479   6.334  66.352  1.00  0.00    -0.125 C  
HETATM   20  C   UNL     1      -7.501   5.878  65.541  1.00  0.00    -0.082 C  
HETATM   21  C   UNL     1      -6.199   6.564  65.534  1.00  0.00    -0.034 C  
HETATM   22  O   UNL     1      -5.560   6.707  64.500  1.00  0.00    -0.029 OA 
HETATM   23  C   UNL     1      -5.723   6.986  66.881  1.00  0.00    -0.022 C  
ENDROOT
BRANCH   4  24
HETATM   24  C   UNL     1     -11.611  10.190  70.408  1.00  0.00    -0.316 C  
HETATM   25  C   UNL     1     -11.921  11.110  69.253  1.00  0.00    -0.421 C  
HETATM   26  O   UNL     1     -11.832  10.651  71.532  1.00  0.00    -0.199 OA 
ENDBRANCH   4  24
TORSDOF 1
ENDMDL
MODEL       71
REMARK 921   NORMALIZED FREE ENERGY PREDICTED BY IDOCK:   -4.40 KCAL/MOL
REMARK 922        TOTAL FREE ENERGY PREDICTED BY IDOCK:   -3.80 KCAL/MOL
REMARK 923 INTER-LIGAND FREE ENERGY PREDICTED BY IDOCK:   -4.50 KCAL/MOL
REMARK 924 INTRA-LIGAND FREE ENERGY PREDICTED BY IDOCK:    0.69 KCAL/MOL
REMARK 927      BINDING AFFINITY PREDICTED BY RF-SCORE:    0.00 PKD
ROOT
HETATM    1  C   UNL     1     -10.904  11.038  66.878  1.00  0.00    -0.324 C  
HETATM    2  C   UNL     1      -9.945  11.551  67.792  1.00  0.00    -0.195 C  
HETATM    3  C   UNL     1      -9.761  12.175  66.443  1.00  0.00    -0.243 C  
HETATM    4  C   UNL     1     -11.272  11.764  65.125  1.00  0.00    -0.311 C  
HETATM    5  C   UNL     1      -9.003   8.823  62.690  1.00  0.00     0.144 C  
HETATM    6  C   UNL     1     -11.254  12.733  66.078  1.00  0.00    -0.335 C  
HETATM    7  C   UNL     1     -10.068  13.354  64.709  1.00  0.00    -0.262 C  
HETATM    8  C   UNL     1     -12.262  13.569  66.817  1.00  0.00    -0.392 C  
HETATM    9  C   UNL     1      -8.125   9.417  63.811  1.00  0.00    -0.155 C  
HETATM   10  C   UNL     1      -6.881  10.130  63.127  1.00  0.00    -0.131 C  
HETATM   11  C   UNL     1      -9.296  11.964  63.860  1.00  0.00     0.145 C  
HETATM   12  O   UNL     1     -10.128  11.628  62.745  1.00  0.00    -0.615 OA 
HETATM   13  C   UNL     1      -8.877  10.520  64.679  1.00  0.00    -0.211 C  
HETATM   14  H   UNL     1      -9.721  10.896  62.297  1.00  0.00     0.000 HD 
HETATM   15  C   UNL     1      -9.996   9.874  65.754  1.00  0.00    -0.347 C  
HETATM   16  C   UNL     1      -9.296   8.805  66.596  1.00  0.00    -0.242 C  
HETATM   17  C   UNL     1      -8.666   7.681  65.760  1.00  0.00    -0.151 C  
HETATM   18  C   UNL     1      -8.045   6.686  66.765  1.00  0.00    -0.113 C  
HETATM   19  C   UNL     1      -7.697   8.194  64.687  1.00  0.00    -0.118 C  
HETATM   20  C   UNL     1      -6.575   7.502  64.395  1.00  0.00    -0.048 C  
HETATM   21  C   UNL     1      -5.696   7.984  63.317  1.00  0.00    -0.059 C  
HETATM   22  O   UNL     1      -5.126   7.205  62.565  1.00  0.00    -0.031 OA 
HETATM   23  C   UNL     1      -5.524   9.463  63.283  1.00  0.00    -0.075 C  
ENDROOT
BRANCH   4  24
HETATM   24  C   UNL     1     -12.403  12.517  64.143  1.00  0.00    -0.462 C  
HETATM   25  C   UNL     1     -13.519  11.650  63.614  1.00  0.00     0.729 C  
HETATM   26  O   UNL     1     -12.483  13.718  63.869  1.00  0.00    -0.695 OA 
ENDBRANCH   4  24
TORSDOF 1
ENDMDL
MODEL       72
REMARK 921   NORMALIZED FREE ENERGY PREDICTED BY IDOCK:   -4.33 KCAL/MOL
REMARK 922        TOTAL FREE ENERGY PREDICTED BY IDOCK:   -3.73 KCAL/MOL
REMARK 923 INTER-LIGAND FREE ENERGY PREDICTED BY IDOCK:   -4.25 KCAL/MOL
REMARK 924 INTRA-LIGAND FREE ENERGY PREDICTED BY IDOCK:    0.51 KCAL/MOL
REMARK 927      BINDING AFFINITY PREDICTED BY RF-SCORE:    0.00 PKD
ROOT
HETATM    1  C   UNL     1      -9.644   5.884  69.260  1.00  0.00    -0.172 C  
HETATM    2  C   UNL     1      -8.395   5.224  69.112  1.00  0.00    -0.091 C  
HETATM    3  C   UNL     1      -8.346   6.172  70.270  1.00  0.00    -0.125 C  
HETATM    4  C   UNL     1     -10.170   6.945  70.788  1.00  0.00    -0.212 C  
HETATM    5  C   UNL     1      -9.490  10.982  69.065  1.00  0.00    -0.123 C  
HETATM    6  C   UNL     1      -9.649   5.746  71.162  1.00  0.00    -0.201 C  
HETATM    7  C   UNL     1      -8.677   7.052  72.169  1.00  0.00    -0.133 C  
HETATM    8  C   UNL     1     -10.168   4.436  71.685  1.00  0.00    -0.186 C  
HETATM    9  C   UNL     1      -8.244  10.087  68.900  1.00  0.00    -0.121 C  
HETATM   10  C   UNL     1      -7.035  10.794  69.649  1.00  0.00    -0.134 C  
HETATM   11  C   UNL     1      -8.565   8.603  71.257  1.00  0.00    -0.187 C  
HETATM   12  O   UNL     1      -9.690   9.403  71.635  1.00  0.00    -0.241 OA 
HETATM   13  C   UNL     1      -8.417   8.644  69.553  1.00  0.00    -0.129 C  
HETATM   14  H   UNL     1      -9.631  10.221  71.155  1.00  0.00     0.000 HD 
HETATM   15  C   UNL     1      -9.402   7.620  68.654  1.00  0.00    -0.147 C  
HETATM   16  C   UNL     1      -8.878   7.583  67.217  1.00  0.00    -0.124 C  
HETATM   17  C   UNL     1      -8.816   8.966  66.551  1.00  0.00    -0.160 C  
HETATM   18  C   UNL     1      -8.306   8.734  65.111  1.00  0.00    -0.176 C  
HETATM   19  C   UNL     1      -8.010   9.992  67.357  1.00  0.00    -0.106 C  
HETATM   20  C   UNL     1      -7.240  10.903  66.724  1.00  0.00    -0.134 C  
HETATM   21  C   UNL     1      -6.528  11.916  67.521  1.00  0.00    -0.111 C  
HETATM   22  O   UNL     1      -6.401  13.065  67.121  1.00  0.00    -0.257 OA 
HETATM   23  C   UNL     1      -5.938  11.395  68.785  1.00  0.00    -0.043 C  
ENDROOT
BRANCH   4  24
HETATM   24  C   UNL     1     -11.219   7.084  72.087  1.00  0.00    -0.256 C  
HETATM   25  C   UNL     1     -12.692   7.129  71.761  1.00  0.00    -0.374 C  
HETATM   26  O   UNL     1     -10.938   7.067  73.289  1.00  0.00    -0.303 OA 
ENDBRANCH   4  24
TORSDOF 1
ENDMDL
MODEL       73
REMARK 921   NORMALIZED FREE ENERGY PREDICTED BY IDOCK:   -4.27 KCAL/MOL
REMARK 922        TOTAL FREE ENERGY PREDICTED BY IDOCK:   -3.67 KCAL/MOL
REMARK 923 INTER-LIGAND FREE ENERGY PREDICTED BY IDOCK:   -4.19 KCAL/MOL
REMARK 924 INTRA-LIGAND FREE ENERGY PREDICTED BY IDOCK:    0.52 KCAL/MOL
REMARK 927      BINDING AFFINITY PREDICTED BY RF-SCORE:    0.00 PKD
ROOT
HETATM    1  C   UNL     1      -9.646   8.981  66.312  1.00  0.00    -0.327 C  
HETATM    2  C   UNL     1      -9.039  10.260  66.425  1.00  0.00    -0.174 C  
HETATM    3  C   UNL     1      -8.046   9.185  66.743  1.00  0.00    -0.111 C  
HETATM    4  C   UNL     1      -8.701   7.295  66.308  1.00  0.00    -0.162 C  
HETATM    5  C   UNL     1      -9.483   6.076  70.506  1.00  0.00    -0.191 C  
HETATM    6  C   UNL     1      -8.142   8.188  65.449  1.00  0.00    -0.130 C  
HETATM    7  C   UNL     1      -6.696   7.565  66.537  1.00  0.00    -0.058 C  
HETATM    8  C   UNL     1      -8.097   8.407  63.963  1.00  0.00    -0.142 C  
HETATM    9  C   UNL     1      -8.902   7.503  70.438  1.00  0.00    -0.145 C  
HETATM   10  C   UNL     1      -7.545   7.515  71.263  1.00  0.00    -0.081 C  
HETATM   11  C   UNL     1      -7.285   7.115  68.180  1.00  0.00    -0.095 C  
HETATM   12  O   UNL     1      -7.628   5.725  68.145  1.00  0.00    -0.083 OA 
HETATM   13  C   UNL     1      -8.551   7.968  68.955  1.00  0.00    -0.131 C  
HETATM   14  H   UNL     1      -7.939   5.488  69.011  1.00  0.00     0.000 HD 
HETATM   15  C   UNL     1      -9.906   8.362  68.042  1.00  0.00    -0.202 C  
HETATM   16  C   UNL     1     -10.735   9.384  68.823  1.00  0.00    -0.200 C  
HETATM   17  C   UNL     1     -11.167   8.890  70.211  1.00  0.00    -0.219 C  
HETATM   18  C   UNL     1     -12.015  10.022  70.832  1.00  0.00    -0.453 C  
HETATM   19  C   UNL     1      -9.993   8.421  71.081  1.00  0.00    -0.245 C  
HETATM   20  C   UNL     1      -9.992   8.658  72.410  1.00  0.00    -0.320 C  
HETATM   21  C   UNL     1      -8.883   8.140  73.228  1.00  0.00    -0.256 C  
HETATM   22  O   UNL     1      -9.074   7.708  74.357  1.00  0.00    -0.166 OA 
HETATM   23  C   UNL     1      -7.543   8.259  72.589  1.00  0.00    -0.160 C  
ENDROOT
BRANCH   4  24
HETATM   24  C   UNL     1      -8.295   5.933  65.418  1.00  0.00    -0.149 C  
HETATM   25  C   UNL     1      -9.439   5.072  64.945  1.00  0.00     0.069 C  
HETATM   26  O   UNL     1      -7.174   5.595  65.029  1.00  0.00    -0.062 OA 
ENDBRANCH   4  24
TORSDOF 1
ENDMDL
MODEL       74
REMARK 921   NORMALIZED FREE ENERGY PREDICTED BY IDOCK:   -4.25 KCAL/MOL
REMARK 922        TOTAL FREE ENERGY PREDICTED BY IDOCK:   -3.64 KCAL/MOL
REMARK 923 INTER-LIGAND FREE ENERGY PREDICTED BY IDOCK:   -4.15 KCAL/MOL
REMARK 924 INTRA-LIGAND FREE ENERGY PREDICTED BY IDOCK:    0.51 KCAL/MOL
REMARK 927      BINDING AFFINITY PREDICTED BY RF-SCORE:    0.00 PKD
ROOT
HETATM    1  C   UNL     1      -6.413   5.801  70.579  1.00  0.00    -0.036 C  
HETATM    2  C   UNL     1      -5.881   6.509  71.690  1.00  0.00    -0.036 C  
HETATM    3  C   UNL     1      -6.998   5.614  72.132  1.00  0.00    -0.081 C  
HETATM    4  C   UNL     1      -7.634   4.307  70.691  1.00  0.00    -0.052 C  
HETATM    5  C   UNL     1     -11.404   6.449  69.729  1.00  0.00    -0.494 C  
HETATM    6  C   UNL     1      -6.574   4.154  71.527  1.00  0.00    -0.026 C  
HETATM    7  C   UNL     1      -8.120   3.885  72.623  1.00  0.00    -0.089 C  
HETATM    8  C   UNL     1      -5.311   3.339  71.567  1.00  0.00    -0.004 C  
HETATM    9  C   UNL     1     -10.638   7.151  70.870  1.00  0.00    -0.238 C  
HETATM   10  C   UNL     1     -11.583   7.175  72.146  1.00  0.00    -0.317 C  
HETATM   11  C   UNL     1      -9.513   4.847  72.004  1.00  0.00    -0.143 C  
HETATM   12  O   UNL     1     -10.232   4.016  71.087  1.00  0.00    -0.102 OA 
HETATM   13  C   UNL     1      -9.304   6.389  71.291  1.00  0.00    -0.162 C  
HETATM   14  H   UNL     1     -10.966   4.522  70.761  1.00  0.00     0.000 HD 
HETATM   15  C   UNL     1      -8.050   6.581  70.188  1.00  0.00    -0.121 C  
HETATM   16  C   UNL     1      -7.848   8.078  69.941  1.00  0.00    -0.102 C  
HETATM   17  C   UNL     1      -9.109   8.790  69.429  1.00  0.00    -0.145 C  
HETATM   18  C   UNL     1      -8.714  10.267  69.203  1.00  0.00    -0.176 C  
HETATM   19  C   UNL     1     -10.331   8.587  70.333  1.00  0.00    -0.222 C  
HETATM   20  C   UNL     1     -11.212   9.592  70.524  1.00  0.00    -0.359 C  
HETATM   21  C   UNL     1     -12.409   9.348  71.346  1.00  0.00    -0.357 C  
HETATM   22  O   UNL     1     -13.489   9.847  71.059  1.00  0.00    -0.363 OA 
HETATM   23  C   UNL     1     -12.161   8.520  72.558  1.00  0.00    -0.395 C  
ENDROOT
BRANCH   4  24
HETATM   24  C   UNL     1      -7.856   2.671  70.403  1.00  0.00    -0.042 C  
HETATM   25  C   UNL     1      -7.453   2.166  69.039  1.00  0.00    -0.043 C  
HETATM   26  O   UNL     1      -8.230   1.809  71.203  1.00  0.00    -0.046 OA 
ENDBRANCH   4  24
TORSDOF 1
ENDMDL
MODEL       75
REMARK 921   NORMALIZED FREE ENERGY PREDICTED BY IDOCK:   -4.23 KCAL/MOL
REMARK 922        TOTAL FREE ENERGY PREDICTED BY IDOCK:   -3.63 KCAL/MOL
REMARK 923 INTER-LIGAND FREE ENERGY PREDICTED BY IDOCK:   -4.25 KCAL/MOL
REMARK 924 INTRA-LIGAND FREE ENERGY PREDICTED BY IDOCK:    0.61 KCAL/MOL
REMARK 927      BINDING AFFINITY PREDICTED BY RF-SCORE:    0.00 PKD
ROOT
HETATM    1  C   UNL     1      -8.025   2.916  67.866  1.00  0.00    -0.068 C  
HETATM    2  C   UNL     1      -8.968   1.897  68.163  1.00  0.00    -0.177 C  
HETATM    3  C   UNL     1      -9.640   3.037  67.464  1.00  0.00    -0.059 C  
HETATM    4  C   UNL     1      -8.342   4.423  66.697  1.00  0.00    -0.105 C  
HETATM    5  C   UNL     1      -9.068   7.527  69.789  1.00  0.00    -0.140 C  
HETATM    6  C   UNL     1      -8.725   3.251  66.124  1.00  0.00    -0.128 C  
HETATM    7  C   UNL     1     -10.242   4.408  65.964  1.00  0.00    -0.246 C  
HETATM    8  C   UNL     1      -8.207   2.324  65.061  1.00  0.00    -0.081 C  
HETATM    9  C   UNL     1      -9.957   6.288  70.022  1.00  0.00    -0.208 C  
HETATM   10  C   UNL     1     -11.473   6.760  69.965  1.00  0.00    -0.390 C  
HETATM   11  C   UNL     1     -10.290   5.585  67.328  1.00  0.00    -0.236 C  
HETATM   12  O   UNL     1      -9.573   6.752  66.911  1.00  0.00    -0.147 OA 
HETATM   13  C   UNL     1      -9.775   5.166  68.906  1.00  0.00    -0.220 C  
HETATM   14  H   UNL     1      -9.599   7.373  67.630  1.00  0.00     0.000 HD 
HETATM   15  C   UNL     1      -8.343   4.299  69.060  1.00  0.00    -0.088 C  
HETATM   16  C   UNL     1      -8.256   3.760  70.490  1.00  0.00    -0.072 C  
HETATM   17  C   UNL     1      -8.321   4.856  71.563  1.00  0.00    -0.113 C  
HETATM   18  C   UNL     1      -8.182   4.141  72.925  1.00  0.00    -0.093 C  
HETATM   19  C   UNL     1      -9.556   5.757  71.437  1.00  0.00    -0.188 C  
HETATM   20  C   UNL     1     -10.182   6.214  72.542  1.00  0.00    -0.206 C  
HETATM   21  C   UNL     1     -11.326   7.127  72.391  1.00  0.00    -0.274 C  
HETATM   22  O   UNL     1     -11.508   8.053  73.170  1.00  0.00    -0.299 OA 
HETATM   23  C   UNL     1     -12.246   6.777  71.273  1.00  0.00    -0.415 C  
ENDROOT
BRANCH   4  24
HETATM   24  C   UNL     1      -7.922   5.179  65.262  1.00  0.00    -0.108 C  
HETATM   25  C   UNL     1      -6.553   5.814  65.211  1.00  0.00    -0.043 C  
HETATM   26  O   UNL     1      -8.563   5.207  64.208  1.00  0.00    -0.140 OA 
ENDBRANCH   4  24
TORSDOF 1
ENDMDL
MODEL       76
REMARK 921   NORMALIZED FREE ENERGY PREDICTED BY IDOCK:   -4.20 KCAL/MOL
REMARK 922        TOTAL FREE ENERGY PREDICTED BY IDOCK:   -3.60 KCAL/MOL
REMARK 923 INTER-LIGAND FREE ENERGY PREDICTED BY IDOCK:   -4.21 KCAL/MOL
REMARK 924 INTRA-LIGAND FREE ENERGY PREDICTED BY IDOCK:    0.62 KCAL/MOL
REMARK 927      BINDING AFFINITY PREDICTED BY RF-SCORE:    0.00 PKD
ROOT
HETATM    1  C   UNL     1      -6.647  17.923  68.847  1.00  0.00    -0.241 C  
HETATM    2  C   UNL     1      -5.415  17.839  68.145  1.00  0.00    -0.149 C  
HETATM    3  C   UNL     1      -6.557  17.539  67.225  1.00  0.00    -0.184 C  
HETATM    4  C   UNL     1      -8.397  17.937  68.028  1.00  0.00    -0.258 C  
HETATM    5  C   UNL     1      -9.522  13.706  68.778  1.00  0.00     0.010 C  
HETATM    6  C   UNL     1      -7.554  18.819  67.429  1.00  0.00    -0.239 C  
HETATM    7  C   UNL     1      -8.273  17.765  66.002  1.00  0.00    -0.109 C  
HETATM    8  C   UNL     1      -7.351  20.308  67.411  1.00  0.00    -0.343 C  
HETATM    9  C   UNL     1      -8.142  13.805  68.096  1.00  0.00    -0.155 C  
HETATM   10  C   UNL     1      -8.223  13.018  66.718  1.00  0.00     0.108 C  
HETATM   11  C   UNL     1      -8.666  16.103  66.576  1.00  0.00    -0.302 C  
HETATM   12  O   UNL     1     -10.027  16.114  67.021  1.00  0.00    -0.247 OA 
HETATM   13  C   UNL     1      -7.716  15.302  67.754  1.00  0.00    -0.164 C  
HETATM   14  H   UNL     1     -10.234  15.238  67.323  1.00  0.00     0.000 HD 
HETATM   15  C   UNL     1      -7.231  16.181  69.102  1.00  0.00    -0.212 C  
HETATM   16  C   UNL     1      -6.145  15.387  69.832  1.00  0.00    -0.152 C  
HETATM   17  C   UNL     1      -6.595  13.982  70.259  1.00  0.00     0.043 C  
HETATM   18  C   UNL     1      -5.399  13.349  71.004  1.00  0.00    -0.182 C  
HETATM   19  C   UNL     1      -7.142  13.141  69.098  1.00  0.00     0.021 C  
HETATM   20  C   UNL     1      -6.895  11.815  69.042  1.00  0.00    -0.106 C  
HETATM   21  C   UNL     1      -7.486  11.023  67.951  1.00  0.00    -0.093 C  
HETATM   22  O   UNL     1      -7.894   9.885  68.141  1.00  0.00    -0.085 OA 
HETATM   23  C   UNL     1      -7.471  11.700  66.625  1.00  0.00    -0.037 C  
ENDROOT
BRANCH   4  24
HETATM   24  C   UNL     1      -9.792  18.823  67.747  1.00  0.00    -0.333 C  
HETATM   25  C   UNL     1     -10.245  19.736  68.860  1.00  0.00    -0.418 C  
HETATM   26  O   UNL     1     -10.448  18.886  66.704  1.00  0.00    -0.386 OA 
ENDBRANCH   4  24
TORSDOF 1
ENDMDL
MODEL       77
REMARK 921   NORMALIZED FREE ENERGY PREDICTED BY IDOCK:   -4.18 KCAL/MOL
REMARK 922        TOTAL FREE ENERGY PREDICTED BY IDOCK:   -3.58 KCAL/MOL
REMARK 923 INTER-LIGAND FREE ENERGY PREDICTED BY IDOCK:   -4.10 KCAL/MOL
REMARK 924 INTRA-LIGAND FREE ENERGY PREDICTED BY IDOCK:    0.52 KCAL/MOL
REMARK 927      BINDING AFFINITY PREDICTED BY RF-SCORE:    0.00 PKD
ROOT
HETATM    1  C   UNL     1     -11.050  13.532  69.325  1.00  0.00    -0.230 C  
HETATM    2  C   UNL     1     -12.420  13.852  69.519  1.00  0.00    -0.141 C  
HETATM    3  C   UNL     1     -12.130  13.676  68.060  1.00  0.00    -0.309 C  
HETATM    4  C   UNL     1     -10.275  12.903  67.670  1.00  0.00    -0.220 C  
HETATM    5  C   UNL     1      -8.446  16.709  66.295  1.00  0.00    -0.355 C  
HETATM    6  C   UNL     1     -11.401  12.212  67.994  1.00  0.00    -0.353 C  
HETATM    7  C   UNL     1     -11.670  12.793  66.190  1.00  0.00    -0.458 C  
HETATM    8  C   UNL     1     -11.741  10.856  68.544  1.00  0.00    -0.307 C  
HETATM    9  C   UNL     1      -9.936  16.900  66.646  1.00  0.00    -0.302 C  
HETATM   10  C   UNL     1     -10.681  17.414  65.341  1.00  0.00    -0.040 C  
HETATM   11  C   UNL     1     -10.806  14.345  65.886  1.00  0.00    -0.304 C  
HETATM   12  O   UNL     1      -9.498  14.018  65.403  1.00  0.00    -0.533 OA 
HETATM   13  C   UNL     1     -10.653  15.550  67.093  1.00  0.00    -0.300 C  
HETATM   14  H   UNL     1      -9.042  14.836  65.242  1.00  0.00     0.000 HD 
HETATM   15  C   UNL     1     -10.241  15.057  68.646  1.00  0.00    -0.231 C  
HETATM   16  C   UNL     1     -10.484  16.225  69.604  1.00  0.00    -0.294 C  
HETATM   17  C   UNL     1      -9.703  17.495  69.234  1.00  0.00    -0.005 C  
HETATM   18  C   UNL     1     -10.038  18.544  70.318  1.00  0.00     1.461 C  
HETATM   19  C   UNL     1      -9.952  17.962  67.794  1.00  0.00    -0.331 C  
HETATM   20  C   UNL     1     -10.017  19.279  67.507  1.00  0.00    -0.460 C  
HETATM   21  C   UNL     1     -10.193  19.699  66.107  1.00  0.00    -0.508 C  
HETATM   22  O   UNL     1      -9.630  20.691  65.665  1.00  0.00     0.062 OA 
HETATM   23  C   UNL     1     -11.149  18.860  65.332  1.00  0.00     0.585 C  
ENDROOT
BRANCH   4  24
HETATM   24  C   UNL     1      -9.519  11.628  66.887  1.00  0.00    -0.185 C  
HETATM   25  C   UNL     1      -8.196  11.178  67.456  1.00  0.00    -0.119 C  
HETATM   26  O   UNL     1      -9.955  10.953  65.950  1.00  0.00    -0.223 OA 
ENDBRANCH   4  24
TORSDOF 1
ENDMDL
MODEL       78
REMARK 921   NORMALIZED FREE ENERGY PREDICTED BY IDOCK:   -4.16 KCAL/MOL
REMARK 922        TOTAL FREE ENERGY PREDICTED BY IDOCK:   -3.55 KCAL/MOL
REMARK 923 INTER-LIGAND FREE ENERGY PREDICTED BY IDOCK:   -4.06 KCAL/MOL
REMARK 924 INTRA-LIGAND FREE ENERGY PREDICTED BY IDOCK:    0.50 KCAL/MOL
REMARK 927      BINDING AFFINITY PREDICTED BY RF-SCORE:    0.00 PKD
ROOT
HETATM    1  C   UNL     1      -6.474   8.406  69.577  1.00  0.00    -0.040 C  
HETATM    2  C   UNL     1      -6.592   8.863  70.917  1.00  0.00    -0.061 C  
HETATM    3  C   UNL     1      -7.866   8.209  70.479  1.00  0.00    -0.087 C  
HETATM    4  C   UNL     1      -7.722   7.228  68.688  1.00  0.00    -0.120 C  
HETATM    5  C   UNL     1      -9.921  10.259  66.300  1.00  0.00    -0.295 C  
HETATM    6  C   UNL     1      -7.370   6.756  69.914  1.00  0.00    -0.089 C  
HETATM    7  C   UNL     1      -9.284   6.744  69.903  1.00  0.00    -0.147 C  
HETATM    8  C   UNL     1      -6.484   5.674  70.464  1.00  0.00    -0.035 C  
HETATM    9  C   UNL     1      -9.867  10.653  67.790  1.00  0.00    -0.187 C  
HETATM   10  C   UNL     1     -11.362  10.771  68.316  1.00  0.00    -0.376 C  
HETATM   11  C   UNL     1      -9.921   8.055  68.842  1.00  0.00    -0.195 C  
HETATM   12  O   UNL     1     -10.083   7.503  67.531  1.00  0.00    -0.168 OA 
HETATM   13  C   UNL     1      -9.137   9.570  68.701  1.00  0.00    -0.132 C  
HETATM   14  H   UNL     1     -10.420   8.193  66.972  1.00  0.00     0.000 HD 
HETATM   15  C   UNL     1      -7.464   9.575  68.530  1.00  0.00    -0.080 C  
HETATM   16  C   UNL     1      -6.959  11.002  68.754  1.00  0.00    -0.081 C  
HETATM   17  C   UNL     1      -7.585  12.030  67.799  1.00  0.00    -0.130 C  
HETATM   18  C   UNL     1      -6.939  13.391  68.141  1.00  0.00    -0.116 C  
HETATM   19  C   UNL     1      -9.119  12.026  67.824  1.00  0.00    -0.187 C  
HETATM   20  C   UNL     1      -9.805  13.183  67.708  1.00  0.00    -0.228 C  
HETATM   21  C   UNL     1     -11.276  13.142  67.671  1.00  0.00    -0.282 C  
HETATM   22  O   UNL     1     -11.915  13.900  66.954  1.00  0.00    -0.396 OA 
HETATM   23  C   UNL     1     -11.885  12.166  68.617  1.00  0.00    -0.358 C  
ENDROOT
BRANCH   4  24
HETATM   24  C   UNL     1      -7.953   5.722  67.991  1.00  0.00    -0.101 C  
HETATM   25  C   UNL     1      -6.925   5.283  66.978  1.00  0.00    -0.065 C  
HETATM   26  O   UNL     1      -8.819   4.887  68.269  1.00  0.00    -0.101 OA 
ENDBRANCH   4  24
TORSDOF 1
ENDMDL
MODEL       79
REMARK 921   NORMALIZED FREE ENERGY PREDICTED BY IDOCK:   -4.16 KCAL/MOL
REMARK 922        TOTAL FREE ENERGY PREDICTED BY IDOCK:   -3.55 KCAL/MOL
REMARK 923 INTER-LIGAND FREE ENERGY PREDICTED BY IDOCK:   -4.05 KCAL/MOL
REMARK 924 INTRA-LIGAND FREE ENERGY PREDICTED BY IDOCK:    0.50 KCAL/MOL
REMARK 927      BINDING AFFINITY PREDICTED BY RF-SCORE:    0.00 PKD
ROOT
HETATM    1  C   UNL     1     -10.234   7.586  71.063  1.00  0.00    -0.194 C  
HETATM    2  C   UNL     1     -11.614   7.413  70.774  1.00  0.00    -0.317 C  
HETATM    3  C   UNL     1     -10.959   6.083  70.989  1.00  0.00    -0.350 C  
HETATM    4  C   UNL     1      -9.053   6.207  71.724  1.00  0.00    -0.145 C  
HETATM    5  C   UNL     1      -7.000   5.198  67.917  1.00  0.00    -0.062 C  
HETATM    6  C   UNL     1     -10.212   6.260  72.433  1.00  0.00    -0.208 C  
HETATM    7  C   UNL     1     -10.022   4.426  71.919  1.00  0.00    -0.258 C  
HETATM    8  C   UNL     1     -10.656   6.757  73.780  1.00  0.00    -0.323 C  
HETATM    9  C   UNL     1      -8.534   5.152  67.755  1.00  0.00    -0.104 C  
HETATM   10  C   UNL     1      -8.931   3.682  67.303  1.00  0.00    -0.160 C  
HETATM   11  C   UNL     1      -9.136   4.294  70.355  1.00  0.00    -0.106 C  
HETATM   12  O   UNL     1      -7.743   4.171  70.662  1.00  0.00    -0.047 OA 
HETATM   13  C   UNL     1      -9.318   5.453  69.108  1.00  0.00    -0.158 C  
HETATM   14  H   UNL     1      -7.276   4.101  69.837  1.00  0.00     0.000 HD 
HETATM   15  C   UNL     1      -9.306   7.077  69.539  1.00  0.00    -0.148 C  
HETATM   16  C   UNL     1      -9.806   7.897  68.348  1.00  0.00    -0.185 C  
HETATM   17  C   UNL     1      -8.979   7.690  67.070  1.00  0.00    -0.148 C  
HETATM   18  C   UNL     1      -9.597   8.612  65.996  1.00  0.00    -0.265 C  
HETATM   19  C   UNL     1      -8.861   6.217  66.657  1.00  0.00    -0.127 C  
HETATM   20  C   UNL     1      -8.874   5.873  65.351  1.00  0.00    -0.071 C  
HETATM   21  C   UNL     1      -8.694   4.459  64.982  1.00  0.00    -0.133 C  
HETATM   22  O   UNL     1      -8.055   4.137  63.990  1.00  0.00    -0.088 OA 
HETATM   23  C   UNL     1      -9.407   3.499  65.871  1.00  0.00    -0.159 C  
ENDROOT
BRANCH   4  24
HETATM   24  C   UNL     1      -8.100   5.691  73.003  1.00  0.00    -0.118 C  
HETATM   25  C   UNL     1      -7.127   6.698  73.567  1.00  0.00    -0.076 C  
HETATM   26  O   UNL     1      -8.157   4.611  73.599  1.00  0.00    -0.103 OA 
ENDBRANCH   4  24
TORSDOF 1
ENDMDL
MODEL       80
REMARK 921   NORMALIZED FREE ENERGY PREDICTED BY IDOCK:   -4.15 KCAL/MOL
REMARK 922        TOTAL FREE ENERGY PREDICTED BY IDOCK:   -3.55 KCAL/MOL
REMARK 923 INTER-LIGAND FREE ENERGY PREDICTED BY IDOCK:   -4.11 KCAL/MOL
REMARK 924 INTRA-LIGAND FREE ENERGY PREDICTED BY IDOCK:    0.56 KCAL/MOL
REMARK 927      BINDING AFFINITY PREDICTED BY RF-SCORE:    0.00 PKD
ROOT
HETATM    1  C   UNL     1      -9.208   4.525  69.472  1.00  0.00    -0.192 C  
HETATM    2  C   UNL     1     -10.219   4.223  68.521  1.00  0.00     0.260 C  
HETATM    3  C   UNL     1      -9.251   5.213  67.951  1.00  0.00    -0.128 C  
HETATM    4  C   UNL     1      -7.576   5.489  69.095  1.00  0.00    -0.086 C  
HETATM    5  C   UNL     1      -8.747   9.454  70.718  1.00  0.00    -0.216 C  
HETATM    6  C   UNL     1      -7.798   4.500  68.189  1.00  0.00    -0.080 C  
HETATM    7  C   UNL     1      -7.491   6.076  67.146  1.00  0.00    -0.084 C  
HETATM    8  C   UNL     1      -7.252   3.130  67.899  1.00  0.00    -0.050 C  
HETATM    9  C   UNL     1      -9.801   8.923  69.723  1.00  0.00    -0.186 C  
HETATM   10  C   UNL     1      -9.923   9.974  68.538  1.00  0.00    -0.177 C  
HETATM   11  C   UNL     1      -8.032   7.544  68.041  1.00  0.00    -0.123 C  
HETATM   12  O   UNL     1      -6.909   8.028  68.786  1.00  0.00    -0.059 OA 
HETATM   13  C   UNL     1      -9.400   7.527  69.069  1.00  0.00    -0.146 C  
HETATM   14  H   UNL     1      -7.194   8.803  69.257  1.00  0.00     0.000 HD 
HETATM   15  C   UNL     1      -9.579   6.225  70.117  1.00  0.00    -0.181 C  
HETATM   16  C   UNL     1     -11.001   6.250  70.682  1.00  0.00    -0.370 C  
HETATM   17  C   UNL     1     -11.348   7.557  71.409  1.00  0.00    -0.284 C  
HETATM   18  C   UNL     1     -12.790   7.391  71.939  1.00  0.00    -0.305 C  
HETATM   19  C   UNL     1     -11.123   8.808  70.550  1.00  0.00    -0.278 C  
HETATM   20  C   UNL     1     -11.969   9.857  70.639  1.00  0.00    -0.361 C  
HETATM   21  C   UNL     1     -11.692  11.068  69.850  1.00  0.00    -0.346 C  
HETATM   22  O   UNL     1     -11.914  12.184  70.299  1.00  0.00    -0.348 OA 
HETATM   23  C   UNL     1     -11.197  10.801  68.471  1.00  0.00    -0.340 C  
ENDROOT
BRANCH   4  24
HETATM   24  C   UNL     1      -5.903   5.410  69.020  1.00  0.00    -0.023 C  
HETATM   25  C   UNL     1      -5.214   4.647  70.124  1.00  0.00     0.000 C  
HETATM   26  O   UNL     1      -5.168   5.830  68.121  1.00  0.00    -0.003 OA 
ENDBRANCH   4  24
TORSDOF 1
ENDMDL
MODEL       81
REMARK 921   NORMALIZED FREE ENERGY PREDICTED BY IDOCK:   -4.15 KCAL/MOL
REMARK 922        TOTAL FREE ENERGY PREDICTED BY IDOCK:   -3.54 KCAL/MOL
REMARK 923 INTER-LIGAND FREE ENERGY PREDICTED BY IDOCK:   -4.04 KCAL/MOL
REMARK 924 INTRA-LIGAND FREE ENERGY PREDICTED BY IDOCK:    0.50 KCAL/MOL
REMARK 927      BINDING AFFINITY PREDICTED BY RF-SCORE:    0.00 PKD
ROOT
HETATM    1  C   UNL     1      -9.244  15.314  66.970  1.00  0.00    -0.235 C  
HETATM    2  C   UNL     1     -10.226  15.080  65.970  1.00  0.00    -0.318 C  
HETATM    3  C   UNL     1     -10.625  16.242  66.826  1.00  0.00    -0.257 C  
HETATM    4  C   UNL     1      -9.152  16.882  68.095  1.00  0.00    -0.231 C  
HETATM    5  C   UNL     1     -10.918  15.160  71.789  1.00  0.00     0.017 C  
HETATM    6  C   UNL     1      -9.307  17.210  66.785  1.00  0.00    -0.268 C  
HETATM    7  C   UNL     1     -10.684  18.166  67.709  1.00  0.00    -0.355 C  
HETATM    8  C   UNL     1      -8.448  17.752  65.677  1.00  0.00     0.545 C  
HETATM    9  C   UNL     1     -11.824  14.908  70.567  1.00  0.00    -0.358 C  
HETATM   10  C   UNL     1     -13.231  15.585  70.856  1.00  0.00    -0.474 C  
HETATM   11  C   UNL     1     -11.206  17.265  69.180  1.00  0.00     0.530 C  
HETATM   12  O   UNL     1     -10.398  17.722  70.270  1.00  0.00     0.335 OA 
HETATM   13  C   UNL     1     -11.261  15.555  69.224  1.00  0.00    -0.312 C  
HETATM   14  H   UNL     1     -10.674  17.248  71.046  1.00  0.00     0.000 HD 
HETATM   15  C   UNL     1      -9.964  14.711  68.570  1.00  0.00    -0.235 C  
HETATM   16  C   UNL     1     -10.368  13.243  68.418  1.00  0.00    -0.254 C  
HETATM   17  C   UNL     1     -10.806  12.588  69.737  1.00  0.00     0.422 C  
HETATM   18  C   UNL     1     -11.139  11.117  69.404  1.00  0.00    -0.314 C  
HETATM   19  C   UNL     1     -11.930  13.352  70.450  1.00  0.00    -0.358 C  
HETATM   20  C   UNL     1     -12.900  12.681  71.106  1.00  0.00    -0.311 C  
HETATM   21  C   UNL     1     -13.930  13.441  71.834  1.00  0.00    -0.192 C  
HETATM   22  O   UNL     1     -14.374  13.045  72.903  1.00  0.00    -0.293 OA 
HETATM   23  C   UNL     1     -14.407  14.660  71.124  1.00  0.00    -0.204 C  
ENDROOT
BRANCH   4  24
HETATM   24  C   UNL     1      -8.270  18.246  68.506  1.00  0.00    -0.312 C  
HETATM   25  C   UNL     1      -6.814  18.032  68.838  1.00  0.00    -0.256 C  
HETATM   26  O   UNL     1      -8.646  19.422  68.485  1.00  0.00    -0.349 OA 
ENDBRANCH   4  24
TORSDOF 1
ENDMDL
MODEL       82
REMARK 921   NORMALIZED FREE ENERGY PREDICTED BY IDOCK:   -4.14 KCAL/MOL
REMARK 922        TOTAL FREE ENERGY PREDICTED BY IDOCK:   -3.54 KCAL/MOL
REMARK 923 INTER-LIGAND FREE ENERGY PREDICTED BY IDOCK:   -4.05 KCAL/MOL
REMARK 924 INTRA-LIGAND FREE ENERGY PREDICTED BY IDOCK:    0.52 KCAL/MOL
REMARK 927      BINDING AFFINITY PREDICTED BY RF-SCORE:    0.00 PKD
ROOT
HETATM    1  C   UNL     1      -9.761   6.619  66.605  1.00  0.00    -0.210 C  
HETATM    2  C   UNL     1      -9.291   7.941  66.825  1.00  0.00    -0.232 C  
HETATM    3  C   UNL     1      -8.204   6.951  67.108  1.00  0.00    -0.118 C  
HETATM    4  C   UNL     1      -8.650   5.040  66.524  1.00  0.00    -0.110 C  
HETATM    5  C   UNL     1      -9.430   3.460  70.601  1.00  0.00    -0.243 C  
HETATM    6  C   UNL     1      -8.159   6.042  65.748  1.00  0.00    -0.123 C  
HETATM    7  C   UNL     1      -6.690   5.492  66.846  1.00  0.00    -0.062 C  
HETATM    8  C   UNL     1      -8.091   6.367  64.282  1.00  0.00    -0.063 C  
HETATM    9  C   UNL     1      -8.995   4.940  70.649  1.00  0.00    -0.163 C  
HETATM   10  C   UNL     1      -7.671   5.030  71.523  1.00  0.00    -0.105 C  
HETATM   11  C   UNL     1      -7.280   4.872  68.432  1.00  0.00    -0.062 C  
HETATM   12  O   UNL     1      -7.478   3.461  68.292  1.00  0.00    -0.053 OA 
HETATM   13  C   UNL     1      -8.649   5.539  69.214  1.00  0.00    -0.104 C  
HETATM   14  H   UNL     1      -7.789   3.134  69.128  1.00  0.00     0.000 HD 
HETATM   15  C   UNL     1     -10.009   5.859  68.280  1.00  0.00    -0.177 C  
HETATM   16  C   UNL     1     -10.961   6.736  69.095  1.00  0.00    -0.290 C  
HETATM   17  C   UNL     1     -11.381   6.107  70.431  1.00  0.00    -0.399 C  
HETATM   18  C   UNL     1     -12.359   7.103  71.094  1.00  0.00    -0.404 C  
HETATM   19  C   UNL     1     -10.193   5.697  71.310  1.00  0.00    -0.279 C  
HETATM   20  C   UNL     1     -10.255   5.840  72.651  1.00  0.00    -0.212 C  
HETATM   21  C   UNL     1      -9.125   5.380  73.474  1.00  0.00    -0.128 C  
HETATM   22  O   UNL     1      -9.304   4.854  74.564  1.00  0.00    -0.119 OA 
HETATM   23  C   UNL     1      -7.786   5.676  72.894  1.00  0.00    -0.098 C  
ENDROOT
BRANCH   4  24
HETATM   24  C   UNL     1      -8.080   3.791  65.563  1.00  0.00    -0.097 C  
HETATM   25  C   UNL     1      -9.118   2.869  64.971  1.00  0.00    -0.147 C  
HETATM   26  O   UNL     1      -6.916   3.583  65.208  1.00  0.00    -0.057 OA 
ENDBRANCH   4  24
TORSDOF 1
ENDMDL
MODEL       83
REMARK 921   NORMALIZED FREE ENERGY PREDICTED BY IDOCK:   -4.08 KCAL/MOL
REMARK 922        TOTAL FREE ENERGY PREDICTED BY IDOCK:   -3.47 KCAL/MOL
REMARK 923 INTER-LIGAND FREE ENERGY PREDICTED BY IDOCK:   -4.07 KCAL/MOL
REMARK 924 INTRA-LIGAND FREE ENERGY PREDICTED BY IDOCK:    0.60 KCAL/MOL
REMARK 927      BINDING AFFINITY PREDICTED BY RF-SCORE:    0.00 PKD
ROOT
HETATM    1  C   UNL     1      -9.987   4.575  69.386  1.00  0.00    -0.212 C  
HETATM    2  C   UNL     1      -8.983   4.171  68.466  1.00  0.00    -0.159 C  
HETATM    3  C   UNL     1      -8.360   4.595  69.760  1.00  0.00    -0.081 C  
HETATM    4  C   UNL     1      -9.708   4.895  71.271  1.00  0.00    -0.241 C  
HETATM    5  C   UNL     1      -9.553   9.333  71.183  1.00  0.00    -0.305 C  
HETATM    6  C   UNL     1      -9.167   3.712  70.875  1.00  0.00    -0.199 C  
HETATM    7  C   UNL     1      -7.757   4.627  71.790  1.00  0.00    -0.096 C  
HETATM    8  C   UNL     1      -9.500   2.252  71.003  1.00  0.00    -0.217 C  
HETATM    9  C   UNL     1      -8.577   8.719  70.158  1.00  0.00    -0.149 C  
HETATM   10  C   UNL     1      -7.112   9.213  70.525  1.00  0.00    -0.088 C  
HETATM   11  C   UNL     1      -7.941   6.411  71.618  1.00  0.00    -0.102 C  
HETATM   12  O   UNL     1      -8.722   6.869  72.727  1.00  0.00    -0.120 OA 
HETATM   13  C   UNL     1      -8.553   7.126  70.189  1.00  0.00    -0.140 C  
HETATM   14  H   UNL     1      -8.819   7.810  72.637  1.00  0.00     0.000 HD 
HETATM   15  C   UNL     1      -9.906   6.426  69.479  1.00  0.00    -0.176 C  
HETATM   16  C   UNL     1     -10.071   7.009  68.073  1.00  0.00    -0.199 C  
HETATM   17  C   UNL     1     -10.204   8.539  68.055  1.00  0.00    -0.264 C  
HETATM   18  C   UNL     1     -10.397   8.942  66.577  1.00  0.00    -0.267 C  
HETATM   19  C   UNL     1      -9.051   9.257  68.769  1.00  0.00    -0.136 C  
HETATM   20  C   UNL     1      -8.572  10.423  68.286  1.00  0.00    -0.128 C  
HETATM   21  C   UNL     1      -7.509  11.121  69.027  1.00  0.00    -0.124 C  
HETATM   22  O   UNL     1      -7.484  12.342  69.104  1.00  0.00     0.010 OA 
HETATM   23  C   UNL     1      -6.464  10.222  69.591  1.00  0.00    -0.069 C  
ENDROOT
BRANCH   4  24
HETATM   24  C   UNL     1     -10.067   4.399  72.831  1.00  0.00    -0.163 C  
HETATM   25  C   UNL     1     -11.486   4.613  73.296  1.00  0.00    -0.346 C  
HETATM   26  O   UNL     1      -9.331   3.799  73.620  1.00  0.00    -0.100 OA 
ENDBRANCH   4  24
TORSDOF 1
ENDMDL
MODEL       84
REMARK 921   NORMALIZED FREE ENERGY PREDICTED BY IDOCK:   -3.98 KCAL/MOL
REMARK 922        TOTAL FREE ENERGY PREDICTED BY IDOCK:   -3.36 KCAL/MOL
REMARK 923 INTER-LIGAND FREE ENERGY PREDICTED BY IDOCK:   -4.05 KCAL/MOL
REMARK 924 INTRA-LIGAND FREE ENERGY PREDICTED BY IDOCK:    0.69 KCAL/MOL
REMARK 927      BINDING AFFINITY PREDICTED BY RF-SCORE:    0.00 PKD
ROOT
HETATM    1  C   UNL     1      -9.661   3.725  69.420  1.00  0.00    -0.219 C  
HETATM    2  C   UNL     1      -8.440   2.999  69.437  1.00  0.00    -0.100 C  
HETATM    3  C   UNL     1      -8.216   4.400  69.914  1.00  0.00    -0.067 C  
HETATM    4  C   UNL     1      -9.942   5.452  70.241  1.00  0.00    -0.298 C  
HETATM    5  C   UNL     1      -9.664   7.979  66.599  1.00  0.00    -0.313 C  
HETATM    6  C   UNL     1      -9.336   4.582  71.093  1.00  0.00    -0.212 C  
HETATM    7  C   UNL     1      -8.237   6.149  71.111  1.00  0.00    -0.123 C  
HETATM    8  C   UNL     1      -9.726   3.764  72.292  1.00  0.00    -0.221 C  
HETATM    9  C   UNL     1      -8.444   7.043  66.724  1.00  0.00    -0.118 C  
HETATM   10  C   UNL     1      -7.142   7.949  66.797  1.00  0.00    -0.077 C  
HETATM   11  C   UNL     1      -8.320   7.002  69.525  1.00  0.00    -0.133 C  
HETATM   12  O   UNL     1      -9.382   7.958  69.609  1.00  0.00    -0.153 OA 
HETATM   13  C   UNL     1      -8.468   6.154  68.046  1.00  0.00    -0.116 C  
HETATM   14  H   UNL     1      -9.426   8.408  68.774  1.00  0.00     0.000 HD 
HETATM   15  C   UNL     1      -9.568   4.885  67.975  1.00  0.00    -0.190 C  
HETATM   16  C   UNL     1      -9.298   4.080  66.701  1.00  0.00    -0.197 C  
HETATM   17  C   UNL     1      -9.384   4.919  65.417  1.00  0.00    -0.147 C  
HETATM   18  C   UNL     1      -9.123   3.948  64.244  1.00  0.00    -0.137 C  
HETATM   19  C   UNL     1      -8.476   6.155  65.437  1.00  0.00    -0.138 C  
HETATM   20  C   UNL     1      -7.849   6.558  64.312  1.00  0.00    -0.113 C  
HETATM   21  C   UNL     1      -7.034   7.784  64.346  1.00  0.00    -0.060 C  
HETATM   22  O   UNL     1      -7.005   8.555  63.396  1.00  0.00    -0.088 OA 
HETATM   23  C   UNL     1      -6.224   7.946  65.585  1.00  0.00    -0.038 C  
ENDROOT
BRANCH   4  24
HETATM   24  C   UNL     1     -10.756   6.308  71.430  1.00  0.00    -0.248 C  
HETATM   25  C   UNL     1     -12.211   6.607  71.168  1.00  0.00    -0.357 C  
HETATM   26  O   UNL     1     -10.330   6.652  72.537  1.00  0.00    -0.188 OA 
ENDBRANCH   4  24
TORSDOF 1
ENDMDL
MODEL       85
REMARK 921   NORMALIZED FREE ENERGY PREDICTED BY IDOCK:   -3.97 KCAL/MOL
REMARK 922        TOTAL FREE ENERGY PREDICTED BY IDOCK:   -3.35 KCAL/MOL
REMARK 923 INTER-LIGAND FREE ENERGY PREDICTED BY IDOCK:   -3.85 KCAL/MOL
REMARK 924 INTRA-LIGAND FREE ENERGY PREDICTED BY IDOCK:    0.50 KCAL/MOL
REMARK 927      BINDING AFFINITY PREDICTED BY RF-SCORE:    0.00 PKD
ROOT
HETATM    1  C   UNL     1     -10.215   9.639  70.673  1.00  0.00    -0.346 C  
HETATM    2  C   UNL     1     -11.417   8.962  70.334  1.00  0.00    -0.182 C  
HETATM    3  C   UNL     1     -10.229   8.169  69.883  1.00  0.00    -0.204 C  
HETATM    4  C   UNL     1      -8.442   8.874  70.591  1.00  0.00    -0.211 C  
HETATM    5  C   UNL     1      -7.099  10.703  66.773  1.00  0.00    -0.118 C  
HETATM    6  C   UNL     1      -9.315   8.055  71.236  1.00  0.00    -0.182 C  
HETATM    7  C   UNL     1      -8.490   6.959  69.901  1.00  0.00    -0.140 C  
HETATM    8  C   UNL     1      -9.604   7.652  72.654  1.00  0.00    -0.235 C  
HETATM    9  C   UNL     1      -8.459   9.995  66.605  1.00  0.00    -0.126 C  
HETATM   10  C   UNL     1      -8.287   8.866  65.500  1.00  0.00    -0.142 C  
HETATM   11  C   UNL     1      -8.020   7.946  68.469  1.00  0.00    -0.121 C  
HETATM   12  O   UNL     1      -6.678   8.396  68.681  1.00  0.00    -0.057 OA 
HETATM   13  C   UNL     1      -8.960   9.274  67.934  1.00  0.00    -0.130 C  
HETATM   14  H   UNL     1      -6.430   8.917  67.926  1.00  0.00     0.000 HD 
HETATM   15  C   UNL     1      -9.540  10.343  69.095  1.00  0.00    -0.226 C  
HETATM   16  C   UNL     1     -10.601  11.233  68.445  1.00  0.00    -0.226 C  
HETATM   17  C   UNL     1     -10.085  12.013  67.227  1.00  0.00    -0.208 C  
HETATM   18  C   UNL     1     -11.267  12.875  66.729  1.00  0.00    -0.337 C  
HETATM   19  C   UNL     1      -9.452  11.116  66.155  1.00  0.00    -0.229 C  
HETATM   20  C   UNL     1      -9.619  11.398  64.846  1.00  0.00    -0.244 C  
HETATM   21  C   UNL     1      -8.947  10.557  63.841  1.00  0.00    -0.216 C  
HETATM   22  O   UNL     1      -8.481  11.039  62.818  1.00  0.00    -0.184 OA 
HETATM   23  C   UNL     1      -8.958   9.101  64.156  1.00  0.00    -0.054 C  
ENDROOT
BRANCH   4  24
HETATM   24  C   UNL     1      -7.093   8.400  71.465  1.00  0.00    -0.085 C  
HETATM   25  C   UNL     1      -6.451   9.451  72.336  1.00  0.00     0.402 C  
HETATM   26  O   UNL     1      -6.610   7.268  71.549  1.00  0.00    -0.046 OA 
ENDBRANCH   4  24
TORSDOF 1
ENDMDL
MODEL       86
REMARK 921   NORMALIZED FREE ENERGY PREDICTED BY IDOCK:   -3.97 KCAL/MOL
REMARK 922        TOTAL FREE ENERGY PREDICTED BY IDOCK:   -3.35 KCAL/MOL
REMARK 923 INTER-LIGAND FREE ENERGY PREDICTED BY IDOCK:   -3.86 KCAL/MOL
REMARK 924 INTRA-LIGAND FREE ENERGY PREDICTED BY IDOCK:    0.51 KCAL/MOL
REMARK 927      BINDING AFFINITY PREDICTED BY RF-SCORE:    0.00 PKD
ROOT
HETATM    1  C   UNL     1      -9.596   9.492  68.348  1.00  0.00    -0.152 C  
HETATM    2  C   UNL     1     -10.710   9.964  67.603  1.00  0.00    -0.339 C  
HETATM    3  C   UNL     1     -11.031   8.646  68.237  1.00  0.00     0.122 C  
HETATM    4  C   UNL     1      -9.634   8.014  69.593  1.00  0.00    -0.168 C  
HETATM    5  C   UNL     1      -7.813   4.905  66.996  1.00  0.00    -0.095 C  
HETATM    6  C   UNL     1     -10.656   8.883  69.812  1.00  0.00    -0.230 C  
HETATM    7  C   UNL     1     -11.481   7.160  69.680  1.00  0.00    -0.047 C  
HETATM    8  C   UNL     1     -10.998   9.950  70.813  1.00  0.00    -0.407 C  
HETATM    9  C   UNL     1      -8.998   5.597  66.292  1.00  0.00    -0.141 C  
HETATM   10  C   UNL     1     -10.078   4.484  65.949  1.00  0.00    -0.279 C  
HETATM   11  C   UNL     1     -10.533   6.085  68.587  1.00  0.00    -0.241 C  
HETATM   12  O   UNL     1      -9.588   5.378  69.397  1.00  0.00    -0.131 OA 
HETATM   13  C   UNL     1      -9.722   6.684  67.204  1.00  0.00    -0.178 C  
HETATM   14  H   UNL     1      -9.089   4.810  68.822  1.00  0.00     0.000 HD 
HETATM   15  C   UNL     1      -8.846   8.110  67.364  1.00  0.00    -0.131 C  
HETATM   16  C   UNL     1      -8.495   8.622  65.965  1.00  0.00    -0.151 C  
HETATM   17  C   UNL     1      -7.699   7.611  65.125  1.00  0.00    -0.110 C  
HETATM   18  C   UNL     1      -7.405   8.303  63.776  1.00  0.00    -0.100 C  
HETATM   19  C   UNL     1      -8.388   6.245  65.006  1.00  0.00    -0.099 C  
HETATM   20  C   UNL     1      -8.320   5.546  63.853  1.00  0.00    -0.086 C  
HETATM   21  C   UNL     1      -8.936   4.211  63.789  1.00  0.00    -0.130 C  
HETATM   22  O   UNL     1      -8.415   3.300  63.159  1.00  0.00    -0.087 OA 
HETATM   23  C   UNL     1     -10.248   4.108  64.486  1.00  0.00    -0.172 C  
ENDROOT
BRANCH   4  24
HETATM   24  C   UNL     1      -9.472   7.542  71.193  1.00  0.00    -0.158 C  
HETATM   25  C   UNL     1      -8.266   8.067  71.932  1.00  0.00    -0.159 C  
HETATM   26  O   UNL     1     -10.267   6.883  71.869  1.00  0.00    -0.189 OA 
ENDBRANCH   4  24
TORSDOF 1
ENDMDL
MODEL       87
REMARK 921   NORMALIZED FREE ENERGY PREDICTED BY IDOCK:   -3.74 KCAL/MOL
REMARK 922        TOTAL FREE ENERGY PREDICTED BY IDOCK:   -3.11 KCAL/MOL
REMARK 923 INTER-LIGAND FREE ENERGY PREDICTED BY IDOCK:   -3.62 KCAL/MOL
REMARK 924 INTRA-LIGAND FREE ENERGY PREDICTED BY IDOCK:    0.51 KCAL/MOL
REMARK 927      BINDING AFFINITY PREDICTED BY RF-SCORE:    0.00 PKD
ROOT
HETATM    1  C   UNL     1     -11.985  11.079  67.649  1.00  0.00     0.322 C  
HETATM    2  C   UNL     1     -12.410  11.191  68.999  1.00  0.00    -0.032 C  
HETATM    3  C   UNL     1     -11.121  11.926  68.799  1.00  0.00    -0.296 C  
HETATM    4  C   UNL     1     -10.568  12.112  66.837  1.00  0.00    -0.257 C  
HETATM    5  C   UNL     1      -7.356   9.046  66.948  1.00  0.00    -0.086 C  
HETATM    6  C   UNL     1     -11.436  12.901  67.524  1.00  0.00    -0.386 C  
HETATM    7  C   UNL     1      -9.702  13.373  68.182  1.00  0.00    -0.226 C  
HETATM    8  C   UNL     1     -12.547  13.859  67.197  1.00  0.00     0.126 C  
HETATM    9  C   UNL     1      -8.003   9.229  68.337  1.00  0.00    -0.102 C  
HETATM   10  C   UNL     1      -6.864   9.680  69.348  1.00  0.00    -0.054 C  
HETATM   11  C   UNL     1      -8.584  11.961  68.097  1.00  0.00    -0.165 C  
HETATM   12  O   UNL     1      -7.926  12.013  66.826  1.00  0.00    -0.289 OA 
HETATM   13  C   UNL     1      -9.125  10.359  68.363  1.00  0.00    -0.147 C  
HETATM   14  H   UNL     1      -7.337  11.269  66.781  1.00  0.00     0.000 HD 
HETATM   15  C   UNL     1     -10.565   9.885  67.637  1.00  0.00    -0.325 C  
HETATM   16  C   UNL     1     -11.013   8.564  68.266  1.00  0.00     0.142 C  
HETATM   17  C   UNL     1      -9.971   7.442  68.142  1.00  0.00    -0.190 C  
HETATM   18  C   UNL     1     -10.600   6.189  68.791  1.00  0.00    -0.330 C  
HETATM   19  C   UNL     1      -8.595   7.827  68.699  1.00  0.00    -0.129 C  
HETATM   20  C   UNL     1      -7.842   6.913  69.348  1.00  0.00    -0.113 C  
HETATM   21  C   UNL     1      -6.499   7.294  69.816  1.00  0.00    -0.036 C  
HETATM   22  O   UNL     1      -5.565   6.505  69.776  1.00  0.00    -0.014 OA 
HETATM   23  C   UNL     1      -6.417   8.666  70.389  1.00  0.00    -0.036 C  
ENDROOT
BRANCH   4  24
HETATM   24  C   UNL     1     -10.174  13.263  65.684  1.00  0.00    -0.289 C  
HETATM   25  C   UNL     1     -10.751  13.060  64.305  1.00  0.00    -0.430 C  
HETATM   26  O   UNL     1      -9.537  14.307  65.848  1.00  0.00    -0.274 OA 
ENDBRANCH   4  24
TORSDOF 1
ENDMDL
MODEL       88
REMARK 921   NORMALIZED FREE ENERGY PREDICTED BY IDOCK:   -3.67 KCAL/MOL
REMARK 922        TOTAL FREE ENERGY PREDICTED BY IDOCK:   -3.03 KCAL/MOL
REMARK 923 INTER-LIGAND FREE ENERGY PREDICTED BY IDOCK:   -3.54 KCAL/MOL
REMARK 924 INTRA-LIGAND FREE ENERGY PREDICTED BY IDOCK:    0.51 KCAL/MOL
REMARK 927      BINDING AFFINITY PREDICTED BY RF-SCORE:    0.00 PKD
ROOT
HETATM    1  C   UNL     1      -9.789  16.745  67.021  1.00  0.00    -0.262 C  
HETATM    2  C   UNL     1     -10.810  16.707  68.008  1.00  0.00    -0.337 C  
HETATM    3  C   UNL     1      -9.462  16.610  68.653  1.00  0.00    -0.249 C  
HETATM    4  C   UNL     1      -7.903  16.974  67.376  1.00  0.00    -0.191 C  
HETATM    5  C   UNL     1      -6.623  12.742  66.957  1.00  0.00     0.230 C  
HETATM    6  C   UNL     1      -8.656  17.894  68.037  1.00  0.00    -0.256 C  
HETATM    7  C   UNL     1      -7.533  17.109  69.374  1.00  0.00     0.061 C  
HETATM    8  C   UNL     1      -8.977  19.356  67.902  1.00  0.00    -0.369 C  
HETATM    9  C   UNL     1      -7.808  12.873  67.937  1.00  0.00    -0.151 C  
HETATM   10  C   UNL     1      -7.337  12.312  69.346  1.00  0.00     0.288 C  
HETATM   11  C   UNL     1      -7.143  15.400  68.954  1.00  0.00    -0.131 C  
HETATM   12  O   UNL     1      -5.931  15.414  68.192  1.00  0.00    -0.113 OA 
HETATM   13  C   UNL     1      -8.269  14.381  68.165  1.00  0.00    -0.149 C  
HETATM   14  H   UNL     1      -5.725  14.513  67.970  1.00  0.00     0.000 HD 
HETATM   15  C   UNL     1      -9.132  15.017  66.870  1.00  0.00    -0.269 C  
HETATM   16  C   UNL     1     -10.286  14.066  66.544  1.00  0.00    -0.285 C  
HETATM   17  C   UNL     1      -9.829  12.637  66.216  1.00  0.00    -0.266 C  
HETATM   18  C   UNL     1     -11.107  11.837  65.880  1.00  0.00    -0.355 C  
HETATM   19  C   UNL     1      -8.954  12.013  67.310  1.00  0.00    -0.180 C  
HETATM   20  C   UNL     1      -9.064  10.700  67.605  1.00  0.00    -0.145 C  
HETATM   21  C   UNL     1      -8.167  10.116  68.616  1.00  0.00    -0.111 C  
HETATM   22  O   UNL     1      -7.718   8.985  68.489  1.00  0.00    -0.095 OA 
HETATM   23  C   UNL     1      -7.929  10.987  69.800  1.00  0.00     0.430 C  
ENDROOT
BRANCH   4  24
HETATM   24  C   UNL     1      -6.564  17.964  67.183  1.00  0.00    -0.173 C  
HETATM   25  C   UNL     1      -6.323  18.507  65.796  1.00  0.00    -0.291 C  
HETATM   26  O   UNL     1      -5.797  18.373  68.059  1.00  0.00    -0.173 OA 
ENDBRANCH   4  24
TORSDOF 1
ENDMDL
MODEL       89
REMARK 921   NORMALIZED FREE ENERGY PREDICTED BY IDOCK:   -3.65 KCAL/MOL
REMARK 922        TOTAL FREE ENERGY PREDICTED BY IDOCK:   -3.02 KCAL/MOL
REMARK 923 INTER-LIGAND FREE ENERGY PREDICTED BY IDOCK:   -3.51 KCAL/MOL
REMARK 924 INTRA-LIGAND FREE ENERGY PREDICTED BY IDOCK:    0.50 KCAL/MOL
REMARK 927      BINDING AFFINITY PREDICTED BY RF-SCORE:    0.00 PKD
ROOT
HETATM    1  C   UNL     1     -10.204   5.818  68.885  1.00  0.00    -0.267 C  
HETATM    2  C   UNL     1     -10.861   5.853  67.626  1.00  0.00    -0.331 C  
HETATM    3  C   UNL     1      -9.376   5.850  67.436  1.00  0.00    -0.111 C  
HETATM    4  C   UNL     1      -8.320   5.480  69.150  1.00  0.00    -0.098 C  
HETATM    5  C   UNL     1      -6.973   9.662  69.800  1.00  0.00    -0.078 C  
HETATM    6  C   UNL     1      -8.884   4.564  68.319  1.00  0.00    -0.126 C  
HETATM    7  C   UNL     1      -7.353   5.221  67.376  1.00  0.00    -0.083 C  
HETATM    8  C   UNL     1      -9.322   3.129  68.398  1.00  0.00    -0.244 C  
HETATM    9  C   UNL     1      -7.798   9.536  68.502  1.00  0.00    -0.085 C  
HETATM   10  C   UNL     1      -6.877   9.998  67.294  1.00  0.00    -0.082 C  
HETATM   11  C   UNL     1      -7.009   6.929  67.837  1.00  0.00    -0.083 C  
HETATM   12  O   UNL     1      -6.098   6.898  68.942  1.00  0.00    -0.025 OA 
HETATM   13  C   UNL     1      -8.259   8.043  68.194  1.00  0.00    -0.126 C  
HETATM   14  H   UNL     1      -5.916   7.799  69.185  1.00  0.00     0.000 HD 
HETATM   15  C   UNL     1      -9.521   7.519  69.173  1.00  0.00    -0.150 C  
HETATM   16  C   UNL     1     -10.657   8.540  69.085  1.00  0.00    -0.188 C  
HETATM   17  C   UNL     1     -10.237   9.961  69.490  1.00  0.00    -0.243 C  
HETATM   18  C   UNL     1     -11.504  10.838  69.377  1.00  0.00    -0.366 C  
HETATM   19  C   UNL     1      -9.027  10.482  68.705  1.00  0.00    -0.166 C  
HETATM   20  C   UNL     1      -8.957  11.781  68.344  1.00  0.00    -0.168 C  
HETATM   21  C   UNL     1      -7.755  12.267  67.647  1.00  0.00    -0.144 C  
HETATM   22  O   UNL     1      -7.298  13.381  67.869  1.00  0.00    -0.108 OA 
HETATM   23  C   UNL     1      -7.214  11.324  66.630  1.00  0.00    -0.126 C  
ENDROOT
BRANCH   4  24
HETATM   24  C   UNL     1      -7.173   4.439  69.790  1.00  0.00    -0.050 C  
HETATM   25  C   UNL     1      -7.351   4.047  71.236  1.00  0.00    -0.040 C  
HETATM   26  O   UNL     1      -6.244   3.884  69.197  1.00  0.00    -0.027 OA 
ENDBRANCH   4  24
TORSDOF 1
ENDMDL
MODEL       90
REMARK 921   NORMALIZED FREE ENERGY PREDICTED BY IDOCK:   -3.53 KCAL/MOL
REMARK 922        TOTAL FREE ENERGY PREDICTED BY IDOCK:   -2.88 KCAL/MOL
REMARK 923 INTER-LIGAND FREE ENERGY PREDICTED BY IDOCK:   -3.39 KCAL/MOL
REMARK 924 INTRA-LIGAND FREE ENERGY PREDICTED BY IDOCK:    0.51 KCAL/MOL
REMARK 927      BINDING AFFINITY PREDICTED BY RF-SCORE:    0.00 PKD
ROOT
HETATM    1  C   UNL     1      -9.308   9.475  66.989  1.00  0.00    -0.183 C  
HETATM    2  C   UNL     1     -10.642   9.597  67.461  1.00  0.00    -0.339 C  
HETATM    3  C   UNL     1      -9.694   9.484  68.613  1.00  0.00    -0.163 C  
HETATM    4  C   UNL     1      -7.721   9.624  68.082  1.00  0.00    -0.086 C  
HETATM    5  C   UNL     1      -6.797   5.302  68.516  1.00  0.00    -0.056 C  
HETATM    6  C   UNL     1      -8.586  10.649  68.306  1.00  0.00    -0.128 C  
HETATM    7  C   UNL     1      -8.192   9.936  70.039  1.00  0.00    -0.187 C  
HETATM    8  C   UNL     1      -8.681  12.106  67.953  1.00  0.00    -0.176 C  
HETATM    9  C   UNL     1      -8.261   5.602  68.902  1.00  0.00    -0.100 C  
HETATM   10  C   UNL     1      -8.466   5.157  70.413  1.00  0.00    -0.112 C  
HETATM   11  C   UNL     1      -7.831   8.173  69.933  1.00  0.00    -0.104 C  
HETATM   12  O   UNL     1      -6.418   8.037  69.747  1.00  0.00    -0.036 OA 
HETATM   13  C   UNL     1      -8.627   7.149  68.816  1.00  0.00    -0.125 C  
HETATM   14  H   UNL     1      -6.227   7.108  69.691  1.00  0.00     0.000 HD 
HETATM   15  C   UNL     1      -8.818   7.703  67.241  1.00  0.00    -0.122 C  
HETATM   16  C   UNL     1      -9.822   6.796  66.527  1.00  0.00    -0.167 C  
HETATM   17  C   UNL     1      -9.411   5.316  66.514  1.00  0.00    -0.146 C  
HETATM   18  C   UNL     1     -10.510   4.565  65.730  1.00  0.00    -0.268 C  
HETATM   19  C   UNL     1      -9.126   4.754  67.913  1.00  0.00    -0.133 C  
HETATM   20  C   UNL     1      -9.474   3.486  68.222  1.00  0.00    -0.210 C  
HETATM   21  C   UNL     1      -9.131   2.953  69.550  1.00  0.00    -0.127 C  
HETATM   22  O   UNL     1      -8.781   1.790  69.697  1.00  0.00    -0.052 OA 
HETATM   23  C   UNL     1      -9.317   3.923  70.665  1.00  0.00    -0.225 C  
ENDROOT
BRANCH   4  24
HETATM   24  C   UNL     1      -6.332  10.506  68.399  1.00  0.00    -0.054 C  
HETATM   25  C   UNL     1      -5.475  10.863  67.210  1.00  0.00    -0.044 C  
HETATM   26  O   UNL     1      -5.968  10.976  69.481  1.00  0.00    -0.051 OA 
ENDBRANCH   4  24
TORSDOF 1
ENDMDL
MODEL       91
REMARK 921   NORMALIZED FREE ENERGY PREDICTED BY IDOCK:   -3.35 KCAL/MOL
REMARK 922        TOTAL FREE ENERGY PREDICTED BY IDOCK:   -2.69 KCAL/MOL
REMARK 923 INTER-LIGAND FREE ENERGY PREDICTED BY IDOCK:   -3.97 KCAL/MOL
REMARK 924 INTRA-LIGAND FREE ENERGY PREDICTED BY IDOCK:    1.27 KCAL/MOL
REMARK 927      BINDING AFFINITY PREDICTED BY RF-SCORE:    0.00 PKD
ROOT
HETATM    1  C   UNL     1     -10.854   8.848  67.622  1.00  0.00    -0.112 C  
HETATM    2  C   UNL     1     -10.343   8.589  68.922  1.00  0.00    -0.226 C  
HETATM    3  C   UNL     1      -9.346   9.364  68.118  1.00  0.00    -0.142 C  
HETATM    4  C   UNL     1     -10.081  10.077  66.346  1.00  0.00    -0.307 C  
HETATM    5  C   UNL     1      -8.014   7.129  63.745  1.00  0.00    -0.072 C  
HETATM    6  C   UNL     1     -10.210  10.643  67.575  1.00  0.00    -0.236 C  
HETATM    7  C   UNL     1      -8.386  10.939  67.075  1.00  0.00    -0.132 C  
HETATM    8  C   UNL     1     -11.116  11.642  68.238  1.00  0.00    -0.287 C  
HETATM    9  C   UNL     1      -7.641   6.924  65.228  1.00  0.00    -0.099 C  
HETATM   10  C   UNL     1      -6.068   7.099  65.363  1.00  0.00    -0.037 C  
HETATM   11  C   UNL     1      -7.798   9.614  66.003  1.00  0.00    -0.102 C  
HETATM   12  O   UNL     1      -8.052  10.013  64.652  1.00  0.00    -0.143 OA 
HETATM   13  C   UNL     1      -8.314   7.994  66.198  1.00  0.00    -0.125 C  
HETATM   14  H   UNL     1      -7.742   9.315  64.087  1.00  0.00     0.000 HD 
HETATM   15  C   UNL     1      -9.951   7.717  66.461  1.00  0.00    -0.244 C  
HETATM   16  C   UNL     1     -10.128   6.271  66.929  1.00  0.00    -0.236 C  
HETATM   17  C   UNL     1      -9.576   5.235  65.938  1.00  0.00    -0.142 C  
HETATM   18  C   UNL     1      -9.872   3.847  66.549  1.00  0.00    -0.125 C  
HETATM   19  C   UNL     1      -8.106   5.471  65.570  1.00  0.00    -0.120 C  
HETATM   20  C   UNL     1      -7.274   4.424  65.383  1.00  0.00    -0.068 C  
HETATM   21  C   UNL     1      -5.885   4.679  64.968  1.00  0.00    -0.018 C  
HETATM   22  O   UNL     1      -5.311   3.940  64.179  1.00  0.00    -0.008 OA 
HETATM   23  C   UNL     1      -5.250   5.847  65.639  1.00  0.00    -0.009 C  
ENDROOT
BRANCH   4  24
HETATM   24  C   UNL     1     -10.291  11.500  65.485  1.00  0.00    -0.273 C  
HETATM   25  C   UNL     1     -10.485  11.363  63.995  1.00  0.00    -0.435 C  
HETATM   26  O   UNL     1     -10.393  12.645  65.935  1.00  0.00    -0.265 OA 
ENDBRANCH   4  24
TORSDOF 1
ENDMDL
MODEL       92
REMARK 921   NORMALIZED FREE ENERGY PREDICTED BY IDOCK:   -3.33 KCAL/MOL
REMARK 922        TOTAL FREE ENERGY PREDICTED BY IDOCK:   -2.68 KCAL/MOL
REMARK 923 INTER-LIGAND FREE ENERGY PREDICTED BY IDOCK:   -3.54 KCAL/MOL
REMARK 924 INTRA-LIGAND FREE ENERGY PREDICTED BY IDOCK:    0.86 KCAL/MOL
REMARK 927      BINDING AFFINITY PREDICTED BY RF-SCORE:    0.00 PKD
ROOT
HETATM    1  C   UNL     1      -9.361   9.579  65.360  1.00  0.00    -0.324 C  
HETATM    2  C   UNL     1      -9.508  10.238  64.110  1.00  0.00    -0.358 C  
HETATM    3  C   UNL     1      -8.116  10.418  64.629  1.00  0.00    -0.122 C  
HETATM    4  C   UNL     1      -7.680   9.257  66.258  1.00  0.00    -0.096 C  
HETATM    5  C   UNL     1      -7.880  12.530  69.253  1.00  0.00     0.515 C  
HETATM    6  C   UNL     1      -7.631   8.889  64.950  1.00  0.00    -0.108 C  
HETATM    7  C   UNL     1      -6.115  10.028  65.207  1.00  0.00    -0.104 C  
HETATM    8  C   UNL     1      -7.648   7.607  64.166  1.00  0.00    -0.113 C  
HETATM    9  C   UNL     1      -8.119  13.063  67.825  1.00  0.00    -0.168 C  
HETATM   10  C   UNL     1      -6.998  14.144  67.516  1.00  0.00    -0.173 C  
HETATM   11  C   UNL     1      -6.449  11.250  66.489  1.00  0.00    -0.111 C  
HETATM   12  O   UNL     1      -6.022  10.690  67.736  1.00  0.00    -0.044 OA 
HETATM   13  C   UNL     1      -8.003  11.936  66.706  1.00  0.00    -0.087 C  
HETATM   14  H   UNL     1      -6.197  11.334  68.412  1.00  0.00     0.000 HD 
HETATM   15  C   UNL     1      -9.329  10.905  66.657  1.00  0.00    -0.191 C  
HETATM   16  C   UNL     1     -10.598  11.754  66.541  1.00  0.00    -0.289 C  
HETATM   17  C   UNL     1     -10.764  12.767  67.683  1.00  0.00    -0.236 C  
HETATM   18  C   UNL     1     -12.099  13.500  67.424  1.00  0.00    -0.360 C  
HETATM   19  C   UNL     1      -9.552  13.690  67.857  1.00  0.00    -0.223 C  
HETATM   20  C   UNL     1      -9.725  14.985  68.197  1.00  0.00    -0.215 C  
HETATM   21  C   UNL     1      -8.541  15.831  68.420  1.00  0.00    -0.171 C  
HETATM   22  O   UNL     1      -8.524  16.683  69.298  1.00  0.00    -0.171 OA 
HETATM   23  C   UNL     1      -7.433  15.600  67.452  1.00  0.00    -0.235 C  
ENDROOT
BRANCH   4  24
HETATM   24  C   UNL     1      -6.593   8.100  66.796  1.00  0.00    -0.057 C  
HETATM   25  C   UNL     1      -6.828   7.548  68.181  1.00  0.00    -0.063 C  
HETATM   26  O   UNL     1      -5.670   7.579  66.163  1.00  0.00    -0.034 OA 
ENDBRANCH   4  24
TORSDOF 1
ENDMDL
MODEL       93
REMARK 921   NORMALIZED FREE ENERGY PREDICTED BY IDOCK:   -3.28 KCAL/MOL
REMARK 922        TOTAL FREE ENERGY PREDICTED BY IDOCK:   -2.62 KCAL/MOL
REMARK 923 INTER-LIGAND FREE ENERGY PREDICTED BY IDOCK:   -3.46 KCAL/MOL
REMARK 924 INTRA-LIGAND FREE ENERGY PREDICTED BY IDOCK:    0.84 KCAL/MOL
REMARK 927      BINDING AFFINITY PREDICTED BY RF-SCORE:    0.00 PKD
ROOT
HETATM    1  C   UNL     1      -9.883   6.982  66.758  1.00  0.00    -0.250 C  
HETATM    2  C   UNL     1     -11.262   6.648  66.695  1.00  0.00     0.160 C  
HETATM    3  C   UNL     1     -10.947   7.307  68.003  1.00  0.00    -0.081 C  
HETATM    4  C   UNL     1      -9.071   8.122  68.091  1.00  0.00    -0.134 C  
HETATM    5  C   UNL     1      -7.298   4.974  70.674  1.00  0.00    -0.065 C  
HETATM    6  C   UNL     1     -10.187   8.686  67.558  1.00  0.00    -0.308 C  
HETATM    7  C   UNL     1     -10.441   8.766  69.453  1.00  0.00    -0.228 C  
HETATM    8  C   UNL     1     -10.508   9.779  66.578  1.00  0.00    -0.212 C  
HETATM    9  C   UNL     1      -8.796   4.710  70.421  1.00  0.00    -0.137 C  
HETATM   10  C   UNL     1      -9.532   4.693  71.828  1.00  0.00    -0.205 C  
HETATM   11  C   UNL     1      -9.603   7.391  70.265  1.00  0.00    -0.165 C  
HETATM   12  O   UNL     1      -8.282   7.832  70.597  1.00  0.00    -0.111 OA 
HETATM   13  C   UNL     1      -9.493   5.843  69.543  1.00  0.00    -0.166 C  
HETATM   14  H   UNL     1      -7.840   7.108  71.025  1.00  0.00     0.000 HD 
HETATM   15  C   UNL     1      -9.095   5.762  67.913  1.00  0.00    -0.109 C  
HETATM   16  C   UNL     1      -9.376   4.343  67.415  1.00  0.00    -0.178 C  
HETATM   17  C   UNL     1      -8.616   3.259  68.193  1.00  0.00    -0.118 C  
HETATM   18  C   UNL     1      -8.988   1.910  67.537  1.00  0.00    -0.170 C  
HETATM   19  C   UNL     1      -8.852   3.320  69.707  1.00  0.00    -0.154 C  
HETATM   20  C   UNL     1      -8.939   2.183  70.430  1.00  0.00    -0.148 C  
HETATM   21  C   UNL     1      -9.102   2.273  71.890  1.00  0.00    -0.084 C  
HETATM   22  O   UNL     1      -8.552   1.479  72.642  1.00  0.00    -0.056 OA 
HETATM   23  C   UNL     1     -10.029   3.349  72.337  1.00  0.00    -0.235 C  
ENDROOT
BRANCH   4  24
HETATM   24  C   UNL     1      -8.277   9.569  68.382  1.00  0.00    -0.113 C  
HETATM   25  C   UNL     1      -6.778   9.560  68.216  1.00  0.00    -0.058 C  
HETATM   26  O   UNL     1      -8.780  10.667  68.635  1.00  0.00    -0.133 OA 
ENDBRANCH   4  24
TORSDOF 1
ENDMDL
MODEL       94
REMARK 921   NORMALIZED FREE ENERGY PREDICTED BY IDOCK:   -3.27 KCAL/MOL
REMARK 922        TOTAL FREE ENERGY PREDICTED BY IDOCK:   -2.61 KCAL/MOL
REMARK 923 INTER-LIGAND FREE ENERGY PREDICTED BY IDOCK:   -4.13 KCAL/MOL
REMARK 924 INTRA-LIGAND FREE ENERGY PREDICTED BY IDOCK:    1.52 KCAL/MOL
REMARK 927      BINDING AFFINITY PREDICTED BY RF-SCORE:    0.00 PKD
ROOT
HETATM    1  C   UNL     1     -11.431   8.512  70.512  1.00  0.00    -0.198 C  
HETATM    2  C   UNL     1     -10.908   8.635  71.827  1.00  0.00    -0.395 C  
HETATM    3  C   UNL     1      -9.992   9.294  70.842  1.00  0.00    -0.367 C  
HETATM    4  C   UNL     1     -10.782   9.467  68.962  1.00  0.00    -0.224 C  
HETATM    5  C   UNL     1      -8.379   6.215  67.126  1.00  0.00    -0.105 C  
HETATM    6  C   UNL     1     -10.985  10.299  70.018  1.00  0.00    -0.371 C  
HETATM    7  C   UNL     1      -9.199  10.660  69.430  1.00  0.00    -0.073 C  
HETATM    8  C   UNL     1     -12.002  11.326  70.431  1.00  0.00    -0.471 C  
HETATM    9  C   UNL     1      -8.002   6.420  68.608  1.00  0.00    -0.106 C  
HETATM   10  C   UNL     1      -6.459   6.791  68.670  1.00  0.00    -0.040 C  
HETATM   11  C   UNL     1      -8.459   9.185  68.705  1.00  0.00    -0.130 C  
HETATM   12  O   UNL     1      -8.741   9.211  67.302  1.00  0.00    -0.117 OA 
HETATM   13  C   UNL     1      -8.798   7.615  69.298  1.00  0.00    -0.136 C  
HETATM   14  H   UNL     1      -8.350   8.434  66.919  1.00  0.00     0.000 HD 
HETATM   15  C   UNL     1     -10.398   7.236  69.648  1.00  0.00    -0.227 C  
HETATM   16  C   UNL     1     -10.422   5.937  70.457  1.00  0.00    -0.319 C  
HETATM   17  C   UNL     1      -9.750   4.757  69.741  1.00  0.00    -0.272 C  
HETATM   18  C   UNL     1      -9.899   3.537  70.677  1.00  0.00    -0.093 C  
HETATM   19  C   UNL     1      -8.310   5.053  69.301  1.00  0.00    -0.082 C  
HETATM   20  C   UNL     1      -7.367   4.089  69.362  1.00  0.00    -0.053 C  
HETATM   21  C   UNL     1      -6.009   4.383  68.875  1.00  0.00    -0.026 C  
HETATM   22  O   UNL     1      -5.350   3.540  68.281  1.00  0.00    -0.011 OA 
HETATM   23  C   UNL     1      -5.513   5.741  69.230  1.00  0.00    -0.004 C  
ENDROOT
BRANCH   4  24
HETATM   24  C   UNL     1     -11.137  10.606  67.783  1.00  0.00    -0.321 C  
HETATM   25  C   UNL     1     -11.088  10.131  66.352  1.00  0.00     0.289 C  
HETATM   26  O   UNL     1     -11.519  11.768  67.948  1.00  0.00    -0.279 OA 
ENDBRANCH   4  24
TORSDOF 1
ENDMDL
MODEL       95
REMARK 921   NORMALIZED FREE ENERGY PREDICTED BY IDOCK:   -3.24 KCAL/MOL
REMARK 922        TOTAL FREE ENERGY PREDICTED BY IDOCK:   -2.58 KCAL/MOL
REMARK 923 INTER-LIGAND FREE ENERGY PREDICTED BY IDOCK:   -3.38 KCAL/MOL
REMARK 924 INTRA-LIGAND FREE ENERGY PREDICTED BY IDOCK:    0.79 KCAL/MOL
REMARK 927      BINDING AFFINITY PREDICTED BY RF-SCORE:    0.00 PKD
ROOT
HETATM    1  C   UNL     1     -10.136   8.255  71.861  1.00  0.00    -0.314 C  
HETATM    2  C   UNL     1     -10.880   7.306  71.111  1.00  0.00    -0.260 C  
HETATM    3  C   UNL     1      -9.443   6.893  71.189  1.00  0.00    -0.166 C  
HETATM    4  C   UNL     1      -8.331   8.001  72.503  1.00  0.00    -0.211 C  
HETATM    5  C   UNL     1      -6.184  10.384  69.431  1.00  0.00    -0.049 C  
HETATM    6  C   UNL     1      -9.124   6.935  72.793  1.00  0.00    -0.151 C  
HETATM    7  C   UNL     1      -7.584   6.195  71.928  1.00  0.00    -0.096 C  
HETATM    8  C   UNL     1      -9.811   6.372  74.004  1.00  0.00    -0.275 C  
HETATM    9  C   UNL     1      -7.126   9.350  68.779  1.00  0.00    -0.069 C  
HETATM   10  C   UNL     1      -6.242   8.389  67.874  1.00  0.00    -0.052 C  
HETATM   11  C   UNL     1      -6.891   7.370  70.750  1.00  0.00    -0.048 C  
HETATM   12  O   UNL     1      -5.912   8.147  71.447  1.00  0.00    -0.034 OA 
HETATM   13  C   UNL     1      -7.879   8.431  69.840  1.00  0.00    -0.101 C  
HETATM   14  H   UNL     1      -5.546   8.766  70.826  1.00  0.00     0.000 HD 
HETATM   15  C   UNL     1      -9.128   9.222  70.640  1.00  0.00    -0.309 C  
HETATM   16  C   UNL     1     -10.059   9.838  69.594  1.00  0.00    -0.250 C  
HETATM   17  C   UNL     1      -9.351  10.811  68.639  1.00  0.00    -0.184 C  
HETATM   18  C   UNL     1     -10.438  11.357  67.688  1.00  0.00    -0.225 C  
HETATM   19  C   UNL     1      -8.136  10.194  67.934  1.00  0.00    -0.109 C  
HETATM   20  C   UNL     1      -7.859  10.510  66.652  1.00  0.00    -0.125 C  
HETATM   21  C   UNL     1      -6.652   9.952  66.021  1.00  0.00    -0.086 C  
HETATM   22  O   UNL     1      -5.980  10.612  65.239  1.00  0.00    -0.133 OA 
HETATM   23  C   UNL     1      -6.383   8.529  66.367  1.00  0.00    -0.058 C  
ENDROOT
BRANCH   4  24
HETATM   24  C   UNL     1      -7.346   7.845  73.850  1.00  0.00    -0.144 C  
HETATM   25  C   UNL     1      -6.928   9.126  74.530  1.00  0.00     0.161 C  
HETATM   26  O   UNL     1      -6.988   6.803  74.406  1.00  0.00    -0.090 OA 
ENDBRANCH   4  24
TORSDOF 1
ENDMDL
MODEL       96
REMARK 921   NORMALIZED FREE ENERGY PREDICTED BY IDOCK:   -3.18 KCAL/MOL
REMARK 922        TOTAL FREE ENERGY PREDICTED BY IDOCK:   -2.52 KCAL/MOL
REMARK 923 INTER-LIGAND FREE ENERGY PREDICTED BY IDOCK:   -4.46 KCAL/MOL
REMARK 924 INTRA-LIGAND FREE ENERGY PREDICTED BY IDOCK:    1.94 KCAL/MOL
REMARK 927      BINDING AFFINITY PREDICTED BY RF-SCORE:    0.00 PKD
ROOT
HETATM    1  C   UNL     1      -8.025  14.616  68.474  1.00  0.00    -0.136 C  
HETATM    2  C   UNL     1      -6.983  14.558  67.511  1.00  0.00    -0.188 C  
HETATM    3  C   UNL     1      -7.980  15.608  67.132  1.00  0.00    -0.254 C  
HETATM    4  C   UNL     1      -9.355  16.013  68.594  1.00  0.00    -0.214 C  
HETATM    5  C   UNL     1     -12.744  13.880  66.674  1.00  0.00     0.021 C  
HETATM    6  C   UNL     1      -8.099  16.522  68.484  1.00  0.00    -0.218 C  
HETATM    7  C   UNL     1      -9.115  17.397  67.119  1.00  0.00    -0.242 C  
HETATM    8  C   UNL     1      -7.092  17.174  69.390  1.00  0.00    -0.094 C  
HETATM    9  C   UNL     1     -11.480  13.830  65.791  1.00  0.00    -0.324 C  
HETATM   10  C   UNL     1     -11.830  14.517  64.402  1.00  0.00    -0.419 C  
HETATM   11  C   UNL     1     -10.439  16.327  66.528  1.00  0.00    -0.290 C  
HETATM   12  O   UNL     1     -11.598  16.601  67.323  1.00  0.00     0.361 OA 
HETATM   13  C   UNL     1     -10.250  14.630  66.410  1.00  0.00    -0.296 C  
HETATM   14  H   UNL     1     -12.296  16.037  67.012  1.00  0.00     0.000 HD 
HETATM   15  C   UNL     1      -9.513  13.831  67.693  1.00  0.00    -0.217 C  
HETATM   16  C   UNL     1      -9.156  12.414  67.240  1.00  0.00    -0.187 C  
HETATM   17  C   UNL     1     -10.364  11.606  66.745  1.00  0.00    -0.257 C  
HETATM   18  C   UNL     1      -9.828  10.207  66.369  1.00  0.00    -0.279 C  
HETATM   19  C   UNL     1     -11.151  12.309  65.632  1.00  0.00    -0.357 C  
HETATM   20  C   UNL     1     -11.690  11.594  64.622  1.00  0.00    -0.157 C  
HETATM   21  C   UNL     1     -12.493  12.288  63.602  1.00  0.00    -0.541 C  
HETATM   22  O   UNL     1     -13.490  11.770  63.116  1.00  0.00    -0.375 OA 
HETATM   23  C   UNL     1     -11.946  13.610  63.187  1.00  0.00     0.169 C  
ENDROOT
BRANCH   4  24
HETATM   24  C   UNL     1      -9.964  17.275  69.514  1.00  0.00     0.082 C  
HETATM   25  C   UNL     1      -9.677  18.671  69.017  1.00  0.00    -0.301 C  
HETATM   26  O   UNL     1     -10.695  17.200  70.506  1.00  0.00     0.252 OA 
ENDBRANCH   4  24
TORSDOF 1
ENDMDL
MODEL       97
REMARK 921   NORMALIZED FREE ENERGY PREDICTED BY IDOCK:   -3.12 KCAL/MOL
REMARK 922        TOTAL FREE ENERGY PREDICTED BY IDOCK:   -2.45 KCAL/MOL
REMARK 923 INTER-LIGAND FREE ENERGY PREDICTED BY IDOCK:   -3.03 KCAL/MOL
REMARK 924 INTRA-LIGAND FREE ENERGY PREDICTED BY IDOCK:    0.58 KCAL/MOL
REMARK 927      BINDING AFFINITY PREDICTED BY RF-SCORE:    0.00 PKD
ROOT
HETATM    1  C   UNL     1      -6.988  17.161  69.476  1.00  0.00    -0.032 C  
HETATM    2  C   UNL     1      -5.650  17.440  69.089  1.00  0.00    -0.180 C  
HETATM    3  C   UNL     1      -6.444  16.974  67.908  1.00  0.00    -0.151 C  
HETATM    4  C   UNL     1      -8.457  16.846  68.260  1.00  0.00    -0.229 C  
HETATM    5  C   UNL     1      -8.619  12.417  68.537  1.00  0.00    -0.060 C  
HETATM    6  C   UNL     1      -7.751  17.958  67.920  1.00  0.00    -0.224 C  
HETATM    7  C   UNL     1      -7.844  16.914  66.319  1.00  0.00    -0.346 C  
HETATM    8  C   UNL     1      -7.931  19.447  68.014  1.00  0.00    -0.340 C  
HETATM    9  C   UNL     1      -7.191  12.905  68.212  1.00  0.00    -0.112 C  
HETATM   10  C   UNL     1      -6.762  12.263  66.824  1.00  0.00     0.206 C  
HETATM   11  C   UNL     1      -7.924  15.156  66.710  1.00  0.00    -0.012 C  
HETATM   12  O   UNL     1      -9.307  14.803  66.813  1.00  0.00    -0.224 OA 
HETATM   13  C   UNL     1      -7.091  14.486  68.047  1.00  0.00    -0.147 C  
HETATM   14  H   UNL     1      -9.350  13.877  67.019  1.00  0.00     0.000 HD 
HETATM   15  C   UNL     1      -7.156  15.314  69.508  1.00  0.00    -0.201 C  
HETATM   16  C   UNL     1      -6.097  14.728  70.445  1.00  0.00    -0.160 C  
HETATM   17  C   UNL     1      -6.262  13.221  70.690  1.00  0.00     0.136 C  
HETATM   18  C   UNL     1      -5.143  12.815  71.675  1.00  0.00    -0.118 C  
HETATM   19  C   UNL     1      -6.306  12.397  69.397  1.00  0.00    -0.119 C  
HETATM   20  C   UNL     1      -5.728  11.178  69.346  1.00  0.00    -0.045 C  
HETATM   21  C   UNL     1      -5.841  10.383  68.113  1.00  0.00    -0.044 C  
HETATM   22  O   UNL     1      -5.981   9.168  68.150  1.00  0.00    -0.045 OA 
HETATM   23  C   UNL     1      -5.701  11.175  66.859  1.00  0.00    -0.090 C  
ENDROOT
BRANCH   4  24
HETATM   24  C   UNL     1      -9.931  17.405  67.689  1.00  0.00    -0.300 C  
HETATM   25  C   UNL     1     -11.082  17.383  68.663  1.00  0.00     0.143 C  
HETATM   26  O   UNL     1     -10.170  17.913  66.590  1.00  0.00    -0.339 OA 
ENDBRANCH   4  24
TORSDOF 1
ENDMDL
MODEL       98
REMARK 921   NORMALIZED FREE ENERGY PREDICTED BY IDOCK:   -3.08 KCAL/MOL
REMARK 922        TOTAL FREE ENERGY PREDICTED BY IDOCK:   -2.41 KCAL/MOL
REMARK 923 INTER-LIGAND FREE ENERGY PREDICTED BY IDOCK:   -2.99 KCAL/MOL
REMARK 924 INTRA-LIGAND FREE ENERGY PREDICTED BY IDOCK:    0.57 KCAL/MOL
REMARK 927      BINDING AFFINITY PREDICTED BY RF-SCORE:    0.00 PKD
ROOT
HETATM    1  C   UNL     1      -9.384   3.673  65.962  1.00  0.00    -0.171 C  
HETATM    2  C   UNL     1     -10.278   4.443  65.171  1.00  0.00    -0.199 C  
HETATM    3  C   UNL     1      -8.873   4.925  64.983  1.00  0.00    -0.154 C  
HETATM    4  C   UNL     1      -7.457   3.702  65.814  1.00  0.00    -0.077 C  
HETATM    5  C   UNL     1      -6.555   6.305  69.297  1.00  0.00    -0.044 C  
HETATM    6  C   UNL     1      -8.054   3.561  64.600  1.00  0.00    -0.090 C  
HETATM    7  C   UNL     1      -6.839   5.027  64.396  1.00  0.00    -0.048 C  
HETATM    8  C   UNL     1      -8.280   2.457  63.606  1.00  0.00    -0.081 C  
HETATM    9  C   UNL     1      -7.600   6.957  68.368  1.00  0.00    -0.111 C  
HETATM   10  C   UNL     1      -7.005   8.342  67.865  1.00  0.00    -0.078 C  
HETATM   11  C   UNL     1      -6.631   5.902  65.958  1.00  0.00    -0.047 C  
HETATM   12  O   UNL     1      -5.522   5.304  66.638  1.00  0.00    -0.015 OA 
HETATM   13  C   UNL     1      -7.917   6.087  67.072  1.00  0.00    -0.102 C  
HETATM   14  H   UNL     1      -5.412   5.766  67.461  1.00  0.00     0.000 HD 
HETATM   15  C   UNL     1      -8.880   4.747  67.389  1.00  0.00    -0.106 C  
HETATM   16  C   UNL     1     -10.133   5.216  68.133  1.00  0.00    -0.192 C  
HETATM   17  C   UNL     1      -9.826   5.960  69.441  1.00  0.00    -0.207 C  
HETATM   18  C   UNL     1     -11.191   6.322  70.067  1.00  0.00    -0.480 C  
HETATM   19  C   UNL     1      -8.874   7.148  69.254  1.00  0.00    -0.136 C  
HETATM   20  C   UNL     1      -9.045   8.278  69.973  1.00  0.00    -0.150 C  
HETATM   21  C   UNL     1      -8.078   9.377  69.819  1.00  0.00    -0.133 C  
HETATM   22  O   UNL     1      -7.733  10.059  70.775  1.00  0.00    -0.233 OA 
HETATM   23  C   UNL     1      -7.635   9.611  68.417  1.00  0.00    -0.081 C  
ENDROOT
BRANCH   4  24
HETATM   24  C   UNL     1      -6.082   2.827  65.425  1.00  0.00    -0.023 C  
HETATM   25  C   UNL     1      -5.734   1.677  66.338  1.00  0.00    -0.018 C  
HETATM   26  O   UNL     1      -5.363   2.956  64.430  1.00  0.00    -0.008 OA 
ENDBRANCH   4  24
TORSDOF 1
ENDMDL
MODEL       99
REMARK 921   NORMALIZED FREE ENERGY PREDICTED BY IDOCK:   -3.00 KCAL/MOL
REMARK 922        TOTAL FREE ENERGY PREDICTED BY IDOCK:   -2.33 KCAL/MOL
REMARK 923 INTER-LIGAND FREE ENERGY PREDICTED BY IDOCK:   -4.13 KCAL/MOL
REMARK 924 INTRA-LIGAND FREE ENERGY PREDICTED BY IDOCK:    1.80 KCAL/MOL
REMARK 927      BINDING AFFINITY PREDICTED BY RF-SCORE:    0.00 PKD
ROOT
HETATM    1  C   UNL     1      -8.602  10.648  64.793  1.00  0.00    -0.136 C  
HETATM    2  C   UNL     1      -9.535  10.245  63.800  1.00  0.00    -0.352 C  
HETATM    3  C   UNL     1     -10.159  10.166  65.159  1.00  0.00    -0.329 C  
HETATM    4  C   UNL     1      -9.032  11.020  66.640  1.00  0.00    -0.176 C  
HETATM    5  C   UNL     1      -7.628   7.208  68.436  1.00  0.00    -0.118 C  
HETATM    6  C   UNL     1      -9.882  11.651  65.788  1.00  0.00    -0.268 C  
HETATM    7  C   UNL     1     -11.010  10.715  67.020  1.00  0.00    -0.274 C  
HETATM    8  C   UNL     1     -10.098  13.050  65.283  1.00  0.00    -0.247 C  
HETATM    9  C   UNL     1      -8.591   6.950  67.259  1.00  0.00    -0.120 C  
HETATM   10  C   UNL     1      -9.832   6.130  67.817  1.00  0.00    -0.131 C  
HETATM   11  C   UNL     1     -10.196   9.221  67.616  1.00  0.00    -0.230 C  
HETATM   12  O   UNL     1      -9.479   9.569  68.805  1.00  0.00    -0.144 OA 
HETATM   13  C   UNL     1      -9.168   8.288  66.615  1.00  0.00    -0.224 C  
HETATM   14  H   UNL     1      -9.051   8.782  69.119  1.00  0.00     0.000 HD 
HETATM   15  C   UNL     1      -8.051   9.103  65.660  1.00  0.00    -0.113 C  
HETATM   16  C   UNL     1      -7.487   8.121  64.629  1.00  0.00    -0.096 C  
HETATM   17  C   UNL     1      -6.832   6.883  65.258  1.00  0.00    -0.051 C  
HETATM   18  C   UNL     1      -6.294   6.033  64.086  1.00  0.00    -0.030 C  
HETATM   19  C   UNL     1      -7.758   6.129  66.221  1.00  0.00    -0.099 C  
HETATM   20  C   UNL     1      -7.727   4.780  66.281  1.00  0.00    -0.091 C  
HETATM   21  C   UNL     1      -8.581   4.087  67.260  1.00  0.00    -0.101 C  
HETATM   22  O   UNL     1      -8.193   3.086  67.845  1.00  0.00    -0.076 OA 
HETATM   23  C   UNL     1      -9.944   4.671  67.404  1.00  0.00    -0.190 C  
ENDROOT
BRANCH   4  24
HETATM   24  C   UNL     1      -9.103  12.187  67.841  1.00  0.00    -0.185 C  
HETATM   25  C   UNL     1     -10.417  12.912  67.997  1.00  0.00    -0.237 C  
HETATM   26  O   UNL     1      -8.236  12.467  68.673  1.00  0.00    -0.107 OA 
ENDBRANCH   4  24
TORSDOF 1
ENDMDL
MODEL      100
REMARK 921   NORMALIZED FREE ENERGY PREDICTED BY IDOCK:   -2.89 KCAL/MOL
REMARK 922        TOTAL FREE ENERGY PREDICTED BY IDOCK:   -2.21 KCAL/MOL
REMARK 923 INTER-LIGAND FREE ENERGY PREDICTED BY IDOCK:   -2.76 KCAL/MOL
REMARK 924 INTRA-LIGAND FREE ENERGY PREDICTED BY IDOCK:    0.55 KCAL/MOL
REMARK 927      BINDING AFFINITY PREDICTED BY RF-SCORE:    0.00 PKD
ROOT
HETATM    1  C   UNL     1      -9.570  11.475  65.875  1.00  0.00    -0.254 C  
HETATM    2  C   UNL     1     -10.793  10.771  66.033  1.00  0.00    -0.102 C  
HETATM    3  C   UNL     1      -9.897  10.521  67.206  1.00  0.00    -0.209 C  
HETATM    4  C   UNL     1      -8.241  11.724  67.256  1.00  0.00    -0.163 C  
HETATM    5  C   UNL     1      -5.343   8.614  65.970  1.00  0.00    -0.034 C  
HETATM    6  C   UNL     1      -9.491  12.027  67.698  1.00  0.00    -0.185 C  
HETATM    7  C   UNL     1      -8.786  10.801  68.988  1.00  0.00    -0.136 C  
HETATM    8  C   UNL     1     -10.280  13.270  68.001  1.00  0.00    -0.240 C  
HETATM    9  C   UNL     1      -6.767   8.032  66.100  1.00  0.00    -0.054 C  
HETATM   10  C   UNL     1      -6.718   6.865  67.176  1.00  0.00    -0.063 C  
HETATM   11  C   UNL     1      -7.620   9.665  68.214  1.00  0.00    -0.078 C  
HETATM   12  O   UNL     1      -6.319  10.252  68.317  1.00  0.00    -0.048 OA 
HETATM   13  C   UNL     1      -7.835   9.097  66.614  1.00  0.00    -0.100 C  
HETATM   14  H   UNL     1      -5.704   9.653  67.909  1.00  0.00     0.000 HD 
HETATM   15  C   UNL     1      -8.283  10.211  65.438  1.00  0.00    -0.151 C  
HETATM   16  C   UNL     1      -8.733   9.445  64.191  1.00  0.00    -0.224 C  
HETATM   17  C   UNL     1      -7.659   8.500  63.633  1.00  0.00    -0.127 C  
HETATM   18  C   UNL     1      -8.267   7.848  62.371  1.00  0.00    -0.141 C  
HETATM   19  C   UNL     1      -7.125   7.506  64.672  1.00  0.00    -0.064 C  
HETATM   20  C   UNL     1      -6.816   6.242  64.311  1.00  0.00    -0.042 C  
HETATM   21  C   UNL     1      -6.246   5.330  65.315  1.00  0.00    -0.034 C  
HETATM   22  O   UNL     1      -5.377   4.520  65.019  1.00  0.00    -0.012 OA 
HETATM   23  C   UNL     1      -6.866   5.441  66.665  1.00  0.00    -0.063 C  
ENDROOT
BRANCH   4  24
HETATM   24  C   UNL     1      -7.447  12.829  68.235  1.00  0.00    -0.124 C  
HETATM   25  C   UNL     1      -7.017  14.120  67.582  1.00  0.00    -0.200 C  
HETATM   26  O   UNL     1      -7.245  12.751  69.450  1.00  0.00     0.087 OA 
ENDBRANCH   4  24
TORSDOF 1
ENDMDL
MODEL      101
REMARK 921   NORMALIZED FREE ENERGY PREDICTED BY IDOCK:   -2.72 KCAL/MOL
REMARK 922        TOTAL FREE ENERGY PREDICTED BY IDOCK:   -2.03 KCAL/MOL
REMARK 923 INTER-LIGAND FREE ENERGY PREDICTED BY IDOCK:   -2.53 KCAL/MOL
REMARK 924 INTRA-LIGAND FREE ENERGY PREDICTED BY IDOCK:    0.50 KCAL/MOL
REMARK 927      BINDING AFFINITY PREDICTED BY RF-SCORE:    0.00 PKD
ROOT
HETATM    1  C   UNL     1      -8.731   4.919  67.233  1.00  0.00    -0.103 C  
HETATM    2  C   UNL     1      -7.481   4.249  67.155  1.00  0.00    -0.077 C  
HETATM    3  C   UNL     1      -7.376   5.435  68.062  1.00  0.00    -0.073 C  
HETATM    4  C   UNL     1      -9.178   6.298  68.512  1.00  0.00    -0.123 C  
HETATM    5  C   UNL     1      -8.688   9.840  65.877  1.00  0.00    -0.156 C  
HETATM    6  C   UNL     1      -8.611   5.218  69.113  1.00  0.00    -0.102 C  
HETATM    7  C   UNL     1      -7.601   6.723  69.730  1.00  0.00    -0.104 C  
HETATM    8  C   UNL     1      -9.070   4.059  69.953  1.00  0.00    -0.185 C  
HETATM    9  C   UNL     1      -7.438   8.936  65.837  1.00  0.00    -0.093 C  
HETATM   10  C   UNL     1      -6.198   9.801  66.323  1.00  0.00    -0.069 C  
HETATM   11  C   UNL     1      -7.578   8.026  68.485  1.00  0.00    -0.104 C  
HETATM   12  O   UNL     1      -8.692   8.886  68.746  1.00  0.00    -0.134 OA 
HETATM   13  C   UNL     1      -7.541   7.679  66.809  1.00  0.00    -0.098 C  
HETATM   14  H   UNL     1      -8.680   9.573  68.090  1.00  0.00     0.000 HD 
HETATM   15  C   UNL     1      -8.562   6.473  66.234  1.00  0.00    -0.141 C  
HETATM   16  C   UNL     1      -8.131   6.112  64.811  1.00  0.00    -0.132 C  
HETATM   17  C   UNL     1      -8.138   7.307  63.847  1.00  0.00    -0.013 C  
HETATM   18  C   UNL     1      -7.717   6.756  62.466  1.00  0.00    -0.100 C  
HETATM   19  C   UNL     1      -7.302   8.494  64.343  1.00  0.00    -0.097 C  
HETATM   20  C   UNL     1      -6.592   9.240  63.470  1.00  0.00    -0.092 C  
HETATM   21  C   UNL     1      -5.850  10.410  63.967  1.00  0.00    -0.119 C  
HETATM   22  O   UNL     1      -5.771  11.439  63.309  1.00  0.00     0.360 OA 
HETATM   23  C   UNL     1      -5.170  10.194  65.274  1.00  0.00    -0.071 C  
ENDROOT
BRANCH   4  24
HETATM   24  C   UNL     1     -10.144   6.724  69.813  1.00  0.00    -0.183 C  
HETATM   25  C   UNL     1     -11.629   6.513  69.647  1.00  0.00    -0.348 C  
HETATM   26  O   UNL     1      -9.781   7.111  70.928  1.00  0.00    -0.171 OA 
ENDBRANCH   4  24
TORSDOF 1
ENDMDL
MODEL      102
REMARK 921   NORMALIZED FREE ENERGY PREDICTED BY IDOCK:   -2.43 KCAL/MOL
REMARK 922        TOTAL FREE ENERGY PREDICTED BY IDOCK:   -1.72 KCAL/MOL
REMARK 923 INTER-LIGAND FREE ENERGY PREDICTED BY IDOCK:   -2.22 KCAL/MOL
REMARK 924 INTRA-LIGAND FREE ENERGY PREDICTED BY IDOCK:    0.50 KCAL/MOL
REMARK 927      BINDING AFFINITY PREDICTED BY RF-SCORE:    0.00 PKD
ROOT
HETATM    1  C   UNL     1     -11.164   8.978  68.565  1.00  0.00     0.314 C  
HETATM    2  C   UNL     1     -11.376   8.185  69.724  1.00  0.00     0.127 C  
HETATM    3  C   UNL     1      -9.985   8.739  69.722  1.00  0.00    -0.193 C  
HETATM    4  C   UNL     1      -9.656  10.152  68.278  1.00  0.00    -0.150 C  
HETATM    5  C   UNL     1      -7.278   7.544  65.582  1.00  0.00    -0.066 C  
HETATM    6  C   UNL     1     -10.218  10.343  69.501  1.00  0.00    -0.258 C  
HETATM    7  C   UNL     1      -8.352  10.084  69.841  1.00  0.00    -0.169 C  
HETATM    8  C   UNL     1     -11.101  11.366  70.159  1.00  0.00     0.064 C  
HETATM    9  C   UNL     1      -7.682   6.796  66.870  1.00  0.00    -0.103 C  
HETATM   10  C   UNL     1      -6.350   6.337  67.604  1.00  0.00    -0.033 C  
HETATM   11  C   UNL     1      -7.623   9.008  68.592  1.00  0.00    -0.092 C  
HETATM   12  O   UNL     1      -7.137   9.846  67.537  1.00  0.00    -0.086 OA 
HETATM   13  C   UNL     1      -8.491   7.707  67.897  1.00  0.00    -0.123 C  
HETATM   14  H   UNL     1      -6.752   9.279  66.879  1.00  0.00     0.000 HD 
HETATM   15  C   UNL     1     -10.082   7.984  67.432  1.00  0.00    -0.294 C  
HETATM   16  C   UNL     1     -10.748   6.634  67.157  1.00  0.00    -0.440 C  
HETATM   17  C   UNL     1     -10.027   5.803  66.084  1.00  0.00    -0.066 C  
HETATM   18  C   UNL     1     -10.849   4.506  65.913  1.00  0.00     0.102 C  
HETATM   19  C   UNL     1      -8.540   5.581  66.386  1.00  0.00    -0.121 C  
HETATM   20  C   UNL     1      -7.950   4.406  66.081  1.00  0.00    -0.099 C  
HETATM   21  C   UNL     1      -6.507   4.244  66.324  1.00  0.00    -0.041 C  
HETATM   22  O   UNL     1      -5.800   3.610  65.553  1.00  0.00    -0.021 OA 
HETATM   23  C   UNL     1      -6.029   4.851  67.597  1.00  0.00    -0.023 C  
ENDROOT
BRANCH   4  24
HETATM   24  C   UNL     1      -9.149  11.737  68.079  1.00  0.00    -0.180 C  
HETATM   25  C   UNL     1      -9.907  12.565  67.070  1.00  0.00    -0.217 C  
HETATM   26  O   UNL     1      -8.283  12.338  68.721  1.00  0.00    -0.056 OA 
ENDBRANCH   4  24
TORSDOF 1
ENDMDL
MODEL      103
REMARK 921   NORMALIZED FREE ENERGY PREDICTED BY IDOCK:   -1.81 KCAL/MOL
REMARK 922        TOTAL FREE ENERGY PREDICTED BY IDOCK:   -1.07 KCAL/MOL
REMARK 923 INTER-LIGAND FREE ENERGY PREDICTED BY IDOCK:   -3.13 KCAL/MOL
REMARK 924 INTRA-LIGAND FREE ENERGY PREDICTED BY IDOCK:    2.06 KCAL/MOL
REMARK 927      BINDING AFFINITY PREDICTED BY RF-SCORE:    0.00 PKD
ROOT
HETATM    1  C   UNL     1      -9.181  12.740  68.886  1.00  0.00     0.302 C  
HETATM    2  C   UNL     1      -9.138  13.362  67.610  1.00  0.00    -0.203 C  
HETATM    3  C   UNL     1     -10.289  12.407  67.681  1.00  0.00    -0.223 C  
HETATM    4  C   UNL     1     -10.654  11.687  69.562  1.00  0.00     0.085 C  
HETATM    5  C   UNL     1      -8.962   7.640  68.868  1.00  0.00    -0.137 C  
HETATM    6  C   UNL     1     -11.078  12.868  69.038  1.00  0.00    -0.284 C  
HETATM    7  C   UNL     1     -12.149  11.529  68.188  1.00  0.00    -0.032 C  
HETATM    8  C   UNL     1     -11.567  14.190  69.558  1.00  0.00    -0.349 C  
HETATM    9  C   UNL     1      -8.903   8.498  67.587  1.00  0.00    -0.138 C  
HETATM   10  C   UNL     1      -9.740   7.751  66.463  1.00  0.00    -0.265 C  
HETATM   11  C   UNL     1     -11.238   9.980  68.050  1.00  0.00    -0.122 C  
HETATM   12  O   UNL     1     -11.520   9.212  69.225  1.00  0.00    -0.417 OA 
HETATM   13  C   UNL     1      -9.550   9.942  67.768  1.00  0.00    -0.163 C  
HETATM   14  H   UNL     1     -11.040   8.395  69.152  1.00  0.00     0.000 HD 
HETATM   15  C   UNL     1      -8.583  10.999  68.648  1.00  0.00    -0.157 C  
HETATM   16  C   UNL     1      -7.193  11.028  68.010  1.00  0.00    -0.086 C  
HETATM   17  C   UNL     1      -6.524   9.647  67.937  1.00  0.00    -0.061 C  
HETATM   18  C   UNL     1      -5.131   9.871  67.307  1.00  0.00    -0.038 C  
HETATM   19  C   UNL     1      -7.384   8.593  67.228  1.00  0.00    -0.088 C  
HETATM   20  C   UNL     1      -6.808   7.662  66.438  1.00  0.00    -0.062 C  
HETATM   21  C   UNL     1      -7.651   6.625  65.821  1.00  0.00    -0.085 C  
HETATM   22  O   UNL     1      -7.254   5.474  65.697  1.00  0.00    -0.066 OA 
HETATM   23  C   UNL     1      -8.962   7.121  65.319  1.00  0.00     0.262 C  
ENDROOT
BRANCH   4  24
HETATM   24  C   UNL     1     -11.865  11.574  70.716  1.00  0.00    -0.070 C  
HETATM   25  C   UNL     1     -12.620  12.843  71.027  1.00  0.00    -0.376 C  
HETATM   26  O   UNL     1     -12.274  10.556  71.282  1.00  0.00    -0.357 OA 
ENDBRANCH   4  24
TORSDOF 1
ENDMDL
MODEL      104
REMARK 921   NORMALIZED FREE ENERGY PREDICTED BY IDOCK:   -1.68 KCAL/MOL
REMARK 922        TOTAL FREE ENERGY PREDICTED BY IDOCK:   -0.92 KCAL/MOL
REMARK 923 INTER-LIGAND FREE ENERGY PREDICTED BY IDOCK:   -2.78 KCAL/MOL
REMARK 924 INTRA-LIGAND FREE ENERGY PREDICTED BY IDOCK:    1.86 KCAL/MOL
REMARK 927      BINDING AFFINITY PREDICTED BY RF-SCORE:    0.00 PKD
ROOT
HETATM    1  C   UNL     1      -7.060  10.614  69.365  1.00  0.00    -0.120 C  
HETATM    2  C   UNL     1      -5.740  10.445  68.870  1.00  0.00    -0.041 C  
HETATM    3  C   UNL     1      -6.737   9.990  67.851  1.00  0.00    -0.067 C  
HETATM    4  C   UNL     1      -8.673  10.475  68.309  1.00  0.00    -0.135 C  
HETATM    5  C   UNL     1      -9.920   6.389  69.525  1.00  0.00    -0.190 C  
HETATM    6  C   UNL     1      -7.746  11.270  67.712  1.00  0.00    -0.113 C  
HETATM    7  C   UNL     1      -8.256  10.000  66.373  1.00  0.00    -0.119 C  
HETATM    8  C   UNL     1      -7.534  12.742  67.496  1.00  0.00    -0.154 C  
HETATM    9  C   UNL     1      -8.454   6.406  69.042  1.00  0.00    -0.124 C  
HETATM   10  C   UNL     1      -8.339   5.418  67.804  1.00  0.00    -0.099 C  
HETATM   11  C   UNL     1      -8.738   8.438  67.131  1.00  0.00    -0.126 C  
HETATM   12  O   UNL     1     -10.149   8.495  67.367  1.00  0.00    -0.194 OA 
HETATM   13  C   UNL     1      -7.975   7.840  68.542  1.00  0.00    -0.122 C  
HETATM   14  H   UNL     1     -10.403   7.671  67.766  1.00  0.00     0.000 HD 
HETATM   15  C   UNL     1      -7.685   8.921  69.796  1.00  0.00    -0.078 C  
HETATM   16  C   UNL     1      -6.722   8.266  70.787  1.00  0.00    -0.038 C  
HETATM   17  C   UNL     1      -7.237   6.935  71.354  1.00  0.00    -0.080 C  
HETATM   18  C   UNL     1      -6.166   6.442  72.352  1.00  0.00    -0.049 C  
HETATM   19  C   UNL     1      -7.615   5.918  70.268  1.00  0.00    -0.094 C  
HETATM   20  C   UNL     1      -7.370   4.603  70.451  1.00  0.00    -0.050 C  
HETATM   21  C   UNL     1      -7.801   3.645  69.420  1.00  0.00    -0.051 C  
HETATM   22  O   UNL     1      -8.239   2.542  69.720  1.00  0.00    -0.041 OA 
HETATM   23  C   UNL     1      -7.589   4.114  68.023  1.00  0.00    -0.068 C  
ENDROOT
BRANCH   4  24
HETATM   24  C   UNL     1     -10.006  11.286  67.698  1.00  0.00    -0.178 C  
HETATM   25  C   UNL     1      -9.942  11.689  66.246  1.00  0.00    -0.247 C  
HETATM   26  O   UNL     1     -11.075  11.519  68.271  1.00  0.00    -0.205 OA 
ENDBRANCH   4  24
TORSDOF 1
ENDMDL
MODEL      105
REMARK 921   NORMALIZED FREE ENERGY PREDICTED BY IDOCK:   -1.54 KCAL/MOL
REMARK 922        TOTAL FREE ENERGY PREDICTED BY IDOCK:   -0.78 KCAL/MOL
REMARK 923 INTER-LIGAND FREE ENERGY PREDICTED BY IDOCK:   -2.70 KCAL/MOL
REMARK 924 INTRA-LIGAND FREE ENERGY PREDICTED BY IDOCK:    1.92 KCAL/MOL
REMARK 927      BINDING AFFINITY PREDICTED BY RF-SCORE:    0.00 PKD
ROOT
HETATM    1  C   UNL     1     -10.663   7.119  69.375  1.00  0.00    -0.246 C  
HETATM    2  C   UNL     1     -11.903   6.777  68.773  1.00  0.00     0.745 C  
HETATM    3  C   UNL     1     -10.782   6.049  68.100  1.00  0.00    -0.353 C  
HETATM    4  C   UNL     1      -8.987   6.205  69.073  1.00  0.00    -0.125 C  
HETATM    5  C   UNL     1      -7.150   9.090  66.240  1.00  0.00    -0.086 C  
HETATM    6  C   UNL     1      -9.995   5.333  69.343  1.00  0.00    -0.288 C  
HETATM    7  C   UNL     1      -9.198   4.692  67.725  1.00  0.00    -0.150 C  
HETATM    8  C   UNL     1     -10.437   4.487  70.504  1.00  0.00     0.151 C  
HETATM    9  C   UNL     1      -8.565   8.680  65.781  1.00  0.00    -0.184 C  
HETATM   10  C   UNL     1      -8.436   8.014  64.344  1.00  0.00     0.055 C  
HETATM   11  C   UNL     1      -8.508   6.058  66.772  1.00  0.00    -0.110 C  
HETATM   12  O   UNL     1      -7.144   6.216  67.177  1.00  0.00    -0.067 OA 
HETATM   13  C   UNL     1      -9.246   7.601  66.735  1.00  0.00    -0.197 C  
HETATM   14  H   UNL     1      -6.780   6.935  66.675  1.00  0.00     0.000 HD 
HETATM   15  C   UNL     1      -9.790   8.247  68.189  1.00  0.00    -0.198 C  
HETATM   16  C   UNL     1     -10.690   9.446  67.880  1.00  0.00    -0.269 C  
HETATM   17  C   UNL     1      -9.994  10.536  67.051  1.00  0.00    -0.244 C  
HETATM   18  C   UNL     1     -11.028  11.670  66.869  1.00  0.00    -0.342 C  
HETATM   19  C   UNL     1      -9.385  10.010  65.745  1.00  0.00    -0.241 C  
HETATM   20  C   UNL     1      -9.417  10.766  64.626  1.00  0.00    -0.297 C  
HETATM   21  C   UNL     1      -8.768  10.262  63.404  1.00  0.00    -0.206 C  
HETATM   22  O   UNL     1      -8.171  11.013  62.645  1.00  0.00    -0.158 OA 
HETATM   23  C   UNL     1      -8.969   8.807  63.161  1.00  0.00     0.299 C  
ENDROOT
BRANCH   4  24
HETATM   24  C   UNL     1      -7.773   5.270  69.752  1.00  0.00    -0.073 C  
HETATM   25  C   UNL     1      -8.180   3.915  70.277  1.00  0.00    -0.071 C  
HETATM   26  O   UNL     1      -6.565   5.520  69.799  1.00  0.00    -0.045 OA 
ENDBRANCH   4  24
TORSDOF 1
ENDMDL
MODEL      106
REMARK 921   NORMALIZED FREE ENERGY PREDICTED BY IDOCK:   -1.32 KCAL/MOL
REMARK 922        TOTAL FREE ENERGY PREDICTED BY IDOCK:   -0.55 KCAL/MOL
REMARK 923 INTER-LIGAND FREE ENERGY PREDICTED BY IDOCK:   -1.28 KCAL/MOL
REMARK 924 INTRA-LIGAND FREE ENERGY PREDICTED BY IDOCK:    0.74 KCAL/MOL
REMARK 927      BINDING AFFINITY PREDICTED BY RF-SCORE:    0.00 PKD
ROOT
HETATM    1  C   UNL     1     -12.098  13.826  67.030  1.00  0.00    -0.436 C  
HETATM    2  C   UNL     1     -11.359  13.273  65.951  1.00  0.00    -0.333 C  
HETATM    3  C   UNL     1     -10.580  13.158  67.225  1.00  0.00    -0.250 C  
HETATM    4  C   UNL     1     -11.659  13.623  68.902  1.00  0.00    -0.362 C  
HETATM    5  C   UNL     1      -9.797  17.596  69.588  1.00  0.00     0.377 C  
HETATM    6  C   UNL     1     -11.633  12.432  68.246  1.00  0.00    -0.384 C  
HETATM    7  C   UNL     1      -9.951  12.544  69.153  1.00  0.00     0.361 C  
HETATM    8  C   UNL     1     -12.503  11.211  68.147  1.00  0.00     1.182 C  
HETATM    9  C   UNL     1      -9.167  16.886  68.372  1.00  0.00    -0.253 C  
HETATM   10  C   UNL     1      -7.615  16.710  68.661  1.00  0.00    -0.214 C  
HETATM   11  C   UNL     1      -9.433  14.262  69.321  1.00  0.00     0.224 C  
HETATM   12  O   UNL     1      -9.941  14.741  70.571  1.00  0.00    -0.190 OA 
HETATM   13  C   UNL     1      -9.763  15.431  68.116  1.00  0.00    -0.212 C  
HETATM   14  H   UNL     1      -9.668  15.646  70.660  1.00  0.00     0.000 HD 
HETATM   15  C   UNL     1     -11.302  15.451  67.442  1.00  0.00    -0.243 C  
HETATM   16  C   UNL     1     -11.271  16.327  66.188  1.00  0.00     0.284 C  
HETATM   17  C   UNL     1     -10.800  17.764  66.457  1.00  0.00     0.039 C  
HETATM   18  C   UNL     1     -10.866  18.505  65.103  1.00  0.00     0.871 C  
HETATM   19  C   UNL     1      -9.438  17.836  67.159  1.00  0.00    -0.265 C  
HETATM   20  C   UNL     1      -8.558  18.810  66.842  1.00  0.00    -0.290 C  
HETATM   21  C   UNL     1      -7.285  18.891  67.577  1.00  0.00    -0.214 C  
HETATM   22  O   UNL     1      -6.786  19.970  67.867  1.00  0.00    -0.252 OA 
HETATM   23  C   UNL     1      -6.655  17.571  67.857  1.00  0.00    -0.179 C  
ENDROOT
BRANCH   4  24
HETATM   24  C   UNL     1     -12.135  12.989  70.378  1.00  0.00    -0.314 C  
HETATM   25  C   UNL     1     -13.207  13.746  71.123  1.00  0.00    -0.277 C  
HETATM   26  O   UNL     1     -11.776  11.927  70.894  1.00  0.00     0.048 OA 
ENDBRANCH   4  24
TORSDOF 1
ENDMDL
MODEL      107
REMARK 921   NORMALIZED FREE ENERGY PREDICTED BY IDOCK:   -1.12 KCAL/MOL
REMARK 922        TOTAL FREE ENERGY PREDICTED BY IDOCK:   -0.34 KCAL/MOL
REMARK 923 INTER-LIGAND FREE ENERGY PREDICTED BY IDOCK:   -2.49 KCAL/MOL
REMARK 924 INTRA-LIGAND FREE ENERGY PREDICTED BY IDOCK:    2.16 KCAL/MOL
REMARK 927      BINDING AFFINITY PREDICTED BY RF-SCORE:    0.00 PKD
ROOT
HETATM    1  C   UNL     1      -9.799   9.330  67.464  1.00  0.00    -0.224 C  
HETATM    2  C   UNL     1     -10.751   9.378  66.411  1.00  0.00     0.078 C  
HETATM    3  C   UNL     1      -9.538  10.177  66.049  1.00  0.00    -0.265 C  
HETATM    4  C   UNL     1      -7.966   9.928  67.337  1.00  0.00    -0.106 C  
HETATM    5  C   UNL     1      -8.397  13.845  69.387  1.00  0.00     0.593 C  
HETATM    6  C   UNL     1      -8.307   9.127  66.294  1.00  0.00    -0.121 C  
HETATM    7  C   UNL     1      -7.560  10.698  65.496  1.00  0.00    -0.072 C  
HETATM    8  C   UNL     1      -8.049   7.710  65.863  1.00  0.00    -0.122 C  
HETATM    9  C   UNL     1      -9.436  13.688  68.257  1.00  0.00    -0.213 C  
HETATM   10  C   UNL     1      -9.206  14.867  67.217  1.00  0.00    -0.212 C  
HETATM   11  C   UNL     1      -7.853  12.140  66.537  1.00  0.00     0.197 C  
HETATM   12  O   UNL     1      -6.732  12.265  67.419  1.00  0.00    -0.124 OA 
HETATM   13  C   UNL     1      -9.288  12.321  67.453  1.00  0.00    -0.183 C  
HETATM   14  H   UNL     1      -6.886  13.025  67.968  1.00  0.00     0.000 HD 
HETATM   15  C   UNL     1      -9.851  10.984  68.302  1.00  0.00    -0.185 C  
HETATM   16  C   UNL     1     -11.282  11.271  68.762  1.00  0.00    -0.311 C  
HETATM   17  C   UNL     1     -11.406  12.531  69.630  1.00  0.00    -0.182 C  
HETATM   18  C   UNL     1     -12.895  12.642  70.028  1.00  0.00     0.475 C  
HETATM   19  C   UNL     1     -10.827  13.786  68.965  1.00  0.00    -0.247 C  
HETATM   20  C   UNL     1     -11.428  14.984  69.131  1.00  0.00    -0.320 C  
HETATM   21  C   UNL     1     -10.814  16.181  68.533  1.00  0.00    -0.313 C  
HETATM   22  O   UNL     1     -10.831  17.260  69.110  1.00  0.00    -0.207 OA 
HETATM   23  C   UNL     1     -10.255  15.966  67.170  1.00  0.00    -0.278 C  
ENDROOT
BRANCH   4  24
HETATM   24  C   UNL     1      -6.352   9.477  67.373  1.00  0.00    -0.065 C  
HETATM   25  C   UNL     1      -5.527   9.833  66.161  1.00  0.00    -0.047 C  
HETATM   26  O   UNL     1      -5.734   8.962  68.309  1.00  0.00    -0.038 OA 
ENDBRANCH   4  24
TORSDOF 1
ENDMDL
MODEL      108
REMARK 921   NORMALIZED FREE ENERGY PREDICTED BY IDOCK:   -1.10 KCAL/MOL
REMARK 922        TOTAL FREE ENERGY PREDICTED BY IDOCK:   -0.32 KCAL/MOL
REMARK 923 INTER-LIGAND FREE ENERGY PREDICTED BY IDOCK:   -1.58 KCAL/MOL
REMARK 924 INTRA-LIGAND FREE ENERGY PREDICTED BY IDOCK:    1.26 KCAL/MOL
REMARK 927      BINDING AFFINITY PREDICTED BY RF-SCORE:    0.00 PKD
ROOT
HETATM    1  C   UNL     1      -7.762   8.473  66.156  1.00  0.00    -0.093 C  
HETATM    2  C   UNL     1      -8.761   7.542  65.765  1.00  0.00    -0.142 C  
HETATM    3  C   UNL     1      -9.306   8.486  66.791  1.00  0.00    -0.232 C  
HETATM    4  C   UNL     1      -8.074  10.069  67.201  1.00  0.00    -0.117 C  
HETATM    5  C   UNL     1      -6.666   8.577  71.140  1.00  0.00    -0.061 C  
HETATM    6  C   UNL     1      -8.956   9.960  66.172  1.00  0.00    -0.177 C  
HETATM    7  C   UNL     1     -10.033  10.241  67.729  1.00  0.00    -0.203 C  
HETATM    8  C   UNL     1      -9.164  10.599  64.828  1.00  0.00    -0.255 C  
HETATM    9  C   UNL     1      -7.703   7.619  70.518  1.00  0.00    -0.089 C  
HETATM   10  C   UNL     1      -8.929   7.511  71.521  1.00  0.00    -0.142 C  
HETATM   11  C   UNL     1      -9.226   9.564  69.191  1.00  0.00    -0.163 C  
HETATM   12  O   UNL     1      -8.432  10.609  69.764  1.00  0.00    -0.385 OA 
HETATM   13  C   UNL     1      -8.281   8.138  69.127  1.00  0.00    -0.123 C  
HETATM   14  H   UNL     1      -8.007  10.252  70.535  1.00  0.00     0.000 HD 
HETATM   15  C   UNL     1      -7.201   7.968  67.851  1.00  0.00    -0.091 C  
HETATM   16  C   UNL     1      -6.723   6.515  67.811  1.00  0.00    -0.071 C  
HETATM   17  C   UNL     1      -6.065   6.050  69.118  1.00  0.00    -0.029 C  
HETATM   18  C   UNL     1      -5.617   4.590  68.885  1.00  0.00    -0.013 C  
HETATM   19  C   UNL     1      -6.953   6.257  70.352  1.00  0.00    -0.063 C  
HETATM   20  C   UNL     1      -6.953   5.349  71.352  1.00  0.00    -0.065 C  
HETATM   21  C   UNL     1      -7.766   5.606  72.552  1.00  0.00    -0.102 C  
HETATM   22  O   UNL     1      -7.370   5.293  73.667  1.00  0.00    -0.088 OA 
HETATM   23  C   UNL     1      -9.102   6.199  72.269  1.00  0.00    -0.137 C  
ENDROOT
BRANCH   4  24
HETATM   24  C   UNL     1      -8.046  11.745  67.218  1.00  0.00    -0.164 C  
HETATM   25  C   UNL     1      -7.423  12.420  66.021  1.00  0.00     1.595 C  
HETATM   26  O   UNL     1      -8.551  12.499  68.054  1.00  0.00    -0.168 OA 
ENDBRANCH   4  24
TORSDOF 1
ENDMDL
MODEL      109
REMARK 921   NORMALIZED FREE ENERGY PREDICTED BY IDOCK:   -0.39 KCAL/MOL
REMARK 922        TOTAL FREE ENERGY PREDICTED BY IDOCK:    0.44 KCAL/MOL
REMARK 923 INTER-LIGAND FREE ENERGY PREDICTED BY IDOCK:   -0.53 KCAL/MOL
REMARK 924 INTRA-LIGAND FREE ENERGY PREDICTED BY IDOCK:    0.97 KCAL/MOL
REMARK 927      BINDING AFFINITY PREDICTED BY RF-SCORE:    0.00 PKD
ROOT
HETATM    1  C   UNL     1     -11.682  14.675  67.772  1.00  0.00    -0.386 C  
HETATM    2  C   UNL     1     -12.274  13.706  68.625  1.00  0.00    -0.189 C  
HETATM    3  C   UNL     1     -10.781  13.608  68.689  1.00  0.00    -0.272 C  
HETATM    4  C   UNL     1      -9.808  15.150  67.757  1.00  0.00    -0.223 C  
HETATM    5  C   UNL     1      -8.557  12.840  64.177  1.00  0.00     3.528 C  
HETATM    6  C   UNL     1     -10.317  15.142  69.019  1.00  0.00    -0.244 C  
HETATM    7  C   UNL     1      -8.750  14.045  69.101  1.00  0.00     0.288 C  
HETATM    8  C   UNL     1     -10.737  16.158  70.043  1.00  0.00    -0.318 C  
HETATM    9  C   UNL     1      -9.314  11.947  65.182  1.00  0.00     0.029 C  
HETATM   10  C   UNL     1      -8.339  10.769  65.616  1.00  0.00    -0.144 C  
HETATM   11  C   UNL     1      -8.453  13.240  67.516  1.00  0.00    -0.202 C  
HETATM   12  O   UNL     1      -7.600  14.100  66.753  1.00  0.00    -0.242 OA 
HETATM   13  C   UNL     1      -9.736  12.716  66.511  1.00  0.00    -0.256 C  
HETATM   14  H   UNL     1      -7.444  13.675  65.918  1.00  0.00     0.000 HD 
HETATM   15  C   UNL     1     -11.038  13.756  66.294  1.00  0.00    -0.302 C  
HETATM   16  C   UNL     1     -12.184  12.970  65.652  1.00  0.00    -0.521 C  
HETATM   17  C   UNL     1     -11.805  12.320  64.313  1.00  0.00    -0.482 C  
HETATM   18  C   UNL     1     -13.077  11.609  63.799  1.00  0.00     0.111 C  
HETATM   19  C   UNL     1     -10.564  11.423  64.403  1.00  0.00    -0.403 C  
HETATM   20  C   UNL     1     -10.496  10.280  63.687  1.00  0.00     0.722 C  
HETATM   21  C   UNL     1      -9.267   9.472  63.744  1.00  0.00    -0.023 C  
HETATM   22  O   UNL     1      -8.838   8.895  62.754  1.00  0.00    -0.169 OA 
HETATM   23  C   UNL     1      -8.661   9.375  65.101  1.00  0.00    -0.188 C  
ENDROOT
BRANCH   4  24
HETATM   24  C   UNL     1      -8.680  16.357  68.041  1.00  0.00    -0.183 C  
HETATM   25  C   UNL     1      -8.252  17.173  66.847  1.00  0.00    -0.251 C  
HETATM   26  O   UNL     1      -8.219  16.717  69.128  1.00  0.00    -0.210 OA 
ENDBRANCH   4  24
TORSDOF 1
ENDMDL
MODEL      110
REMARK 921   NORMALIZED FREE ENERGY PREDICTED BY IDOCK:    0.81 KCAL/MOL
REMARK 922        TOTAL FREE ENERGY PREDICTED BY IDOCK:    1.71 KCAL/MOL
REMARK 923 INTER-LIGAND FREE ENERGY PREDICTED BY IDOCK:   -0.81 KCAL/MOL
REMARK 924 INTRA-LIGAND FREE ENERGY PREDICTED BY IDOCK:    2.52 KCAL/MOL
REMARK 927      BINDING AFFINITY PREDICTED BY RF-SCORE:    0.00 PKD
ROOT
HETATM    1  C   UNL     1      -9.704  12.716  67.172  1.00  0.00    -0.211 C  
HETATM    2  C   UNL     1     -10.857  12.493  67.971  1.00  0.00    -0.252 C  
HETATM    3  C   UNL     1      -9.697  12.884  68.833  1.00  0.00     0.181 C  
HETATM    4  C   UNL     1      -8.067  13.542  67.783  1.00  0.00    -0.177 C  
HETATM    5  C   UNL     1      -5.627   9.871  68.330  1.00  0.00    -0.039 C  
HETATM    6  C   UNL     1      -9.160  14.266  68.140  1.00  0.00    -0.193 C  
HETATM    7  C   UNL     1      -8.169  14.023  69.759  1.00  0.00     0.985 C  
HETATM    8  C   UNL     1      -9.831  15.537  67.699  1.00  0.00    -0.213 C  
HETATM    9  C   UNL     1      -6.979   9.758  69.065  1.00  0.00    -0.058 C  
HETATM   10  C   UNL     1      -6.676   9.539  70.609  1.00  0.00    -0.110 C  
HETATM   11  C   UNL     1      -7.251  12.472  69.715  1.00  0.00     0.686 C  
HETATM   12  O   UNL     1      -5.958  12.756  69.170  1.00  0.00    -0.075 OA 
HETATM   13  C   UNL     1      -7.869  11.074  68.946  1.00  0.00    -0.138 C  
HETATM   14  H   UNL     1      -5.474  11.939  69.148  1.00  0.00     0.000 HD 
HETATM   15  C   UNL     1      -8.585  11.259  67.437  1.00  0.00    -0.136 C  
HETATM   16  C   UNL     1      -9.344   9.974  67.100  1.00  0.00    -0.173 C  
HETATM   17  C   UNL     1      -8.459   8.720  67.107  1.00  0.00    -0.110 C  
HETATM   18  C   UNL     1      -9.373   7.538  66.714  1.00  0.00    -0.209 C  
HETATM   19  C   UNL     1      -7.693   8.525  68.422  1.00  0.00    -0.101 C  
HETATM   20  C   UNL     1      -7.501   7.285  68.922  1.00  0.00    -0.101 C  
HETATM   21  C   UNL     1      -6.708   7.124  70.151  1.00  0.00    -0.051 C  
HETATM   22  O   UNL     1      -5.952   6.173  70.300  1.00  0.00    -0.027 OA 
HETATM   23  C   UNL     1      -6.966   8.163  71.186  1.00  0.00    -0.053 C  
ENDROOT
BRANCH   4  24
HETATM   24  C   UNL     1      -7.037  14.856  67.639  1.00  0.00    -0.186 C  
HETATM   25  C   UNL     1      -6.401  15.357  68.913  1.00  0.00    -0.106 C  
HETATM   26  O   UNL     1      -6.666  15.414  66.602  1.00  0.00     0.060 OA 
ENDBRANCH   4  24
TORSDOF 1
ENDMDL
MODEL      111
REMARK 921   NORMALIZED FREE ENERGY PREDICTED BY IDOCK:    0.92 KCAL/MOL
REMARK 922        TOTAL FREE ENERGY PREDICTED BY IDOCK:    1.82 KCAL/MOL
REMARK 923 INTER-LIGAND FREE ENERGY PREDICTED BY IDOCK:   -1.23 KCAL/MOL
REMARK 924 INTRA-LIGAND FREE ENERGY PREDICTED BY IDOCK:    3.04 KCAL/MOL
REMARK 927      BINDING AFFINITY PREDICTED BY RF-SCORE:    0.00 PKD
ROOT
HETATM    1  C   UNL     1     -10.659   9.776  67.074  1.00  0.00    -0.269 C  
HETATM    2  C   UNL     1     -11.531   9.575  68.177  1.00  0.00     0.486 C  
HETATM    3  C   UNL     1     -10.234  10.162  68.642  1.00  0.00    -0.193 C  
HETATM    4  C   UNL     1      -9.017  10.795  67.123  1.00  0.00    -0.145 C  
HETATM    5  C   UNL     1      -6.140   7.421  67.370  1.00  0.00    -0.046 C  
HETATM    6  C   UNL     1     -10.050  11.477  67.686  1.00  0.00    -0.202 C  
HETATM    7  C   UNL     1      -8.648  11.523  68.989  1.00  0.00     0.120 C  
HETATM    8  C   UNL     1     -10.946  12.624  67.313  1.00  0.00    -0.291 C  
HETATM    9  C   UNL     1      -7.231   7.306  68.454  1.00  0.00    -0.091 C  
HETATM   10  C   UNL     1      -6.512   7.315  69.870  1.00  0.00    -0.035 C  
HETATM   11  C   UNL     1      -7.613  10.053  68.861  1.00  0.00    -0.086 C  
HETATM   12  O   UNL     1      -6.546  10.359  67.956  1.00  0.00    -0.060 OA 
HETATM   13  C   UNL     1      -8.258   8.523  68.444  1.00  0.00    -0.123 C  
HETATM   14  H   UNL     1      -6.000   9.584  67.889  1.00  0.00     0.000 HD 
HETATM   15  C   UNL     1      -9.360   8.455  67.177  1.00  0.00    -0.192 C  
HETATM   16  C   UNL     1     -10.038   7.083  67.199  1.00  0.00    -0.283 C  
HETATM   17  C   UNL     1      -9.052   5.910  67.097  1.00  0.00    -0.113 C  
HETATM   18  C   UNL     1      -9.905   4.622  67.098  1.00  0.00    -0.227 C  
HETATM   19  C   UNL     1      -7.952   5.948  68.166  1.00  0.00    -0.109 C  
HETATM   20  C   UNL     1      -7.504   4.803  68.723  1.00  0.00    -0.065 C  
HETATM   21  C   UNL     1      -6.403   4.865  69.699  1.00  0.00    -0.031 C  
HETATM   22  O   UNL     1      -5.537   4.001  69.736  1.00  0.00    -0.015 OA 
HETATM   23  C   UNL     1      -6.490   6.009  70.648  1.00  0.00    -0.040 C  
ENDROOT
BRANCH   4  24
HETATM   24  C   UNL     1      -8.209  12.153  66.564  1.00  0.00     0.064 C  
HETATM   25  C   UNL     1      -6.773  12.310  67.001  1.00  0.00    -0.042 C  
HETATM   26  O   UNL     1      -8.619  12.999  65.765  1.00  0.00     0.760 OA 
ENDBRANCH   4  24
TORSDOF 1
ENDMDL
MODEL      112
REMARK 921   NORMALIZED FREE ENERGY PREDICTED BY IDOCK:    2.42 KCAL/MOL
REMARK 922        TOTAL FREE ENERGY PREDICTED BY IDOCK:    3.41 KCAL/MOL
REMARK 923 INTER-LIGAND FREE ENERGY PREDICTED BY IDOCK:    1.00 KCAL/MOL
REMARK 924 INTRA-LIGAND FREE ENERGY PREDICTED BY IDOCK:    2.42 KCAL/MOL
REMARK 927      BINDING AFFINITY PREDICTED BY RF-SCORE:    0.00 PKD
ROOT
HETATM    1  C   UNL     1      -6.785   6.401  69.586  1.00  0.00    -0.053 C  
HETATM    2  C   UNL     1      -5.375   6.247  69.648  1.00  0.00    -0.013 C  
HETATM    3  C   UNL     1      -5.877   6.923  70.886  1.00  0.00    -0.028 C  
HETATM    4  C   UNL     1      -7.917   6.917  71.065  1.00  0.00    -0.102 C  
HETATM    5  C   UNL     1      -8.508  11.188  70.001  1.00  0.00     1.478 C  
HETATM    6  C   UNL     1      -7.059   5.920  71.410  1.00  0.00    -0.077 C  
HETATM    7  C   UNL     1      -6.826   7.268  72.749  1.00  0.00    -0.068 C  
HETATM    8  C   UNL     1      -7.133   4.439  71.654  1.00  0.00    -0.046 C  
HETATM    9  C   UNL     1      -7.010  10.819  70.020  1.00  0.00    -0.091 C  
HETATM   10  C   UNL     1      -6.295  11.744  71.095  1.00  0.00     1.455 C  
HETATM   11  C   UNL     1      -7.147   8.905  72.064  1.00  0.00     0.076 C  
HETATM   12  O   UNL     1      -8.536   9.188  72.268  1.00  0.00    -0.280 OA 
HETATM   13  C   UNL     1      -6.741   9.309  70.452  1.00  0.00    -0.073 C  
HETATM   14  H   UNL     1      -8.705  10.050  71.908  1.00  0.00     0.000 HD 
HETATM   15  C   UNL     1      -7.108   8.196  69.247  1.00  0.00    -0.060 C  
HETATM   16  C   UNL     1      -6.374   8.607  67.968  1.00  0.00    -0.056 C  
HETATM   17  C   UNL     1      -6.720  10.025  67.492  1.00  0.00    -0.072 C  
HETATM   18  C   UNL     1      -5.926  10.253  66.187  1.00  0.00    -0.080 C  
HETATM   19  C   UNL     1      -6.501  11.097  68.568  1.00  0.00    -0.058 C  
HETATM   20  C   UNL     1      -6.031  12.316  68.229  1.00  0.00    -0.054 C  
HETATM   21  C   UNL     1      -5.891  13.345  69.273  1.00  0.00    -0.087 C  
HETATM   22  O   UNL     1      -6.136  14.522  69.043  1.00  0.00    -0.087 OA 
HETATM   23  C   UNL     1      -5.372  12.833  70.571  1.00  0.00    -0.141 C  
ENDROOT
BRANCH   4  24
HETATM   24  C   UNL     1      -9.145   6.445  72.104  1.00  0.00    -0.140 C  
HETATM   25  C   UNL     1      -8.980   6.821  73.556  1.00  0.00    -0.153 C  
HETATM   26  O   UNL     1     -10.213   5.901  71.810  1.00  0.00    -0.193 OA 
ENDBRANCH   4  24
TORSDOF 1
ENDMDL
MODEL      113
REMARK 921   NORMALIZED FREE ENERGY PREDICTED BY IDOCK:    2.59 KCAL/MOL
REMARK 922        TOTAL FREE ENERGY PREDICTED BY IDOCK:    3.59 KCAL/MOL
REMARK 923 INTER-LIGAND FREE ENERGY PREDICTED BY IDOCK:    1.91 KCAL/MOL
REMARK 924 INTRA-LIGAND FREE ENERGY PREDICTED BY IDOCK:    1.68 KCAL/MOL
REMARK 927      BINDING AFFINITY PREDICTED BY RF-SCORE:    0.00 PKD
ROOT
HETATM    1  C   UNL     1      -6.651   5.655  69.749  1.00  0.00    -0.050 C  
HETATM    2  C   UNL     1      -5.239   5.504  69.761  1.00  0.00    -0.004 C  
HETATM    3  C   UNL     1      -5.639   6.694  70.576  1.00  0.00    -0.023 C  
HETATM    4  C   UNL     1      -7.655   6.837  70.903  1.00  0.00    -0.088 C  
HETATM    5  C   UNL     1      -8.381  10.135  68.019  1.00  0.00    -0.117 C  
HETATM    6  C   UNL     1      -6.760   6.089  71.603  1.00  0.00    -0.059 C  
HETATM    7  C   UNL     1      -6.426   7.899  72.132  1.00  0.00    -0.056 C  
HETATM    8  C   UNL     1      -6.798   4.896  72.516  1.00  0.00    -0.069 C  
HETATM    9  C   UNL     1      -6.883   9.771  68.086  1.00  0.00    -0.069 C  
HETATM   10  C   UNL     1      -6.087  11.068  68.542  1.00  0.00    -0.042 C  
HETATM   11  C   UNL     1      -6.822   9.036  70.792  1.00  0.00    -0.075 C  
HETATM   12  O   UNL     1      -8.191   9.425  70.952  1.00  0.00    -0.255 OA 
HETATM   13  C   UNL     1      -6.562   8.629  69.150  1.00  0.00    -0.047 C  
HETATM   14  H   UNL     1      -8.400  10.025  70.245  1.00  0.00     0.000 HD 
HETATM   15  C   UNL     1      -7.020   7.095  68.639  1.00  0.00    -0.082 C  
HETATM   16  C   UNL     1      -6.405   6.839  67.261  1.00  0.00    -0.047 C  
HETATM   17  C   UNL     1      -6.805   7.882  66.208  1.00  0.00    -0.058 C  
HETATM   18  C   UNL     1      -6.130   7.449  64.887  1.00  0.00    -0.038 C  
HETATM   19  C   UNL     1      -6.505   9.324  66.636  1.00  0.00    -0.067 C  
HETATM   20  C   UNL     1      -6.079  10.229  65.730  1.00  0.00    -0.107 C  
HETATM   21  C   UNL     1      -5.860  11.621  66.157  1.00  0.00     0.314 C  
HETATM   22  O   UNL     1      -6.135  12.562  65.425  1.00  0.00     3.500 OA 
HETATM   23  C   UNL     1      -5.224  11.757  67.497  1.00  0.00    -0.074 C  
ENDROOT
BRANCH   4  24
HETATM   24  C   UNL     1      -8.783   6.943  72.138  1.00  0.00    -0.127 C  
HETATM   25  C   UNL     1     -10.002   7.790  71.866  1.00  0.00    -0.222 C  
HETATM   26  O   UNL     1      -8.781   6.341  73.216  1.00  0.00    -0.126 OA 
ENDBRANCH   4  24
TORSDOF 1
ENDMDL
MODEL      114
REMARK 921   NORMALIZED FREE ENERGY PREDICTED BY IDOCK:    3.32 KCAL/MOL
REMARK 922        TOTAL FREE ENERGY PREDICTED BY IDOCK:    4.36 KCAL/MOL
REMARK 923 INTER-LIGAND FREE ENERGY PREDICTED BY IDOCK:    2.42 KCAL/MOL
REMARK 924 INTRA-LIGAND FREE ENERGY PREDICTED BY IDOCK:    1.94 KCAL/MOL
REMARK 927      BINDING AFFINITY PREDICTED BY RF-SCORE:    0.00 PKD
ROOT
HETATM    1  C   UNL     1     -10.864   4.912  69.016  1.00  0.00     0.780 C  
HETATM    2  C   UNL     1     -11.018   4.589  67.642  1.00  0.00     1.743 C  
HETATM    3  C   UNL     1      -9.593   4.401  68.062  1.00  0.00    -0.204 C  
HETATM    4  C   UNL     1      -9.301   4.523  70.084  1.00  0.00    -0.217 C  
HETATM    5  C   UNL     1      -7.451   8.560  70.063  1.00  0.00    -0.060 C  
HETATM    6  C   UNL     1      -9.712   3.436  69.378  1.00  0.00    -0.019 C  
HETATM    7  C   UNL     1      -7.849   3.620  68.977  1.00  0.00    -0.052 C  
HETATM    8  C   UNL     1     -10.431   2.147  69.660  1.00  0.00     2.019 C  
HETATM    9  C   UNL     1      -7.778   8.088  68.631  1.00  0.00    -0.105 C  
HETATM   10  C   UNL     1      -6.419   8.052  67.809  1.00  0.00    -0.053 C  
HETATM   11  C   UNL     1      -7.350   5.350  69.059  1.00  0.00    -0.070 C  
HETATM   12  O   UNL     1      -6.910   5.605  70.398  1.00  0.00    -0.046 OA 
HETATM   13  C   UNL     1      -8.393   6.619  68.580  1.00  0.00    -0.122 C  
HETATM   14  H   UNL     1      -6.646   6.516  70.441  1.00  0.00     0.000 HD 
HETATM   15  C   UNL     1      -9.996   6.550  69.082  1.00  0.00    -0.163 C  
HETATM   16  C   UNL     1     -10.799   7.578  68.282  1.00  0.00    -0.052 C  
HETATM   17  C   UNL     1     -10.269   9.013  68.421  1.00  0.00    -0.232 C  
HETATM   18  C   UNL     1     -11.211   9.908  67.586  1.00  0.00    -0.032 C  
HETATM   19  C   UNL     1      -8.781   9.148  68.070  1.00  0.00    -0.129 C  
HETATM   20  C   UNL     1      -8.329  10.247  67.431  1.00  0.00    -0.118 C  
HETATM   21  C   UNL     1      -6.887  10.378  67.163  1.00  0.00    -0.083 C  
HETATM   22  O   UNL     1      -6.322  11.460  67.239  1.00  0.00    -0.076 OA 
HETATM   23  C   UNL     1      -6.227   9.113  66.737  1.00  0.00    -0.065 C  
ENDROOT
BRANCH   4  24
HETATM   24  C   UNL     1      -8.686   3.655  71.379  1.00  0.00    -0.085 C  
HETATM   25  C   UNL     1      -7.780   2.496  71.044  1.00  0.00    -0.039 C  
HETATM   26  O   UNL     1      -8.815   3.902  72.582  1.00  0.00    -0.100 OA 
ENDBRANCH   4  24
TORSDOF 1
ENDMDL
MODEL      115
REMARK 921   NORMALIZED FREE ENERGY PREDICTED BY IDOCK:    8.55 KCAL/MOL
REMARK 922        TOTAL FREE ENERGY PREDICTED BY IDOCK:    9.90 KCAL/MOL
REMARK 923 INTER-LIGAND FREE ENERGY PREDICTED BY IDOCK:    7.91 KCAL/MOL
REMARK 924 INTRA-LIGAND FREE ENERGY PREDICTED BY IDOCK:    1.99 KCAL/MOL
REMARK 927      BINDING AFFINITY PREDICTED BY RF-SCORE:    0.00 PKD
ROOT
HETATM    1  C   UNL     1     -12.546  10.852  71.231  1.00  0.00    -0.526 C  
HETATM    2  C   UNL     1     -11.473  10.405  72.048  1.00  0.00     1.523 C  
HETATM    3  C   UNL     1     -11.110  11.692  71.373  1.00  0.00     3.469 C  
HETATM    4  C   UNL     1     -12.679  12.603  70.425  1.00  0.00     0.017 C  
HETATM    5  C   UNL     1     -11.433  11.536  66.297  1.00  0.00    -0.124 C  
HETATM    6  C   UNL     1     -12.361  12.679  71.744  1.00  0.00     0.300 C  
HETATM    7  C   UNL     1     -11.046  13.744  70.849  1.00  0.00     1.300 C  
HETATM    8  C   UNL     1     -13.060  13.034  73.026  1.00  0.00     1.039 C  
HETATM    9  C   UNL     1     -10.411  11.033  67.337  1.00  0.00    -0.242 C  
HETATM   10  C   UNL     1      -9.010  11.706  67.007  1.00  0.00    -0.182 C  
HETATM   11  C   UNL     1     -10.741  13.113  69.188  1.00  0.00    -0.030 C  
HETATM   12  O   UNL     1     -11.640  13.789  68.302  1.00  0.00    -0.295 OA 
HETATM   13  C   UNL     1     -10.784  11.439  68.832  1.00  0.00    -0.248 C  
HETATM   14  H   UNL     1     -11.479  13.457  67.427  1.00  0.00     0.000 HD 
HETATM   15  C   UNL     1     -12.044  10.531  69.474  1.00  0.00    -0.208 C  
HETATM   16  C   UNL     1     -11.705   9.048  69.310  1.00  0.00     0.795 C  
HETATM   17  C   UNL     1     -11.454   8.634  67.853  1.00  0.00     1.278 C  
HETATM   18  C   UNL     1     -11.166   7.117  67.874  1.00  0.00     0.064 C  
HETATM   19  C   UNL     1     -10.377   9.479  67.159  1.00  0.00    -0.320 C  
HETATM   20  C   UNL     1      -9.524   8.909  66.282  1.00  0.00    -0.304 C  
HETATM   21  C   UNL     1      -8.543   9.756  65.584  1.00  0.00    -0.141 C  
HETATM   22  O   UNL     1      -8.243   9.551  64.415  1.00  0.00    -0.129 OA 
HETATM   23  C   UNL     1      -7.924  10.807  66.438  1.00  0.00    -0.151 C  
ENDROOT
BRANCH   4  24
HETATM   24  C   UNL     1     -13.526  14.048  70.375  1.00  0.00     0.535 C  
HETATM   25  C   UNL     1     -14.288  14.425  71.621  1.00  0.00    -0.516 C  
HETATM   26  O   UNL     1     -13.534  14.887  69.470  1.00  0.00     1.007 OA 
ENDBRANCH   4  24
TORSDOF 1
ENDMDL
MODEL      116
REMARK 921   NORMALIZED FREE ENERGY PREDICTED BY IDOCK:    9.81 KCAL/MOL
REMARK 922        TOTAL FREE ENERGY PREDICTED BY IDOCK:   11.23 KCAL/MOL
REMARK 923 INTER-LIGAND FREE ENERGY PREDICTED BY IDOCK:    8.79 KCAL/MOL
REMARK 924 INTRA-LIGAND FREE ENERGY PREDICTED BY IDOCK:    2.45 KCAL/MOL
REMARK 927      BINDING AFFINITY PREDICTED BY RF-SCORE:    0.00 PKD
ROOT
HETATM    1  C   UNL     1     -12.122  16.184  67.617  1.00  0.00     0.935 C  
HETATM    2  C   UNL     1     -12.139  15.331  68.752  1.00  0.00    -0.195 C  
HETATM    3  C   UNL     1     -10.734  15.527  68.272  1.00  0.00    -0.271 C  
HETATM    4  C   UNL     1     -10.540  16.984  66.846  1.00  0.00    -0.208 C  
HETATM    5  C   UNL     1     -10.000  14.225  63.408  1.00  0.00     5.626 C  
HETATM    6  C   UNL     1     -10.586  17.155  68.194  1.00  0.00    -0.380 C  
HETATM    7  C   UNL     1      -8.858  16.411  67.841  1.00  0.00    -0.184 C  
HETATM    8  C   UNL     1     -10.886  18.273  69.153  1.00  0.00     0.839 C  
HETATM    9  C   UNL     1     -10.135  13.447  64.733  1.00  0.00    -0.262 C  
HETATM   10  C   UNL     1      -8.811  12.592  64.932  1.00  0.00     1.530 C  
HETATM   11  C   UNL     1      -8.908  15.351  66.384  1.00  0.00    -0.305 C  
HETATM   12  O   UNL     1      -8.597  16.168  65.250  1.00  0.00     0.430 OA 
HETATM   13  C   UNL     1     -10.275  14.394  66.006  1.00  0.00    -0.328 C  
HETATM   14  H   UNL     1      -8.623  15.609  64.482  1.00  0.00     0.000 HD 
HETATM   15  C   UNL     1     -11.793  15.103  66.145  1.00  0.00     0.097 C  
HETATM   16  C   UNL     1     -12.851  13.999  66.085  1.00  0.00    -0.162 C  
HETATM   17  C   UNL     1     -12.784  13.155  64.804  1.00  0.00    -0.373 C  
HETATM   18  C   UNL     1     -13.933  12.127  64.898  1.00  0.00     4.212 C  
HETATM   19  C   UNL     1     -11.399  12.544  64.550  1.00  0.00    -0.379 C  
HETATM   20  C   UNL     1     -11.287  11.307  64.022  1.00  0.00    -0.136 C  
HETATM   21  C   UNL     1      -9.946  10.772  63.731  1.00  0.00    -0.351 C  
HETATM   22  O   UNL     1      -9.738  10.084  62.741  1.00  0.00    -0.200 OA 
HETATM   23  C   UNL     1      -8.924  11.085  64.768  1.00  0.00    -0.101 C  
ENDROOT
BRANCH   4  24
HETATM   24  C   UNL     1      -9.721  18.410  66.526  1.00  0.00    -0.348 C  
HETATM   25  C   UNL     1      -8.228  18.394  66.745  1.00  0.00    -0.267 C  
HETATM   26  O   UNL     1     -10.180  19.452  66.048  1.00  0.00    -0.433 OA 
ENDBRANCH   4  24
TORSDOF 1
ENDMDL
MODEL      117
REMARK 921   NORMALIZED FREE ENERGY PREDICTED BY IDOCK:    9.89 KCAL/MOL
REMARK 922        TOTAL FREE ENERGY PREDICTED BY IDOCK:   11.31 KCAL/MOL
REMARK 923 INTER-LIGAND FREE ENERGY PREDICTED BY IDOCK:   10.28 KCAL/MOL
REMARK 924 INTRA-LIGAND FREE ENERGY PREDICTED BY IDOCK:    1.03 KCAL/MOL
REMARK 927      BINDING AFFINITY PREDICTED BY RF-SCORE:    0.00 PKD
ROOT
HETATM    1  C   UNL     1      -6.565  11.582  70.136  1.00  0.00     0.099 C  
HETATM    2  C   UNL     1      -5.821  10.577  69.463  1.00  0.00    -0.040 C  
HETATM    3  C   UNL     1      -7.250  10.548  69.018  1.00  0.00    -0.090 C  
HETATM    4  C   UNL     1      -8.354  12.144  69.669  1.00  0.00     1.573 C  
HETATM    5  C   UNL     1     -10.592   9.938  72.806  1.00  0.00     4.588 C  
HETATM    6  C   UNL     1      -7.541  12.097  68.580  1.00  0.00    -0.097 C  
HETATM    7  C   UNL     1      -9.084  11.074  68.097  1.00  0.00    -0.155 C  
HETATM    8  C   UNL     1      -6.823  13.081  67.699  1.00  0.00    -0.155 C  
HETATM    9  C   UNL     1      -9.647   8.998  72.029  1.00  0.00    -0.120 C  
HETATM   10  C   UNL     1     -10.533   7.863  71.359  1.00  0.00    -0.242 C  
HETATM   11  C   UNL     1      -9.816  10.302  69.553  1.00  0.00    -0.220 C  
HETATM   12  O   UNL     1     -10.794  11.210  70.071  1.00  0.00    -0.467 OA 
HETATM   13  C   UNL     1      -8.861   9.732  70.853  1.00  0.00     0.401 C  
HETATM   14  H   UNL     1     -11.180  10.803  70.838  1.00  0.00     0.000 HD 
HETATM   15  C   UNL     1      -7.610  10.713  71.399  1.00  0.00     3.667 C  
HETATM   16  C   UNL     1      -6.707   9.882  72.313  1.00  0.00     1.339 C  
HETATM   17  C   UNL     1      -7.447   9.266  73.510  1.00  0.00     1.109 C  
HETATM   18  C   UNL     1      -6.385   8.503  74.333  1.00  0.00    -0.155 C  
HETATM   19  C   UNL     1      -8.665   8.426  73.103  1.00  0.00    -0.214 C  
HETATM   20  C   UNL     1      -8.970   7.297  73.777  1.00  0.00    -0.251 C  
HETATM   21  C   UNL     1     -10.180   6.546  73.406  1.00  0.00    -0.239 C  
HETATM   22  O   UNL     1     -10.876   6.002  74.252  1.00  0.00    -0.029 OA 
HETATM   23  C   UNL     1     -10.421   6.462  71.939  1.00  0.00    -0.239 C  
ENDROOT
BRANCH   4  24
HETATM   24  C   UNL     1      -9.313  13.399  69.105  1.00  0.00     0.552 C  
HETATM   25  C   UNL     1      -8.714  14.782  69.162  1.00  0.00    -0.085 C  
HETATM   26  O   UNL     1     -10.420  13.318  68.566  1.00  0.00    -0.247 OA 
ENDBRANCH   4  24
TORSDOF 1
ENDMDL
MODEL      118
REMARK 921   NORMALIZED FREE ENERGY PREDICTED BY IDOCK:    9.93 KCAL/MOL
REMARK 922        TOTAL FREE ENERGY PREDICTED BY IDOCK:   11.36 KCAL/MOL
REMARK 923 INTER-LIGAND FREE ENERGY PREDICTED BY IDOCK:    8.63 KCAL/MOL
REMARK 924 INTRA-LIGAND FREE ENERGY PREDICTED BY IDOCK:    2.73 KCAL/MOL
REMARK 927      BINDING AFFINITY PREDICTED BY RF-SCORE:    0.00 PKD
ROOT
HETATM    1  C   UNL     1     -10.516  12.765  68.208  1.00  0.00    -0.250 C  
HETATM    2  C   UNL     1     -11.142  11.628  68.786  1.00  0.00    -0.283 C  
HETATM    3  C   UNL     1      -9.667  11.595  69.043  1.00  0.00     0.067 C  
HETATM    4  C   UNL     1      -8.698  13.328  68.542  1.00  0.00    -0.059 C  
HETATM    5  C   UNL     1      -6.821  11.775  64.829  1.00  0.00     3.139 C  
HETATM    6  C   UNL     1      -9.365  13.064  69.698  1.00  0.00     1.866 C  
HETATM    7  C   UNL     1      -7.745  12.050  69.810  1.00  0.00     1.161 C  
HETATM    8  C   UNL     1      -9.990  13.854  70.813  1.00  0.00     3.605 C  
HETATM    9  C   UNL     1      -7.633  10.677  65.545  1.00  0.00    -0.072 C  
HETATM   10  C   UNL     1      -6.639   9.490  65.901  1.00  0.00    -0.078 C  
HETATM   11  C   UNL     1      -7.185  11.563  68.167  1.00  0.00    -0.080 C  
HETATM   12  O   UNL     1      -6.305  12.590  67.694  1.00  0.00    -0.107 OA 
HETATM   13  C   UNL     1      -8.282  11.169  66.914  1.00  0.00    -0.149 C  
HETATM   14  H   UNL     1      -6.009  12.333  66.829  1.00  0.00     0.000 HD 
HETATM   15  C   UNL     1      -9.619  12.165  66.699  1.00  0.00    -0.226 C  
HETATM   16  C   UNL     1     -10.608  11.454  65.773  1.00  0.00    -0.315 C  
HETATM   17  C   UNL     1     -10.011  11.079  64.409  1.00  0.00    -0.368 C  
HETATM   18  C   UNL     1     -11.148  10.412  63.604  1.00  0.00     1.852 C  
HETATM   19  C   UNL     1      -8.729  10.243  64.517  1.00  0.00    -0.205 C  
HETATM   20  C   UNL     1      -8.482   9.256  63.630  1.00  0.00    -0.200 C  
HETATM   21  C   UNL     1      -7.215   8.513  63.720  1.00  0.00    -0.098 C  
HETATM   22  O   UNL     1      -6.619   8.148  62.715  1.00  0.00    -0.085 OA 
HETATM   23  C   UNL     1      -6.786   8.200  65.111  1.00  0.00    -0.058 C  
ENDROOT
BRANCH   4  24
HETATM   24  C   UNL     1      -7.709  14.517  69.189  1.00  0.00    -0.082 C  
HETATM   25  C   UNL     1      -6.368  14.066  69.713  1.00  0.00    -0.134 C  
HETATM   26  O   UNL     1      -7.910  15.734  69.212  1.00  0.00    -0.212 OA 
ENDBRANCH   4  24
TORSDOF 1
ENDMDL
MODEL      119
REMARK 921   NORMALIZED FREE ENERGY PREDICTED BY IDOCK:   13.74 KCAL/MOL
REMARK 922        TOTAL FREE ENERGY PREDICTED BY IDOCK:   15.39 KCAL/MOL
REMARK 923 INTER-LIGAND FREE ENERGY PREDICTED BY IDOCK:   12.65 KCAL/MOL
REMARK 924 INTRA-LIGAND FREE ENERGY PREDICTED BY IDOCK:    2.74 KCAL/MOL
REMARK 927      BINDING AFFINITY PREDICTED BY RF-SCORE:    0.00 PKD
ROOT
HETATM    1  C   UNL     1     -10.677  12.396  66.497  1.00  0.00    -0.265 C  
HETATM    2  C   UNL     1     -11.541  13.111  65.625  1.00  0.00    -0.371 C  
HETATM    3  C   UNL     1     -10.150  13.660  65.541  1.00  0.00    -0.293 C  
HETATM    4  C   UNL     1      -8.748  12.519  66.502  1.00  0.00    -0.035 C  
HETATM    5  C   UNL     1      -8.255  15.205  70.004  1.00  0.00     0.332 C  
HETATM    6  C   UNL     1      -9.238  12.334  65.247  1.00  0.00     0.293 C  
HETATM    7  C   UNL     1      -8.083  13.855  65.116  1.00  0.00     6.133 C  
HETATM    8  C   UNL     1      -9.329  11.208  64.255  1.00  0.00    -0.183 C  
HETATM    9  C   UNL     1      -9.253  15.793  68.984  1.00  0.00    -0.243 C  
HETATM   10  C   UNL     1      -8.688  17.199  68.508  1.00  0.00    -0.261 C  
HETATM   11  C   UNL     1      -8.044  14.759  66.676  1.00  0.00     0.231 C  
HETATM   12  O   UNL     1      -6.966  14.225  67.451  1.00  0.00    -0.198 OA 
HETATM   13  C   UNL     1      -9.422  14.893  67.681  1.00  0.00    -0.199 C  
HETATM   14  H   UNL     1      -6.944  14.701  68.273  1.00  0.00     0.000 HD 
HETATM   15  C   UNL     1     -10.342  13.510  67.942  1.00  0.00    -0.249 C  
HETATM   16  C   UNL     1     -11.671  13.925  68.576  1.00  0.00    -0.390 C  
HETATM   17  C   UNL     1     -11.507  14.699  69.893  1.00  0.00    -0.320 C  
HETATM   18  C   UNL     1     -12.934  15.000  70.402  1.00  0.00    -0.283 C  
HETATM   19  C   UNL     1     -10.601  15.931  69.764  1.00  0.00    -0.322 C  
HETATM   20  C   UNL     1     -10.884  17.059  70.448  1.00  0.00     0.471 C  
HETATM   21  C   UNL     1      -9.963  18.204  70.355  1.00  0.00     1.957 C  
HETATM   22  O   UNL     1      -9.729  18.913  71.324  1.00  0.00     3.050 OA 
HETATM   23  C   UNL     1      -9.421  18.442  68.988  1.00  0.00    -0.163 C  
ENDROOT
BRANCH   4  24
HETATM   24  C   UNL     1      -7.304  11.709  66.237  1.00  0.00     0.219 C  
HETATM   25  C   UNL     1      -6.130  12.550  65.801  1.00  0.00     3.853 C  
HETATM   26  O   UNL     1      -7.062  10.515  66.439  1.00  0.00    -0.113 OA 
ENDBRANCH   4  24
TORSDOF 1
ENDMDL
MODEL      120
REMARK 921   NORMALIZED FREE ENERGY PREDICTED BY IDOCK:   18.67 KCAL/MOL
REMARK 922        TOTAL FREE ENERGY PREDICTED BY IDOCK:   20.61 KCAL/MOL
REMARK 923 INTER-LIGAND FREE ENERGY PREDICTED BY IDOCK:   17.72 KCAL/MOL
REMARK 924 INTRA-LIGAND FREE ENERGY PREDICTED BY IDOCK:    2.89 KCAL/MOL
REMARK 927      BINDING AFFINITY PREDICTED BY RF-SCORE:    0.00 PKD
ROOT
HETATM    1  C   UNL     1      -9.288   9.540  67.593  1.00  0.00    -0.141 C  
HETATM    2  C   UNL     1     -10.254  10.525  67.257  1.00  0.00    -0.260 C  
HETATM    3  C   UNL     1      -9.747  10.750  68.648  1.00  0.00    -0.187 C  
HETATM    4  C   UNL     1      -8.126   9.599  69.136  1.00  0.00    -0.104 C  
HETATM    5  C   UNL     1     -10.322   6.748  71.738  1.00  0.00    -0.217 C  
HETATM    6  C   UNL     1      -8.123  10.777  68.458  1.00  0.00    -0.133 C  
HETATM    7  C   UNL     1      -8.487  11.247  70.277  1.00  0.00     2.615 C  
HETATM    8  C   UNL     1      -7.197  11.509  67.526  1.00  0.00    -0.111 C  
HETATM    9  C   UNL     1     -11.259   7.848  71.199  1.00  0.00    -0.284 C  
HETATM   10  C   UNL     1     -11.871   8.620  72.446  1.00  0.00    -0.402 C  
HETATM   11  C   UNL     1      -9.364   9.912  71.114  1.00  0.00     0.980 C  
HETATM   12  O   UNL     1      -8.378   9.063  71.712  1.00  0.00    -0.353 OA 
HETATM   13  C   UNL     1     -10.507   8.930  70.304  1.00  0.00    -0.239 C  
HETATM   14  H   UNL     1      -8.840   8.360  72.154  1.00  0.00     0.000 HD 
HETATM   15  C   UNL     1     -10.112   8.367  68.770  1.00  0.00    -0.209 C  
HETATM   16  C   UNL     1     -11.379   7.808  68.118  1.00  0.00     0.713 C  
HETATM   17  C   UNL     1     -12.042   6.687  68.932  1.00  0.00     1.428 C  
HETATM   18  C   UNL     1     -13.269   6.223  68.115  1.00  0.00    12.916 C  
HETATM   19  C   UNL     1     -12.353   7.089  70.379  1.00  0.00    -0.061 C  
HETATM   20  C   UNL     1     -13.479   6.650  70.982  1.00  0.00     0.411 C  
HETATM   21  C   UNL     1     -13.719   7.000  72.391  1.00  0.00     0.395 C  
HETATM   22  O   UNL     1     -14.238   6.205  73.164  1.00  0.00     1.117 OA 
HETATM   23  C   UNL     1     -13.344   8.396  72.748  1.00  0.00     0.005 C  
ENDROOT
BRANCH   4  24
HETATM   24  C   UNL     1      -6.545   9.717  69.680  1.00  0.00    -0.048 C  
HETATM   25  C   UNL     1      -6.299   9.343  71.121  1.00  0.00    -0.074 C  
HETATM   26  O   UNL     1      -5.539   9.990  69.019  1.00  0.00    -0.036 OA 
ENDBRANCH   4  24
TORSDOF 1
ENDMDL
MODEL      121
REMARK 921   NORMALIZED FREE ENERGY PREDICTED BY IDOCK:   20.62 KCAL/MOL
REMARK 922        TOTAL FREE ENERGY PREDICTED BY IDOCK:   22.67 KCAL/MOL
REMARK 923 INTER-LIGAND FREE ENERGY PREDICTED BY IDOCK:   21.11 KCAL/MOL
REMARK 924 INTRA-LIGAND FREE ENERGY PREDICTED BY IDOCK:    1.56 KCAL/MOL
REMARK 927      BINDING AFFINITY PREDICTED BY RF-SCORE:    0.00 PKD
ROOT
HETATM    1  C   UNL     1     -11.720   4.550  70.580  1.00  0.00     5.163 C  
HETATM    2  C   UNL     1     -12.183   4.621  69.239  1.00  0.00    11.258 C  
HETATM    3  C   UNL     1     -10.707   4.868  69.292  1.00  0.00     0.457 C  
HETATM    4  C   UNL     1      -9.865   4.478  71.117  1.00  0.00    -0.263 C  
HETATM    5  C   UNL     1      -9.354   8.720  72.330  1.00  0.00    -0.223 C  
HETATM    6  C   UNL     1     -10.139   3.583  70.130  1.00  0.00     0.442 C  
HETATM    7  C   UNL     1      -8.621   4.568  69.507  1.00  0.00    -0.105 C  
HETATM    8  C   UNL     1     -10.335   2.098  70.015  1.00  0.00     1.389 C  
HETATM    9  C   UNL     1      -9.948   8.612  70.910  1.00  0.00    -0.257 C  
HETATM   10  C   UNL     1      -8.952   9.341  69.910  1.00  0.00    -0.194 C  
HETATM   11  C   UNL     1      -8.640   6.248  70.161  1.00  0.00    -0.134 C  
HETATM   12  O   UNL     1      -7.909   6.235  71.392  1.00  0.00    -0.101 OA 
HETATM   13  C   UNL     1     -10.099   7.109  70.405  1.00  0.00    -0.199 C  
HETATM   14  H   UNL     1      -7.919   7.120  71.737  1.00  0.00     0.000 HD 
HETATM   15  C   UNL     1     -11.384   6.293  71.119  1.00  0.00    -0.364 C  
HETATM   16  C   UNL     1     -12.651   7.130  70.936  1.00  0.00    -0.268 C  
HETATM   17  C   UNL     1     -12.541   8.545  71.522  1.00  0.00    -0.348 C  
HETATM   18  C   UNL     1     -13.907   9.224  71.282  1.00  0.00    -0.198 C  
HETATM   19  C   UNL     1     -11.335   9.330  70.991  1.00  0.00    -0.390 C  
HETATM   20  C   UNL     1     -11.434  10.656  70.758  1.00  0.00    -0.307 C  
HETATM   21  C   UNL     1     -10.243  11.395  70.309  1.00  0.00     1.741 C  
HETATM   22  O   UNL     1     -10.018  12.534  70.695  1.00  0.00     4.389 OA 
HETATM   23  C   UNL     1      -9.407  10.664  69.316  1.00  0.00    -0.136 C  
ENDROOT
BRANCH   4  24
HETATM   24  C   UNL     1      -8.664   3.562  71.843  1.00  0.00    -0.093 C  
HETATM   25  C   UNL     1      -8.007   4.158  73.063  1.00  0.00    -0.089 C  
HETATM   26  O   UNL     1      -8.310   2.416  71.551  1.00  0.00    -0.060 OA 
ENDBRANCH   4  24
TORSDOF 1
ENDMDL
MODEL      122
REMARK 921   NORMALIZED FREE ENERGY PREDICTED BY IDOCK:   20.95 KCAL/MOL
REMARK 922        TOTAL FREE ENERGY PREDICTED BY IDOCK:   23.02 KCAL/MOL
REMARK 923 INTER-LIGAND FREE ENERGY PREDICTED BY IDOCK:   22.53 KCAL/MOL
REMARK 924 INTRA-LIGAND FREE ENERGY PREDICTED BY IDOCK:    0.50 KCAL/MOL
REMARK 927      BINDING AFFINITY PREDICTED BY RF-SCORE:    0.00 PKD
ROOT
HETATM    1  C   UNL     1      -9.137   5.054  67.136  1.00  0.00    -0.115 C  
HETATM    2  C   UNL     1      -8.075   4.689  68.005  1.00  0.00    -0.088 C  
HETATM    3  C   UNL     1      -8.873   5.807  68.602  1.00  0.00    -0.110 C  
HETATM    4  C   UNL     1     -10.614   6.209  67.605  1.00  0.00    -0.340 C  
HETATM    5  C   UNL     1      -9.200   9.936  65.647  1.00  0.00    -0.245 C  
HETATM    6  C   UNL     1     -10.409   5.247  68.543  1.00  0.00    -0.182 C  
HETATM    7  C   UNL     1     -10.444   6.897  69.514  1.00  0.00    -0.244 C  
HETATM    8  C   UNL     1     -11.064   3.962  68.964  1.00  0.00     4.830 C  
HETATM    9  C   UNL     1      -8.115   9.343  66.569  1.00  0.00    -0.111 C  
HETATM   10  C   UNL     1      -7.766  10.430  67.673  1.00  0.00    -0.093 C  
HETATM   11  C   UNL     1      -9.843   8.251  68.488  1.00  0.00    -0.176 C  
HETATM   12  O   UNL     1     -10.977   8.819  67.823  1.00  0.00    -0.494 OA 
HETATM   13  C   UNL     1      -8.593   8.033  67.339  1.00  0.00    -0.125 C  
HETATM   14  H   UNL     1     -10.661   9.533  67.282  1.00  0.00     0.000 HD 
HETATM   15  C   UNL     1      -8.656   6.669  66.359  1.00  0.00    -0.130 C  
HETATM   16  C   UNL     1      -7.303   6.509  65.663  1.00  0.00    -0.076 C  
HETATM   17  C   UNL     1      -6.894   7.733  64.830  1.00  0.00    -0.051 C  
HETATM   18  C   UNL     1      -5.537   7.384  64.180  1.00  0.00    -0.033 C  
HETATM   19  C   UNL     1      -6.900   9.042  65.631  1.00  0.00    -0.076 C  
HETATM   20  C   UNL     1      -5.962   9.985  65.402  1.00  0.00    -0.090 C  
HETATM   21  C   UNL     1      -6.031  11.257  66.140  1.00  0.00    -0.057 C  
HETATM   22  O   UNL     1      -5.738  12.319  65.606  1.00  0.00     1.540 OA 
HETATM   23  C   UNL     1      -6.412  11.114  67.572  1.00  0.00    -0.069 C  
ENDROOT
BRANCH   4  24
HETATM   24  C   UNL     1     -12.270   6.319  67.840  1.00  0.00     4.114 C  
HETATM   25  C   UNL     1     -13.145   5.868  66.696  1.00  0.00    11.430 C  
HETATM   26  O   UNL     1     -12.866   6.645  68.871  1.00  0.00     3.520 OA 
ENDBRANCH   4  24
TORSDOF 1
ENDMDL
MODEL      123
REMARK 921   NORMALIZED FREE ENERGY PREDICTED BY IDOCK:   21.63 KCAL/MOL
REMARK 922        TOTAL FREE ENERGY PREDICTED BY IDOCK:   23.75 KCAL/MOL
REMARK 923 INTER-LIGAND FREE ENERGY PREDICTED BY IDOCK:   21.78 KCAL/MOL
REMARK 924 INTRA-LIGAND FREE ENERGY PREDICTED BY IDOCK:    1.97 KCAL/MOL
REMARK 927      BINDING AFFINITY PREDICTED BY RF-SCORE:    0.00 PKD
ROOT
HETATM    1  C   UNL     1      -7.366  18.515  67.344  1.00  0.00    -0.222 C  
HETATM    2  C   UNL     1      -8.435  18.517  66.409  1.00  0.00    -0.275 C  
HETATM    3  C   UNL     1      -8.969  18.560  67.807  1.00  0.00    -0.289 C  
HETATM    4  C   UNL     1      -7.537  18.884  69.233  1.00  0.00    -0.114 C  
HETATM    5  C   UNL     1      -7.408  14.711  70.747  1.00  0.00     1.130 C  
HETATM    6  C   UNL     1      -8.170  19.820  68.478  1.00  0.00    -0.269 C  
HETATM    7  C   UNL     1      -9.475  19.236  69.751  1.00  0.00     0.386 C  
HETATM    8  C   UNL     1      -7.927  21.241  68.053  1.00  0.00     0.712 C  
HETATM    9  C   UNL     1      -8.468  14.871  69.637  1.00  0.00     0.072 C  
HETATM   10  C   UNL     1      -9.879  14.478  70.253  1.00  0.00     0.974 C  
HETATM   11  C   UNL     1      -9.184  17.519  70.216  1.00  0.00     2.691 C  
HETATM   12  O   UNL     1      -8.324  17.526  71.360  1.00  0.00     7.974 OA 
HETATM   13  C   UNL     1      -8.593  16.365  69.099  1.00  0.00    -0.182 C  
HETATM   14  H   UNL     1      -8.171  16.621  71.606  1.00  0.00     0.000 HD 
HETATM   15  C   UNL     1      -7.322  16.820  68.097  1.00  0.00    -0.174 C  
HETATM   16  C   UNL     1      -7.185  15.779  66.985  1.00  0.00    -0.208 C  
HETATM   17  C   UNL     1      -6.954  14.352  67.506  1.00  0.00    -0.182 C  
HETATM   18  C   UNL     1      -6.804  13.452  66.259  1.00  0.00     3.392 C  
HETATM   19  C   UNL     1      -8.024  13.890  68.503  1.00  0.00    -0.137 C  
HETATM   20  C   UNL     1      -8.448  12.608  68.501  1.00  0.00    -0.051 C  
HETATM   21  C   UNL     1      -9.429  12.177  69.511  1.00  0.00     1.325 C  
HETATM   22  O   UNL     1      -9.371  11.066  70.021  1.00  0.00     0.731 OA 
HETATM   23  C   UNL     1     -10.502  13.173  69.785  1.00  0.00     0.887 C  
ENDROOT
BRANCH   4  24
HETATM   24  C   UNL     1      -7.139  19.924  70.486  1.00  0.00     0.424 C  
HETATM   25  C   UNL     1      -6.639  19.286  71.758  1.00  0.00     1.399 C  
HETATM   26  O   UNL     1      -7.124  21.158  70.466  1.00  0.00     1.785 OA 
ENDBRANCH   4  24
TORSDOF 1
ENDMDL
MODEL      124
REMARK 921   NORMALIZED FREE ENERGY PREDICTED BY IDOCK:   23.30 KCAL/MOL
REMARK 922        TOTAL FREE ENERGY PREDICTED BY IDOCK:   25.52 KCAL/MOL
REMARK 923 INTER-LIGAND FREE ENERGY PREDICTED BY IDOCK:   23.45 KCAL/MOL
REMARK 924 INTRA-LIGAND FREE ENERGY PREDICTED BY IDOCK:    2.06 KCAL/MOL
REMARK 927      BINDING AFFINITY PREDICTED BY RF-SCORE:    0.00 PKD
ROOT
HETATM    1  C   UNL     1     -12.723  11.395  71.479  1.00  0.00    -0.462 C  
HETATM    2  C   UNL     1     -11.528  10.746  71.889  1.00  0.00     1.979 C  
HETATM    3  C   UNL     1     -11.292  12.216  71.737  1.00  0.00     4.306 C  
HETATM    4  C   UNL     1     -13.002  13.308  71.463  1.00  0.00    -0.426 C  
HETATM    5  C   UNL     1     -12.421  14.034  67.120  1.00  0.00    -0.075 C  
HETATM    6  C   UNL     1     -12.478  12.885  72.644  1.00  0.00     1.134 C  
HETATM    7  C   UNL     1     -11.335  14.309  72.068  1.00  0.00     1.213 C  
HETATM    8  C   UNL     1     -12.967  12.659  74.047  1.00  0.00     9.254 C  
HETATM    9  C   UNL     1     -11.240  13.241  67.717  1.00  0.00    -0.308 C  
HETATM   10  C   UNL     1      -9.918  14.090  67.486  1.00  0.00    -0.236 C  
HETATM   11  C   UNL     1     -11.293  14.401  70.269  1.00  0.00    -0.132 C  
HETATM   12  O   UNL     1     -12.329  15.302  69.863  1.00  0.00    -0.439 OA 
HETATM   13  C   UNL     1     -11.374  13.002  69.286  1.00  0.00    -0.310 C  
HETATM   14  H   UNL     1     -12.307  15.351  68.914  1.00  0.00     0.000 HD 
HETATM   15  C   UNL     1     -12.505  11.825  69.687  1.00  0.00    -0.017 C  
HETATM   16  C   UNL     1     -12.180  10.553  68.901  1.00  0.00     0.253 C  
HETATM   17  C   UNL     1     -12.160  10.762  67.379  1.00  0.00     1.452 C  
HETATM   18  C   UNL     1     -11.856   9.383  66.754  1.00  0.00     4.165 C  
HETATM   19  C   UNL     1     -11.218  11.888  66.933  1.00  0.00    -0.382 C  
HETATM   20  C   UNL     1     -10.510  11.770  65.790  1.00  0.00    -0.302 C  
HETATM   21  C   UNL     1      -9.663  12.892  65.354  1.00  0.00    -0.027 C  
HETATM   22  O   UNL     1      -9.551  13.183  64.171  1.00  0.00     0.053 OA 
HETATM   23  C   UNL     1      -8.927  13.568  66.458  1.00  0.00    -0.063 C  
ENDROOT
BRANCH   4  24
HETATM   24  C   UNL     1     -13.863  14.591  72.113  1.00  0.00    -0.477 C  
HETATM   25  C   UNL     1     -14.184  14.509  73.585  1.00  0.00     3.807 C  
HETATM   26  O   UNL     1     -14.193  15.639  71.552  1.00  0.00    -0.508 OA 
ENDBRANCH   4  24
TORSDOF 1
ENDMDL
MODEL      125
REMARK 921   NORMALIZED FREE ENERGY PREDICTED BY IDOCK:   25.47 KCAL/MOL
REMARK 922        TOTAL FREE ENERGY PREDICTED BY IDOCK:   27.81 KCAL/MOL
REMARK 923 INTER-LIGAND FREE ENERGY PREDICTED BY IDOCK:   25.99 KCAL/MOL
REMARK 924 INTRA-LIGAND FREE ENERGY PREDICTED BY IDOCK:    1.82 KCAL/MOL
REMARK 927      BINDING AFFINITY PREDICTED BY RF-SCORE:    0.00 PKD
ROOT
HETATM    1  C   UNL     1      -7.587  14.234  65.870  1.00  0.00     4.195 C  
HETATM    2  C   UNL     1      -6.738  14.159  67.007  1.00  0.00     0.840 C  
HETATM    3  C   UNL     1      -7.897  13.223  67.163  1.00  0.00    -0.047 C  
HETATM    4  C   UNL     1      -9.017  12.999  65.464  1.00  0.00     0.849 C  
HETATM    5  C   UNL     1     -12.446  15.476  66.816  1.00  0.00     1.467 C  
HETATM    6  C   UNL     1      -7.865  12.349  65.780  1.00  0.00     1.740 C  
HETATM    7  C   UNL     1      -9.204  11.575  66.908  1.00  0.00    -0.181 C  
HETATM    8  C   UNL     1      -6.787  11.601  65.048  1.00  0.00     2.213 C  
HETATM    9  C   UNL     1     -11.368  15.368  67.914  1.00  0.00    -0.328 C  
HETATM   10  C   UNL     1     -12.038  14.705  69.192  1.00  0.00    -0.283 C  
HETATM   11  C   UNL     1     -10.489  12.780  67.289  1.00  0.00    -0.232 C  
HETATM   12  O   UNL     1     -11.505  12.652  66.288  1.00  0.00    -0.323 OA 
HETATM   13  C   UNL     1     -10.139  14.443  67.498  1.00  0.00    -0.232 C  
HETATM   14  H   UNL     1     -12.182  13.287  66.489  1.00  0.00     0.000 HD 
HETATM   15  C   UNL     1      -9.098  15.171  66.398  1.00  0.00    -0.331 C  
HETATM   16  C   UNL     1      -8.677  16.532  66.958  1.00  0.00    -0.221 C  
HETATM   17  C   UNL     1      -9.860  17.465  67.255  1.00  0.00    -0.278 C  
HETATM   18  C   UNL     1      -9.252  18.788  67.771  1.00  0.00    -0.316 C  
HETATM   19  C   UNL     1     -10.909  16.839  68.183  1.00  0.00    -0.353 C  
HETATM   20  C   UNL     1     -11.542  17.596  69.104  1.00  0.00     2.097 C  
HETATM   21  C   UNL     1     -12.589  16.982  69.937  1.00  0.00     4.585 C  
HETATM   22  O   UNL     1     -13.595  17.603  70.254  1.00  0.00    12.242 OA 
HETATM   23  C   UNL     1     -12.275  15.601  70.397  1.00  0.00    -0.429 C  
ENDROOT
BRANCH   4  24
HETATM   24  C   UNL     1      -9.582  11.829  64.405  1.00  0.00    -0.061 C  
HETATM   25  C   UNL     1      -9.017  10.440  64.572  1.00  0.00    -0.241 C  
HETATM   26  O   UNL     1     -10.472  11.945  63.557  1.00  0.00    -0.385 OA 
ENDBRANCH   4  24
TORSDOF 1
ENDMDL
MODEL      126
REMARK 921   NORMALIZED FREE ENERGY PREDICTED BY IDOCK:   27.54 KCAL/MOL
REMARK 922        TOTAL FREE ENERGY PREDICTED BY IDOCK:   30.00 KCAL/MOL
REMARK 923 INTER-LIGAND FREE ENERGY PREDICTED BY IDOCK:   29.45 KCAL/MOL
REMARK 924 INTRA-LIGAND FREE ENERGY PREDICTED BY IDOCK:    0.55 KCAL/MOL
REMARK 927      BINDING AFFINITY PREDICTED BY RF-SCORE:    0.00 PKD
ROOT
HETATM    1  C   UNL     1      -7.825  18.722  67.725  1.00  0.00    -0.262 C  
HETATM    2  C   UNL     1      -6.691  17.894  67.939  1.00  0.00    -0.193 C  
HETATM    3  C   UNL     1      -7.639  17.237  66.985  1.00  0.00    -0.228 C  
HETATM    4  C   UNL     1      -9.153  18.457  66.346  1.00  0.00    -0.271 C  
HETATM    5  C   UNL     1     -12.340  16.613  68.829  1.00  0.00     1.550 C  
HETATM    6  C   UNL     1      -7.890  18.387  65.849  1.00  0.00    -0.080 C  
HETATM    7  C   UNL     1      -8.758  16.793  65.241  1.00  0.00     1.784 C  
HETATM    8  C   UNL     1      -6.977  19.260  65.034  1.00  0.00     0.166 C  
HETATM    9  C   UNL     1     -10.993  15.885  69.018  1.00  0.00    -0.277 C  
HETATM   10  C   UNL     1     -11.197  14.368  68.592  1.00  0.00    -0.280 C  
HETATM   11  C   UNL     1     -10.020  16.270  66.416  1.00  0.00    -0.300 C  
HETATM   12  O   UNL     1     -11.252  16.883  66.021  1.00  0.00     0.218 OA 
HETATM   13  C   UNL     1      -9.828  16.474  68.105  1.00  0.00    -0.244 C  
HETATM   14  H   UNL     1     -11.918  16.607  66.640  1.00  0.00     0.000 HD 
HETATM   15  C   UNL     1      -9.230  17.946  68.655  1.00  0.00    -0.269 C  
HETATM   16  C   UNL     1      -8.836  17.789  70.125  1.00  0.00     2.571 C  
HETATM   17  C   UNL     1      -9.992  17.326  71.024  1.00  0.00     3.555 C  
HETATM   18  C   UNL     1      -9.427  17.259  72.460  1.00  0.00    11.945 C  
HETATM   19  C   UNL     1     -10.658  16.032  70.538  1.00  0.00    -0.026 C  
HETATM   20  C   UNL     1     -11.094  15.115  71.427  1.00  0.00    -0.232 C  
HETATM   21  C   UNL     1     -11.787  13.913  70.934  1.00  0.00    -0.124 C  
HETATM   22  O   UNL     1     -12.731  13.428  71.543  1.00  0.00    -0.340 OA 
HETATM   23  C   UNL     1     -11.194  13.328  69.700  1.00  0.00    -0.100 C  
ENDROOT
BRANCH   4  24
HETATM   24  C   UNL     1      -9.847  19.073  64.950  1.00  0.00     2.914 C  
HETATM   25  C   UNL     1     -10.112  20.558  64.928  1.00  0.00     1.301 C  
HETATM   26  O   UNL     1     -10.089  18.472  63.900  1.00  0.00     6.673 OA 
ENDBRANCH   4  24
TORSDOF 1
ENDMDL
