MODEL        1
REMARK 921   NORMALIZED FREE ENERGY PREDICTED BY IDOCK:   -6.50 KCAL/MOL
REMARK 922        TOTAL FREE ENERGY PREDICTED BY IDOCK:   -7.90 KCAL/MOL
REMARK 923 INTER-LIGAND FREE ENERGY PREDICTED BY IDOCK:   -7.26 KCAL/MOL
REMARK 924 INTRA-LIGAND FREE ENERGY PREDICTED BY IDOCK:   -0.64 KCAL/MOL
REMARK 927      BINDING AFFINITY PREDICTED BY RF-SCORE:    0.00 PKD
ROOT
HETATM    1  C   UNL     1     -12.987  13.947  72.354  1.00  0.00    -0.457 C  
HETATM    2  C   UNL     1     -12.433  14.177  70.973  1.00  0.00    -0.438 A  
HETATM    3  C   UNL     1     -12.207  13.134  70.048  1.00  0.00    -0.323 A  
HETATM    4  C   UNL     1     -12.245  11.692  70.479  1.00  0.00    -0.451 C  
HETATM    5  C   UNL     1     -11.976  13.471  68.695  1.00  0.00    -0.343 A  
HETATM    6  C   UNL     1     -12.167  15.503  70.607  1.00  0.00    -0.445 A  
HETATM    7  C   UNL     1     -11.650  14.800  68.378  1.00  0.00    -0.350 A  
HETATM    8  C   UNL     1     -11.728  15.809  69.323  1.00  0.00    -0.384 A  
ENDROOT
BRANCH   5   9
HETATM    9  N   UNL     1     -12.134  12.496  67.665  1.00  0.00    -0.426 NA 
HETATM   10  H   UNL     1     -13.039  12.029  67.594  1.00  0.00     0.000 HD 
BRANCH   9  11
HETATM   11  C   UNL     1     -11.128  12.125  66.728  1.00  0.00    -0.300 A  
HETATM   12  C   UNL     1      -9.851  11.747  67.178  1.00  0.00    -0.207 A  
HETATM   13  C   UNL     1      -8.901  11.195  66.319  1.00  0.00    -0.190 A  
HETATM   14  C   UNL     1      -9.193  11.059  64.968  1.00  0.00    -0.219 A  
HETATM   15  C   UNL     1     -10.402  11.548  64.472  1.00  0.00    -0.354 A  
HETATM   16  C   UNL     1     -11.347  12.124  65.337  1.00  0.00    -0.388 A  
HETATM   17  C   UNL     1     -12.554  12.715  64.725  1.00  0.00    -0.454 C  
HETATM   18  O   UNL     1     -13.126  12.245  63.759  1.00  0.00    -0.780 OA 
HETATM   19  O   UNL     1     -12.915  13.880  65.315  1.00  0.00    -0.747 OA 
ENDBRANCH   9  11
ENDBRANCH   5   9
TORSDOF 2
ENDMDL
MODEL        2
REMARK 921   NORMALIZED FREE ENERGY PREDICTED BY IDOCK:   -6.27 KCAL/MOL
REMARK 922        TOTAL FREE ENERGY PREDICTED BY IDOCK:   -7.65 KCAL/MOL
REMARK 923 INTER-LIGAND FREE ENERGY PREDICTED BY IDOCK:   -7.06 KCAL/MOL
REMARK 924 INTRA-LIGAND FREE ENERGY PREDICTED BY IDOCK:   -0.59 KCAL/MOL
REMARK 927      BINDING AFFINITY PREDICTED BY RF-SCORE:    0.00 PKD
ROOT
HETATM    1  C   UNL     1      -9.895  10.409  64.945  1.00  0.00    -0.400 C  
HETATM    2  C   UNL     1     -10.868  11.558  64.932  1.00  0.00    -0.345 A  
HETATM    3  C   UNL     1     -11.414  12.122  66.106  1.00  0.00    -0.429 A  
HETATM    4  C   UNL     1     -11.273  11.430  67.437  1.00  0.00    -0.370 C  
HETATM    5  C   UNL     1     -12.069  13.369  66.014  1.00  0.00    -0.438 A  
HETATM    6  C   UNL     1     -11.206  12.092  63.681  1.00  0.00    -0.528 A  
HETATM    7  C   UNL     1     -12.447  13.840  64.745  1.00  0.00    -0.386 A  
HETATM    8  C   UNL     1     -12.036  13.204  63.586  1.00  0.00    -0.580 A  
ENDROOT
BRANCH   5   9
HETATM    9  N   UNL     1     -12.285  14.166  67.178  1.00  0.00    -0.570 NA 
HETATM   10  H   UNL     1     -13.134  13.993  67.716  1.00  0.00     0.000 HD 
BRANCH   9  11
HETATM   11  C   UNL     1     -11.406  15.184  67.647  1.00  0.00    -0.321 A  
HETATM   12  C   UNL     1     -10.427  15.720  66.792  1.00  0.00    -0.305 A  
HETATM   13  C   UNL     1      -9.677  16.842  67.142  1.00  0.00    -0.253 A  
HETATM   14  C   UNL     1      -9.856  17.425  68.390  1.00  0.00    -0.316 A  
HETATM   15  C   UNL     1     -10.725  16.836  69.308  1.00  0.00    -0.324 A  
HETATM   16  C   UNL     1     -11.461  15.692  68.960  1.00  0.00    -0.369 A  
HETATM   17  C   UNL     1     -12.277  15.063  70.018  1.00  0.00    -0.328 C  
HETATM   18  O   UNL     1     -12.881  15.686  70.871  1.00  0.00    -0.472 OA 
HETATM   19  O   UNL     1     -12.223  13.710  69.977  1.00  0.00    -0.330 OA 
ENDBRANCH   9  11
ENDBRANCH   5   9
TORSDOF 2
ENDMDL
MODEL        3
REMARK 921   NORMALIZED FREE ENERGY PREDICTED BY IDOCK:   -6.26 KCAL/MOL
REMARK 922        TOTAL FREE ENERGY PREDICTED BY IDOCK:   -7.64 KCAL/MOL
REMARK 923 INTER-LIGAND FREE ENERGY PREDICTED BY IDOCK:   -7.17 KCAL/MOL
REMARK 924 INTRA-LIGAND FREE ENERGY PREDICTED BY IDOCK:   -0.47 KCAL/MOL
REMARK 927      BINDING AFFINITY PREDICTED BY RF-SCORE:    0.00 PKD
ROOT
HETATM    1  C   UNL     1     -10.511  10.902  64.661  1.00  0.00    -0.384 C  
HETATM    2  C   UNL     1     -11.143  11.806  65.686  1.00  0.00    -0.340 A  
HETATM    3  C   UNL     1     -11.141  11.526  67.070  1.00  0.00    -0.365 A  
HETATM    4  C   UNL     1     -10.750  10.166  67.585  1.00  0.00    -0.339 C  
HETATM    5  C   UNL     1     -11.483  12.561  67.969  1.00  0.00    -0.317 A  
HETATM    6  C   UNL     1     -11.726  12.991  65.216  1.00  0.00    -0.388 A  
HETATM    7  C   UNL     1     -12.123  13.706  67.466  1.00  0.00    -0.352 A  
HETATM    8  C   UNL     1     -12.261  13.918  66.104  1.00  0.00    -0.498 A  
ENDROOT
BRANCH   5   9
HETATM    9  N   UNL     1     -11.127  12.475  69.347  1.00  0.00    -0.452 NA 
HETATM   10  H   UNL     1     -10.230  12.046  69.576  1.00  0.00     0.000 HD 
BRANCH   9  11
HETATM   11  C   UNL     1     -11.926  12.943  70.430  1.00  0.00    -0.249 A  
HETATM   12  C   UNL     1     -11.962  14.315  70.738  1.00  0.00    -0.390 A  
HETATM   13  C   UNL     1     -12.870  14.840  71.657  1.00  0.00    -0.405 A  
HETATM   14  C   UNL     1     -13.733  13.987  72.333  1.00  0.00    -0.669 A  
HETATM   15  C   UNL     1     -13.628  12.609  72.144  1.00  0.00    -0.510 A  
HETATM   16  C   UNL     1     -12.696  12.082  71.235  1.00  0.00    -0.382 A  
HETATM   17  C   UNL     1     -12.569  10.612  71.169  1.00  0.00    -0.423 C  
HETATM   18  O   UNL     1     -13.507   9.844  71.275  1.00  0.00    -0.367 OA 
HETATM   19  O   UNL     1     -11.281  10.210  71.048  1.00  0.00    -0.339 OA 
ENDBRANCH   9  11
ENDBRANCH   5   9
TORSDOF 2
ENDMDL
MODEL        4
REMARK 921   NORMALIZED FREE ENERGY PREDICTED BY IDOCK:   -6.21 KCAL/MOL
REMARK 922        TOTAL FREE ENERGY PREDICTED BY IDOCK:   -7.58 KCAL/MOL
REMARK 923 INTER-LIGAND FREE ENERGY PREDICTED BY IDOCK:   -7.01 KCAL/MOL
REMARK 924 INTRA-LIGAND FREE ENERGY PREDICTED BY IDOCK:   -0.57 KCAL/MOL
REMARK 927      BINDING AFFINITY PREDICTED BY RF-SCORE:    0.00 PKD
ROOT
HETATM    1  C   UNL     1     -12.084  16.357  73.118  1.00  0.00    -0.567 C  
HETATM    2  C   UNL     1     -12.396  15.141  72.287  1.00  0.00    -0.443 A  
HETATM    3  C   UNL     1     -11.842  14.916  71.007  1.00  0.00    -0.380 A  
HETATM    4  C   UNL     1     -11.119  16.014  70.272  1.00  0.00    -0.380 C  
HETATM    5  C   UNL     1     -11.952  13.627  70.441  1.00  0.00    -0.302 A  
HETATM    6  C   UNL     1     -13.256  14.189  72.850  1.00  0.00    -0.553 A  
HETATM    7  C   UNL     1     -12.873  12.723  70.997  1.00  0.00    -0.262 A  
HETATM    8  C   UNL     1     -13.534  13.001  72.182  1.00  0.00    -0.638 A  
ENDROOT
BRANCH   5   9
HETATM    9  N   UNL     1     -11.099  13.227  69.369  1.00  0.00    -0.441 NA 
HETATM   10  H   UNL     1     -10.128  13.012  69.596  1.00  0.00     0.000 HD 
BRANCH   9  11
HETATM   11  C   UNL     1     -11.499  13.106  68.007  1.00  0.00    -0.311 A  
HETATM   12  C   UNL     1     -12.140  14.178  67.362  1.00  0.00    -0.379 A  
HETATM   13  C   UNL     1     -12.375  14.177  65.988  1.00  0.00    -0.470 A  
HETATM   14  C   UNL     1     -12.018  13.067  65.232  1.00  0.00    -0.446 A  
HETATM   15  C   UNL     1     -11.502  11.938  65.866  1.00  0.00    -0.340 A  
HETATM   16  C   UNL     1     -11.288  11.935  67.254  1.00  0.00    -0.393 A  
HETATM   17  C   UNL     1     -10.842  10.668  67.869  1.00  0.00    -0.277 C  
HETATM   18  O   UNL     1     -10.067   9.893  67.340  1.00  0.00    -0.182 OA 
HETATM   19  O   UNL     1     -11.445  10.429  69.058  1.00  0.00    -0.244 OA 
ENDBRANCH   9  11
ENDBRANCH   5   9
TORSDOF 2
ENDMDL
MODEL        5
REMARK 921   NORMALIZED FREE ENERGY PREDICTED BY IDOCK:   -6.20 KCAL/MOL
REMARK 922        TOTAL FREE ENERGY PREDICTED BY IDOCK:   -7.57 KCAL/MOL
REMARK 923 INTER-LIGAND FREE ENERGY PREDICTED BY IDOCK:   -7.02 KCAL/MOL
REMARK 924 INTRA-LIGAND FREE ENERGY PREDICTED BY IDOCK:   -0.56 KCAL/MOL
REMARK 927      BINDING AFFINITY PREDICTED BY RF-SCORE:    0.00 PKD
ROOT
HETATM    1  C   UNL     1     -13.133  11.241  71.777  1.00  0.00    -0.527 C  
HETATM    2  C   UNL     1     -12.968  12.719  71.542  1.00  0.00    -0.388 A  
HETATM    3  C   UNL     1     -12.401  13.257  70.366  1.00  0.00    -0.365 A  
HETATM    4  C   UNL     1     -11.669  12.378  69.387  1.00  0.00    -0.384 C  
HETATM    5  C   UNL     1     -12.562  14.636  70.108  1.00  0.00    -0.283 A  
HETATM    6  C   UNL     1     -13.438  13.578  72.545  1.00  0.00    -0.660 A  
HETATM    7  C   UNL     1     -12.975  15.474  71.158  1.00  0.00    -0.560 A  
HETATM    8  C   UNL     1     -13.396  14.958  72.372  1.00  0.00    -0.502 A  
ENDROOT
BRANCH   5   9
HETATM    9  N   UNL     1     -12.374  15.158  68.794  1.00  0.00    -0.595 NA 
HETATM   10  H   UNL     1     -13.170  15.126  68.156  1.00  0.00     0.000 HD 
BRANCH   9  11
HETATM   11  C   UNL     1     -11.161  15.721  68.303  1.00  0.00    -0.356 A  
HETATM   12  C   UNL     1     -10.641  16.891  68.884  1.00  0.00    -0.353 A  
HETATM   13  C   UNL     1      -9.370  17.368  68.568  1.00  0.00    -0.281 A  
HETATM   14  C   UNL     1      -8.606  16.707  67.615  1.00  0.00    -0.207 A  
HETATM   15  C   UNL     1      -9.149  15.622  66.928  1.00  0.00    -0.260 A  
HETATM   16  C   UNL     1     -10.439  15.158  67.233  1.00  0.00    -0.271 A  
HETATM   17  C   UNL     1     -10.987  14.075  66.391  1.00  0.00    -0.308 C  
HETATM   18  O   UNL     1     -10.323  13.156  65.949  1.00  0.00    -0.279 OA 
HETATM   19  O   UNL     1     -12.299  14.257  66.105  1.00  0.00    -0.437 OA 
ENDBRANCH   9  11
ENDBRANCH   5   9
TORSDOF 2
ENDMDL
MODEL        6
REMARK 921   NORMALIZED FREE ENERGY PREDICTED BY IDOCK:   -6.18 KCAL/MOL
REMARK 922        TOTAL FREE ENERGY PREDICTED BY IDOCK:   -7.55 KCAL/MOL
REMARK 923 INTER-LIGAND FREE ENERGY PREDICTED BY IDOCK:   -6.98 KCAL/MOL
REMARK 924 INTRA-LIGAND FREE ENERGY PREDICTED BY IDOCK:   -0.57 KCAL/MOL
REMARK 927      BINDING AFFINITY PREDICTED BY RF-SCORE:    0.00 PKD
ROOT
HETATM    1  C   UNL     1     -13.327  14.376  72.702  1.00  0.00    -0.599 C  
HETATM    2  C   UNL     1     -12.905  13.443  71.598  1.00  0.00    -0.414 A  
HETATM    3  C   UNL     1     -12.349  13.889  70.379  1.00  0.00    -0.433 A  
HETATM    4  C   UNL     1     -12.397  15.343  69.991  1.00  0.00    -0.368 C  
HETATM    5  C   UNL     1     -11.713  12.946  69.542  1.00  0.00    -0.323 A  
HETATM    6  C   UNL     1     -13.056  12.070  71.834  1.00  0.00    -0.475 A  
HETATM    7  C   UNL     1     -11.940  11.578  69.773  1.00  0.00    -0.415 A  
HETATM    8  C   UNL     1     -12.617  11.138  70.898  1.00  0.00    -0.483 A  
ENDROOT
BRANCH   5   9
HETATM    9  N   UNL     1     -10.807  13.369  68.525  1.00  0.00    -0.257 NA 
HETATM   10  H   UNL     1      -9.846  13.570  68.804  1.00  0.00     0.000 HD 
BRANCH   9  11
HETATM   11  C   UNL     1     -11.139  13.532  67.149  1.00  0.00    -0.293 A  
HETATM   12  C   UNL     1     -11.689  12.460  66.424  1.00  0.00    -0.453 A  
HETATM   13  C   UNL     1     -12.204  12.626  65.140  1.00  0.00    -0.539 A  
HETATM   14  C   UNL     1     -12.131  13.871  64.526  1.00  0.00    -0.473 A  
HETATM   15  C   UNL     1     -11.473  14.918  65.170  1.00  0.00    -0.357 A  
HETATM   16  C   UNL     1     -10.934  14.740  66.455  1.00  0.00    -0.331 A  
HETATM   17  C   UNL     1     -10.159  15.860  67.027  1.00  0.00    -0.268 C  
HETATM   18  O   UNL     1     -10.442  17.033  66.868  1.00  0.00    -0.313 OA 
HETATM   19  O   UNL     1      -9.056  15.439  67.691  1.00  0.00    -0.180 OA 
ENDBRANCH   9  11
ENDBRANCH   5   9
TORSDOF 2
ENDMDL
MODEL        7
REMARK 921   NORMALIZED FREE ENERGY PREDICTED BY IDOCK:   -6.17 KCAL/MOL
REMARK 922        TOTAL FREE ENERGY PREDICTED BY IDOCK:   -7.54 KCAL/MOL
REMARK 923 INTER-LIGAND FREE ENERGY PREDICTED BY IDOCK:   -6.97 KCAL/MOL
REMARK 924 INTRA-LIGAND FREE ENERGY PREDICTED BY IDOCK:   -0.57 KCAL/MOL
REMARK 927      BINDING AFFINITY PREDICTED BY RF-SCORE:    0.00 PKD
ROOT
HETATM    1  C   UNL     1     -13.341  13.744  72.686  1.00  0.00    -0.618 C  
HETATM    2  C   UNL     1     -12.938  12.843  71.549  1.00  0.00    -0.388 A  
HETATM    3  C   UNL     1     -12.322  13.316  70.369  1.00  0.00    -0.365 A  
HETATM    4  C   UNL     1     -12.282  14.788  70.053  1.00  0.00    -0.383 C  
HETATM    5  C   UNL     1     -11.714  12.381  69.503  1.00  0.00    -0.322 A  
HETATM    6  C   UNL     1     -13.169  11.470  71.712  1.00  0.00    -0.456 A  
HETATM    7  C   UNL     1     -12.022  11.018  69.659  1.00  0.00    -0.424 A  
HETATM    8  C   UNL     1     -12.754  10.563  70.743  1.00  0.00    -0.471 A  
ENDROOT
BRANCH   5   9
HETATM    9  N   UNL     1     -10.758  12.802  68.532  1.00  0.00    -0.248 NA 
HETATM   10  H   UNL     1     -10.154  13.588  68.776  1.00  0.00     0.000 HD 
BRANCH   9  11
HETATM   11  C   UNL     1     -10.579  12.211  67.248  1.00  0.00    -0.227 A  
HETATM   12  C   UNL     1      -9.660  11.160  67.078  1.00  0.00    -0.201 A  
HETATM   13  C   UNL     1      -9.591  10.427  65.894  1.00  0.00    -0.258 A  
HETATM   14  C   UNL     1     -10.411  10.769  64.826  1.00  0.00    -0.380 A  
HETATM   15  C   UNL     1     -11.237  11.888  64.922  1.00  0.00    -0.350 A  
HETATM   16  C   UNL     1     -11.287  12.638  66.109  1.00  0.00    -0.375 A  
HETATM   17  C   UNL     1     -12.102  13.870  66.099  1.00  0.00    -0.448 C  
HETATM   18  O   UNL     1     -13.160  13.979  65.508  1.00  0.00    -0.713 OA 
HETATM   19  O   UNL     1     -11.505  14.889  66.763  1.00  0.00    -0.347 OA 
ENDBRANCH   9  11
ENDBRANCH   5   9
TORSDOF 2
ENDMDL
MODEL        8
REMARK 921   NORMALIZED FREE ENERGY PREDICTED BY IDOCK:   -6.17 KCAL/MOL
REMARK 922        TOTAL FREE ENERGY PREDICTED BY IDOCK:   -7.54 KCAL/MOL
REMARK 923 INTER-LIGAND FREE ENERGY PREDICTED BY IDOCK:   -6.97 KCAL/MOL
REMARK 924 INTRA-LIGAND FREE ENERGY PREDICTED BY IDOCK:   -0.57 KCAL/MOL
REMARK 927      BINDING AFFINITY PREDICTED BY RF-SCORE:    0.00 PKD
ROOT
HETATM    1  C   UNL     1     -11.560  16.029  71.451  1.00  0.00    -0.520 C  
HETATM    2  C   UNL     1     -11.271  15.756  69.999  1.00  0.00    -0.346 A  
HETATM    3  C   UNL     1     -11.722  14.599  69.325  1.00  0.00    -0.348 A  
HETATM    4  C   UNL     1     -12.286  13.429  70.087  1.00  0.00    -0.385 C  
HETATM    5  C   UNL     1     -11.665  14.574  67.914  1.00  0.00    -0.351 A  
HETATM    6  C   UNL     1     -10.544  16.729  69.300  1.00  0.00    -0.336 A  
HETATM    7  C   UNL     1     -10.874  15.530  67.255  1.00  0.00    -0.313 A  
HETATM    8  C   UNL     1     -10.303  16.591  67.937  1.00  0.00    -0.294 A  
ENDROOT
BRANCH   5   9
HETATM    9  N   UNL     1     -12.446  13.640  67.170  1.00  0.00    -0.346 NA 
HETATM   10  H   UNL     1     -13.360  13.388  67.544  1.00  0.00     0.000 HD 
BRANCH   9  11
HETATM   11  C   UNL     1     -12.047  13.033  65.944  1.00  0.00    -0.444 A  
HETATM   12  C   UNL     1     -12.486  13.565  64.719  1.00  0.00    -0.402 A  
HETATM   13  C   UNL     1     -11.972  13.127  63.499  1.00  0.00    -0.580 A  
HETATM   14  C   UNL     1     -11.038  12.099  63.478  1.00  0.00    -0.525 A  
HETATM   15  C   UNL     1     -10.683  11.465  64.668  1.00  0.00    -0.378 A  
HETATM   16  C   UNL     1     -11.221  11.895  65.892  1.00  0.00    -0.373 A  
HETATM   17  C   UNL     1     -10.882  11.107  67.095  1.00  0.00    -0.273 C  
HETATM   18  O   UNL     1      -9.794  10.597  67.289  1.00  0.00    -0.169 OA 
HETATM   19  O   UNL     1     -11.940  10.954  67.927  1.00  0.00    -0.585 OA 
ENDBRANCH   9  11
ENDBRANCH   5   9
TORSDOF 2
ENDMDL
MODEL        9
REMARK 921   NORMALIZED FREE ENERGY PREDICTED BY IDOCK:   -6.17 KCAL/MOL
REMARK 922        TOTAL FREE ENERGY PREDICTED BY IDOCK:   -7.53 KCAL/MOL
REMARK 923 INTER-LIGAND FREE ENERGY PREDICTED BY IDOCK:   -6.81 KCAL/MOL
REMARK 924 INTRA-LIGAND FREE ENERGY PREDICTED BY IDOCK:   -0.73 KCAL/MOL
REMARK 927      BINDING AFFINITY PREDICTED BY RF-SCORE:    0.00 PKD
ROOT
HETATM    1  C   UNL     1     -10.529   7.161  73.597  1.00  0.00    -0.412 C  
HETATM    2  C   UNL     1     -10.357   7.989  72.351  1.00  0.00    -0.355 A  
HETATM    3  C   UNL     1     -11.443   8.500  71.607  1.00  0.00    -0.365 A  
HETATM    4  C   UNL     1     -12.848   8.017  71.854  1.00  0.00    -0.343 C  
HETATM    5  C   UNL     1     -11.190   9.501  70.643  1.00  0.00    -0.302 A  
HETATM    6  C   UNL     1      -9.044   8.275  71.953  1.00  0.00    -0.259 A  
HETATM    7  C   UNL     1      -9.865   9.714  70.225  1.00  0.00    -0.321 A  
HETATM    8  C   UNL     1      -8.799   9.098  70.859  1.00  0.00    -0.292 A  
ENDROOT
BRANCH   5   9
HETATM    9  N   UNL     1     -12.247  10.324  70.153  1.00  0.00    -0.467 NA 
HETATM   10  H   UNL     1     -12.849   9.935  69.428  1.00  0.00     0.000 HD 
BRANCH   9  11
HETATM   11  C   UNL     1     -12.527  11.648  70.598  1.00  0.00    -0.295 A  
HETATM   12  C   UNL     1     -13.286  11.854  71.764  1.00  0.00    -0.426 A  
HETATM   13  C   UNL     1     -13.422  13.116  72.341  1.00  0.00    -0.643 A  
HETATM   14  C   UNL     1     -12.841  14.218  71.727  1.00  0.00    -0.426 A  
HETATM   15  C   UNL     1     -12.195  14.062  70.501  1.00  0.00    -0.435 A  
HETATM   16  C   UNL     1     -12.080  12.793  69.911  1.00  0.00    -0.329 A  
HETATM   17  C   UNL     1     -11.479  12.723  68.564  1.00  0.00    -0.309 C  
HETATM   18  O   UNL     1     -10.555  13.424  68.195  1.00  0.00    -0.232 OA 
HETATM   19  O   UNL     1     -12.117  11.840  67.759  1.00  0.00    -0.595 OA 
ENDBRANCH   9  11
ENDBRANCH   5   9
TORSDOF 2
ENDMDL
MODEL       10
REMARK 921   NORMALIZED FREE ENERGY PREDICTED BY IDOCK:   -6.13 KCAL/MOL
REMARK 922        TOTAL FREE ENERGY PREDICTED BY IDOCK:   -7.49 KCAL/MOL
REMARK 923 INTER-LIGAND FREE ENERGY PREDICTED BY IDOCK:   -6.98 KCAL/MOL
REMARK 924 INTRA-LIGAND FREE ENERGY PREDICTED BY IDOCK:   -0.51 KCAL/MOL
REMARK 927      BINDING AFFINITY PREDICTED BY RF-SCORE:    0.00 PKD
ROOT
HETATM    1  C   UNL     1     -11.647  16.051  71.300  1.00  0.00    -0.506 C  
HETATM    2  C   UNL     1     -11.682  14.989  70.233  1.00  0.00    -0.338 A  
HETATM    3  C   UNL     1     -11.227  15.204  68.913  1.00  0.00    -0.292 A  
HETATM    4  C   UNL     1     -10.935  16.592  68.410  1.00  0.00    -0.345 C  
HETATM    5  C   UNL     1     -11.019  14.082  68.080  1.00  0.00    -0.251 A  
HETATM    6  C   UNL     1     -12.165  13.727  70.606  1.00  0.00    -0.434 A  
HETATM    7  C   UNL     1     -11.575  12.848  68.459  1.00  0.00    -0.358 A  
HETATM    8  C   UNL     1     -12.157  12.670  69.703  1.00  0.00    -0.277 A  
ENDROOT
BRANCH   5   9
HETATM    9  N   UNL     1     -10.208  14.184  66.911  1.00  0.00    -0.264 NA 
HETATM   10  H   UNL     1      -9.521  14.937  66.879  1.00  0.00     0.000 HD 
BRANCH   9  11
HETATM   11  C   UNL     1     -10.283  13.315  65.784  1.00  0.00    -0.292 A  
HETATM   12  C   UNL     1      -9.604  12.083  65.798  1.00  0.00    -0.227 A  
HETATM   13  C   UNL     1      -9.802  11.122  64.807  1.00  0.00    -0.326 A  
HETATM   14  C   UNL     1     -10.650  11.399  63.742  1.00  0.00    -0.464 A  
HETATM   15  C   UNL     1     -11.232  12.662  63.635  1.00  0.00    -0.525 A  
HETATM   16  C   UNL     1     -11.012  13.635  64.624  1.00  0.00    -0.403 A  
HETATM   17  C   UNL     1     -11.573  14.981  64.387  1.00  0.00    -0.276 C  
HETATM   18  O   UNL     1     -12.648  15.184  63.853  1.00  0.00    -0.794 OA 
HETATM   19  O   UNL     1     -10.727  15.967  64.767  1.00  0.00    -0.611 OA 
ENDBRANCH   9  11
ENDBRANCH   5   9
TORSDOF 2
ENDMDL
MODEL       11
REMARK 921   NORMALIZED FREE ENERGY PREDICTED BY IDOCK:   -6.02 KCAL/MOL
REMARK 922        TOTAL FREE ENERGY PREDICTED BY IDOCK:   -7.37 KCAL/MOL
REMARK 923 INTER-LIGAND FREE ENERGY PREDICTED BY IDOCK:   -6.79 KCAL/MOL
REMARK 924 INTRA-LIGAND FREE ENERGY PREDICTED BY IDOCK:   -0.58 KCAL/MOL
REMARK 927      BINDING AFFINITY PREDICTED BY RF-SCORE:    0.00 PKD
ROOT
HETATM    1  C   UNL     1      -9.914   7.799  67.952  1.00  0.00    -0.212 C  
HETATM    2  C   UNL     1     -10.465   9.108  68.453  1.00  0.00    -0.241 A  
HETATM    3  C   UNL     1     -10.739  10.205  67.608  1.00  0.00    -0.339 A  
HETATM    4  C   UNL     1     -10.237  10.235  66.188  1.00  0.00    -0.285 C  
HETATM    5  C   UNL     1     -11.525  11.265  68.111  1.00  0.00    -0.306 A  
HETATM    6  C   UNL     1     -10.738   9.200  69.824  1.00  0.00    -0.239 A  
HETATM    7  C   UNL     1     -11.722  11.357  69.500  1.00  0.00    -0.417 A  
HETATM    8  C   UNL     1     -11.322  10.345  70.355  1.00  0.00    -0.417 A  
ENDROOT
BRANCH   5   9
HETATM    9  N   UNL     1     -12.159  12.186  67.225  1.00  0.00    -0.525 NA 
HETATM   10  H   UNL     1     -13.089  11.945  66.883  1.00  0.00     0.000 HD 
BRANCH   9  11
HETATM   11  C   UNL     1     -11.595  13.417  66.782  1.00  0.00    -0.365 A  
HETATM   12  C   UNL     1     -11.191  14.385  67.718  1.00  0.00    -0.316 A  
HETATM   13  C   UNL     1     -10.464  15.514  67.344  1.00  0.00    -0.281 A  
HETATM   14  C   UNL     1     -10.168  15.726  66.003  1.00  0.00    -0.352 A  
HETATM   15  C   UNL     1     -10.669  14.851  65.040  1.00  0.00    -0.451 A  
HETATM   16  C   UNL     1     -11.421  13.728  65.420  1.00  0.00    -0.318 A  
HETATM   17  C   UNL     1     -12.009  12.908  64.340  1.00  0.00    -0.395 C  
HETATM   18  O   UNL     1     -11.454  12.682  63.281  1.00  0.00    -0.483 OA 
HETATM   19  O   UNL     1     -13.265  12.493  64.631  1.00  0.00    -0.848 OA 
ENDBRANCH   9  11
ENDBRANCH   5   9
TORSDOF 2
ENDMDL
MODEL       12
REMARK 921   NORMALIZED FREE ENERGY PREDICTED BY IDOCK:   -6.02 KCAL/MOL
REMARK 922        TOTAL FREE ENERGY PREDICTED BY IDOCK:   -7.37 KCAL/MOL
REMARK 923 INTER-LIGAND FREE ENERGY PREDICTED BY IDOCK:   -6.63 KCAL/MOL
REMARK 924 INTRA-LIGAND FREE ENERGY PREDICTED BY IDOCK:   -0.73 KCAL/MOL
REMARK 927      BINDING AFFINITY PREDICTED BY RF-SCORE:    0.00 PKD
ROOT
HETATM    1  C   UNL     1     -13.820  13.572  71.836  1.00  0.00    -0.421 C  
HETATM    2  C   UNL     1     -12.650  14.218  71.142  1.00  0.00    -0.432 A  
HETATM    3  C   UNL     1     -11.817  13.532  70.231  1.00  0.00    -0.327 A  
HETATM    4  C   UNL     1     -11.875  12.032  70.105  1.00  0.00    -0.383 C  
HETATM    5  C   UNL     1     -10.947  14.286  69.412  1.00  0.00    -0.209 A  
HETATM    6  C   UNL     1     -12.422  15.574  71.409  1.00  0.00    -0.480 A  
HETATM    7  C   UNL     1     -10.695  15.626  69.752  1.00  0.00    -0.309 A  
HETATM    8  C   UNL     1     -11.411  16.266  70.750  1.00  0.00    -0.327 A  
ENDROOT
BRANCH   5   9
HETATM    9  N   UNL     1     -10.387  13.719  68.229  1.00  0.00    -0.241 NA 
HETATM   10  H   UNL     1      -9.548  13.149  68.332  1.00  0.00     0.000 HD 
BRANCH   9  11
HETATM   11  C   UNL     1     -10.909  13.888  66.914  1.00  0.00    -0.286 A  
HETATM   12  C   UNL     1     -11.915  13.028  66.440  1.00  0.00    -0.466 A  
HETATM   13  C   UNL     1     -12.588  13.270  65.243  1.00  0.00    -0.528 A  
HETATM   14  C   UNL     1     -12.226  14.360  64.461  1.00  0.00    -0.483 A  
HETATM   15  C   UNL     1     -11.144  15.153  64.843  1.00  0.00    -0.425 A  
HETATM   16  C   UNL     1     -10.455  14.891  66.038  1.00  0.00    -0.326 A  
HETATM   17  C   UNL     1      -9.254  15.705  66.320  1.00  0.00    -0.330 C  
HETATM   18  O   UNL     1      -9.156  16.887  66.049  1.00  0.00    -0.448 OA 
HETATM   19  O   UNL     1      -8.247  14.972  66.852  1.00  0.00    -0.215 OA 
ENDBRANCH   9  11
ENDBRANCH   5   9
TORSDOF 2
ENDMDL
MODEL       13
REMARK 921   NORMALIZED FREE ENERGY PREDICTED BY IDOCK:   -5.99 KCAL/MOL
REMARK 922        TOTAL FREE ENERGY PREDICTED BY IDOCK:   -7.34 KCAL/MOL
REMARK 923 INTER-LIGAND FREE ENERGY PREDICTED BY IDOCK:   -6.67 KCAL/MOL
REMARK 924 INTRA-LIGAND FREE ENERGY PREDICTED BY IDOCK:   -0.67 KCAL/MOL
REMARK 927      BINDING AFFINITY PREDICTED BY RF-SCORE:    0.00 PKD
ROOT
HETATM    1  C   UNL     1     -11.040  15.742  70.282  1.00  0.00    -0.372 C  
HETATM    2  C   UNL     1     -11.890  14.603  70.777  1.00  0.00    -0.372 A  
HETATM    3  C   UNL     1     -12.037  13.386  70.076  1.00  0.00    -0.404 A  
HETATM    4  C   UNL     1     -11.573  13.253  68.649  1.00  0.00    -0.362 C  
HETATM    5  C   UNL     1     -12.599  12.281  70.752  1.00  0.00    -0.213 A  
HETATM    6  C   UNL     1     -12.530  14.777  72.012  1.00  0.00    -0.410 A  
HETATM    7  C   UNL     1     -13.288  12.506  71.956  1.00  0.00    -0.528 A  
HETATM    8  C   UNL     1     -13.270  13.744  72.578  1.00  0.00    -0.599 A  
ENDROOT
BRANCH   5   9
HETATM    9  N   UNL     1     -12.417  10.955  70.257  1.00  0.00    -0.314 NA 
HETATM   10  H   UNL     1     -12.847  10.723  69.362  1.00  0.00     0.000 HD 
BRANCH   9  11
HETATM   11  C   UNL     1     -11.680   9.930  70.917  1.00  0.00    -0.364 A  
HETATM   12  C   UNL     1     -10.296   9.807  70.702  1.00  0.00    -0.330 A  
HETATM   13  C   UNL     1      -9.505   8.949  71.465  1.00  0.00    -0.347 A  
HETATM   14  C   UNL     1     -10.098   8.149  72.434  1.00  0.00    -0.355 A  
HETATM   15  C   UNL     1     -11.485   8.154  72.577  1.00  0.00    -0.470 A  
HETATM   16  C   UNL     1     -12.280   9.003  71.791  1.00  0.00    -0.434 A  
HETATM   17  C   UNL     1     -13.746   8.875  71.923  1.00  0.00    -0.439 C  
HETATM   18  O   UNL     1     -14.315   8.650  72.975  1.00  0.00    -0.395 OA 
HETATM   19  O   UNL     1     -14.383   8.966  70.731  1.00  0.00     0.038 OA 
ENDBRANCH   9  11
ENDBRANCH   5   9
TORSDOF 2
ENDMDL
MODEL       14
REMARK 921   NORMALIZED FREE ENERGY PREDICTED BY IDOCK:   -5.97 KCAL/MOL
REMARK 922        TOTAL FREE ENERGY PREDICTED BY IDOCK:   -7.31 KCAL/MOL
REMARK 923 INTER-LIGAND FREE ENERGY PREDICTED BY IDOCK:   -6.92 KCAL/MOL
REMARK 924 INTRA-LIGAND FREE ENERGY PREDICTED BY IDOCK:   -0.39 KCAL/MOL
REMARK 927      BINDING AFFINITY PREDICTED BY RF-SCORE:    0.00 PKD
ROOT
HETATM    1  C   UNL     1      -8.167  16.389  66.403  1.00  0.00    -0.366 C  
HETATM    2  C   UNL     1      -9.426  15.619  66.699  1.00  0.00    -0.282 A  
HETATM    3  C   UNL     1      -9.787  15.199  67.998  1.00  0.00    -0.213 A  
HETATM    4  C   UNL     1      -8.800  15.252  69.133  1.00  0.00    -0.238 C  
HETATM    5  C   UNL     1     -11.110  14.756  68.221  1.00  0.00    -0.274 A  
HETATM    6  C   UNL     1     -10.275  15.347  65.618  1.00  0.00    -0.403 A  
HETATM    7  C   UNL     1     -11.909  14.433  67.110  1.00  0.00    -0.437 A  
HETATM    8  C   UNL     1     -11.495  14.710  65.818  1.00  0.00    -0.338 A  
ENDROOT
BRANCH   5   9
HETATM    9  N   UNL     1     -11.647  14.699  69.541  1.00  0.00    -0.292 NA 
HETATM   10  H   UNL     1     -11.680  15.568  70.074  1.00  0.00     0.000 HD 
BRANCH   9  11
HETATM   11  C   UNL     1     -12.140  13.522  70.175  1.00  0.00    -0.354 A  
HETATM   12  C   UNL     1     -11.892  12.259  69.607  1.00  0.00    -0.393 A  
HETATM   13  C   UNL     1     -12.185  11.077  70.285  1.00  0.00    -0.447 A  
HETATM   14  C   UNL     1     -12.789  11.133  71.535  1.00  0.00    -0.542 A  
HETATM   15  C   UNL     1     -13.165  12.368  72.063  1.00  0.00    -0.514 A  
HETATM   16  C   UNL     1     -12.889  13.556  71.367  1.00  0.00    -0.440 A  
HETATM   17  C   UNL     1     -13.413  14.814  71.936  1.00  0.00    -0.371 C  
HETATM   18  O   UNL     1     -13.466  15.049  73.129  1.00  0.00    -0.452 OA 
HETATM   19  O   UNL     1     -13.895  15.650  70.986  1.00  0.00    -0.567 OA 
ENDBRANCH   9  11
ENDBRANCH   5   9
TORSDOF 2
ENDMDL
MODEL       15
REMARK 921   NORMALIZED FREE ENERGY PREDICTED BY IDOCK:   -5.97 KCAL/MOL
REMARK 922        TOTAL FREE ENERGY PREDICTED BY IDOCK:   -7.31 KCAL/MOL
REMARK 923 INTER-LIGAND FREE ENERGY PREDICTED BY IDOCK:   -6.77 KCAL/MOL
REMARK 924 INTRA-LIGAND FREE ENERGY PREDICTED BY IDOCK:   -0.54 KCAL/MOL
REMARK 927      BINDING AFFINITY PREDICTED BY RF-SCORE:    0.00 PKD
ROOT
HETATM    1  C   UNL     1     -10.488   7.851  69.959  1.00  0.00    -0.231 C  
HETATM    2  C   UNL     1     -11.383   8.789  70.724  1.00  0.00    -0.313 A  
HETATM    3  C   UNL     1     -11.460  10.174  70.457  1.00  0.00    -0.417 A  
HETATM    4  C   UNL     1     -10.446  10.851  69.573  1.00  0.00    -0.176 C  
HETATM    5  C   UNL     1     -12.532  10.909  71.010  1.00  0.00    -0.411 A  
HETATM    6  C   UNL     1     -12.190   8.227  71.723  1.00  0.00    -0.367 A  
HETATM    7  C   UNL     1     -13.277  10.334  72.054  1.00  0.00    -0.516 A  
HETATM    8  C   UNL     1     -13.102   9.010  72.422  1.00  0.00    -0.487 A  
ENDROOT
BRANCH   5   9
HETATM    9  N   UNL     1     -12.893  12.183  70.478  1.00  0.00     0.045 NA 
HETATM   10  H   UNL     1     -13.335  12.200  69.559  1.00  0.00     0.000 HD 
BRANCH   9  11
HETATM   11  C   UNL     1     -12.683  13.432  71.130  1.00  0.00    -0.328 A  
HETATM   12  C   UNL     1     -13.345  13.716  72.338  1.00  0.00    -0.641 A  
HETATM   13  C   UNL     1     -13.028  14.835  73.106  1.00  0.00    -0.623 A  
HETATM   14  C   UNL     1     -12.070  15.732  72.650  1.00  0.00    -0.591 A  
HETATM   15  C   UNL     1     -11.493  15.544  71.395  1.00  0.00    -0.478 A  
HETATM   16  C   UNL     1     -11.832  14.427  70.614  1.00  0.00    -0.361 A  
HETATM   17  C   UNL     1     -11.263  14.353  69.252  1.00  0.00    -0.275 C  
HETATM   18  O   UNL     1     -10.138  14.719  68.966  1.00  0.00    -0.233 OA 
HETATM   19  O   UNL     1     -12.158  13.899  68.342  1.00  0.00    -0.365 OA 
ENDBRANCH   9  11
ENDBRANCH   5   9
TORSDOF 2
ENDMDL
MODEL       16
REMARK 921   NORMALIZED FREE ENERGY PREDICTED BY IDOCK:   -5.96 KCAL/MOL
REMARK 922        TOTAL FREE ENERGY PREDICTED BY IDOCK:   -7.30 KCAL/MOL
REMARK 923 INTER-LIGAND FREE ENERGY PREDICTED BY IDOCK:   -6.61 KCAL/MOL
REMARK 924 INTRA-LIGAND FREE ENERGY PREDICTED BY IDOCK:   -0.69 KCAL/MOL
REMARK 927      BINDING AFFINITY PREDICTED BY RF-SCORE:    0.00 PKD
ROOT
HETATM    1  C   UNL     1      -9.567  10.524  63.419  1.00  0.00    -0.376 C  
HETATM    2  C   UNL     1     -10.541  11.296  64.268  1.00  0.00    -0.422 A  
HETATM    3  C   UNL     1     -10.413  11.425  65.668  1.00  0.00    -0.316 A  
HETATM    4  C   UNL     1      -9.448  10.566  66.441  1.00  0.00    -0.208 C  
HETATM    5  C   UNL     1     -11.189  12.403  66.330  1.00  0.00    -0.317 A  
HETATM    6  C   UNL     1     -11.598  11.934  63.604  1.00  0.00    -0.559 A  
HETATM    7  C   UNL     1     -12.279  12.973  65.650  1.00  0.00    -0.521 A  
HETATM    8  C   UNL     1     -12.496  12.732  64.304  1.00  0.00    -0.461 A  
ENDROOT
BRANCH   5   9
HETATM    9  N   UNL     1     -10.834  12.852  67.637  1.00  0.00    -0.228 NA 
HETATM   10  H   UNL     1      -9.984  13.410  67.728  1.00  0.00     0.000 HD 
BRANCH   9  11
HETATM   11  C   UNL     1     -11.573  12.583  68.824  1.00  0.00    -0.322 A  
HETATM   12  C   UNL     1     -12.029  11.279  69.090  1.00  0.00    -0.405 A  
HETATM   13  C   UNL     1     -12.585  10.930  70.320  1.00  0.00    -0.342 A  
HETATM   14  C   UNL     1     -12.748  11.900  71.300  1.00  0.00    -0.401 A  
HETATM   15  C   UNL     1     -12.426  13.227  71.016  1.00  0.00    -0.422 A  
HETATM   16  C   UNL     1     -11.888  13.579  69.768  1.00  0.00    -0.395 A  
HETATM   17  C   UNL     1     -11.674  15.017  69.502  1.00  0.00    -0.322 C  
HETATM   18  O   UNL     1     -11.300  15.814  70.342  1.00  0.00    -0.310 OA 
HETATM   19  O   UNL     1     -12.009  15.363  68.236  1.00  0.00    -0.283 OA 
ENDBRANCH   9  11
ENDBRANCH   5   9
TORSDOF 2
ENDMDL
MODEL       17
REMARK 921   NORMALIZED FREE ENERGY PREDICTED BY IDOCK:   -5.93 KCAL/MOL
REMARK 922        TOTAL FREE ENERGY PREDICTED BY IDOCK:   -7.27 KCAL/MOL
REMARK 923 INTER-LIGAND FREE ENERGY PREDICTED BY IDOCK:   -6.58 KCAL/MOL
REMARK 924 INTRA-LIGAND FREE ENERGY PREDICTED BY IDOCK:   -0.69 KCAL/MOL
REMARK 927      BINDING AFFINITY PREDICTED BY RF-SCORE:    0.00 PKD
ROOT
HETATM    1  C   UNL     1     -11.731  12.139  63.569  1.00  0.00    -0.579 C  
HETATM    2  C   UNL     1     -11.224  12.115  64.986  1.00  0.00    -0.372 A  
HETATM    3  C   UNL     1     -11.798  12.881  66.025  1.00  0.00    -0.485 A  
HETATM    4  C   UNL     1     -12.779  13.984  65.725  1.00  0.00    -0.487 C  
HETATM    5  C   UNL     1     -11.457  12.570  67.360  1.00  0.00    -0.341 A  
HETATM    6  C   UNL     1     -10.150  11.259  65.264  1.00  0.00    -0.318 A  
HETATM    7  C   UNL     1     -10.335  11.759  67.598  1.00  0.00    -0.219 A  
HETATM    8  C   UNL     1      -9.674  11.118  66.563  1.00  0.00    -0.228 A  
ENDROOT
BRANCH   5   9
HETATM    9  N   UNL     1     -12.273  13.016  68.443  1.00  0.00    -0.124 NA 
HETATM   10  H   UNL     1     -13.190  12.584  68.549  1.00  0.00     0.000 HD 
BRANCH   9  11
HETATM   11  C   UNL     1     -11.905  14.018  69.386  1.00  0.00    -0.333 A  
HETATM   12  C   UNL     1     -11.219  15.169  68.961  1.00  0.00    -0.282 A  
HETATM   13  C   UNL     1     -11.009  16.257  69.807  1.00  0.00    -0.354 A  
HETATM   14  C   UNL     1     -11.439  16.193  71.126  1.00  0.00    -0.433 A  
HETATM   15  C   UNL     1     -12.004  15.013  71.610  1.00  0.00    -0.429 A  
HETATM   16  C   UNL     1     -12.192  13.912  70.760  1.00  0.00    -0.441 A  
HETATM   17  C   UNL     1     -12.696  12.663  71.369  1.00  0.00    -0.247 C  
HETATM   18  O   UNL     1     -13.521  12.629  72.263  1.00  0.00    -0.561 OA 
HETATM   19  O   UNL     1     -12.084  11.562  70.871  1.00  0.00    -0.349 OA 
ENDBRANCH   9  11
ENDBRANCH   5   9
TORSDOF 2
ENDMDL
MODEL       18
REMARK 921   NORMALIZED FREE ENERGY PREDICTED BY IDOCK:   -5.92 KCAL/MOL
REMARK 922        TOTAL FREE ENERGY PREDICTED BY IDOCK:   -7.26 KCAL/MOL
REMARK 923 INTER-LIGAND FREE ENERGY PREDICTED BY IDOCK:   -7.01 KCAL/MOL
REMARK 924 INTRA-LIGAND FREE ENERGY PREDICTED BY IDOCK:   -0.25 KCAL/MOL
REMARK 927      BINDING AFFINITY PREDICTED BY RF-SCORE:    0.00 PKD
ROOT
HETATM    1  C   UNL     1     -12.900  10.187  71.678  1.00  0.00    -0.559 C  
HETATM    2  C   UNL     1     -12.616  11.524  71.047  1.00  0.00    -0.457 A  
HETATM    3  C   UNL     1     -12.018  11.668  69.776  1.00  0.00    -0.402 A  
HETATM    4  C   UNL     1     -11.369  10.496  69.088  1.00  0.00    -0.319 C  
HETATM    5  C   UNL     1     -12.067  12.931  69.145  1.00  0.00    -0.168 A  
HETATM    6  C   UNL     1     -13.005  12.663  71.767  1.00  0.00    -0.417 A  
HETATM    7  C   UNL     1     -12.400  14.057  69.917  1.00  0.00    -0.367 A  
HETATM    8  C   UNL     1     -12.850  13.933  71.221  1.00  0.00    -0.435 A  
ENDROOT
BRANCH   5   9
HETATM    9  N   UNL     1     -11.849  13.052  67.741  1.00  0.00    -0.358 NA 
HETATM   10  H   UNL     1     -12.291  12.361  67.134  1.00  0.00     0.000 HD 
BRANCH   9  11
HETATM   11  C   UNL     1     -11.062  14.064  67.119  1.00  0.00    -0.303 A  
HETATM   12  C   UNL     1     -10.074  14.740  67.856  1.00  0.00    -0.221 A  
HETATM   13  C   UNL     1      -9.156  15.595  67.247  1.00  0.00    -0.217 A  
HETATM   14  C   UNL     1      -9.242  15.834  65.881  1.00  0.00    -0.337 A  
HETATM   15  C   UNL     1     -10.293  15.280  65.150  1.00  0.00    -0.413 A  
HETATM   16  C   UNL     1     -11.229  14.438  65.772  1.00  0.00    -0.326 A  
HETATM   17  C   UNL     1     -12.373  13.977  64.959  1.00  0.00    -0.441 C  
HETATM   18  O   UNL     1     -12.295  13.691  63.779  1.00  0.00    -0.671 OA 
HETATM   19  O   UNL     1     -13.535  13.976  65.655  1.00  0.00    -0.604 OA 
ENDBRANCH   9  11
ENDBRANCH   5   9
TORSDOF 2
ENDMDL
MODEL       19
REMARK 921   NORMALIZED FREE ENERGY PREDICTED BY IDOCK:   -5.92 KCAL/MOL
REMARK 922        TOTAL FREE ENERGY PREDICTED BY IDOCK:   -7.26 KCAL/MOL
REMARK 923 INTER-LIGAND FREE ENERGY PREDICTED BY IDOCK:   -6.55 KCAL/MOL
REMARK 924 INTRA-LIGAND FREE ENERGY PREDICTED BY IDOCK:   -0.71 KCAL/MOL
REMARK 927      BINDING AFFINITY PREDICTED BY RF-SCORE:    0.00 PKD
ROOT
HETATM    1  C   UNL     1     -11.227   7.966  72.981  1.00  0.00    -0.346 C  
HETATM    2  C   UNL     1     -11.121   8.866  71.779  1.00  0.00    -0.433 A  
HETATM    3  C   UNL     1     -12.166   9.716  71.355  1.00  0.00    -0.471 A  
HETATM    4  C   UNL     1     -13.556   9.573  71.914  1.00  0.00    -0.468 C  
HETATM    5  C   UNL     1     -11.873  10.729  70.415  1.00  0.00    -0.358 A  
HETATM    6  C   UNL     1      -9.903   8.861  71.086  1.00  0.00    -0.345 A  
HETATM    7  C   UNL     1     -10.668  10.652  69.695  1.00  0.00    -0.290 A  
HETATM    8  C   UNL     1      -9.695   9.720  70.012  1.00  0.00    -0.292 A  
ENDROOT
BRANCH   5   9
HETATM    9  N   UNL     1     -12.749  11.842  70.246  1.00  0.00    -0.013 NA 
HETATM   10  H   UNL     1     -13.486  11.759  69.546  1.00  0.00     0.000 HD 
BRANCH   9  11
HETATM   11  C   UNL     1     -12.676  13.060  70.981  1.00  0.00    -0.262 A  
HETATM   12  C   UNL     1     -13.393  13.202  72.183  1.00  0.00    -0.621 A  
HETATM   13  C   UNL     1     -13.203  14.295  73.029  1.00  0.00    -0.500 A  
HETATM   14  C   UNL     1     -12.322  15.304  72.660  1.00  0.00    -0.482 A  
HETATM   15  C   UNL     1     -11.699  15.252  71.414  1.00  0.00    -0.444 A  
HETATM   16  C   UNL     1     -11.910  14.161  70.554  1.00  0.00    -0.352 A  
HETATM   17  C   UNL     1     -11.302  14.229  69.210  1.00  0.00    -0.283 C  
HETATM   18  O   UNL     1     -10.210  14.715  68.983  1.00  0.00    -0.229 OA 
HETATM   19  O   UNL     1     -12.126  13.753  68.246  1.00  0.00    -0.362 OA 
ENDBRANCH   9  11
ENDBRANCH   5   9
TORSDOF 2
ENDMDL
MODEL       20
REMARK 921   NORMALIZED FREE ENERGY PREDICTED BY IDOCK:   -5.89 KCAL/MOL
REMARK 922        TOTAL FREE ENERGY PREDICTED BY IDOCK:   -7.22 KCAL/MOL
REMARK 923 INTER-LIGAND FREE ENERGY PREDICTED BY IDOCK:   -6.59 KCAL/MOL
REMARK 924 INTRA-LIGAND FREE ENERGY PREDICTED BY IDOCK:   -0.63 KCAL/MOL
REMARK 927      BINDING AFFINITY PREDICTED BY RF-SCORE:    0.00 PKD
ROOT
HETATM    1  C   UNL     1     -13.465  15.577  72.640  1.00  0.00    -0.642 C  
HETATM    2  C   UNL     1     -13.165  14.308  71.888  1.00  0.00    -0.456 A  
HETATM    3  C   UNL     1     -12.430  14.279  70.683  1.00  0.00    -0.428 A  
HETATM    4  C   UNL     1     -12.135  15.546  69.924  1.00  0.00    -0.378 C  
HETATM    5  C   UNL     1     -11.945  13.036  70.217  1.00  0.00    -0.285 A  
HETATM    6  C   UNL     1     -13.624  13.110  72.452  1.00  0.00    -0.667 A  
HETATM    7  C   UNL     1     -12.478  11.857  70.765  1.00  0.00    -0.384 A  
HETATM    8  C   UNL     1     -13.322  11.887  71.863  1.00  0.00    -0.405 A  
ENDROOT
BRANCH   5   9
HETATM    9  N   UNL     1     -10.891  12.979  69.257  1.00  0.00    -0.442 NA 
HETATM   10  H   UNL     1      -9.962  13.270  69.562  1.00  0.00     0.000 HD 
BRANCH   9  11
HETATM   11  C   UNL     1     -11.035  12.547  67.907  1.00  0.00    -0.227 A  
HETATM   12  C   UNL     1     -12.028  13.114  67.089  1.00  0.00    -0.397 A  
HETATM   13  C   UNL     1     -12.083  12.865  65.718  1.00  0.00    -0.513 A  
HETATM   14  C   UNL     1     -11.168  11.992  65.142  1.00  0.00    -0.368 A  
HETATM   15  C   UNL     1     -10.257  11.316  65.952  1.00  0.00    -0.298 A  
HETATM   16  C   UNL     1     -10.220  11.552  67.336  1.00  0.00    -0.228 A  
HETATM   17  C   UNL     1      -9.303  10.720  68.142  1.00  0.00    -0.155 C  
HETATM   18  O   UNL     1      -8.203  10.362  67.765  1.00  0.00    -0.110 OA 
HETATM   19  O   UNL     1      -9.852  10.341  69.321  1.00  0.00    -0.206 OA 
ENDBRANCH   9  11
ENDBRANCH   5   9
TORSDOF 2
ENDMDL
MODEL       21
REMARK 921   NORMALIZED FREE ENERGY PREDICTED BY IDOCK:   -5.87 KCAL/MOL
REMARK 922        TOTAL FREE ENERGY PREDICTED BY IDOCK:   -7.20 KCAL/MOL
REMARK 923 INTER-LIGAND FREE ENERGY PREDICTED BY IDOCK:   -6.56 KCAL/MOL
REMARK 924 INTRA-LIGAND FREE ENERGY PREDICTED BY IDOCK:   -0.64 KCAL/MOL
REMARK 927      BINDING AFFINITY PREDICTED BY RF-SCORE:    0.00 PKD
ROOT
HETATM    1  C   UNL     1      -9.782  10.099  63.958  1.00  0.00    -0.273 C  
HETATM    2  C   UNL     1     -10.512  11.399  64.174  1.00  0.00    -0.421 A  
HETATM    3  C   UNL     1     -10.092  12.375  65.104  1.00  0.00    -0.276 A  
HETATM    4  C   UNL     1      -9.044  12.061  66.139  1.00  0.00    -0.129 C  
HETATM    5  C   UNL     1     -10.653  13.669  65.023  1.00  0.00    -0.383 A  
HETATM    6  C   UNL     1     -11.641  11.635  63.378  1.00  0.00    -0.340 A  
HETATM    7  C   UNL     1     -11.821  13.851  64.264  1.00  0.00    -0.441 A  
HETATM    8  C   UNL     1     -12.325  12.843  63.459  1.00  0.00    -0.521 A  
ENDROOT
BRANCH   5   9
HETATM    9  N   UNL     1     -10.010  14.782  65.644  1.00  0.00    -0.345 NA 
HETATM   10  H   UNL     1      -9.176  15.156  65.192  1.00  0.00     0.000 HD 
BRANCH   9  11
HETATM   11  C   UNL     1     -10.444  15.410  66.847  1.00  0.00    -0.295 A  
HETATM   12  C   UNL     1     -10.810  14.630  67.958  1.00  0.00    -0.260 A  
HETATM   13  C   UNL     1     -11.054  15.197  69.208  1.00  0.00    -0.279 A  
HETATM   14  C   UNL     1     -10.988  16.577  69.361  1.00  0.00    -0.288 A  
HETATM   15  C   UNL     1     -10.757  17.383  68.247  1.00  0.00    -0.327 A  
HETATM   16  C   UNL     1     -10.534  16.809  66.984  1.00  0.00    -0.285 A  
HETATM   17  C   UNL     1     -10.404  17.727  65.835  1.00  0.00    -0.254 C  
HETATM   18  O   UNL     1      -9.849  18.809  65.890  1.00  0.00    -0.496 OA 
HETATM   19  O   UNL     1     -11.034  17.263  64.729  1.00  0.00    -0.950 OA 
ENDBRANCH   9  11
ENDBRANCH   5   9
TORSDOF 2
ENDMDL
MODEL       22
REMARK 921   NORMALIZED FREE ENERGY PREDICTED BY IDOCK:   -5.87 KCAL/MOL
REMARK 922        TOTAL FREE ENERGY PREDICTED BY IDOCK:   -7.20 KCAL/MOL
REMARK 923 INTER-LIGAND FREE ENERGY PREDICTED BY IDOCK:   -6.59 KCAL/MOL
REMARK 924 INTRA-LIGAND FREE ENERGY PREDICTED BY IDOCK:   -0.61 KCAL/MOL
REMARK 927      BINDING AFFINITY PREDICTED BY RF-SCORE:    0.00 PKD
ROOT
HETATM    1  C   UNL     1      -9.301  16.205  66.250  1.00  0.00    -0.351 C  
HETATM    2  C   UNL     1     -10.210  15.028  66.485  1.00  0.00    -0.281 A  
HETATM    3  C   UNL     1     -10.052  14.134  67.567  1.00  0.00    -0.236 A  
HETATM    4  C   UNL     1      -8.797  14.138  68.399  1.00  0.00    -0.187 C  
HETATM    5  C   UNL     1     -11.113  13.254  67.876  1.00  0.00    -0.262 A  
HETATM    6  C   UNL     1     -11.273  14.855  65.588  1.00  0.00    -0.347 A  
HETATM    7  C   UNL     1     -12.128  13.061  66.923  1.00  0.00    -0.349 A  
HETATM    8  C   UNL     1     -12.204  13.840  65.780  1.00  0.00    -0.495 A  
ENDROOT
BRANCH   5   9
HETATM    9  N   UNL     1     -11.188  12.625  69.154  1.00  0.00    -0.350 NA 
HETATM   10  H   UNL     1     -10.682  11.748  69.277  1.00  0.00     0.000 HD 
BRANCH   9  11
HETATM   11  C   UNL     1     -11.916  13.126  70.272  1.00  0.00    -0.292 A  
HETATM   12  C   UNL     1     -11.908  14.502  70.557  1.00  0.00    -0.372 A  
HETATM   13  C   UNL     1     -12.752  15.060  71.517  1.00  0.00    -0.414 A  
HETATM   14  C   UNL     1     -13.592  14.236  72.255  1.00  0.00    -0.573 A  
HETATM   15  C   UNL     1     -13.524  12.854  72.084  1.00  0.00    -0.619 A  
HETATM   16  C   UNL     1     -12.656  12.294  71.133  1.00  0.00    -0.353 A  
HETATM   17  C   UNL     1     -12.561  10.820  71.085  1.00  0.00    -0.428 C  
HETATM   18  O   UNL     1     -13.507  10.074  71.257  1.00  0.00    -0.349 OA 
HETATM   19  O   UNL     1     -11.290  10.390  70.898  1.00  0.00    -0.335 OA 
ENDBRANCH   9  11
ENDBRANCH   5   9
TORSDOF 2
ENDMDL
MODEL       23
REMARK 921   NORMALIZED FREE ENERGY PREDICTED BY IDOCK:   -5.87 KCAL/MOL
REMARK 922        TOTAL FREE ENERGY PREDICTED BY IDOCK:   -7.20 KCAL/MOL
REMARK 923 INTER-LIGAND FREE ENERGY PREDICTED BY IDOCK:   -6.62 KCAL/MOL
REMARK 924 INTRA-LIGAND FREE ENERGY PREDICTED BY IDOCK:   -0.58 KCAL/MOL
REMARK 927      BINDING AFFINITY PREDICTED BY RF-SCORE:    0.00 PKD
ROOT
HETATM    1  C   UNL     1      -6.711  19.586  68.112  1.00  0.00    -0.301 C  
HETATM    2  C   UNL     1      -7.998  19.328  67.375  1.00  0.00    -0.292 A  
HETATM    3  C   UNL     1      -8.306  18.092  66.766  1.00  0.00    -0.270 A  
HETATM    4  C   UNL     1      -7.249  17.038  66.573  1.00  0.00    -0.311 C  
HETATM    5  C   UNL     1      -9.640  17.850  66.368  1.00  0.00    -0.286 A  
HETATM    6  C   UNL     1      -8.929  20.375  67.337  1.00  0.00    -0.449 A  
HETATM    7  C   UNL     1     -10.526  18.937  66.281  1.00  0.00    -0.510 A  
HETATM    8  C   UNL     1     -10.175  20.194  66.745  1.00  0.00    -0.562 A  
ENDROOT
BRANCH   5   9
HETATM    9  N   UNL     1     -10.096  16.520  66.122  1.00  0.00    -0.331 NA 
HETATM   10  H   UNL     1     -10.016  16.164  65.170  1.00  0.00     0.000 HD 
BRANCH   9  11
HETATM   11  C   UNL     1     -10.655  15.652  67.104  1.00  0.00    -0.308 A  
HETATM   12  C   UNL     1     -10.259  15.761  68.448  1.00  0.00    -0.223 A  
HETATM   13  C   UNL     1     -10.912  15.069  69.467  1.00  0.00    -0.281 A  
HETATM   14  C   UNL     1     -11.953  14.204  69.152  1.00  0.00    -0.388 A  
HETATM   15  C   UNL     1     -12.279  13.977  67.815  1.00  0.00    -0.209 A  
HETATM   16  C   UNL     1     -11.602  14.659  66.790  1.00  0.00    -0.370 A  
HETATM   17  C   UNL     1     -11.928  14.287  65.398  1.00  0.00    -0.383 C  
HETATM   18  O   UNL     1     -13.046  13.994  65.018  1.00  0.00    -0.742 OA 
HETATM   19  O   UNL     1     -10.830  14.238  64.606  1.00  0.00    -0.401 OA 
ENDBRANCH   9  11
ENDBRANCH   5   9
TORSDOF 2
ENDMDL
MODEL       24
REMARK 921   NORMALIZED FREE ENERGY PREDICTED BY IDOCK:   -5.87 KCAL/MOL
REMARK 922        TOTAL FREE ENERGY PREDICTED BY IDOCK:   -7.20 KCAL/MOL
REMARK 923 INTER-LIGAND FREE ENERGY PREDICTED BY IDOCK:   -6.51 KCAL/MOL
REMARK 924 INTRA-LIGAND FREE ENERGY PREDICTED BY IDOCK:   -0.68 KCAL/MOL
REMARK 927      BINDING AFFINITY PREDICTED BY RF-SCORE:    0.00 PKD
ROOT
HETATM    1  C   UNL     1      -6.692  19.996  66.728  1.00  0.00    -0.241 C  
HETATM    2  C   UNL     1      -8.087  19.469  66.937  1.00  0.00    -0.306 A  
HETATM    3  C   UNL     1      -8.419  18.099  66.840  1.00  0.00    -0.265 A  
HETATM    4  C   UNL     1      -7.453  17.108  66.248  1.00  0.00    -0.344 C  
HETATM    5  C   UNL     1      -9.668  17.670  67.342  1.00  0.00    -0.283 A  
HETATM    6  C   UNL     1      -9.076  20.403  67.273  1.00  0.00    -0.500 A  
HETATM    7  C   UNL     1     -10.655  18.635  67.607  1.00  0.00    -0.458 A  
HETATM    8  C   UNL     1     -10.373  19.990  67.559  1.00  0.00    -0.519 A  
ENDROOT
BRANCH   5   9
HETATM    9  N   UNL     1      -9.900  16.294  67.637  1.00  0.00    -0.235 NA 
HETATM   10  H   UNL     1      -9.410  15.895  68.438  1.00  0.00     0.000 HD 
BRANCH   9  11
HETATM   11  C   UNL     1     -10.762  15.433  66.899  1.00  0.00    -0.314 A  
HETATM   12  C   UNL     1     -10.806  15.513  65.496  1.00  0.00    -0.372 A  
HETATM   13  C   UNL     1     -11.484  14.569  64.725  1.00  0.00    -0.408 A  
HETATM   14  C   UNL     1     -12.185  13.547  65.352  1.00  0.00    -0.482 A  
HETATM   15  C   UNL     1     -12.268  13.521  66.743  1.00  0.00    -0.392 A  
HETATM   16  C   UNL     1     -11.602  14.486  67.516  1.00  0.00    -0.403 A  
HETATM   17  C   UNL     1     -11.824  14.458  68.976  1.00  0.00    -0.323 C  
HETATM   18  O   UNL     1     -11.944  13.435  69.625  1.00  0.00    -0.308 OA 
HETATM   19  O   UNL     1     -11.951  15.699  69.504  1.00  0.00    -0.359 OA 
ENDBRANCH   9  11
ENDBRANCH   5   9
TORSDOF 2
ENDMDL
MODEL       25
REMARK 921   NORMALIZED FREE ENERGY PREDICTED BY IDOCK:   -5.82 KCAL/MOL
REMARK 922        TOTAL FREE ENERGY PREDICTED BY IDOCK:   -7.15 KCAL/MOL
REMARK 923 INTER-LIGAND FREE ENERGY PREDICTED BY IDOCK:   -6.56 KCAL/MOL
REMARK 924 INTRA-LIGAND FREE ENERGY PREDICTED BY IDOCK:   -0.59 KCAL/MOL
REMARK 927      BINDING AFFINITY PREDICTED BY RF-SCORE:    0.00 PKD
ROOT
HETATM    1  C   UNL     1      -9.100  17.133  68.486  1.00  0.00    -0.265 C  
HETATM    2  C   UNL     1     -10.238  16.147  68.516  1.00  0.00    -0.241 A  
HETATM    3  C   UNL     1     -10.846  15.632  67.350  1.00  0.00    -0.315 A  
HETATM    4  C   UNL     1     -10.581  16.248  66.002  1.00  0.00    -0.288 C  
HETATM    5  C   UNL     1     -11.686  14.503  67.469  1.00  0.00    -0.386 A  
HETATM    6  C   UNL     1     -10.671  15.714  69.777  1.00  0.00    -0.309 A  
HETATM    7  C   UNL     1     -12.150  14.139  68.745  1.00  0.00    -0.326 A  
HETATM    8  C   UNL     1     -11.663  14.746  69.891  1.00  0.00    -0.352 A  
ENDROOT
BRANCH   5   9
HETATM    9  N   UNL     1     -12.004  13.708  66.328  1.00  0.00    -0.398 NA 
HETATM   10  H   UNL     1     -12.921  13.842  65.902  1.00  0.00     0.000 HD 
BRANCH   9  11
HETATM   11  C   UNL     1     -11.140  12.743  65.735  1.00  0.00    -0.285 A  
HETATM   12  C   UNL     1      -9.941  12.384  66.376  1.00  0.00    -0.254 A  
HETATM   13  C   UNL     1      -9.163  11.313  65.936  1.00  0.00    -0.229 A  
HETATM   14  C   UNL     1      -9.545  10.606  64.803  1.00  0.00    -0.334 A  
HETATM   15  C   UNL     1     -10.658  11.024  64.074  1.00  0.00    -0.395 A  
HETATM   16  C   UNL     1     -11.425  12.117  64.507  1.00  0.00    -0.397 A  
HETATM   17  C   UNL     1     -12.523  12.567  63.626  1.00  0.00    -0.470 C  
HETATM   18  O   UNL     1     -13.224  11.814  62.977  1.00  0.00    -0.474 OA 
HETATM   19  O   UNL     1     -12.616  13.917  63.566  1.00  0.00    -0.842 OA 
ENDBRANCH   9  11
ENDBRANCH   5   9
TORSDOF 2
ENDMDL
MODEL       26
REMARK 921   NORMALIZED FREE ENERGY PREDICTED BY IDOCK:   -5.82 KCAL/MOL
REMARK 922        TOTAL FREE ENERGY PREDICTED BY IDOCK:   -7.15 KCAL/MOL
REMARK 923 INTER-LIGAND FREE ENERGY PREDICTED BY IDOCK:   -6.59 KCAL/MOL
REMARK 924 INTRA-LIGAND FREE ENERGY PREDICTED BY IDOCK:   -0.56 KCAL/MOL
REMARK 927      BINDING AFFINITY PREDICTED BY RF-SCORE:    0.00 PKD
ROOT
HETATM    1  C   UNL     1     -12.223  12.304  64.345  1.00  0.00    -0.488 C  
HETATM    2  C   UNL     1     -11.258  12.143  65.489  1.00  0.00    -0.381 A  
HETATM    3  C   UNL     1     -11.309  12.930  66.660  1.00  0.00    -0.361 A  
HETATM    4  C   UNL     1     -12.161  14.169  66.725  1.00  0.00    -0.474 C  
HETATM    5  C   UNL     1     -10.567  12.511  67.787  1.00  0.00    -0.219 A  
HETATM    6  C   UNL     1     -10.292  11.135  65.369  1.00  0.00    -0.331 A  
HETATM    7  C   UNL     1      -9.564  11.543  67.612  1.00  0.00    -0.176 A  
HETATM    8  C   UNL     1      -9.412  10.868  66.413  1.00  0.00    -0.214 A  
ENDROOT
BRANCH   5   9
HETATM    9  N   UNL     1     -10.873  13.013  69.087  1.00  0.00    -0.431 NA 
HETATM   10  H   UNL     1     -10.384  13.853  69.395  1.00  0.00     0.000 HD 
BRANCH   9  11
HETATM   11  C   UNL     1     -11.809  12.430  69.990  1.00  0.00    -0.288 A  
HETATM   12  C   UNL     1     -12.143  11.069  69.878  1.00  0.00    -0.435 A  
HETATM   13  C   UNL     1     -12.901  10.414  70.848  1.00  0.00    -0.482 A  
HETATM   14  C   UNL     1     -13.390  11.129  71.935  1.00  0.00    -0.409 A  
HETATM   15  C   UNL     1     -13.185  12.506  72.002  1.00  0.00    -0.524 A  
HETATM   16  C   UNL     1     -12.441  13.166  71.011  1.00  0.00    -0.406 A  
HETATM   17  C   UNL     1     -12.358  14.639  71.092  1.00  0.00    -0.335 C  
HETATM   18  O   UNL     1     -12.275  15.257  72.137  1.00  0.00    -0.326 OA 
HETATM   19  O   UNL     1     -12.456  15.230  69.877  1.00  0.00    -0.309 OA 
ENDBRANCH   9  11
ENDBRANCH   5   9
TORSDOF 2
ENDMDL
MODEL       27
REMARK 921   NORMALIZED FREE ENERGY PREDICTED BY IDOCK:   -5.80 KCAL/MOL
REMARK 922        TOTAL FREE ENERGY PREDICTED BY IDOCK:   -7.13 KCAL/MOL
REMARK 923 INTER-LIGAND FREE ENERGY PREDICTED BY IDOCK:   -6.59 KCAL/MOL
REMARK 924 INTRA-LIGAND FREE ENERGY PREDICTED BY IDOCK:   -0.54 KCAL/MOL
REMARK 927      BINDING AFFINITY PREDICTED BY RF-SCORE:    0.00 PKD
ROOT
HETATM    1  C   UNL     1     -12.034  12.705  67.868  1.00  0.00    -0.307 C  
HETATM    2  C   UNL     1     -11.788  13.748  66.810  1.00  0.00    -0.454 A  
HETATM    3  C   UNL     1     -10.950  14.867  67.008  1.00  0.00    -0.327 A  
HETATM    4  C   UNL     1     -10.466  15.239  68.384  1.00  0.00    -0.236 C  
HETATM    5  C   UNL     1     -10.546  15.615  65.880  1.00  0.00    -0.343 A  
HETATM    6  C   UNL     1     -12.411  13.555  65.570  1.00  0.00    -0.538 A  
HETATM    7  C   UNL     1     -11.238  15.438  64.670  1.00  0.00    -0.374 A  
HETATM    8  C   UNL     1     -12.174  14.429  64.514  1.00  0.00    -0.483 A  
ENDROOT
BRANCH   5   9
HETATM    9  N   UNL     1      -9.417  16.485  65.949  1.00  0.00    -0.488 NA 
HETATM   10  H   UNL     1      -8.520  16.117  65.634  1.00  0.00     0.000 HD 
BRANCH   9  11
HETATM   11  C   UNL     1      -9.447  17.828  66.425  1.00  0.00    -0.264 A  
HETATM   12  C   UNL     1     -10.480  18.694  66.027  1.00  0.00    -0.456 A  
HETATM   13  C   UNL     1     -10.657  19.948  66.611  1.00  0.00    -0.540 A  
HETATM   14  C   UNL     1      -9.762  20.386  67.579  1.00  0.00    -0.571 A  
HETATM   15  C   UNL     1      -8.653  19.602  67.898  1.00  0.00    -0.360 A  
HETATM   16  C   UNL     1      -8.466  18.351  67.290  1.00  0.00    -0.256 A  
HETATM   17  C   UNL     1      -7.215  17.628  67.597  1.00  0.00    -0.178 C  
HETATM   18  O   UNL     1      -6.682  17.628  68.690  1.00  0.00    -0.199 OA 
HETATM   19  O   UNL     1      -6.688  17.021  66.506  1.00  0.00    -0.217 OA 
ENDBRANCH   9  11
ENDBRANCH   5   9
TORSDOF 2
ENDMDL
MODEL       28
REMARK 921   NORMALIZED FREE ENERGY PREDICTED BY IDOCK:   -5.80 KCAL/MOL
REMARK 922        TOTAL FREE ENERGY PREDICTED BY IDOCK:   -7.12 KCAL/MOL
REMARK 923 INTER-LIGAND FREE ENERGY PREDICTED BY IDOCK:   -6.49 KCAL/MOL
REMARK 924 INTRA-LIGAND FREE ENERGY PREDICTED BY IDOCK:   -0.63 KCAL/MOL
REMARK 927      BINDING AFFINITY PREDICTED BY RF-SCORE:    0.00 PKD
ROOT
HETATM    1  C   UNL     1     -13.410   9.496  71.707  1.00  0.00    -0.501 C  
HETATM    2  C   UNL     1     -12.874  10.863  71.373  1.00  0.00    -0.554 A  
HETATM    3  C   UNL     1     -11.781  11.074  70.503  1.00  0.00    -0.416 A  
HETATM    4  C   UNL     1     -10.904   9.930  70.069  1.00  0.00    -0.339 C  
HETATM    5  C   UNL     1     -11.546  12.380  70.019  1.00  0.00    -0.138 A  
HETATM    6  C   UNL     1     -13.531  11.961  71.945  1.00  0.00    -0.289 A  
HETATM    7  C   UNL     1     -12.176  13.460  70.661  1.00  0.00    -0.427 A  
HETATM    8  C   UNL     1     -13.148  13.260  71.626  1.00  0.00    -0.453 A  
ENDROOT
BRANCH   5   9
HETATM    9  N   UNL     1     -10.738  12.593  68.863  1.00  0.00    -0.375 NA 
HETATM   10  H   UNL     1      -9.738  12.415  68.948  1.00  0.00     0.000 HD 
BRANCH   9  11
HETATM   11  C   UNL     1     -11.221  13.036  67.598  1.00  0.00    -0.280 A  
HETATM   12  C   UNL     1     -11.604  12.099  66.622  1.00  0.00    -0.416 A  
HETATM   13  C   UNL     1     -12.258  12.480  65.451  1.00  0.00    -0.475 A  
HETATM   14  C   UNL     1     -12.495  13.827  65.205  1.00  0.00    -0.483 A  
HETATM   15  C   UNL     1     -12.009  14.786  66.092  1.00  0.00    -0.156 A  
HETATM   16  C   UNL     1     -11.330  14.399  67.259  1.00  0.00    -0.357 A  
HETATM   17  C   UNL     1     -10.751  15.470  68.094  1.00  0.00    -0.282 C  
HETATM   18  O   UNL     1     -11.280  16.551  68.275  1.00  0.00    -0.356 OA 
HETATM   19  O   UNL     1      -9.529  15.143  68.580  1.00  0.00    -0.191 OA 
ENDBRANCH   9  11
ENDBRANCH   5   9
TORSDOF 2
ENDMDL
MODEL       29
REMARK 921   NORMALIZED FREE ENERGY PREDICTED BY IDOCK:   -5.78 KCAL/MOL
REMARK 922        TOTAL FREE ENERGY PREDICTED BY IDOCK:   -7.10 KCAL/MOL
REMARK 923 INTER-LIGAND FREE ENERGY PREDICTED BY IDOCK:   -6.55 KCAL/MOL
REMARK 924 INTRA-LIGAND FREE ENERGY PREDICTED BY IDOCK:   -0.55 KCAL/MOL
REMARK 927      BINDING AFFINITY PREDICTED BY RF-SCORE:    0.00 PKD
ROOT
HETATM    1  C   UNL     1      -9.765   9.374  70.439  1.00  0.00    -0.315 C  
HETATM    2  C   UNL     1     -10.092   9.847  69.047  1.00  0.00    -0.199 A  
HETATM    3  C   UNL     1     -11.182  10.696  68.756  1.00  0.00    -0.337 A  
HETATM    4  C   UNL     1     -12.253  10.962  69.779  1.00  0.00    -0.381 C  
HETATM    5  C   UNL     1     -11.230  11.322  67.490  1.00  0.00    -0.291 A  
HETATM    6  C   UNL     1      -9.238   9.431  68.017  1.00  0.00    -0.137 A  
HETATM    7  C   UNL     1     -10.401  10.834  66.465  1.00  0.00    -0.300 A  
HETATM    8  C   UNL     1      -9.423   9.887  66.716  1.00  0.00    -0.212 A  
ENDROOT
BRANCH   5   9
HETATM    9  N   UNL     1     -12.054  12.466  67.274  1.00  0.00    -0.494 NA 
HETATM   10  H   UNL     1     -13.041  12.389  67.520  1.00  0.00     0.000 HD 
BRANCH   9  11
HETATM   11  C   UNL     1     -11.605  13.710  66.742  1.00  0.00    -0.364 A  
HETATM   12  C   UNL     1     -11.192  14.738  67.607  1.00  0.00    -0.332 A  
HETATM   13  C   UNL     1     -10.568  15.892  67.134  1.00  0.00    -0.316 A  
HETATM   14  C   UNL     1     -10.393  16.067  65.767  1.00  0.00    -0.398 A  
HETATM   15  C   UNL     1     -10.912  15.124  64.880  1.00  0.00    -0.434 A  
HETATM   16  C   UNL     1     -11.560  13.974  65.360  1.00  0.00    -0.329 A  
HETATM   17  C   UNL     1     -12.177  13.076  64.362  1.00  0.00    -0.406 C  
HETATM   18  O   UNL     1     -11.694  12.841  63.270  1.00  0.00    -0.515 OA 
HETATM   19  O   UNL     1     -13.377  12.599  64.769  1.00  0.00    -0.787 OA 
ENDBRANCH   9  11
ENDBRANCH   5   9
TORSDOF 2
ENDMDL
MODEL       30
REMARK 921   NORMALIZED FREE ENERGY PREDICTED BY IDOCK:   -5.78 KCAL/MOL
REMARK 922        TOTAL FREE ENERGY PREDICTED BY IDOCK:   -7.10 KCAL/MOL
REMARK 923 INTER-LIGAND FREE ENERGY PREDICTED BY IDOCK:   -6.42 KCAL/MOL
REMARK 924 INTRA-LIGAND FREE ENERGY PREDICTED BY IDOCK:   -0.68 KCAL/MOL
REMARK 927      BINDING AFFINITY PREDICTED BY RF-SCORE:    0.00 PKD
ROOT
HETATM    1  C   UNL     1     -10.868  11.541  63.317  1.00  0.00    -0.342 C  
HETATM    2  C   UNL     1     -10.476  11.605  64.769  1.00  0.00    -0.346 A  
HETATM    3  C   UNL     1     -11.307  12.154  65.770  1.00  0.00    -0.402 A  
HETATM    4  C   UNL     1     -12.524  12.964  65.410  1.00  0.00    -0.511 C  
HETATM    5  C   UNL     1     -10.992  11.900  67.124  1.00  0.00    -0.269 A  
HETATM    6  C   UNL     1      -9.234  11.058  65.118  1.00  0.00    -0.227 A  
HETATM    7  C   UNL     1      -9.712  11.410  67.437  1.00  0.00    -0.196 A  
HETATM    8  C   UNL     1      -8.831  11.005  66.448  1.00  0.00    -0.182 A  
ENDROOT
BRANCH   5   9
HETATM    9  N   UNL     1     -11.972  12.074  68.145  1.00  0.00    -0.496 NA 
HETATM   10  H   UNL     1     -12.725  11.387  68.197  1.00  0.00     0.000 HD 
BRANCH   9  11
HETATM   11  C   UNL     1     -11.982  13.133  69.099  1.00  0.00    -0.281 A  
HETATM   12  C   UNL     1     -11.687  14.447  68.696  1.00  0.00    -0.367 A  
HETATM   13  C   UNL     1     -11.870  15.537  69.546  1.00  0.00    -0.390 A  
HETATM   14  C   UNL     1     -12.306  15.326  70.848  1.00  0.00    -0.433 A  
HETATM   15  C   UNL     1     -12.480  14.023  71.314  1.00  0.00    -0.448 A  
HETATM   16  C   UNL     1     -12.272  12.927  70.461  1.00  0.00    -0.395 A  
HETATM   17  C   UNL     1     -12.370  11.578  71.055  1.00  0.00    -0.329 C  
HETATM   18  O   UNL     1     -13.173  11.272  71.916  1.00  0.00    -0.482 OA 
HETATM   19  O   UNL     1     -11.419  10.736  70.584  1.00  0.00    -0.325 OA 
ENDBRANCH   9  11
ENDBRANCH   5   9
TORSDOF 2
ENDMDL
MODEL       31
REMARK 921   NORMALIZED FREE ENERGY PREDICTED BY IDOCK:   -5.74 KCAL/MOL
REMARK 922        TOTAL FREE ENERGY PREDICTED BY IDOCK:   -7.05 KCAL/MOL
REMARK 923 INTER-LIGAND FREE ENERGY PREDICTED BY IDOCK:   -6.60 KCAL/MOL
REMARK 924 INTRA-LIGAND FREE ENERGY PREDICTED BY IDOCK:   -0.45 KCAL/MOL
REMARK 927      BINDING AFFINITY PREDICTED BY RF-SCORE:    0.00 PKD
ROOT
HETATM    1  C   UNL     1      -9.272   8.219  70.557  1.00  0.00    -0.160 C  
HETATM    2  C   UNL     1     -10.365   9.252  70.614  1.00  0.00    -0.326 A  
HETATM    3  C   UNL     1     -10.475  10.312  69.688  1.00  0.00    -0.286 A  
HETATM    4  C   UNL     1      -9.346  10.641  68.747  1.00  0.00    -0.183 C  
HETATM    5  C   UNL     1     -11.684  11.042  69.638  1.00  0.00    -0.329 A  
HETATM    6  C   UNL     1     -11.322   9.110  71.628  1.00  0.00    -0.446 A  
HETATM    7  C   UNL     1     -12.589  10.920  70.706  1.00  0.00    -0.470 A  
HETATM    8  C   UNL     1     -12.408   9.976  71.702  1.00  0.00    -0.486 A  
ENDROOT
BRANCH   5   9
HETATM    9  N   UNL     1     -12.009  11.836  68.498  1.00  0.00    -0.461 NA 
HETATM   10  H   UNL     1     -12.384  11.354  67.681  1.00  0.00     0.000 HD 
BRANCH   9  11
HETATM   11  C   UNL     1     -11.849  13.249  68.411  1.00  0.00    -0.360 A  
HETATM   12  C   UNL     1     -12.117  14.058  69.529  1.00  0.00    -0.397 A  
HETATM   13  C   UNL     1     -11.794  15.414  69.552  1.00  0.00    -0.370 A  
HETATM   14  C   UNL     1     -11.240  16.006  68.424  1.00  0.00    -0.364 A  
HETATM   15  C   UNL     1     -11.086  15.257  67.258  1.00  0.00    -0.325 A  
HETATM   16  C   UNL     1     -11.434  13.897  67.233  1.00  0.00    -0.369 A  
HETATM   17  C   UNL     1     -11.345  13.198  65.934  1.00  0.00    -0.311 C  
HETATM   18  O   UNL     1     -10.475  13.407  65.109  1.00  0.00    -0.315 OA 
HETATM   19  O   UNL     1     -12.380  12.348  65.733  1.00  0.00    -0.644 OA 
ENDBRANCH   9  11
ENDBRANCH   5   9
TORSDOF 2
ENDMDL
MODEL       32
REMARK 921   NORMALIZED FREE ENERGY PREDICTED BY IDOCK:   -5.73 KCAL/MOL
REMARK 922        TOTAL FREE ENERGY PREDICTED BY IDOCK:   -7.05 KCAL/MOL
REMARK 923 INTER-LIGAND FREE ENERGY PREDICTED BY IDOCK:   -6.74 KCAL/MOL
REMARK 924 INTRA-LIGAND FREE ENERGY PREDICTED BY IDOCK:   -0.31 KCAL/MOL
REMARK 927      BINDING AFFINITY PREDICTED BY RF-SCORE:    0.00 PKD
ROOT
HETATM    1  C   UNL     1     -13.290  13.991  72.441  1.00  0.00    -0.617 C  
HETATM    2  C   UNL     1     -12.621  14.097  71.097  1.00  0.00    -0.439 A  
HETATM    3  C   UNL     1     -12.271  12.972  70.317  1.00  0.00    -0.368 A  
HETATM    4  C   UNL     1     -12.292  11.585  70.904  1.00  0.00    -0.460 C  
HETATM    5  C   UNL     1     -11.930  13.171  68.961  1.00  0.00    -0.285 A  
HETATM    6  C   UNL     1     -12.374  15.387  70.608  1.00  0.00    -0.451 A  
HETATM    7  C   UNL     1     -11.628  14.472  68.525  1.00  0.00    -0.344 A  
HETATM    8  C   UNL     1     -11.832  15.573  69.341  1.00  0.00    -0.392 A  
ENDROOT
BRANCH   5   9
HETATM    9  N   UNL     1     -11.955  12.084  68.037  1.00  0.00    -0.521 NA 
HETATM   10  H   UNL     1     -12.293  11.184  68.379  1.00  0.00     0.000 HD 
BRANCH   9  11
HETATM   11  C   UNL     1     -11.545  12.157  66.675  1.00  0.00    -0.350 A  
HETATM   12  C   UNL     1     -12.277  12.933  65.759  1.00  0.00    -0.498 A  
HETATM   13  C   UNL     1     -11.810  13.188  64.471  1.00  0.00    -0.427 A  
HETATM   14  C   UNL     1     -10.612  12.623  64.050  1.00  0.00    -0.457 A  
HETATM   15  C   UNL     1      -9.932  11.744  64.893  1.00  0.00    -0.280 A  
HETATM   16  C   UNL     1     -10.419  11.471  66.181  1.00  0.00    -0.296 A  
HETATM   17  C   UNL     1      -9.704  10.449  66.973  1.00  0.00    -0.178 C  
HETATM   18  O   UNL     1      -8.497  10.300  66.959  1.00  0.00    -0.128 OA 
HETATM   19  O   UNL     1     -10.550   9.648  67.666  1.00  0.00    -0.245 OA 
ENDBRANCH   9  11
ENDBRANCH   5   9
TORSDOF 2
ENDMDL
MODEL       33
REMARK 921   NORMALIZED FREE ENERGY PREDICTED BY IDOCK:   -5.67 KCAL/MOL
REMARK 922        TOTAL FREE ENERGY PREDICTED BY IDOCK:   -6.98 KCAL/MOL
REMARK 923 INTER-LIGAND FREE ENERGY PREDICTED BY IDOCK:   -6.41 KCAL/MOL
REMARK 924 INTRA-LIGAND FREE ENERGY PREDICTED BY IDOCK:   -0.57 KCAL/MOL
REMARK 927      BINDING AFFINITY PREDICTED BY RF-SCORE:    0.00 PKD
ROOT
HETATM    1  C   UNL     1      -7.908   7.135  71.127  1.00  0.00    -0.098 C  
HETATM    2  C   UNL     1      -9.236   7.681  71.581  1.00  0.00    -0.159 A  
HETATM    3  C   UNL     1      -9.866   8.789  70.973  1.00  0.00    -0.293 A  
HETATM    4  C   UNL     1      -9.119   9.672  70.009  1.00  0.00    -0.269 C  
HETATM    5  C   UNL     1     -11.226   9.036  71.264  1.00  0.00    -0.315 A  
HETATM    6  C   UNL     1      -9.868   7.016  72.641  1.00  0.00    -0.186 A  
HETATM    7  C   UNL     1     -11.805   8.397  72.374  1.00  0.00    -0.452 A  
HETATM    8  C   UNL     1     -11.132   7.407  73.070  1.00  0.00    -0.390 A  
ENDROOT
BRANCH   5   9
HETATM    9  N   UNL     1     -12.014   9.865  70.411  1.00  0.00    -0.410 NA 
HETATM   10  H   UNL     1     -12.356   9.455  69.542  1.00  0.00     0.000 HD 
BRANCH   9  11
HETATM   11  C   UNL     1     -12.359  11.221  70.679  1.00  0.00    -0.383 A  
HETATM   12  C   UNL     1     -13.119  11.543  71.817  1.00  0.00    -0.503 A  
HETATM   13  C   UNL     1     -13.317  12.863  72.221  1.00  0.00    -0.597 A  
HETATM   14  C   UNL     1     -12.797  13.900  71.457  1.00  0.00    -0.441 A  
HETATM   15  C   UNL     1     -12.153  13.614  70.254  1.00  0.00    -0.427 A  
HETATM   16  C   UNL     1     -11.976  12.284  69.839  1.00  0.00    -0.377 A  
HETATM   17  C   UNL     1     -11.382  12.064  68.504  1.00  0.00    -0.272 C  
HETATM   18  O   UNL     1     -10.498  12.754  68.032  1.00  0.00    -0.214 OA 
HETATM   19  O   UNL     1     -11.979  11.049  67.834  1.00  0.00    -0.620 OA 
ENDBRANCH   9  11
ENDBRANCH   5   9
TORSDOF 2
ENDMDL
MODEL       34
REMARK 921   NORMALIZED FREE ENERGY PREDICTED BY IDOCK:   -5.66 KCAL/MOL
REMARK 922        TOTAL FREE ENERGY PREDICTED BY IDOCK:   -6.97 KCAL/MOL
REMARK 923 INTER-LIGAND FREE ENERGY PREDICTED BY IDOCK:   -6.30 KCAL/MOL
REMARK 924 INTRA-LIGAND FREE ENERGY PREDICTED BY IDOCK:   -0.67 KCAL/MOL
REMARK 927      BINDING AFFINITY PREDICTED BY RF-SCORE:    0.00 PKD
ROOT
HETATM    1  C   UNL     1     -12.433  10.239  70.787  1.00  0.00    -0.439 C  
HETATM    2  C   UNL     1     -12.045  11.619  70.327  1.00  0.00    -0.443 A  
HETATM    3  C   UNL     1     -11.063  11.857  69.340  1.00  0.00    -0.218 A  
HETATM    4  C   UNL     1     -10.141  10.758  68.884  1.00  0.00    -0.217 C  
HETATM    5  C   UNL     1     -10.983  13.144  68.764  1.00  0.00    -0.262 A  
HETATM    6  C   UNL     1     -12.732  12.698  70.900  1.00  0.00    -0.274 A  
HETATM    7  C   UNL     1     -11.634  14.212  69.406  1.00  0.00    -0.353 A  
HETATM    8  C   UNL     1     -12.490  13.999  70.474  1.00  0.00    -0.429 A  
ENDROOT
BRANCH   5   9
HETATM    9  N   UNL     1     -10.311  13.346  67.522  1.00  0.00    -0.225 NA 
HETATM   10  H   UNL     1      -9.293  13.418  67.544  1.00  0.00     0.000 HD 
BRANCH   9  11
HETATM   11  C   UNL     1     -10.950  13.454  66.254  1.00  0.00    -0.288 A  
HETATM   12  C   UNL     1     -11.656  12.360  65.724  1.00  0.00    -0.449 A  
HETATM   13  C   UNL     1     -12.452  12.478  64.586  1.00  0.00    -0.539 A  
HETATM   14  C   UNL     1     -12.516  13.693  63.916  1.00  0.00    -0.276 A  
HETATM   15  C   UNL     1     -11.723  14.757  64.343  1.00  0.00    -0.347 A  
HETATM   16  C   UNL     1     -10.905  14.627  65.477  1.00  0.00    -0.352 A  
HETATM   17  C   UNL     1     -10.014  15.760  65.803  1.00  0.00    -0.358 C  
HETATM   18  O   UNL     1     -10.321  16.928  65.660  1.00  0.00    -0.523 OA 
HETATM   19  O   UNL     1      -8.789  15.351  66.215  1.00  0.00    -0.304 OA 
ENDBRANCH   9  11
ENDBRANCH   5   9
TORSDOF 2
ENDMDL
MODEL       35
REMARK 921   NORMALIZED FREE ENERGY PREDICTED BY IDOCK:   -5.64 KCAL/MOL
REMARK 922        TOTAL FREE ENERGY PREDICTED BY IDOCK:   -6.95 KCAL/MOL
REMARK 923 INTER-LIGAND FREE ENERGY PREDICTED BY IDOCK:   -6.74 KCAL/MOL
REMARK 924 INTRA-LIGAND FREE ENERGY PREDICTED BY IDOCK:   -0.20 KCAL/MOL
REMARK 927      BINDING AFFINITY PREDICTED BY RF-SCORE:    0.00 PKD
ROOT
HETATM    1  C   UNL     1     -10.883  16.092  65.044  1.00  0.00    -0.421 C  
HETATM    2  C   UNL     1     -11.023  14.790  65.788  1.00  0.00    -0.334 A  
HETATM    3  C   UNL     1     -10.547  14.597  67.103  1.00  0.00    -0.282 A  
HETATM    4  C   UNL     1      -9.622  15.595  67.748  1.00  0.00    -0.209 C  
HETATM    5  C   UNL     1     -10.985  13.461  67.819  1.00  0.00    -0.262 A  
HETATM    6  C   UNL     1     -11.689  13.748  65.128  1.00  0.00    -0.354 A  
HETATM    7  C   UNL     1     -11.592  12.410  67.110  1.00  0.00    -0.435 A  
HETATM    8  C   UNL     1     -11.929  12.540  65.773  1.00  0.00    -0.482 A  
ENDROOT
BRANCH   5   9
HETATM    9  N   UNL     1     -10.873  13.408  69.241  1.00  0.00    -0.436 NA 
HETATM   10  H   UNL     1     -10.056  13.846  69.665  1.00  0.00     0.000 HD 
BRANCH   9  11
HETATM   11  C   UNL     1     -11.815  12.790  70.113  1.00  0.00    -0.251 A  
HETATM   12  C   UNL     1     -12.017  11.400  70.063  1.00  0.00    -0.442 A  
HETATM   13  C   UNL     1     -12.779  10.730  71.019  1.00  0.00    -0.513 A  
HETATM   14  C   UNL     1     -13.406  11.454  72.026  1.00  0.00    -0.388 A  
HETATM   15  C   UNL     1     -13.331  12.846  72.023  1.00  0.00    -0.579 A  
HETATM   16  C   UNL     1     -12.581  13.518  71.044  1.00  0.00    -0.438 A  
HETATM   17  C   UNL     1     -12.636  14.994  71.041  1.00  0.00    -0.350 C  
HETATM   18  O   UNL     1     -12.683  15.674  72.050  1.00  0.00    -0.375 OA 
HETATM   19  O   UNL     1     -12.701  15.506  69.789  1.00  0.00    -0.189 OA 
ENDBRANCH   9  11
ENDBRANCH   5   9
TORSDOF 2
ENDMDL
MODEL       36
REMARK 921   NORMALIZED FREE ENERGY PREDICTED BY IDOCK:   -5.63 KCAL/MOL
REMARK 922        TOTAL FREE ENERGY PREDICTED BY IDOCK:   -6.94 KCAL/MOL
REMARK 923 INTER-LIGAND FREE ENERGY PREDICTED BY IDOCK:   -6.75 KCAL/MOL
REMARK 924 INTRA-LIGAND FREE ENERGY PREDICTED BY IDOCK:   -0.19 KCAL/MOL
REMARK 927      BINDING AFFINITY PREDICTED BY RF-SCORE:    0.00 PKD
ROOT
HETATM    1  C   UNL     1      -7.348  20.222  67.978  1.00  0.00    -0.285 C  
HETATM    2  C   UNL     1      -7.845  18.874  68.427  1.00  0.00    -0.359 A  
HETATM    3  C   UNL     1      -9.205  18.496  68.378  1.00  0.00    -0.347 A  
HETATM    4  C   UNL     1     -10.285  19.517  68.136  1.00  0.00    -0.556 C  
HETATM    5  C   UNL     1      -9.532  17.131  68.531  1.00  0.00    -0.282 A  
HETATM    6  C   UNL     1      -6.884  17.959  68.879  1.00  0.00    -0.250 A  
HETATM    7  C   UNL     1      -8.559  16.258  69.047  1.00  0.00    -0.247 A  
HETATM    8  C   UNL     1      -7.250  16.666  69.237  1.00  0.00    -0.200 A  
ENDROOT
BRANCH   5   9
HETATM    9  N   UNL     1     -10.801  16.634  68.108  1.00  0.00    -0.349 NA 
HETATM   10  H   UNL     1     -11.607  17.251  68.215  1.00  0.00     0.000 HD 
BRANCH   9  11
HETATM   11  C   UNL     1     -11.030  15.345  67.547  1.00  0.00    -0.315 A  
HETATM   12  C   UNL     1     -11.118  14.218  68.383  1.00  0.00    -0.274 A  
HETATM   13  C   UNL     1     -11.529  12.975  67.903  1.00  0.00    -0.352 A  
HETATM   14  C   UNL     1     -11.812  12.820  66.552  1.00  0.00    -0.471 A  
HETATM   15  C   UNL     1     -11.607  13.887  65.678  1.00  0.00    -0.338 A  
HETATM   16  C   UNL     1     -11.170  15.131  66.162  1.00  0.00    -0.271 A  
HETATM   17  C   UNL     1     -10.872  16.180  65.165  1.00  0.00    -0.361 C  
HETATM   18  O   UNL     1     -11.511  16.347  64.143  1.00  0.00    -0.951 OA 
HETATM   19  O   UNL     1      -9.763  16.892  65.480  1.00  0.00    -0.541 OA 
ENDBRANCH   9  11
ENDBRANCH   5   9
TORSDOF 2
ENDMDL
MODEL       37
REMARK 921   NORMALIZED FREE ENERGY PREDICTED BY IDOCK:   -5.62 KCAL/MOL
REMARK 922        TOTAL FREE ENERGY PREDICTED BY IDOCK:   -6.92 KCAL/MOL
REMARK 923 INTER-LIGAND FREE ENERGY PREDICTED BY IDOCK:   -6.42 KCAL/MOL
REMARK 924 INTRA-LIGAND FREE ENERGY PREDICTED BY IDOCK:   -0.50 KCAL/MOL
REMARK 927      BINDING AFFINITY PREDICTED BY RF-SCORE:    0.00 PKD
ROOT
HETATM    1  C   UNL     1     -10.022  18.726  68.861  1.00  0.00    -0.423 C  
HETATM    2  C   UNL     1      -9.834  17.529  67.967  1.00  0.00    -0.299 A  
HETATM    3  C   UNL     1     -10.638  16.370  68.048  1.00  0.00    -0.314 A  
HETATM    4  C   UNL     1     -11.556  16.144  69.220  1.00  0.00    -0.270 C  
HETATM    5  C   UNL     1     -10.587  15.438  66.988  1.00  0.00    -0.309 A  
HETATM    6  C   UNL     1      -8.826  17.611  66.998  1.00  0.00    -0.256 A  
HETATM    7  C   UNL     1      -9.524  15.516  66.072  1.00  0.00    -0.387 A  
HETATM    8  C   UNL     1      -8.639  16.582  66.081  1.00  0.00    -0.334 A  
ENDROOT
BRANCH   5   9
HETATM    9  N   UNL     1     -11.628  14.479  66.810  1.00  0.00    -0.369 NA 
HETATM   10  H   UNL     1     -12.368  14.453  67.512  1.00  0.00     0.000 HD 
BRANCH   9  11
HETATM   11  C   UNL     1     -11.715  13.555  65.730  1.00  0.00    -0.345 A  
HETATM   12  C   UNL     1     -12.178  13.982  64.473  1.00  0.00    -0.463 A  
HETATM   13  C   UNL     1     -12.100  13.169  63.343  1.00  0.00    -0.558 A  
HETATM   14  C   UNL     1     -11.600  11.878  63.461  1.00  0.00    -0.537 A  
HETATM   15  C   UNL     1     -11.257  11.384  64.719  1.00  0.00    -0.197 A  
HETATM   16  C   UNL     1     -11.359  12.199  65.858  1.00  0.00    -0.407 A  
HETATM   17  C   UNL     1     -11.082  11.574  67.167  1.00  0.00    -0.297 C  
HETATM   18  O   UNL     1     -10.221  10.733  67.349  1.00  0.00    -0.189 OA 
HETATM   19  O   UNL     1     -11.940  11.988  68.129  1.00  0.00    -0.465 OA 
ENDBRANCH   9  11
ENDBRANCH   5   9
TORSDOF 2
ENDMDL
MODEL       38
REMARK 921   NORMALIZED FREE ENERGY PREDICTED BY IDOCK:   -5.60 KCAL/MOL
REMARK 922        TOTAL FREE ENERGY PREDICTED BY IDOCK:   -6.89 KCAL/MOL
REMARK 923 INTER-LIGAND FREE ENERGY PREDICTED BY IDOCK:   -6.47 KCAL/MOL
REMARK 924 INTRA-LIGAND FREE ENERGY PREDICTED BY IDOCK:   -0.42 KCAL/MOL
REMARK 927      BINDING AFFINITY PREDICTED BY RF-SCORE:    0.00 PKD
ROOT
HETATM    1  C   UNL     1      -9.968   8.637  68.888  1.00  0.00    -0.197 C  
HETATM    2  C   UNL     1     -10.799   9.481  69.818  1.00  0.00    -0.264 A  
HETATM    3  C   UNL     1     -10.967  10.874  69.655  1.00  0.00    -0.311 A  
HETATM    4  C   UNL     1     -10.100  11.653  68.703  1.00  0.00    -0.206 C  
HETATM    5  C   UNL     1     -11.991  11.519  70.383  1.00  0.00    -0.368 A  
HETATM    6  C   UNL     1     -11.450   8.818  70.867  1.00  0.00    -0.330 A  
HETATM    7  C   UNL     1     -12.575  10.844  71.469  1.00  0.00    -0.480 A  
HETATM    8  C   UNL     1     -12.300   9.511  71.724  1.00  0.00    -0.474 A  
ENDROOT
BRANCH   5   9
HETATM    9  N   UNL     1     -12.469  12.803  69.986  1.00  0.00    -0.078 NA 
HETATM   10  H   UNL     1     -12.710  12.932  69.003  1.00  0.00     0.000 HD 
BRANCH   9  11
HETATM   11  C   UNL     1     -12.635  13.920  70.854  1.00  0.00    -0.361 A  
HETATM   12  C   UNL     1     -13.643  13.908  71.834  1.00  0.00    -0.516 A  
HETATM   13  C   UNL     1     -13.721  14.886  72.824  1.00  0.00    -0.501 A  
HETATM   14  C   UNL     1     -12.813  15.938  72.823  1.00  0.00    -0.572 A  
HETATM   15  C   UNL     1     -11.886  16.046  71.787  1.00  0.00    -0.599 A  
HETATM   16  C   UNL     1     -11.826  15.070  70.778  1.00  0.00    -0.372 A  
HETATM   17  C   UNL     1     -10.892  15.309  69.658  1.00  0.00    -0.286 C  
HETATM   18  O   UNL     1      -9.798  15.825  69.785  1.00  0.00    -0.273 OA 
HETATM   19  O   UNL     1     -11.419  14.954  68.462  1.00  0.00    -0.286 OA 
ENDBRANCH   9  11
ENDBRANCH   5   9
TORSDOF 2
ENDMDL
MODEL       39
REMARK 921   NORMALIZED FREE ENERGY PREDICTED BY IDOCK:   -5.58 KCAL/MOL
REMARK 922        TOTAL FREE ENERGY PREDICTED BY IDOCK:   -6.88 KCAL/MOL
REMARK 923 INTER-LIGAND FREE ENERGY PREDICTED BY IDOCK:   -6.55 KCAL/MOL
REMARK 924 INTRA-LIGAND FREE ENERGY PREDICTED BY IDOCK:   -0.33 KCAL/MOL
REMARK 927      BINDING AFFINITY PREDICTED BY RF-SCORE:    0.00 PKD
ROOT
HETATM    1  C   UNL     1     -12.358  13.170  70.831  1.00  0.00    -0.393 C  
HETATM    2  C   UNL     1     -12.037  14.152  69.737  1.00  0.00    -0.409 A  
HETATM    3  C   UNL     1     -11.726  15.508  69.982  1.00  0.00    -0.363 A  
HETATM    4  C   UNL     1     -11.968  16.127  71.333  1.00  0.00    -0.451 C  
HETATM    5  C   UNL     1     -11.151  16.268  68.939  1.00  0.00    -0.345 A  
HETATM    6  C   UNL     1     -12.023  13.661  68.424  1.00  0.00    -0.391 A  
HETATM    7  C   UNL     1     -11.215  15.768  67.627  1.00  0.00    -0.246 A  
HETATM    8  C   UNL     1     -11.660  14.484  67.363  1.00  0.00    -0.406 A  
ENDROOT
BRANCH   5   9
HETATM    9  N   UNL     1     -10.463  17.486  69.219  1.00  0.00    -0.378 NA 
HETATM   10  H   UNL     1     -10.366  17.756  70.198  1.00  0.00     0.000 HD 
BRANCH   9  11
HETATM   11  C   UNL     1      -9.901  18.353  68.238  1.00  0.00    -0.359 A  
HETATM   12  C   UNL     1     -10.739  19.039  67.341  1.00  0.00    -0.559 A  
HETATM   13  C   UNL     1     -10.254  20.037  66.497  1.00  0.00    -0.598 A  
HETATM   14  C   UNL     1      -8.897  20.336  66.496  1.00  0.00    -0.303 A  
HETATM   15  C   UNL     1      -8.025  19.581  67.279  1.00  0.00    -0.304 A  
HETATM   16  C   UNL     1      -8.514  18.560  68.111  1.00  0.00    -0.317 A  
HETATM   17  C   UNL     1      -7.521  17.734  68.828  1.00  0.00    -0.263 C  
HETATM   18  O   UNL     1      -6.484  18.170  69.292  1.00  0.00    -0.252 OA 
HETATM   19  O   UNL     1      -7.860  16.423  68.849  1.00  0.00    -0.212 OA 
ENDBRANCH   9  11
ENDBRANCH   5   9
TORSDOF 2
ENDMDL
MODEL       40
REMARK 921   NORMALIZED FREE ENERGY PREDICTED BY IDOCK:   -5.57 KCAL/MOL
REMARK 922        TOTAL FREE ENERGY PREDICTED BY IDOCK:   -6.86 KCAL/MOL
REMARK 923 INTER-LIGAND FREE ENERGY PREDICTED BY IDOCK:   -6.26 KCAL/MOL
REMARK 924 INTRA-LIGAND FREE ENERGY PREDICTED BY IDOCK:   -0.60 KCAL/MOL
REMARK 927      BINDING AFFINITY PREDICTED BY RF-SCORE:    0.00 PKD
ROOT
HETATM    1  C   UNL     1      -7.121  19.322  68.968  1.00  0.00    -0.391 C  
HETATM    2  C   UNL     1      -8.398  18.822  68.348  1.00  0.00    -0.373 A  
HETATM    3  C   UNL     1      -8.683  17.451  68.162  1.00  0.00    -0.256 A  
HETATM    4  C   UNL     1      -7.608  16.408  68.318  1.00  0.00    -0.163 C  
HETATM    5  C   UNL     1     -10.009  17.073  67.857  1.00  0.00    -0.281 A  
HETATM    6  C   UNL     1      -9.344  19.787  67.975  1.00  0.00    -0.444 A  
HETATM    7  C   UNL     1     -10.910  18.061  67.426  1.00  0.00    -0.236 A  
HETATM    8  C   UNL     1     -10.582  19.406  67.467  1.00  0.00    -0.591 A  
ENDROOT
BRANCH   5   9
HETATM    9  N   UNL     1     -10.443  15.727  68.046  1.00  0.00    -0.263 NA 
HETATM   10  H   UNL     1     -10.347  15.087  67.257  1.00  0.00     0.000 HD 
BRANCH   9  11
HETATM   11  C   UNL     1     -11.001  15.208  69.249  1.00  0.00    -0.258 A  
HETATM   12  C   UNL     1     -11.016  15.993  70.416  1.00  0.00    -0.347 A  
HETATM   13  C   UNL     1     -11.717  15.605  71.556  1.00  0.00    -0.504 A  
HETATM   14  C   UNL     1     -12.381  14.384  71.572  1.00  0.00    -0.427 A  
HETATM   15  C   UNL     1     -12.273  13.528  70.477  1.00  0.00    -0.433 A  
HETATM   16  C   UNL     1     -11.546  13.912  69.339  1.00  0.00    -0.350 A  
HETATM   17  C   UNL     1     -11.386  12.911  68.265  1.00  0.00    -0.291 C  
HETATM   18  O   UNL     1     -12.252  12.118  67.942  1.00  0.00    -0.438 OA 
HETATM   19  O   UNL     1     -10.144  12.924  67.726  1.00  0.00    -0.218 OA 
ENDBRANCH   9  11
ENDBRANCH   5   9
TORSDOF 2
ENDMDL
MODEL       41
REMARK 921   NORMALIZED FREE ENERGY PREDICTED BY IDOCK:   -5.54 KCAL/MOL
REMARK 922        TOTAL FREE ENERGY PREDICTED BY IDOCK:   -6.83 KCAL/MOL
REMARK 923 INTER-LIGAND FREE ENERGY PREDICTED BY IDOCK:   -6.28 KCAL/MOL
REMARK 924 INTRA-LIGAND FREE ENERGY PREDICTED BY IDOCK:   -0.55 KCAL/MOL
REMARK 927      BINDING AFFINITY PREDICTED BY RF-SCORE:    0.00 PKD
ROOT
HETATM    1  C   UNL     1     -12.654  11.822  63.476  1.00  0.00    -0.485 C  
HETATM    2  C   UNL     1     -11.533  12.280  64.370  1.00  0.00    -0.417 A  
HETATM    3  C   UNL     1     -11.404  13.610  64.830  1.00  0.00    -0.365 A  
HETATM    4  C   UNL     1     -12.226  14.720  64.230  1.00  0.00    -0.402 C  
HETATM    5  C   UNL     1     -10.510  13.873  65.891  1.00  0.00    -0.305 A  
HETATM    6  C   UNL     1     -10.605  11.311  64.774  1.00  0.00    -0.376 A  
HETATM    7  C   UNL     1      -9.552  12.900  66.223  1.00  0.00    -0.245 A  
HETATM    8  C   UNL     1      -9.585  11.634  65.663  1.00  0.00    -0.252 A  
ENDROOT
BRANCH   5   9
HETATM    9  N   UNL     1     -10.617  15.075  66.652  1.00  0.00    -0.295 NA 
HETATM   10  H   UNL     1     -10.327  15.944  66.203  1.00  0.00     0.000 HD 
BRANCH   9  11
HETATM   11  C   UNL     1     -11.099  15.156  67.990  1.00  0.00    -0.308 A  
HETATM   12  C   UNL     1     -11.857  14.103  68.531  1.00  0.00    -0.390 A  
HETATM   13  C   UNL     1     -12.185  14.051  69.885  1.00  0.00    -0.399 A  
HETATM   14  C   UNL     1     -11.801  15.089  70.725  1.00  0.00    -0.372 A  
HETATM   15  C   UNL     1     -11.164  16.208  70.189  1.00  0.00    -0.374 A  
HETATM   16  C   UNL     1     -10.856  16.267  68.820  1.00  0.00    -0.317 A  
HETATM   17  C   UNL     1     -10.279  17.527  68.309  1.00  0.00    -0.365 C  
HETATM   18  O   UNL     1      -9.488  18.213  68.929  1.00  0.00    -0.283 OA 
HETATM   19  O   UNL     1     -10.782  17.871  67.099  1.00  0.00    -0.331 OA 
ENDBRANCH   9  11
ENDBRANCH   5   9
TORSDOF 2
ENDMDL
MODEL       42
REMARK 921   NORMALIZED FREE ENERGY PREDICTED BY IDOCK:   -5.53 KCAL/MOL
REMARK 922        TOTAL FREE ENERGY PREDICTED BY IDOCK:   -6.82 KCAL/MOL
REMARK 923 INTER-LIGAND FREE ENERGY PREDICTED BY IDOCK:   -6.27 KCAL/MOL
REMARK 924 INTRA-LIGAND FREE ENERGY PREDICTED BY IDOCK:   -0.55 KCAL/MOL
REMARK 927      BINDING AFFINITY PREDICTED BY RF-SCORE:    0.00 PKD
ROOT
HETATM    1  C   UNL     1     -12.282  13.808  66.866  1.00  0.00    -0.408 C  
HETATM    2  C   UNL     1     -11.657  12.588  67.488  1.00  0.00    -0.424 A  
HETATM    3  C   UNL     1     -11.557  12.398  68.884  1.00  0.00    -0.364 A  
HETATM    4  C   UNL     1     -11.818  13.530  69.842  1.00  0.00    -0.386 C  
HETATM    5  C   UNL     1     -11.237  11.110  69.368  1.00  0.00    -0.270 A  
HETATM    6  C   UNL     1     -11.189  11.597  66.615  1.00  0.00    -0.362 A  
HETATM    7  C   UNL     1     -10.711  10.164  68.472  1.00  0.00    -0.264 A  
HETATM    8  C   UNL     1     -10.670  10.405  67.109  1.00  0.00    -0.316 A  
ENDROOT
BRANCH   5   9
HETATM    9  N   UNL     1     -11.503  10.755  70.724  1.00  0.00    -0.387 NA 
HETATM   10  H   UNL     1     -11.139  11.371  71.452  1.00  0.00     0.000 HD 
BRANCH   9  11
HETATM   11  C   UNL     1     -12.237   9.608  71.141  1.00  0.00    -0.350 A  
HETATM   12  C   UNL     1     -13.621   9.702  71.370  1.00  0.00    -0.343 A  
HETATM   13  C   UNL     1     -14.410   8.573  71.590  1.00  0.00    -0.497 A  
HETATM   14  C   UNL     1     -13.814   7.319  71.641  1.00  0.00    -0.461 A  
HETATM   15  C   UNL     1     -12.427   7.211  71.549  1.00  0.00    -0.418 A  
HETATM   16  C   UNL     1     -11.634   8.353  71.350  1.00  0.00    -0.332 A  
HETATM   17  C   UNL     1     -10.168   8.173  71.371  1.00  0.00    -0.198 C  
HETATM   18  O   UNL     1      -9.597   7.201  70.913  1.00  0.00    -0.167 OA 
HETATM   19  O   UNL     1      -9.533   9.178  72.021  1.00  0.00    -0.323 OA 
ENDBRANCH   9  11
ENDBRANCH   5   9
TORSDOF 2
ENDMDL
MODEL       43
REMARK 921   NORMALIZED FREE ENERGY PREDICTED BY IDOCK:   -5.53 KCAL/MOL
REMARK 922        TOTAL FREE ENERGY PREDICTED BY IDOCK:   -6.82 KCAL/MOL
REMARK 923 INTER-LIGAND FREE ENERGY PREDICTED BY IDOCK:   -6.29 KCAL/MOL
REMARK 924 INTRA-LIGAND FREE ENERGY PREDICTED BY IDOCK:   -0.53 KCAL/MOL
REMARK 927      BINDING AFFINITY PREDICTED BY RF-SCORE:    0.00 PKD
ROOT
HETATM    1  C   UNL     1     -13.471  15.958  73.169  1.00  0.00    -0.650 C  
HETATM    2  C   UNL     1     -12.645  15.369  72.056  1.00  0.00    -0.448 A  
HETATM    3  C   UNL     1     -12.807  14.046  71.590  1.00  0.00    -0.433 A  
HETATM    4  C   UNL     1     -13.627  13.047  72.362  1.00  0.00    -0.628 C  
HETATM    5  C   UNL     1     -12.209  13.685  70.362  1.00  0.00    -0.363 A  
HETATM    6  C   UNL     1     -11.699  16.210  71.453  1.00  0.00    -0.506 A  
HETATM    7  C   UNL     1     -11.219  14.524  69.822  1.00  0.00    -0.276 A  
HETATM    8  C   UNL     1     -10.951  15.769  70.366  1.00  0.00    -0.369 A  
ENDROOT
BRANCH   5   9
HETATM    9  N   UNL     1     -12.646  12.528  69.651  1.00  0.00     0.226 NA 
HETATM   10  H   UNL     1     -13.643  12.314  69.669  1.00  0.00     0.000 HD 
BRANCH   9  11
HETATM   11  C   UNL     1     -11.799  11.649  68.917  1.00  0.00    -0.329 A  
HETATM   12  C   UNL     1     -11.519  11.907  67.564  1.00  0.00    -0.396 A  
HETATM   13  C   UNL     1     -10.550  11.190  66.862  1.00  0.00    -0.304 A  
HETATM   14  C   UNL     1      -9.873  10.154  67.492  1.00  0.00    -0.211 A  
HETATM   15  C   UNL     1     -10.224   9.791  68.792  1.00  0.00    -0.210 A  
HETATM   16  C   UNL     1     -11.217  10.501  69.487  1.00  0.00    -0.329 A  
HETATM   17  C   UNL     1     -11.609   9.992  70.817  1.00  0.00    -0.360 C  
HETATM   18  O   UNL     1     -10.830   9.504  71.614  1.00  0.00    -0.343 OA 
HETATM   19  O   UNL     1     -12.946  10.064  71.024  1.00  0.00    -0.358 OA 
ENDBRANCH   9  11
ENDBRANCH   5   9
TORSDOF 2
ENDMDL
MODEL       44
REMARK 921   NORMALIZED FREE ENERGY PREDICTED BY IDOCK:   -5.52 KCAL/MOL
REMARK 922        TOTAL FREE ENERGY PREDICTED BY IDOCK:   -6.81 KCAL/MOL
REMARK 923 INTER-LIGAND FREE ENERGY PREDICTED BY IDOCK:   -6.18 KCAL/MOL
REMARK 924 INTRA-LIGAND FREE ENERGY PREDICTED BY IDOCK:   -0.62 KCAL/MOL
REMARK 927      BINDING AFFINITY PREDICTED BY RF-SCORE:    0.00 PKD
ROOT
HETATM    1  C   UNL     1      -9.877  10.704  63.083  1.00  0.00    -0.351 C  
HETATM    2  C   UNL     1     -10.658  11.477  64.112  1.00  0.00    -0.420 A  
HETATM    3  C   UNL     1     -10.264  11.581  65.464  1.00  0.00    -0.303 A  
HETATM    4  C   UNL     1      -9.184  10.695  66.027  1.00  0.00    -0.208 C  
HETATM    5  C   UNL     1     -10.881  12.559  66.274  1.00  0.00    -0.268 A  
HETATM    6  C   UNL     1     -11.811  12.140  63.670  1.00  0.00    -0.608 A  
HETATM    7  C   UNL     1     -12.071  13.155  65.822  1.00  0.00    -0.502 A  
HETATM    8  C   UNL     1     -12.545  12.940  64.539  1.00  0.00    -0.420 A  
ENDROOT
BRANCH   5   9
HETATM    9  N   UNL     1     -10.276  12.982  67.495  1.00  0.00    -0.219 NA 
HETATM   10  H   UNL     1      -9.279  12.803  67.612  1.00  0.00     0.000 HD 
BRANCH   9  11
HETATM   11  C   UNL     1     -10.957  13.634  68.563  1.00  0.00    -0.267 A  
HETATM   12  C   UNL     1     -10.885  15.032  68.695  1.00  0.00    -0.249 A  
HETATM   13  C   UNL     1     -11.683  15.729  69.602  1.00  0.00    -0.363 A  
HETATM   14  C   UNL     1     -12.540  15.028  70.441  1.00  0.00    -0.399 A  
HETATM   15  C   UNL     1     -12.534  13.634  70.423  1.00  0.00    -0.364 A  
HETATM   16  C   UNL     1     -11.712  12.935  69.524  1.00  0.00    -0.387 A  
HETATM   17  C   UNL     1     -11.681  11.463  69.637  1.00  0.00    -0.345 C  
HETATM   18  O   UNL     1     -12.652  10.782  69.907  1.00  0.00    -0.294 OA 
HETATM   19  O   UNL     1     -10.433  10.958  69.477  1.00  0.00    -0.215 OA 
ENDBRANCH   9  11
ENDBRANCH   5   9
TORSDOF 2
ENDMDL
MODEL       45
REMARK 921   NORMALIZED FREE ENERGY PREDICTED BY IDOCK:   -5.51 KCAL/MOL
REMARK 922        TOTAL FREE ENERGY PREDICTED BY IDOCK:   -6.80 KCAL/MOL
REMARK 923 INTER-LIGAND FREE ENERGY PREDICTED BY IDOCK:   -6.09 KCAL/MOL
REMARK 924 INTRA-LIGAND FREE ENERGY PREDICTED BY IDOCK:   -0.72 KCAL/MOL
REMARK 927      BINDING AFFINITY PREDICTED BY RF-SCORE:    0.00 PKD
ROOT
HETATM    1  C   UNL     1      -7.438   8.530  65.361  1.00  0.00    -0.086 C  
HETATM    2  C   UNL     1      -8.552   9.387  64.821  1.00  0.00    -0.202 A  
HETATM    3  C   UNL     1      -9.468  10.075  65.647  1.00  0.00    -0.278 A  
HETATM    4  C   UNL     1      -9.562   9.774  67.119  1.00  0.00    -0.211 C  
HETATM    5  C   UNL     1     -10.275  11.079  65.068  1.00  0.00    -0.299 A  
HETATM    6  C   UNL     1      -8.639   9.513  63.428  1.00  0.00    -0.215 A  
HETATM    7  C   UNL     1     -10.386  11.132  63.668  1.00  0.00    -0.449 A  
HETATM    8  C   UNL     1      -9.590  10.348  62.850  1.00  0.00    -0.331 A  
ENDROOT
BRANCH   5   9
HETATM    9  N   UNL     1     -10.913  12.060  65.884  1.00  0.00    -0.288 NA 
HETATM   10  H   UNL     1     -11.756  11.780  66.385  1.00  0.00     0.000 HD 
BRANCH   9  11
HETATM   11  C   UNL     1     -10.464  13.402  66.054  1.00  0.00    -0.294 A  
HETATM   12  C   UNL     1      -9.419  13.687  66.950  1.00  0.00    -0.263 A  
HETATM   13  C   UNL     1      -8.820  14.945  67.007  1.00  0.00    -0.255 A  
HETATM   14  C   UNL     1      -9.297  15.969  66.199  1.00  0.00    -0.377 A  
HETATM   15  C   UNL     1     -10.417  15.750  65.398  1.00  0.00    -0.438 A  
HETATM   16  C   UNL     1     -11.031  14.487  65.360  1.00  0.00    -0.346 A  
HETATM   17  C   UNL     1     -12.275  14.361  64.573  1.00  0.00    -0.463 C  
HETATM   18  O   UNL     1     -12.473  14.937  63.519  1.00  0.00    -0.572 OA 
HETATM   19  O   UNL     1     -13.200  13.588  65.189  1.00  0.00    -0.720 OA 
ENDBRANCH   9  11
ENDBRANCH   5   9
TORSDOF 2
ENDMDL
MODEL       46
REMARK 921   NORMALIZED FREE ENERGY PREDICTED BY IDOCK:   -5.51 KCAL/MOL
REMARK 922        TOTAL FREE ENERGY PREDICTED BY IDOCK:   -6.80 KCAL/MOL
REMARK 923 INTER-LIGAND FREE ENERGY PREDICTED BY IDOCK:   -6.25 KCAL/MOL
REMARK 924 INTRA-LIGAND FREE ENERGY PREDICTED BY IDOCK:   -0.55 KCAL/MOL
REMARK 927      BINDING AFFINITY PREDICTED BY RF-SCORE:    0.00 PKD
ROOT
HETATM    1  C   UNL     1     -11.162  13.213  66.522  1.00  0.00    -0.339 C  
HETATM    2  C   UNL     1     -11.621  12.989  67.938  1.00  0.00    -0.385 A  
HETATM    3  C   UNL     1     -11.516  11.744  68.597  1.00  0.00    -0.346 A  
HETATM    4  C   UNL     1     -11.193  10.487  67.833  1.00  0.00    -0.358 C  
HETATM    5  C   UNL     1     -11.688  11.705  69.998  1.00  0.00    -0.321 A  
HETATM    6  C   UNL     1     -12.145  14.095  68.620  1.00  0.00    -0.320 A  
HETATM    7  C   UNL     1     -12.276  12.811  70.636  1.00  0.00    -0.374 A  
HETATM    8  C   UNL     1     -12.519  13.993  69.956  1.00  0.00    -0.339 A  
ENDROOT
BRANCH   5   9
HETATM    9  N   UNL     1     -11.217  10.594  70.759  1.00  0.00    -0.367 NA 
HETATM   10  H   UNL     1     -10.236  10.599  71.041  1.00  0.00     0.000 HD 
BRANCH   9  11
HETATM   11  C   UNL     1     -12.008   9.478  71.156  1.00  0.00    -0.348 A  
HETATM   12  C   UNL     1     -13.228   9.682  71.825  1.00  0.00    -0.520 A  
HETATM   13  C   UNL     1     -14.123   8.639  72.060  1.00  0.00    -0.523 A  
HETATM   14  C   UNL     1     -13.787   7.347  71.675  1.00  0.00    -0.490 A  
HETATM   15  C   UNL     1     -12.528   7.096  71.130  1.00  0.00    -0.400 A  
HETATM   16  C   UNL     1     -11.621   8.146  70.916  1.00  0.00    -0.283 A  
HETATM   17  C   UNL     1     -10.270   7.789  70.436  1.00  0.00    -0.197 C  
HETATM   18  O   UNL     1     -10.047   6.895  69.642  1.00  0.00    -0.178 OA 
HETATM   19  O   UNL     1      -9.300   8.521  71.033  1.00  0.00    -0.158 OA 
ENDBRANCH   9  11
ENDBRANCH   5   9
TORSDOF 2
ENDMDL
MODEL       47
REMARK 921   NORMALIZED FREE ENERGY PREDICTED BY IDOCK:   -5.50 KCAL/MOL
REMARK 922        TOTAL FREE ENERGY PREDICTED BY IDOCK:   -6.79 KCAL/MOL
REMARK 923 INTER-LIGAND FREE ENERGY PREDICTED BY IDOCK:   -6.12 KCAL/MOL
REMARK 924 INTRA-LIGAND FREE ENERGY PREDICTED BY IDOCK:   -0.66 KCAL/MOL
REMARK 927      BINDING AFFINITY PREDICTED BY RF-SCORE:    0.00 PKD
ROOT
HETATM    1  C   UNL     1     -12.026  13.210  66.820  1.00  0.00    -0.434 C  
HETATM    2  C   UNL     1     -10.677  13.871  66.919  1.00  0.00    -0.284 A  
HETATM    3  C   UNL     1     -10.235  14.864  66.018  1.00  0.00    -0.317 A  
HETATM    4  C   UNL     1     -10.974  15.130  64.733  1.00  0.00    -0.394 C  
HETATM    5  C   UNL     1      -9.099  15.631  66.362  1.00  0.00    -0.320 A  
HETATM    6  C   UNL     1      -9.855  13.482  67.985  1.00  0.00    -0.238 A  
HETATM    7  C   UNL     1      -8.265  15.173  67.396  1.00  0.00    -0.215 A  
HETATM    8  C   UNL     1      -8.626  14.100  68.194  1.00  0.00    -0.175 A  
ENDROOT
BRANCH   5   9
HETATM    9  N   UNL     1      -8.839  16.877  65.718  1.00  0.00    -0.493 NA 
HETATM   10  H   UNL     1      -8.381  16.850  64.807  1.00  0.00     0.000 HD 
BRANCH   9  11
HETATM   11  C   UNL     1      -9.171  18.157  66.249  1.00  0.00    -0.199 A  
HETATM   12  C   UNL     1     -10.516  18.502  66.470  1.00  0.00    -0.435 A  
HETATM   13  C   UNL     1     -10.876  19.658  67.161  1.00  0.00    -0.526 A  
HETATM   14  C   UNL     1      -9.888  20.530  67.602  1.00  0.00    -0.484 A  
HETATM   15  C   UNL     1      -8.555  20.279  67.281  1.00  0.00    -0.425 A  
HETATM   16  C   UNL     1      -8.198  19.125  66.565  1.00  0.00    -0.315 A  
HETATM   17  C   UNL     1      -6.782  18.982  66.169  1.00  0.00    -0.223 C  
HETATM   18  O   UNL     1      -5.845  19.332  66.862  1.00  0.00    -0.168 OA 
HETATM   19  O   UNL     1      -6.643  18.483  64.917  1.00  0.00    -0.480 OA 
ENDBRANCH   9  11
ENDBRANCH   5   9
TORSDOF 2
ENDMDL
MODEL       48
REMARK 921   NORMALIZED FREE ENERGY PREDICTED BY IDOCK:   -5.43 KCAL/MOL
REMARK 922        TOTAL FREE ENERGY PREDICTED BY IDOCK:   -6.71 KCAL/MOL
REMARK 923 INTER-LIGAND FREE ENERGY PREDICTED BY IDOCK:   -6.12 KCAL/MOL
REMARK 924 INTRA-LIGAND FREE ENERGY PREDICTED BY IDOCK:   -0.60 KCAL/MOL
REMARK 927      BINDING AFFINITY PREDICTED BY RF-SCORE:    0.00 PKD
ROOT
HETATM    1  C   UNL     1     -10.108  19.762  68.462  1.00  0.00    -0.555 C  
HETATM    2  C   UNL     1      -9.401  18.538  67.943  1.00  0.00    -0.312 A  
HETATM    3  C   UNL     1      -9.826  17.221  68.225  1.00  0.00    -0.304 A  
HETATM    4  C   UNL     1     -10.852  16.950  69.292  1.00  0.00    -0.214 C  
HETATM    5  C   UNL     1      -9.291  16.161  67.460  1.00  0.00    -0.217 A  
HETATM    6  C   UNL     1      -8.288  18.749  67.117  1.00  0.00    -0.281 A  
HETATM    7  C   UNL     1      -8.137  16.398  66.694  1.00  0.00    -0.321 A  
HETATM    8  C   UNL     1      -7.626  17.675  66.533  1.00  0.00    -0.299 A  
ENDROOT
BRANCH   5   9
HETATM    9  N   UNL     1      -9.946  14.894  67.413  1.00  0.00    -0.223 NA 
HETATM   10  H   UNL     1      -9.708  14.215  68.137  1.00  0.00     0.000 HD 
BRANCH   9  11
HETATM   11  C   UNL     1     -10.905  14.504  66.435  1.00  0.00    -0.318 A  
HETATM   12  C   UNL     1     -11.069  15.266  65.265  1.00  0.00    -0.382 A  
HETATM   13  C   UNL     1     -11.851  14.822  64.200  1.00  0.00    -0.235 A  
HETATM   14  C   UNL     1     -12.536  13.618  64.307  1.00  0.00    -0.304 A  
HETATM   15  C   UNL     1     -12.496  12.907  65.506  1.00  0.00    -0.462 A  
HETATM   16  C   UNL     1     -11.726  13.370  66.584  1.00  0.00    -0.428 A  
HETATM   17  C   UNL     1     -11.819  12.622  67.855  1.00  0.00    -0.332 C  
HETATM   18  O   UNL     1     -11.923  11.411  67.924  1.00  0.00    -0.626 OA 
HETATM   19  O   UNL     1     -11.847  13.439  68.935  1.00  0.00    -0.302 OA 
ENDBRANCH   9  11
ENDBRANCH   5   9
TORSDOF 2
ENDMDL
MODEL       49
REMARK 921   NORMALIZED FREE ENERGY PREDICTED BY IDOCK:   -5.43 KCAL/MOL
REMARK 922        TOTAL FREE ENERGY PREDICTED BY IDOCK:   -6.71 KCAL/MOL
REMARK 923 INTER-LIGAND FREE ENERGY PREDICTED BY IDOCK:   -6.15 KCAL/MOL
REMARK 924 INTRA-LIGAND FREE ENERGY PREDICTED BY IDOCK:   -0.56 KCAL/MOL
REMARK 927      BINDING AFFINITY PREDICTED BY RF-SCORE:    0.00 PKD
ROOT
HETATM    1  C   UNL     1      -8.974   8.459  65.581  1.00  0.00    -0.183 C  
HETATM    2  C   UNL     1      -9.679   9.173  66.704  1.00  0.00    -0.287 A  
HETATM    3  C   UNL     1     -10.236  10.464  66.570  1.00  0.00    -0.289 A  
HETATM    4  C   UNL     1      -9.920  11.325  65.376  1.00  0.00    -0.297 C  
HETATM    5  C   UNL     1     -11.127  10.921  67.566  1.00  0.00    -0.310 A  
HETATM    6  C   UNL     1      -9.798   8.485  67.919  1.00  0.00    -0.208 A  
HETATM    7  C   UNL     1     -11.171  10.240  68.795  1.00  0.00    -0.260 A  
HETATM    8  C   UNL     1     -10.502   9.041  68.982  1.00  0.00    -0.235 A  
ENDROOT
BRANCH   5   9
HETATM    9  N   UNL     1     -12.012  12.010  67.308  1.00  0.00    -0.590 NA 
HETATM   10  H   UNL     1     -12.822  11.828  66.717  1.00  0.00     0.000 HD 
BRANCH   9  11
HETATM   11  C   UNL     1     -11.850  13.333  67.813  1.00  0.00    -0.353 A  
HETATM   12  C   UNL     1     -11.841  13.562  69.200  1.00  0.00    -0.386 A  
HETATM   13  C   UNL     1     -11.496  14.800  69.740  1.00  0.00    -0.330 A  
HETATM   14  C   UNL     1     -11.204  15.861  68.892  1.00  0.00    -0.343 A  
HETATM   15  C   UNL     1     -11.334  15.697  67.513  1.00  0.00    -0.198 A  
HETATM   16  C   UNL     1     -11.704  14.454  66.974  1.00  0.00    -0.420 A  
HETATM   17  C   UNL     1     -11.927  14.386  65.516  1.00  0.00    -0.358 C  
HETATM   18  O   UNL     1     -11.265  14.999  64.699  1.00  0.00    -0.374 OA 
HETATM   19  O   UNL     1     -12.996  13.621  65.191  1.00  0.00    -0.734 OA 
ENDBRANCH   9  11
ENDBRANCH   5   9
TORSDOF 2
ENDMDL
MODEL       50
REMARK 921   NORMALIZED FREE ENERGY PREDICTED BY IDOCK:   -5.43 KCAL/MOL
REMARK 922        TOTAL FREE ENERGY PREDICTED BY IDOCK:   -6.71 KCAL/MOL
REMARK 923 INTER-LIGAND FREE ENERGY PREDICTED BY IDOCK:   -6.11 KCAL/MOL
REMARK 924 INTRA-LIGAND FREE ENERGY PREDICTED BY IDOCK:   -0.61 KCAL/MOL
REMARK 927      BINDING AFFINITY PREDICTED BY RF-SCORE:    0.00 PKD
ROOT
HETATM    1  C   UNL     1     -11.763  12.741  67.656  1.00  0.00    -0.422 C  
HETATM    2  C   UNL     1     -11.419  13.811  68.658  1.00  0.00    -0.336 A  
HETATM    3  C   UNL     1     -10.210  14.539  68.627  1.00  0.00    -0.243 A  
HETATM    4  C   UNL     1      -9.063  14.102  67.755  1.00  0.00    -0.190 C  
HETATM    5  C   UNL     1     -10.107  15.711  69.410  1.00  0.00    -0.269 A  
HETATM    6  C   UNL     1     -12.379  14.097  69.638  1.00  0.00    -0.304 A  
HETATM    7  C   UNL     1     -11.054  15.929  70.425  1.00  0.00    -0.382 A  
HETATM    8  C   UNL     1     -12.174  15.124  70.553  1.00  0.00    -0.389 A  
ENDROOT
BRANCH   5   9
HETATM    9  N   UNL     1      -9.102  16.685  69.133  1.00  0.00    -0.211 NA 
HETATM   10  H   UNL     1      -8.170  16.521  69.513  1.00  0.00     0.000 HD 
BRANCH   9  11
HETATM   11  C   UNL     1      -9.300  17.871  68.367  1.00  0.00    -0.288 A  
HETATM   12  C   UNL     1     -10.414  17.983  67.517  1.00  0.00    -0.408 A  
HETATM   13  C   UNL     1     -10.752  19.186  66.900  1.00  0.00    -0.515 A  
HETATM   14  C   UNL     1      -9.942  20.301  67.080  1.00  0.00    -0.593 A  
HETATM   15  C   UNL     1      -8.761  20.183  67.811  1.00  0.00    -0.332 A  
HETATM   16  C   UNL     1      -8.412  18.963  68.412  1.00  0.00    -0.385 A  
HETATM   17  C   UNL     1      -7.096  18.886  69.078  1.00  0.00    -0.306 C  
HETATM   18  O   UNL     1      -6.599  19.801  69.707  1.00  0.00    -0.338 OA 
HETATM   19  O   UNL     1      -6.471  17.705  68.851  1.00  0.00    -0.195 OA 
ENDBRANCH   9  11
ENDBRANCH   5   9
TORSDOF 2
ENDMDL
MODEL       51
REMARK 921   NORMALIZED FREE ENERGY PREDICTED BY IDOCK:   -5.39 KCAL/MOL
REMARK 922        TOTAL FREE ENERGY PREDICTED BY IDOCK:   -6.67 KCAL/MOL
REMARK 923 INTER-LIGAND FREE ENERGY PREDICTED BY IDOCK:   -6.05 KCAL/MOL
REMARK 924 INTRA-LIGAND FREE ENERGY PREDICTED BY IDOCK:   -0.62 KCAL/MOL
REMARK 927      BINDING AFFINITY PREDICTED BY RF-SCORE:    0.00 PKD
ROOT
HETATM    1  C   UNL     1      -7.918  19.889  66.965  1.00  0.00    -0.336 C  
HETATM    2  C   UNL     1      -8.344  18.684  67.761  1.00  0.00    -0.285 A  
HETATM    3  C   UNL     1      -9.694  18.310  67.935  1.00  0.00    -0.314 A  
HETATM    4  C   UNL     1     -10.812  19.249  67.566  1.00  0.00    -0.524 C  
HETATM    5  C   UNL     1      -9.978  17.019  68.432  1.00  0.00    -0.289 A  
HETATM    6  C   UNL     1      -7.326  17.899  68.319  1.00  0.00    -0.249 A  
HETATM    7  C   UNL     1      -8.944  16.288  69.041  1.00  0.00    -0.254 A  
HETATM    8  C   UNL     1      -7.630  16.726  69.002  1.00  0.00    -0.218 A  
ENDROOT
BRANCH   5   9
HETATM    9  N   UNL     1     -11.271  16.441  68.261  1.00  0.00    -0.343 NA 
HETATM   10  H   UNL     1     -12.076  17.067  68.304  1.00  0.00     0.000 HD 
BRANCH   9  11
HETATM   11  C   UNL     1     -11.527  15.058  68.036  1.00  0.00    -0.342 A  
HETATM   12  C   UNL     1     -11.438  14.527  66.736  1.00  0.00    -0.376 A  
HETATM   13  C   UNL     1     -11.490  13.155  66.495  1.00  0.00    -0.378 A  
HETATM   14  C   UNL     1     -11.686  12.279  67.556  1.00  0.00    -0.402 A  
HETATM   15  C   UNL     1     -11.909  12.786  68.836  1.00  0.00    -0.351 A  
HETATM   16  C   UNL     1     -11.879  14.170  69.070  1.00  0.00    -0.384 A  
HETATM   17  C   UNL     1     -12.230  14.636  70.427  1.00  0.00    -0.329 C  
HETATM   18  O   UNL     1     -11.923  14.048  71.447  1.00  0.00    -0.265 OA 
HETATM   19  O   UNL     1     -12.993  15.755  70.408  1.00  0.00    -0.409 OA 
ENDBRANCH   9  11
ENDBRANCH   5   9
TORSDOF 2
ENDMDL
MODEL       52
REMARK 921   NORMALIZED FREE ENERGY PREDICTED BY IDOCK:   -5.39 KCAL/MOL
REMARK 922        TOTAL FREE ENERGY PREDICTED BY IDOCK:   -6.67 KCAL/MOL
REMARK 923 INTER-LIGAND FREE ENERGY PREDICTED BY IDOCK:   -6.19 KCAL/MOL
REMARK 924 INTRA-LIGAND FREE ENERGY PREDICTED BY IDOCK:   -0.47 KCAL/MOL
REMARK 927      BINDING AFFINITY PREDICTED BY RF-SCORE:    0.00 PKD
ROOT
HETATM    1  C   UNL     1      -7.522  20.921  67.355  1.00  0.00    -0.339 C  
HETATM    2  C   UNL     1      -7.828  19.591  67.991  1.00  0.00    -0.340 A  
HETATM    3  C   UNL     1      -9.142  19.137  68.240  1.00  0.00    -0.385 A  
HETATM    4  C   UNL     1     -10.317  20.073  68.139  1.00  0.00    -0.503 C  
HETATM    5  C   UNL     1      -9.337  17.774  68.554  1.00  0.00    -0.295 A  
HETATM    6  C   UNL     1      -6.736  18.773  68.313  1.00  0.00    -0.248 A  
HETATM    7  C   UNL     1      -8.224  17.003  68.933  1.00  0.00    -0.204 A  
HETATM    8  C   UNL     1      -6.934  17.497  68.830  1.00  0.00    -0.252 A  
ENDROOT
BRANCH   5   9
HETATM    9  N   UNL     1     -10.625  17.174  68.427  1.00  0.00    -0.367 NA 
HETATM   10  H   UNL     1     -11.257  17.561  67.726  1.00  0.00     0.000 HD 
BRANCH   9  11
HETATM   11  C   UNL     1     -11.098  16.077  69.203  1.00  0.00    -0.317 A  
HETATM   12  C   UNL     1     -11.061  16.139  70.607  1.00  0.00    -0.318 A  
HETATM   13  C   UNL     1     -11.684  15.179  71.404  1.00  0.00    -0.428 A  
HETATM   14  C   UNL     1     -12.317  14.097  70.806  1.00  0.00    -0.439 A  
HETATM   15  C   UNL     1     -12.255  13.942  69.422  1.00  0.00    -0.338 A  
HETATM   16  C   UNL     1     -11.607  14.899  68.625  1.00  0.00    -0.342 A  
HETATM   17  C   UNL     1     -11.489  14.611  67.180  1.00  0.00    -0.368 C  
HETATM   18  O   UNL     1     -12.353  14.060  66.525  1.00  0.00    -0.457 OA 
HETATM   19  O   UNL     1     -10.281  14.966  66.680  1.00  0.00    -0.252 OA 
ENDBRANCH   9  11
ENDBRANCH   5   9
TORSDOF 2
ENDMDL
MODEL       53
REMARK 921   NORMALIZED FREE ENERGY PREDICTED BY IDOCK:   -5.38 KCAL/MOL
REMARK 922        TOTAL FREE ENERGY PREDICTED BY IDOCK:   -6.66 KCAL/MOL
REMARK 923 INTER-LIGAND FREE ENERGY PREDICTED BY IDOCK:   -6.15 KCAL/MOL
REMARK 924 INTRA-LIGAND FREE ENERGY PREDICTED BY IDOCK:   -0.50 KCAL/MOL
REMARK 927      BINDING AFFINITY PREDICTED BY RF-SCORE:    0.00 PKD
ROOT
HETATM    1  C   UNL     1     -10.103  11.253  63.463  1.00  0.00    -0.443 C  
HETATM    2  C   UNL     1     -10.897  11.983  64.513  1.00  0.00    -0.363 A  
HETATM    3  C   UNL     1     -10.405  12.245  65.811  1.00  0.00    -0.287 A  
HETATM    4  C   UNL     1      -9.160  11.568  66.319  1.00  0.00    -0.215 C  
HETATM    5  C   UNL     1     -11.088  13.184  66.615  1.00  0.00    -0.292 A  
HETATM    6  C   UNL     1     -12.170  12.439  64.146  1.00  0.00    -0.558 A  
HETATM    7  C   UNL     1     -12.388  13.568  66.246  1.00  0.00    -0.440 A  
HETATM    8  C   UNL     1     -12.936  13.190  65.032  1.00  0.00    -0.221 A  
ENDROOT
BRANCH   5   9
HETATM    9  N   UNL     1     -10.447  13.781  67.742  1.00  0.00    -0.237 NA 
HETATM   10  H   UNL     1      -9.435  13.901  67.698  1.00  0.00     0.000 HD 
BRANCH   9  11
HETATM   11  C   UNL     1     -11.111  14.222  68.922  1.00  0.00    -0.262 A  
HETATM   12  C   UNL     1     -11.860  13.314  69.691  1.00  0.00    -0.391 A  
HETATM   13  C   UNL     1     -12.364  13.652  70.947  1.00  0.00    -0.450 A  
HETATM   14  C   UNL     1     -12.173  14.936  71.440  1.00  0.00    -0.391 A  
HETATM   15  C   UNL     1     -11.550  15.895  70.642  1.00  0.00    -0.426 A  
HETATM   16  C   UNL     1     -11.064  15.557  69.368  1.00  0.00    -0.291 A  
HETATM   17  C   UNL     1     -10.513  16.649  68.540  1.00  0.00    -0.319 C  
HETATM   18  O   UNL     1      -9.865  17.578  68.985  1.00  0.00    -0.285 OA 
HETATM   19  O   UNL     1     -10.870  16.540  67.238  1.00  0.00    -0.280 OA 
ENDBRANCH   9  11
ENDBRANCH   5   9
TORSDOF 2
ENDMDL
MODEL       54
REMARK 921   NORMALIZED FREE ENERGY PREDICTED BY IDOCK:   -5.38 KCAL/MOL
REMARK 922        TOTAL FREE ENERGY PREDICTED BY IDOCK:   -6.65 KCAL/MOL
REMARK 923 INTER-LIGAND FREE ENERGY PREDICTED BY IDOCK:   -6.40 KCAL/MOL
REMARK 924 INTRA-LIGAND FREE ENERGY PREDICTED BY IDOCK:   -0.26 KCAL/MOL
REMARK 927      BINDING AFFINITY PREDICTED BY RF-SCORE:    0.00 PKD
ROOT
HETATM    1  C   UNL     1     -10.890  15.219  65.031  1.00  0.00    -0.457 C  
HETATM    2  C   UNL     1     -11.357  14.683  66.357  1.00  0.00    -0.348 A  
HETATM    3  C   UNL     1     -11.823  13.361  66.536  1.00  0.00    -0.443 A  
HETATM    4  C   UNL     1     -12.146  12.487  65.353  1.00  0.00    -0.494 C  
HETATM    5  C   UNL     1     -11.952  12.863  67.851  1.00  0.00    -0.282 A  
HETATM    6  C   UNL     1     -11.285  15.550  67.456  1.00  0.00    -0.272 A  
HETATM    7  C   UNL     1     -11.937  13.773  68.922  1.00  0.00    -0.394 A  
HETATM    8  C   UNL     1     -11.623  15.108  68.731  1.00  0.00    -0.369 A  
ENDROOT
BRANCH   5   9
HETATM    9  N   UNL     1     -12.028  11.459  68.093  1.00  0.00    -0.630 NA 
HETATM   10  H   UNL     1     -12.210  10.853  67.294  1.00  0.00     0.000 HD 
BRANCH   9  11
HETATM   11  C   UNL     1     -11.870  10.838  69.366  1.00  0.00    -0.298 A  
HETATM   12  C   UNL     1     -12.910  10.890  70.310  1.00  0.00    -0.209 A  
HETATM   13  C   UNL     1     -12.878  10.140  71.485  1.00  0.00    -0.548 A  
HETATM   14  C   UNL     1     -11.767   9.356  71.768  1.00  0.00    -0.444 A  
HETATM   15  C   UNL     1     -10.665   9.388  70.913  1.00  0.00    -0.393 A  
HETATM   16  C   UNL     1     -10.693  10.163  69.742  1.00  0.00    -0.317 A  
HETATM   17  C   UNL     1      -9.452  10.231  68.945  1.00  0.00    -0.188 C  
HETATM   18  O   UNL     1      -8.692   9.293  68.789  1.00  0.00    -0.129 OA 
HETATM   19  O   UNL     1      -9.215  11.475  68.462  1.00  0.00    -0.183 OA 
ENDBRANCH   9  11
ENDBRANCH   5   9
TORSDOF 2
ENDMDL
MODEL       55
REMARK 921   NORMALIZED FREE ENERGY PREDICTED BY IDOCK:   -5.36 KCAL/MOL
REMARK 922        TOTAL FREE ENERGY PREDICTED BY IDOCK:   -6.63 KCAL/MOL
REMARK 923 INTER-LIGAND FREE ENERGY PREDICTED BY IDOCK:   -6.00 KCAL/MOL
REMARK 924 INTRA-LIGAND FREE ENERGY PREDICTED BY IDOCK:   -0.63 KCAL/MOL
REMARK 927      BINDING AFFINITY PREDICTED BY RF-SCORE:    0.00 PKD
ROOT
HETATM    1  C   UNL     1      -7.434  20.709  67.217  1.00  0.00    -0.395 C  
HETATM    2  C   UNL     1      -7.563  19.351  67.854  1.00  0.00    -0.316 A  
HETATM    3  C   UNL     1      -8.787  18.832  68.330  1.00  0.00    -0.375 A  
HETATM    4  C   UNL     1      -9.996  19.717  68.484  1.00  0.00    -0.542 C  
HETATM    5  C   UNL     1      -8.866  17.454  68.629  1.00  0.00    -0.258 A  
HETATM    6  C   UNL     1      -6.399  18.574  67.937  1.00  0.00    -0.196 A  
HETATM    7  C   UNL     1      -7.673  16.724  68.765  1.00  0.00    -0.242 A  
HETATM    8  C   UNL     1      -6.446  17.278  68.439  1.00  0.00    -0.164 A  
ENDROOT
BRANCH   5   9
HETATM    9  N   UNL     1     -10.131  16.801  68.727  1.00  0.00    -0.269 NA 
HETATM   10  H   UNL     1     -10.651  16.911  69.597  1.00  0.00     0.000 HD 
BRANCH   9  11
HETATM   11  C   UNL     1     -10.724  16.009  67.702  1.00  0.00    -0.320 A  
HETATM   12  C   UNL     1     -10.513  16.331  66.350  1.00  0.00    -0.297 A  
HETATM   13  C   UNL     1     -10.910  15.481  65.319  1.00  0.00    -0.425 A  
HETATM   14  C   UNL     1     -11.582  14.303  65.621  1.00  0.00    -0.346 A  
HETATM   15  C   UNL     1     -11.920  14.023  66.944  1.00  0.00    -0.479 A  
HETATM   16  C   UNL     1     -11.539  14.894  67.978  1.00  0.00    -0.363 A  
HETATM   17  C   UNL     1     -12.026  14.587  69.338  1.00  0.00    -0.322 C  
HETATM   18  O   UNL     1     -12.136  13.459  69.781  1.00  0.00    -0.322 OA 
HETATM   19  O   UNL     1     -12.405  15.698  70.015  1.00  0.00    -0.369 OA 
ENDBRANCH   9  11
ENDBRANCH   5   9
TORSDOF 2
ENDMDL
MODEL       56
REMARK 921   NORMALIZED FREE ENERGY PREDICTED BY IDOCK:   -5.35 KCAL/MOL
REMARK 922        TOTAL FREE ENERGY PREDICTED BY IDOCK:   -6.62 KCAL/MOL
REMARK 923 INTER-LIGAND FREE ENERGY PREDICTED BY IDOCK:   -6.04 KCAL/MOL
REMARK 924 INTRA-LIGAND FREE ENERGY PREDICTED BY IDOCK:   -0.58 KCAL/MOL
REMARK 927      BINDING AFFINITY PREDICTED BY RF-SCORE:    0.00 PKD
ROOT
HETATM    1  C   UNL     1      -6.800  19.757  68.899  1.00  0.00    -0.373 C  
HETATM    2  C   UNL     1      -8.106  19.149  68.459  1.00  0.00    -0.394 A  
HETATM    3  C   UNL     1      -8.349  17.758  68.457  1.00  0.00    -0.298 A  
HETATM    4  C   UNL     1      -7.222  16.774  68.631  1.00  0.00    -0.207 C  
HETATM    5  C   UNL     1      -9.680  17.306  68.321  1.00  0.00    -0.294 A  
HETATM    6  C   UNL     1      -9.120  20.034  68.068  1.00  0.00    -0.348 A  
HETATM    7  C   UNL     1     -10.656  18.209  67.866  1.00  0.00    -0.389 A  
HETATM    8  C   UNL     1     -10.381  19.559  67.724  1.00  0.00    -0.575 A  
ENDROOT
BRANCH   5   9
HETATM    9  N   UNL     1     -10.040  15.978  68.700  1.00  0.00    -0.213 NA 
HETATM   10  H   UNL     1      -9.920  15.720  69.679  1.00  0.00     0.000 HD 
BRANCH   9  11
HETATM   11  C   UNL     1     -10.555  14.986  67.817  1.00  0.00    -0.264 A  
HETATM   12  C   UNL     1     -10.191  14.994  66.459  1.00  0.00    -0.281 A  
HETATM   13  C   UNL     1     -10.512  13.941  65.603  1.00  0.00    -0.320 A  
HETATM   14  C   UNL     1     -11.259  12.871  66.082  1.00  0.00    -0.326 A  
HETATM   15  C   UNL     1     -11.745  12.901  67.389  1.00  0.00    -0.428 A  
HETATM   16  C   UNL     1     -11.438  13.975  68.240  1.00  0.00    -0.337 A  
HETATM   17  C   UNL     1     -12.076  13.988  69.572  1.00  0.00    -0.347 C  
HETATM   18  O   UNL     1     -12.277  12.990  70.239  1.00  0.00    -0.339 OA 
HETATM   19  O   UNL     1     -12.478  15.228  69.940  1.00  0.00    -0.309 OA 
ENDBRANCH   9  11
ENDBRANCH   5   9
TORSDOF 2
ENDMDL
MODEL       57
REMARK 921   NORMALIZED FREE ENERGY PREDICTED BY IDOCK:   -5.35 KCAL/MOL
REMARK 922        TOTAL FREE ENERGY PREDICTED BY IDOCK:   -6.62 KCAL/MOL
REMARK 923 INTER-LIGAND FREE ENERGY PREDICTED BY IDOCK:   -6.10 KCAL/MOL
REMARK 924 INTRA-LIGAND FREE ENERGY PREDICTED BY IDOCK:   -0.52 KCAL/MOL
REMARK 927      BINDING AFFINITY PREDICTED BY RF-SCORE:    0.00 PKD
ROOT
HETATM    1  C   UNL     1     -10.425  11.604  63.586  1.00  0.00    -0.483 C  
HETATM    2  C   UNL     1     -10.959  12.049  64.922  1.00  0.00    -0.356 A  
HETATM    3  C   UNL     1     -10.672  11.378  66.131  1.00  0.00    -0.320 A  
HETATM    4  C   UNL     1     -10.039  10.012  66.129  1.00  0.00    -0.317 C  
HETATM    5  C   UNL     1     -10.961  12.031  67.350  1.00  0.00    -0.261 A  
HETATM    6  C   UNL     1     -11.751  13.205  64.937  1.00  0.00    -0.377 A  
HETATM    7  C   UNL     1     -11.811  13.151  67.330  1.00  0.00    -0.420 A  
HETATM    8  C   UNL     1     -12.218  13.727  66.139  1.00  0.00    -0.499 A  
ENDROOT
BRANCH   5   9
HETATM    9  N   UNL     1     -10.352  11.605  68.567  1.00  0.00    -0.207 NA 
HETATM   10  H   UNL     1      -9.343  11.722  68.655  1.00  0.00     0.000 HD 
BRANCH   9  11
HETATM   11  C   UNL     1     -11.044  11.027  69.670  1.00  0.00    -0.256 A  
HETATM   12  C   UNL     1     -11.963  11.795  70.407  1.00  0.00    -0.422 A  
HETATM   13  C   UNL     1     -12.799  11.224  71.365  1.00  0.00    -0.515 A  
HETATM   14  C   UNL     1     -12.695   9.868  71.647  1.00  0.00    -0.527 A  
HETATM   15  C   UNL     1     -11.702   9.110  71.027  1.00  0.00    -0.363 A  
HETATM   16  C   UNL     1     -10.847   9.694  70.079  1.00  0.00    -0.302 A  
HETATM   17  C   UNL     1      -9.753   8.856  69.545  1.00  0.00    -0.173 C  
HETATM   18  O   UNL     1      -9.861   7.667  69.313  1.00  0.00    -0.164 OA 
HETATM   19  O   UNL     1      -8.594   9.544  69.410  1.00  0.00    -0.137 OA 
ENDBRANCH   9  11
ENDBRANCH   5   9
TORSDOF 2
ENDMDL
MODEL       58
REMARK 921   NORMALIZED FREE ENERGY PREDICTED BY IDOCK:   -5.32 KCAL/MOL
REMARK 922        TOTAL FREE ENERGY PREDICTED BY IDOCK:   -6.59 KCAL/MOL
REMARK 923 INTER-LIGAND FREE ENERGY PREDICTED BY IDOCK:   -5.89 KCAL/MOL
REMARK 924 INTRA-LIGAND FREE ENERGY PREDICTED BY IDOCK:   -0.70 KCAL/MOL
REMARK 927      BINDING AFFINITY PREDICTED BY RF-SCORE:    0.00 PKD
ROOT
HETATM    1  C   UNL     1     -11.276   6.922  72.735  1.00  0.00    -0.277 C  
HETATM    2  C   UNL     1     -11.435   8.280  72.105  1.00  0.00    -0.427 A  
HETATM    3  C   UNL     1     -10.368   8.981  71.500  1.00  0.00    -0.412 A  
HETATM    4  C   UNL     1      -8.942   8.538  71.692  1.00  0.00    -0.285 C  
HETATM    5  C   UNL     1     -10.669  10.092  70.681  1.00  0.00    -0.254 A  
HETATM    6  C   UNL     1     -12.721   8.835  72.106  1.00  0.00    -0.461 A  
HETATM    7  C   UNL     1     -11.953  10.659  70.759  1.00  0.00    -0.477 A  
HETATM    8  C   UNL     1     -12.969  10.050  71.475  1.00  0.00    -0.535 A  
ENDROOT
BRANCH   5   9
HETATM    9  N   UNL     1      -9.712  10.587  69.746  1.00  0.00    -0.427 NA 
HETATM   10  H   UNL     1      -9.089  11.331  70.061  1.00  0.00     0.000 HD 
BRANCH   9  11
HETATM   11  C   UNL     1      -9.559  10.124  68.408  1.00  0.00    -0.143 A  
HETATM   12  C   UNL     1      -8.670   9.073  68.123  1.00  0.00    -0.130 A  
HETATM   13  C   UNL     1      -8.629   8.462  66.870  1.00  0.00    -0.129 A  
HETATM   14  C   UNL     1      -9.448   8.930  65.851  1.00  0.00    -0.303 A  
HETATM   15  C   UNL     1     -10.242  10.056  66.068  1.00  0.00    -0.277 A  
HETATM   16  C   UNL     1     -10.264  10.683  67.324  1.00  0.00    -0.250 A  
HETATM   17  C   UNL     1     -11.045  11.930  67.447  1.00  0.00    -0.279 C  
HETATM   18  O   UNL     1     -12.104  12.126  66.880  1.00  0.00    -0.600 OA 
HETATM   19  O   UNL     1     -10.417  12.861  68.204  1.00  0.00    -0.223 OA 
ENDBRANCH   9  11
ENDBRANCH   5   9
TORSDOF 2
ENDMDL
MODEL       59
REMARK 921   NORMALIZED FREE ENERGY PREDICTED BY IDOCK:   -5.31 KCAL/MOL
REMARK 922        TOTAL FREE ENERGY PREDICTED BY IDOCK:   -6.57 KCAL/MOL
REMARK 923 INTER-LIGAND FREE ENERGY PREDICTED BY IDOCK:   -6.05 KCAL/MOL
REMARK 924 INTRA-LIGAND FREE ENERGY PREDICTED BY IDOCK:   -0.53 KCAL/MOL
REMARK 927      BINDING AFFINITY PREDICTED BY RF-SCORE:    0.00 PKD
ROOT
HETATM    1  C   UNL     1     -12.570  12.796  64.928  1.00  0.00    -0.541 C  
HETATM    2  C   UNL     1     -11.819  13.299  66.132  1.00  0.00    -0.437 A  
HETATM    3  C   UNL     1     -11.143  14.539  66.158  1.00  0.00    -0.334 A  
HETATM    4  C   UNL     1     -10.895  15.314  64.892  1.00  0.00    -0.444 C  
HETATM    5  C   UNL     1     -10.730  15.056  67.406  1.00  0.00    -0.289 A  
HETATM    6  C   UNL     1     -11.836  12.490  67.276  1.00  0.00    -0.381 A  
HETATM    7  C   UNL     1     -10.701  14.194  68.517  1.00  0.00    -0.262 A  
HETATM    8  C   UNL     1     -11.233  12.917  68.454  1.00  0.00    -0.305 A  
ENDROOT
BRANCH   5   9
HETATM    9  N   UNL     1     -10.412  16.439  67.553  1.00  0.00    -0.300 NA 
HETATM   10  H   UNL     1     -11.134  17.050  67.934  1.00  0.00     0.000 HD 
BRANCH   9  11
HETATM   11  C   UNL     1      -9.164  17.033  67.208  1.00  0.00    -0.221 A  
HETATM   12  C   UNL     1      -7.962  16.351  67.469  1.00  0.00    -0.172 A  
HETATM   13  C   UNL     1      -6.737  16.802  66.980  1.00  0.00    -0.241 A  
HETATM   14  C   UNL     1      -6.682  17.986  66.255  1.00  0.00    -0.282 A  
HETATM   15  C   UNL     1      -7.837  18.750  66.094  1.00  0.00    -0.263 A  
HETATM   16  C   UNL     1      -9.065  18.303  66.609  1.00  0.00    -0.294 A  
HETATM   17  C   UNL     1     -10.221  19.216  66.493  1.00  0.00    -0.429 C  
HETATM   18  O   UNL     1     -10.424  19.935  65.533  1.00  0.00    -0.434 OA 
HETATM   19  O   UNL     1     -10.994  19.215  67.606  1.00  0.00    -0.419 OA 
ENDBRANCH   9  11
ENDBRANCH   5   9
TORSDOF 2
ENDMDL
MODEL       60
REMARK 921   NORMALIZED FREE ENERGY PREDICTED BY IDOCK:   -5.29 KCAL/MOL
REMARK 922        TOTAL FREE ENERGY PREDICTED BY IDOCK:   -6.55 KCAL/MOL
REMARK 923 INTER-LIGAND FREE ENERGY PREDICTED BY IDOCK:   -5.93 KCAL/MOL
REMARK 924 INTRA-LIGAND FREE ENERGY PREDICTED BY IDOCK:   -0.61 KCAL/MOL
REMARK 927      BINDING AFFINITY PREDICTED BY RF-SCORE:    0.00 PKD
ROOT
HETATM    1  C   UNL     1     -11.469  11.639  68.971  1.00  0.00    -0.356 C  
HETATM    2  C   UNL     1     -11.594  12.659  67.871  1.00  0.00    -0.401 A  
HETATM    3  C   UNL     1     -11.497  14.050  68.091  1.00  0.00    -0.341 A  
HETATM    4  C   UNL     1     -11.539  14.619  69.484  1.00  0.00    -0.350 C  
HETATM    5  C   UNL     1     -11.327  14.900  66.975  1.00  0.00    -0.342 A  
HETATM    6  C   UNL     1     -11.786  12.171  66.571  1.00  0.00    -0.392 A  
HETATM    7  C   UNL     1     -11.590  14.390  65.693  1.00  0.00    -0.347 A  
HETATM    8  C   UNL     1     -11.833  13.042  65.487  1.00  0.00    -0.438 A  
ENDROOT
BRANCH   5   9
HETATM    9  N   UNL     1     -10.835  16.229  67.141  1.00  0.00    -0.248 NA 
HETATM   10  H   UNL     1     -11.515  16.959  67.353  1.00  0.00     0.000 HD 
BRANCH   9  11
HETATM   11  C   UNL     1      -9.468  16.615  67.033  1.00  0.00    -0.230 A  
HETATM   12  C   UNL     1      -8.449  15.668  67.241  1.00  0.00    -0.214 A  
HETATM   13  C   UNL     1      -7.113  15.949  66.960  1.00  0.00    -0.207 A  
HETATM   14  C   UNL     1      -6.758  17.215  66.512  1.00  0.00    -0.290 A  
HETATM   15  C   UNL     1      -7.729  18.212  66.424  1.00  0.00    -0.295 A  
HETATM   16  C   UNL     1      -9.070  17.931  66.730  1.00  0.00    -0.276 A  
HETATM   17  C   UNL     1     -10.020  19.062  66.717  1.00  0.00    -0.360 C  
HETATM   18  O   UNL     1      -9.973  19.980  65.919  1.00  0.00    -0.450 OA 
HETATM   19  O   UNL     1     -10.909  19.001  67.737  1.00  0.00    -0.396 OA 
ENDBRANCH   9  11
ENDBRANCH   5   9
TORSDOF 2
ENDMDL
MODEL       61
REMARK 921   NORMALIZED FREE ENERGY PREDICTED BY IDOCK:   -5.27 KCAL/MOL
REMARK 922        TOTAL FREE ENERGY PREDICTED BY IDOCK:   -6.53 KCAL/MOL
REMARK 923 INTER-LIGAND FREE ENERGY PREDICTED BY IDOCK:   -5.94 KCAL/MOL
REMARK 924 INTRA-LIGAND FREE ENERGY PREDICTED BY IDOCK:   -0.60 KCAL/MOL
REMARK 927      BINDING AFFINITY PREDICTED BY RF-SCORE:    0.00 PKD
ROOT
HETATM    1  C   UNL     1     -12.064  12.667  70.082  1.00  0.00    -0.368 C  
HETATM    2  C   UNL     1     -11.823  13.671  68.987  1.00  0.00    -0.393 A  
HETATM    3  C   UNL     1     -11.454  15.011  69.234  1.00  0.00    -0.326 A  
HETATM    4  C   UNL     1     -11.549  15.599  70.617  1.00  0.00    -0.394 C  
HETATM    5  C   UNL     1     -10.961  15.785  68.160  1.00  0.00    -0.330 A  
HETATM    6  C   UNL     1     -11.948  13.215  67.667  1.00  0.00    -0.363 A  
HETATM    7  C   UNL     1     -11.163  15.323  66.848  1.00  0.00    -0.256 A  
HETATM    8  C   UNL     1     -11.665  14.057  66.597  1.00  0.00    -0.420 A  
ENDROOT
BRANCH   5   9
HETATM    9  N   UNL     1     -10.217  16.978  68.403  1.00  0.00    -0.309 NA 
HETATM   10  H   UNL     1     -10.567  17.613  69.120  1.00  0.00     0.000 HD 
BRANCH   9  11
HETATM   11  C   UNL     1      -9.022  17.350  67.723  1.00  0.00    -0.236 A  
HETATM   12  C   UNL     1      -7.874  16.543  67.822  1.00  0.00    -0.164 A  
HETATM   13  C   UNL     1      -6.750  16.762  67.027  1.00  0.00    -0.241 A  
HETATM   14  C   UNL     1      -6.730  17.835  66.145  1.00  0.00    -0.323 A  
HETATM   15  C   UNL     1      -7.802  18.727  66.122  1.00  0.00    -0.263 A  
HETATM   16  C   UNL     1      -8.923  18.517  66.941  1.00  0.00    -0.280 A  
HETATM   17  C   UNL     1      -9.968  19.560  66.941  1.00  0.00    -0.386 C  
HETATM   18  O   UNL     1     -10.303  20.185  65.952  1.00  0.00    -0.449 OA 
HETATM   19  O   UNL     1     -10.465  19.795  68.179  1.00  0.00    -0.435 OA 
ENDBRANCH   9  11
ENDBRANCH   5   9
TORSDOF 2
ENDMDL
MODEL       62
REMARK 921   NORMALIZED FREE ENERGY PREDICTED BY IDOCK:   -5.25 KCAL/MOL
REMARK 922        TOTAL FREE ENERGY PREDICTED BY IDOCK:   -6.51 KCAL/MOL
REMARK 923 INTER-LIGAND FREE ENERGY PREDICTED BY IDOCK:   -5.81 KCAL/MOL
REMARK 924 INTRA-LIGAND FREE ENERGY PREDICTED BY IDOCK:   -0.70 KCAL/MOL
REMARK 927      BINDING AFFINITY PREDICTED BY RF-SCORE:    0.00 PKD
ROOT
HETATM    1  C   UNL     1     -10.509  15.860  68.619  1.00  0.00    -0.240 C  
HETATM    2  C   UNL     1     -11.314  14.928  69.485  1.00  0.00    -0.307 A  
HETATM    3  C   UNL     1     -11.702  13.633  69.075  1.00  0.00    -0.375 A  
HETATM    4  C   UNL     1     -11.572  13.204  67.637  1.00  0.00    -0.392 C  
HETATM    5  C   UNL     1     -12.185  12.733  70.050  1.00  0.00    -0.209 A  
HETATM    6  C   UNL     1     -11.654  15.384  70.766  1.00  0.00    -0.381 A  
HETATM    7  C   UNL     1     -12.575  13.240  71.301  1.00  0.00    -0.398 A  
HETATM    8  C   UNL     1     -12.329  14.555  71.657  1.00  0.00    -0.420 A  
ENDROOT
BRANCH   5   9
HETATM    9  N   UNL     1     -12.215  11.330  69.794  1.00  0.00    -0.295 NA 
HETATM   10  H   UNL     1     -12.998  10.968  69.249  1.00  0.00     0.000 HD 
BRANCH   9  11
HETATM   11  C   UNL     1     -11.237  10.395  70.240  1.00  0.00    -0.320 A  
HETATM   12  C   UNL     1      -9.968  10.361  69.637  1.00  0.00    -0.209 A  
HETATM   13  C   UNL     1      -8.922   9.602  70.162  1.00  0.00    -0.273 A  
HETATM   14  C   UNL     1      -9.144   8.812  71.282  1.00  0.00    -0.300 A  
HETATM   15  C   UNL     1     -10.427   8.725  71.821  1.00  0.00    -0.417 A  
HETATM   16  C   UNL     1     -11.482   9.473  71.275  1.00  0.00    -0.447 A  
HETATM   17  C   UNL     1     -12.832   9.246  71.830  1.00  0.00    -0.404 C  
HETATM   18  O   UNL     1     -13.056   9.035  73.008  1.00  0.00    -0.295 OA 
HETATM   19  O   UNL     1     -13.789   9.230  70.872  1.00  0.00    -0.129 OA 
ENDBRANCH   9  11
ENDBRANCH   5   9
TORSDOF 2
ENDMDL
MODEL       63
REMARK 921   NORMALIZED FREE ENERGY PREDICTED BY IDOCK:   -5.25 KCAL/MOL
REMARK 922        TOTAL FREE ENERGY PREDICTED BY IDOCK:   -6.51 KCAL/MOL
REMARK 923 INTER-LIGAND FREE ENERGY PREDICTED BY IDOCK:   -5.89 KCAL/MOL
REMARK 924 INTRA-LIGAND FREE ENERGY PREDICTED BY IDOCK:   -0.61 KCAL/MOL
REMARK 927      BINDING AFFINITY PREDICTED BY RF-SCORE:    0.00 PKD
ROOT
HETATM    1  C   UNL     1      -7.779   9.192  67.233  1.00  0.00    -0.095 C  
HETATM    2  C   UNL     1      -8.848   9.878  66.424  1.00  0.00    -0.159 A  
HETATM    3  C   UNL     1     -10.112  10.224  66.950  1.00  0.00    -0.274 A  
HETATM    4  C   UNL     1     -10.576   9.680  68.275  1.00  0.00    -0.268 C  
HETATM    5  C   UNL     1     -10.924  11.121  66.220  1.00  0.00    -0.163 A  
HETATM    6  C   UNL     1      -8.532  10.203  65.098  1.00  0.00    -0.167 A  
HETATM    7  C   UNL     1     -10.609  11.372  64.873  1.00  0.00    -0.368 A  
HETATM    8  C   UNL     1      -9.434  10.907  64.307  1.00  0.00    -0.289 A  
ENDROOT
BRANCH   5   9
HETATM    9  N   UNL     1     -12.002  11.808  66.854  1.00  0.00    -0.561 NA 
HETATM   10  H   UNL     1     -12.930  11.391  66.787  1.00  0.00     0.000 HD 
BRANCH   9  11
HETATM   11  C   UNL     1     -11.882  13.032  67.573  1.00  0.00    -0.355 A  
HETATM   12  C   UNL     1     -11.791  13.019  68.976  1.00  0.00    -0.362 A  
HETATM   13  C   UNL     1     -11.482  14.167  69.705  1.00  0.00    -0.329 A  
HETATM   14  C   UNL     1     -11.308  15.375  69.041  1.00  0.00    -0.324 A  
HETATM   15  C   UNL     1     -11.521  15.442  67.665  1.00  0.00    -0.255 A  
HETATM   16  C   UNL     1     -11.855  14.288  66.938  1.00  0.00    -0.458 A  
HETATM   17  C   UNL     1     -12.172  14.458  65.505  1.00  0.00    -0.348 C  
HETATM   18  O   UNL     1     -11.602  15.245  64.772  1.00  0.00    -0.380 OA 
HETATM   19  O   UNL     1     -13.216  13.689  65.112  1.00  0.00    -0.739 OA 
ENDBRANCH   9  11
ENDBRANCH   5   9
TORSDOF 2
ENDMDL
MODEL       64
REMARK 921   NORMALIZED FREE ENERGY PREDICTED BY IDOCK:   -5.23 KCAL/MOL
REMARK 922        TOTAL FREE ENERGY PREDICTED BY IDOCK:   -6.49 KCAL/MOL
REMARK 923 INTER-LIGAND FREE ENERGY PREDICTED BY IDOCK:   -5.87 KCAL/MOL
REMARK 924 INTRA-LIGAND FREE ENERGY PREDICTED BY IDOCK:   -0.62 KCAL/MOL
REMARK 927      BINDING AFFINITY PREDICTED BY RF-SCORE:    0.00 PKD
ROOT
HETATM    1  C   UNL     1      -6.892  10.783  68.796  1.00  0.00    -0.067 C  
HETATM    2  C   UNL     1      -8.307  10.734  68.284  1.00  0.00    -0.125 A  
HETATM    3  C   UNL     1      -9.382  10.205  69.032  1.00  0.00    -0.192 A  
HETATM    4  C   UNL     1      -9.136   9.401  70.281  1.00  0.00    -0.283 C  
HETATM    5  C   UNL     1     -10.700  10.474  68.602  1.00  0.00    -0.215 A  
HETATM    6  C   UNL     1      -8.543  11.276  67.013  1.00  0.00    -0.148 A  
HETATM    7  C   UNL     1     -10.899  10.957  67.298  1.00  0.00    -0.342 A  
HETATM    8  C   UNL     1      -9.834  11.342  66.500  1.00  0.00    -0.239 A  
ENDROOT
BRANCH   5   9
HETATM    9  N   UNL     1     -11.803  10.321  69.495  1.00  0.00    -0.477 NA 
HETATM   10  H   UNL     1     -12.304   9.433  69.475  1.00  0.00     0.000 HD 
BRANCH   9  11
HETATM   11  C   UNL     1     -12.257  11.312  70.412  1.00  0.00    -0.365 A  
HETATM   12  C   UNL     1     -11.930  12.664  70.208  1.00  0.00    -0.363 A  
HETATM   13  C   UNL     1     -12.507  13.684  70.964  1.00  0.00    -0.456 A  
HETATM   14  C   UNL     1     -13.392  13.364  71.986  1.00  0.00    -0.569 A  
HETATM   15  C   UNL     1     -13.632  12.026  72.296  1.00  0.00    -0.164 A  
HETATM   16  C   UNL     1     -13.031  11.001  71.547  1.00  0.00    -0.553 A  
HETATM   17  C   UNL     1     -13.246   9.613  72.002  1.00  0.00    -0.453 C  
HETATM   18  O   UNL     1     -14.293   9.207  72.472  1.00  0.00    -0.529 OA 
HETATM   19  O   UNL     1     -12.127   8.857  71.903  1.00  0.00    -0.325 OA 
ENDBRANCH   9  11
ENDBRANCH   5   9
TORSDOF 2
ENDMDL
MODEL       65
REMARK 921   NORMALIZED FREE ENERGY PREDICTED BY IDOCK:   -5.23 KCAL/MOL
REMARK 922        TOTAL FREE ENERGY PREDICTED BY IDOCK:   -6.49 KCAL/MOL
REMARK 923 INTER-LIGAND FREE ENERGY PREDICTED BY IDOCK:   -5.87 KCAL/MOL
REMARK 924 INTRA-LIGAND FREE ENERGY PREDICTED BY IDOCK:   -0.62 KCAL/MOL
REMARK 927      BINDING AFFINITY PREDICTED BY RF-SCORE:    0.00 PKD
ROOT
HETATM    1  C   UNL     1      -9.639  19.337  68.800  1.00  0.00    -0.485 C  
HETATM    2  C   UNL     1      -9.411  18.118  67.946  1.00  0.00    -0.276 A  
HETATM    3  C   UNL     1     -10.088  16.895  68.147  1.00  0.00    -0.299 A  
HETATM    4  C   UNL     1     -10.880  16.645  69.403  1.00  0.00    -0.295 C  
HETATM    5  C   UNL     1     -10.035  15.919  67.128  1.00  0.00    -0.240 A  
HETATM    6  C   UNL     1      -8.498  18.243  66.890  1.00  0.00    -0.267 A  
HETATM    7  C   UNL     1      -9.064  16.048  66.120  1.00  0.00    -0.387 A  
HETATM    8  C   UNL     1      -8.289  17.190  66.006  1.00  0.00    -0.169 A  
ENDROOT
BRANCH   5   9
HETATM    9  N   UNL     1     -10.989  14.859  67.084  1.00  0.00    -0.315 NA 
HETATM   10  H   UNL     1     -11.977  15.114  67.103  1.00  0.00     0.000 HD 
BRANCH   9  11
HETATM   11  C   UNL     1     -10.670  13.472  67.015  1.00  0.00    -0.277 A  
HETATM   12  C   UNL     1      -9.656  12.941  67.832  1.00  0.00    -0.215 A  
HETATM   13  C   UNL     1      -9.440  11.568  67.939  1.00  0.00    -0.178 A  
HETATM   14  C   UNL     1     -10.208  10.691  67.183  1.00  0.00    -0.261 A  
HETATM   15  C   UNL     1     -11.130  11.197  66.268  1.00  0.00    -0.176 A  
HETATM   16  C   UNL     1     -11.328  12.582  66.146  1.00  0.00    -0.388 A  
HETATM   17  C   UNL     1     -12.242  13.045  65.081  1.00  0.00    -0.459 C  
HETATM   18  O   UNL     1     -13.260  12.463  64.759  1.00  0.00    -0.784 OA 
HETATM   19  O   UNL     1     -11.783  14.155  64.453  1.00  0.00    -0.399 OA 
ENDBRANCH   9  11
ENDBRANCH   5   9
TORSDOF 2
ENDMDL
MODEL       66
REMARK 921   NORMALIZED FREE ENERGY PREDICTED BY IDOCK:   -5.22 KCAL/MOL
REMARK 922        TOTAL FREE ENERGY PREDICTED BY IDOCK:   -6.48 KCAL/MOL
REMARK 923 INTER-LIGAND FREE ENERGY PREDICTED BY IDOCK:   -5.80 KCAL/MOL
REMARK 924 INTRA-LIGAND FREE ENERGY PREDICTED BY IDOCK:   -0.68 KCAL/MOL
REMARK 927      BINDING AFFINITY PREDICTED BY RF-SCORE:    0.00 PKD
ROOT
HETATM    1  C   UNL     1     -12.445  11.882  63.270  1.00  0.00    -0.506 C  
HETATM    2  C   UNL     1     -11.554  12.365  64.383  1.00  0.00    -0.418 A  
HETATM    3  C   UNL     1     -11.679  13.641  64.975  1.00  0.00    -0.354 A  
HETATM    4  C   UNL     1     -12.533  14.708  64.344  1.00  0.00    -0.312 C  
HETATM    5  C   UNL     1     -11.011  13.887  66.195  1.00  0.00    -0.293 A  
HETATM    6  C   UNL     1     -10.582  11.471  64.853  1.00  0.00    -0.360 A  
HETATM    7  C   UNL     1      -9.998  13.001  66.600  1.00  0.00    -0.250 A  
HETATM    8  C   UNL     1      -9.771  11.810  65.931  1.00  0.00    -0.259 A  
ENDROOT
BRANCH   5   9
HETATM    9  N   UNL     1     -11.399  14.977  67.031  1.00  0.00    -0.341 NA 
HETATM   10  H   UNL     1     -12.341  14.958  67.421  1.00  0.00     0.000 HD 
BRANCH   9  11
HETATM   11  C   UNL     1     -10.572  16.089  67.363  1.00  0.00    -0.316 A  
HETATM   12  C   UNL     1      -9.814  16.726  66.365  1.00  0.00    -0.312 A  
HETATM   13  C   UNL     1      -9.146  17.927  66.602  1.00  0.00    -0.279 A  
HETATM   14  C   UNL     1      -9.179  18.492  67.870  1.00  0.00    -0.306 A  
HETATM   15  C   UNL     1      -9.813  17.814  68.910  1.00  0.00    -0.290 A  
HETATM   16  C   UNL     1     -10.465  16.593  68.673  1.00  0.00    -0.323 A  
HETATM   17  C   UNL     1     -11.020  15.881  69.843  1.00  0.00    -0.343 C  
HETATM   18  O   UNL     1     -11.540  16.438  70.792  1.00  0.00    -0.334 OA 
HETATM   19  O   UNL     1     -10.824  14.543  69.774  1.00  0.00    -0.202 OA 
ENDBRANCH   9  11
ENDBRANCH   5   9
TORSDOF 2
ENDMDL
MODEL       67
REMARK 921   NORMALIZED FREE ENERGY PREDICTED BY IDOCK:   -5.22 KCAL/MOL
REMARK 922        TOTAL FREE ENERGY PREDICTED BY IDOCK:   -6.48 KCAL/MOL
REMARK 923 INTER-LIGAND FREE ENERGY PREDICTED BY IDOCK:   -6.04 KCAL/MOL
REMARK 924 INTRA-LIGAND FREE ENERGY PREDICTED BY IDOCK:   -0.44 KCAL/MOL
REMARK 927      BINDING AFFINITY PREDICTED BY RF-SCORE:    0.00 PKD
ROOT
HETATM    1  C   UNL     1     -11.696   9.547  71.659  1.00  0.00    -0.460 C  
HETATM    2  C   UNL     1     -11.283   9.338  70.227  1.00  0.00    -0.267 A  
HETATM    3  C   UNL     1     -11.242  10.380  69.274  1.00  0.00    -0.304 A  
HETATM    4  C   UNL     1     -11.875  11.716  69.559  1.00  0.00    -0.414 C  
HETATM    5  C   UNL     1     -10.563  10.154  68.056  1.00  0.00    -0.231 A  
HETATM    6  C   UNL     1     -10.898   8.042  69.858  1.00  0.00    -0.217 A  
HETATM    7  C   UNL     1     -10.250   8.832  67.694  1.00  0.00    -0.298 A  
HETATM    8  C   UNL     1     -10.427   7.780  68.576  1.00  0.00    -0.202 A  
ENDROOT
BRANCH   5   9
HETATM    9  N   UNL     1     -10.146  11.248  67.241  1.00  0.00    -0.184 NA 
HETATM   10  H   UNL     1      -9.952  12.134  67.707  1.00  0.00     0.000 HD 
BRANCH   9  11
HETATM   11  C   UNL     1      -9.978  11.199  65.827  1.00  0.00    -0.245 A  
HETATM   12  C   UNL     1      -8.831  10.603  65.274  1.00  0.00    -0.204 A  
HETATM   13  C   UNL     1      -8.713  10.361  63.906  1.00  0.00    -0.202 A  
HETATM   14  C   UNL     1      -9.729  10.762  63.048  1.00  0.00    -0.374 A  
HETATM   15  C   UNL     1     -10.817  11.473  63.554  1.00  0.00    -0.473 A  
HETATM   16  C   UNL     1     -10.921  11.735  64.930  1.00  0.00    -0.358 A  
HETATM   17  C   UNL     1     -12.044  12.584  65.376  1.00  0.00    -0.435 C  
HETATM   18  O   UNL     1     -13.158  12.548  64.888  1.00  0.00    -0.833 OA 
HETATM   19  O   UNL     1     -11.678  13.460  66.343  1.00  0.00    -0.334 OA 
ENDBRANCH   9  11
ENDBRANCH   5   9
TORSDOF 2
ENDMDL
MODEL       68
REMARK 921   NORMALIZED FREE ENERGY PREDICTED BY IDOCK:   -5.22 KCAL/MOL
REMARK 922        TOTAL FREE ENERGY PREDICTED BY IDOCK:   -6.47 KCAL/MOL
REMARK 923 INTER-LIGAND FREE ENERGY PREDICTED BY IDOCK:   -5.83 KCAL/MOL
REMARK 924 INTRA-LIGAND FREE ENERGY PREDICTED BY IDOCK:   -0.64 KCAL/MOL
REMARK 927      BINDING AFFINITY PREDICTED BY RF-SCORE:    0.00 PKD
ROOT
HETATM    1  C   UNL     1     -11.229  16.143  64.777  1.00  0.00    -0.313 C  
HETATM    2  C   UNL     1     -11.301  14.760  65.369  1.00  0.00    -0.356 A  
HETATM    3  C   UNL     1     -10.520  14.349  66.471  1.00  0.00    -0.289 A  
HETATM    4  C   UNL     1      -9.361  15.181  66.953  1.00  0.00    -0.251 C  
HETATM    5  C   UNL     1     -10.868  13.153  67.137  1.00  0.00    -0.257 A  
HETATM    6  C   UNL     1     -12.220  13.870  64.796  1.00  0.00    -0.441 A  
HETATM    7  C   UNL     1     -11.744  12.257  66.500  1.00  0.00    -0.420 A  
HETATM    8  C   UNL     1     -12.405  12.600  65.332  1.00  0.00    -0.499 A  
ENDROOT
BRANCH   5   9
HETATM    9  N   UNL     1     -10.394  12.889  68.457  1.00  0.00    -0.278 NA 
HETATM   10  H   UNL     1      -9.397  13.016  68.632  1.00  0.00     0.000 HD 
BRANCH   9  11
HETATM   11  C   UNL     1     -11.204  12.463  69.548  1.00  0.00    -0.100 A  
HETATM   12  C   UNL     1     -11.938  13.405  70.291  1.00  0.00    -0.378 A  
HETATM   13  C   UNL     1     -12.887  13.019  71.237  1.00  0.00    -0.370 A  
HETATM   14  C   UNL     1     -13.084  11.669  71.501  1.00  0.00    -0.405 A  
HETATM   15  C   UNL     1     -12.277  10.720  70.874  1.00  0.00    -0.487 A  
HETATM   16  C   UNL     1     -11.307  11.114  69.938  1.00  0.00    -0.348 A  
HETATM   17  C   UNL     1     -10.419  10.064  69.398  1.00  0.00    -0.232 C  
HETATM   18  O   UNL     1     -10.783   8.930  69.148  1.00  0.00    -0.217 OA 
HETATM   19  O   UNL     1      -9.136  10.483  69.279  1.00  0.00    -0.189 OA 
ENDBRANCH   9  11
ENDBRANCH   5   9
TORSDOF 2
ENDMDL
MODEL       69
REMARK 921   NORMALIZED FREE ENERGY PREDICTED BY IDOCK:   -5.22 KCAL/MOL
REMARK 922        TOTAL FREE ENERGY PREDICTED BY IDOCK:   -6.47 KCAL/MOL
REMARK 923 INTER-LIGAND FREE ENERGY PREDICTED BY IDOCK:   -6.35 KCAL/MOL
REMARK 924 INTRA-LIGAND FREE ENERGY PREDICTED BY IDOCK:   -0.12 KCAL/MOL
REMARK 927      BINDING AFFINITY PREDICTED BY RF-SCORE:    0.00 PKD
ROOT
HETATM    1  C   UNL     1     -11.305   6.817  72.308  1.00  0.00    -0.310 C  
HETATM    2  C   UNL     1     -11.639   8.234  71.926  1.00  0.00    -0.377 A  
HETATM    3  C   UNL     1     -10.729   9.093  71.271  1.00  0.00    -0.401 A  
HETATM    4  C   UNL     1      -9.270   8.738  71.160  1.00  0.00    -0.299 C  
HETATM    5  C   UNL     1     -11.222  10.282  70.690  1.00  0.00    -0.325 A  
HETATM    6  C   UNL     1     -12.933   8.684  72.220  1.00  0.00    -0.430 A  
HETATM    7  C   UNL     1     -12.501  10.733  71.060  1.00  0.00    -0.522 A  
HETATM    8  C   UNL     1     -13.348   9.953  71.829  1.00  0.00    -0.501 A  
ENDROOT
BRANCH   5   9
HETATM    9  N   UNL     1     -10.466  10.977  69.700  1.00  0.00    -0.447 NA 
HETATM   10  H   UNL     1      -9.464  10.790  69.656  1.00  0.00     0.000 HD 
BRANCH   9  11
HETATM   11  C   UNL     1     -11.001  11.912  68.767  1.00  0.00    -0.235 A  
HETATM   12  C   UNL     1     -11.679  13.055  69.226  1.00  0.00    -0.375 A  
HETATM   13  C   UNL     1     -12.049  14.087  68.365  1.00  0.00    -0.318 A  
HETATM   14  C   UNL     1     -11.793  13.971  67.004  1.00  0.00    -0.458 A  
HETATM   15  C   UNL     1     -11.242  12.791  66.505  1.00  0.00    -0.349 A  
HETATM   16  C   UNL     1     -10.892  11.744  67.374  1.00  0.00    -0.299 A  
HETATM   17  C   UNL     1     -10.415  10.487  66.763  1.00  0.00    -0.242 C  
HETATM   18  O   UNL     1      -9.713  10.438  65.769  1.00  0.00    -0.199 OA 
HETATM   19  O   UNL     1     -10.903   9.390  67.390  1.00  0.00    -0.263 OA 
ENDBRANCH   9  11
ENDBRANCH   5   9
TORSDOF 2
ENDMDL
MODEL       70
REMARK 921   NORMALIZED FREE ENERGY PREDICTED BY IDOCK:   -5.20 KCAL/MOL
REMARK 922        TOTAL FREE ENERGY PREDICTED BY IDOCK:   -6.45 KCAL/MOL
REMARK 923 INTER-LIGAND FREE ENERGY PREDICTED BY IDOCK:   -6.00 KCAL/MOL
REMARK 924 INTRA-LIGAND FREE ENERGY PREDICTED BY IDOCK:   -0.45 KCAL/MOL
REMARK 927      BINDING AFFINITY PREDICTED BY RF-SCORE:    0.00 PKD
ROOT
HETATM    1  C   UNL     1     -12.545  14.382  70.465  1.00  0.00    -0.417 C  
HETATM    2  C   UNL     1     -12.465  12.888  70.627  1.00  0.00    -0.333 A  
HETATM    3  C   UNL     1     -11.673  12.062  69.799  1.00  0.00    -0.390 A  
HETATM    4  C   UNL     1     -11.073  12.591  68.523  1.00  0.00    -0.297 C  
HETATM    5  C   UNL     1     -11.426  10.733  70.208  1.00  0.00    -0.319 A  
HETATM    6  C   UNL     1     -13.198  12.321  71.678  1.00  0.00    -0.356 A  
HETATM    7  C   UNL     1     -12.226  10.181  71.224  1.00  0.00    -0.496 A  
HETATM    8  C   UNL     1     -13.116  10.958  71.945  1.00  0.00    -0.537 A  
ENDROOT
BRANCH   5   9
HETATM    9  N   UNL     1     -10.345   9.988  69.650  1.00  0.00    -0.231 NA 
HETATM   10  H   UNL     1      -9.421  10.419  69.662  1.00  0.00     0.000 HD 
BRANCH   9  11
HETATM   11  C   UNL     1     -10.457   8.688  69.076  1.00  0.00    -0.199 A  
HETATM   12  C   UNL     1     -10.722   7.577  69.895  1.00  0.00    -0.254 A  
HETATM   13  C   UNL     1     -11.028   6.325  69.363  1.00  0.00    -0.440 A  
HETATM   14  C   UNL     1     -11.023   6.146  67.985  1.00  0.00    -0.399 A  
HETATM   15  C   UNL     1     -10.635   7.197  67.155  1.00  0.00    -0.417 A  
HETATM   16  C   UNL     1     -10.305   8.450  67.697  1.00  0.00    -0.317 A  
HETATM   17  C   UNL     1      -9.800   9.480  66.766  1.00  0.00    -0.216 C  
HETATM   18  O   UNL     1     -10.210   9.628  65.630  1.00  0.00    -0.253 OA 
HETATM   19  O   UNL     1      -8.779  10.197  67.294  1.00  0.00    -0.128 OA 
ENDBRANCH   9  11
ENDBRANCH   5   9
TORSDOF 2
ENDMDL
MODEL       71
REMARK 921   NORMALIZED FREE ENERGY PREDICTED BY IDOCK:   -5.19 KCAL/MOL
REMARK 922        TOTAL FREE ENERGY PREDICTED BY IDOCK:   -6.44 KCAL/MOL
REMARK 923 INTER-LIGAND FREE ENERGY PREDICTED BY IDOCK:   -5.78 KCAL/MOL
REMARK 924 INTRA-LIGAND FREE ENERGY PREDICTED BY IDOCK:   -0.66 KCAL/MOL
REMARK 927      BINDING AFFINITY PREDICTED BY RF-SCORE:    0.00 PKD
ROOT
HETATM    1  C   UNL     1      -8.880   8.767  70.373  1.00  0.00    -0.185 C  
HETATM    2  C   UNL     1      -9.796   9.878  69.934  1.00  0.00    -0.285 A  
HETATM    3  C   UNL     1      -9.369  10.962  69.136  1.00  0.00    -0.096 A  
HETATM    4  C   UNL     1      -7.905  11.223  68.902  1.00  0.00    -0.114 C  
HETATM    5  C   UNL     1     -10.348  11.782  68.531  1.00  0.00    -0.217 A  
HETATM    6  C   UNL     1     -11.139   9.789  70.327  1.00  0.00    -0.349 A  
HETATM    7  C   UNL     1     -11.671  11.707  68.997  1.00  0.00    -0.388 A  
HETATM    8  C   UNL     1     -12.067  10.732  69.898  1.00  0.00    -0.410 A  
ENDROOT
BRANCH   5   9
HETATM    9  N   UNL     1     -10.014  12.620  67.426  1.00  0.00    -0.203 NA 
HETATM   10  H   UNL     1      -9.667  13.557  67.634  1.00  0.00     0.000 HD 
BRANCH   9  11
HETATM   11  C   UNL     1     -10.127  12.251  66.055  1.00  0.00    -0.248 A  
HETATM   12  C   UNL     1      -9.226  11.327  65.497  1.00  0.00    -0.220 A  
HETATM   13  C   UNL     1      -9.412  10.794  64.222  1.00  0.00    -0.307 A  
HETATM   14  C   UNL     1     -10.487  11.219  63.451  1.00  0.00    -0.424 A  
HETATM   15  C   UNL     1     -11.320  12.230  63.928  1.00  0.00    -0.501 A  
HETATM   16  C   UNL     1     -11.115  12.781  65.203  1.00  0.00    -0.323 A  
HETATM   17  C   UNL     1     -11.969  13.921  65.595  1.00  0.00    -0.392 C  
HETATM   18  O   UNL     1     -13.144  14.022  65.296  1.00  0.00    -0.782 OA 
HETATM   19  O   UNL     1     -11.281  14.877  66.264  1.00  0.00    -0.340 OA 
ENDBRANCH   9  11
ENDBRANCH   5   9
TORSDOF 2
ENDMDL
MODEL       72
REMARK 921   NORMALIZED FREE ENERGY PREDICTED BY IDOCK:   -5.18 KCAL/MOL
REMARK 922        TOTAL FREE ENERGY PREDICTED BY IDOCK:   -6.43 KCAL/MOL
REMARK 923 INTER-LIGAND FREE ENERGY PREDICTED BY IDOCK:   -5.73 KCAL/MOL
REMARK 924 INTRA-LIGAND FREE ENERGY PREDICTED BY IDOCK:   -0.70 KCAL/MOL
REMARK 927      BINDING AFFINITY PREDICTED BY RF-SCORE:    0.00 PKD
ROOT
HETATM    1  C   UNL     1     -10.548  11.624  65.547  1.00  0.00    -0.329 C  
HETATM    2  C   UNL     1     -10.163  10.581  66.563  1.00  0.00    -0.288 A  
HETATM    3  C   UNL     1      -9.859  10.888  67.908  1.00  0.00    -0.189 A  
HETATM    4  C   UNL     1      -9.630  12.310  68.346  1.00  0.00    -0.183 C  
HETATM    5  C   UNL     1      -9.807   9.832  68.845  1.00  0.00    -0.173 A  
HETATM    6  C   UNL     1     -10.144   9.248  66.131  1.00  0.00    -0.304 A  
HETATM    7  C   UNL     1      -9.725   8.512  68.370  1.00  0.00    -0.169 A  
HETATM    8  C   UNL     1      -9.876   8.217  67.025  1.00  0.00    -0.298 A  
ENDROOT
BRANCH   5   9
HETATM    9  N   UNL     1      -9.901  10.095  70.244  1.00  0.00    -0.394 NA 
HETATM   10  H   UNL     1      -9.095  10.526  70.697  1.00  0.00     0.000 HD 
BRANCH   9  11
HETATM   11  C   UNL     1     -11.034   9.804  71.057  1.00  0.00    -0.332 A  
HETATM   12  C   UNL     1     -12.180  10.614  70.985  1.00  0.00    -0.498 A  
HETATM   13  C   UNL     1     -13.374  10.259  71.614  1.00  0.00    -0.451 A  
HETATM   14  C   UNL     1     -13.428   9.102  72.380  1.00  0.00    -0.535 A  
HETATM   15  C   UNL     1     -12.270   8.350  72.576  1.00  0.00    -0.381 A  
HETATM   16  C   UNL     1     -11.065   8.723  71.960  1.00  0.00    -0.441 A  
HETATM   17  C   UNL     1      -9.858   7.942  72.301  1.00  0.00    -0.215 C  
HETATM   18  O   UNL     1      -9.859   6.740  72.489  1.00  0.00    -0.164 OA 
HETATM   19  O   UNL     1      -8.762   8.723  72.450  1.00  0.00    -0.392 OA 
ENDBRANCH   9  11
ENDBRANCH   5   9
TORSDOF 2
ENDMDL
MODEL       73
REMARK 921   NORMALIZED FREE ENERGY PREDICTED BY IDOCK:   -5.14 KCAL/MOL
REMARK 922        TOTAL FREE ENERGY PREDICTED BY IDOCK:   -6.39 KCAL/MOL
REMARK 923 INTER-LIGAND FREE ENERGY PREDICTED BY IDOCK:   -5.78 KCAL/MOL
REMARK 924 INTRA-LIGAND FREE ENERGY PREDICTED BY IDOCK:   -0.61 KCAL/MOL
REMARK 927      BINDING AFFINITY PREDICTED BY RF-SCORE:    0.00 PKD
ROOT
HETATM    1  C   UNL     1     -12.952  12.379  71.300  1.00  0.00    -0.297 C  
HETATM    2  C   UNL     1     -12.380  13.760  71.121  1.00  0.00    -0.428 A  
HETATM    3  C   UNL     1     -11.716  14.176  69.946  1.00  0.00    -0.372 A  
HETATM    4  C   UNL     1     -11.291  13.179  68.902  1.00  0.00    -0.335 C  
HETATM    5  C   UNL     1     -11.486  15.556  69.754  1.00  0.00    -0.331 A  
HETATM    6  C   UNL     1     -12.559  14.664  72.177  1.00  0.00    -0.404 A  
HETATM    7  C   UNL     1     -11.614  16.421  70.854  1.00  0.00    -0.187 A  
HETATM    8  C   UNL     1     -12.131  15.983  72.062  1.00  0.00    -0.606 A  
ENDROOT
BRANCH   5   9
HETATM    9  N   UNL     1     -11.193  16.072  68.456  1.00  0.00    -0.358 NA 
HETATM   10  H   UNL     1     -11.533  15.543  67.652  1.00  0.00     0.000 HD 
BRANCH   9  11
HETATM   11  C   UNL     1     -10.464  17.267  68.195  1.00  0.00    -0.382 A  
HETATM   12  C   UNL     1     -11.138  18.425  67.768  1.00  0.00     0.054 A  
HETATM   13  C   UNL     1     -10.498  19.661  67.686  1.00  0.00    -0.579 A  
HETATM   14  C   UNL     1      -9.144  19.755  67.981  1.00  0.00    -0.393 A  
HETATM   15  C   UNL     1      -8.423  18.599  68.279  1.00  0.00    -0.350 A  
HETATM   16  C   UNL     1      -9.066  17.352  68.338  1.00  0.00    -0.274 A  
HETATM   17  C   UNL     1      -8.218  16.161  68.553  1.00  0.00    -0.186 C  
HETATM   18  O   UNL     1      -7.241  16.145  69.277  1.00  0.00    -0.209 OA 
HETATM   19  O   UNL     1      -8.609  15.107  67.798  1.00  0.00    -0.146 OA 
ENDBRANCH   9  11
ENDBRANCH   5   9
TORSDOF 2
ENDMDL
MODEL       74
REMARK 921   NORMALIZED FREE ENERGY PREDICTED BY IDOCK:   -5.09 KCAL/MOL
REMARK 922        TOTAL FREE ENERGY PREDICTED BY IDOCK:   -6.33 KCAL/MOL
REMARK 923 INTER-LIGAND FREE ENERGY PREDICTED BY IDOCK:   -5.82 KCAL/MOL
REMARK 924 INTRA-LIGAND FREE ENERGY PREDICTED BY IDOCK:   -0.51 KCAL/MOL
REMARK 927      BINDING AFFINITY PREDICTED BY RF-SCORE:    0.00 PKD
ROOT
HETATM    1  C   UNL     1     -13.762  12.992  72.429  1.00  0.00    -0.593 C  
HETATM    2  C   UNL     1     -12.873  13.907  71.630  1.00  0.00    -0.432 A  
HETATM    3  C   UNL     1     -12.223  13.510  70.441  1.00  0.00    -0.426 A  
HETATM    4  C   UNL     1     -12.154  12.059  70.043  1.00  0.00    -0.355 C  
HETATM    5  C   UNL     1     -11.664  14.507  69.611  1.00  0.00    -0.307 A  
HETATM    6  C   UNL     1     -12.727  15.221  72.097  1.00  0.00    -0.433 A  
HETATM    7  C   UNL     1     -11.477  15.796  70.138  1.00  0.00    -0.366 A  
HETATM    8  C   UNL     1     -11.988  16.152  71.376  1.00  0.00    -0.451 A  
ENDROOT
BRANCH   5   9
HETATM    9  N   UNL     1     -11.357  14.230  68.246  1.00  0.00    -0.274 NA 
HETATM   10  H   UNL     1     -12.075  14.436  67.551  1.00  0.00     0.000 HD 
BRANCH   9  11
HETATM   11  C   UNL     1     -10.125  13.689  67.777  1.00  0.00    -0.242 A  
HETATM   12  C   UNL     1      -8.930  14.411  67.940  1.00  0.00    -0.186 A  
HETATM   13  C   UNL     1      -7.684  13.845  67.674  1.00  0.00    -0.193 A  
HETATM   14  C   UNL     1      -7.611  12.547  67.184  1.00  0.00    -0.087 A  
HETATM   15  C   UNL     1      -8.785  11.855  66.888  1.00  0.00    -0.191 A  
HETATM   16  C   UNL     1     -10.039  12.438  67.136  1.00  0.00    -0.221 A  
HETATM   17  C   UNL     1     -11.234  11.689  66.698  1.00  0.00    -0.299 C  
HETATM   18  O   UNL     1     -11.334  10.477  66.756  1.00  0.00    -0.153 OA 
HETATM   19  O   UNL     1     -12.180  12.494  66.158  1.00  0.00    -0.609 OA 
ENDBRANCH   9  11
ENDBRANCH   5   9
TORSDOF 2
ENDMDL
MODEL       75
REMARK 921   NORMALIZED FREE ENERGY PREDICTED BY IDOCK:   -5.09 KCAL/MOL
REMARK 922        TOTAL FREE ENERGY PREDICTED BY IDOCK:   -6.32 KCAL/MOL
REMARK 923 INTER-LIGAND FREE ENERGY PREDICTED BY IDOCK:   -5.75 KCAL/MOL
REMARK 924 INTRA-LIGAND FREE ENERGY PREDICTED BY IDOCK:   -0.57 KCAL/MOL
REMARK 927      BINDING AFFINITY PREDICTED BY RF-SCORE:    0.00 PKD
ROOT
HETATM    1  C   UNL     1     -12.105   8.871  72.032  1.00  0.00    -0.442 C  
HETATM    2  C   UNL     1     -11.527   9.073  70.656  1.00  0.00    -0.291 A  
HETATM    3  C   UNL     1     -11.529  10.319  69.992  1.00  0.00    -0.367 A  
HETATM    4  C   UNL     1     -12.357  11.468  70.502  1.00  0.00    -0.432 C  
HETATM    5  C   UNL     1     -10.708  10.478  68.853  1.00  0.00    -0.220 A  
HETATM    6  C   UNL     1     -10.939   7.958  70.043  1.00  0.00    -0.208 A  
HETATM    7  C   UNL     1     -10.189   9.330  68.231  1.00  0.00    -0.236 A  
HETATM    8  C   UNL     1     -10.313   8.077  68.807  1.00  0.00    -0.223 A  
ENDROOT
BRANCH   5   9
HETATM    9  N   UNL     1     -10.360  11.779  68.383  1.00  0.00    -0.208 NA 
HETATM   10  H   UNL     1      -9.579  12.251  68.839  1.00  0.00     0.000 HD 
BRANCH   9  11
HETATM   11  C   UNL     1     -11.018  12.471  67.326  1.00  0.00    -0.261 A  
HETATM   12  C   UNL     1     -11.130  11.876  66.057  1.00  0.00    -0.369 A  
HETATM   13  C   UNL     1     -11.926  12.426  65.053  1.00  0.00    -0.458 A  
HETATM   14  C   UNL     1     -12.590  13.624  65.283  1.00  0.00    -0.512 A  
HETATM   15  C   UNL     1     -12.391  14.302  66.485  1.00  0.00    -0.345 A  
HETATM   16  C   UNL     1     -11.571  13.756  67.485  1.00  0.00    -0.387 A  
HETATM   17  C   UNL     1     -11.322  14.581  68.684  1.00  0.00    -0.276 C  
HETATM   18  O   UNL     1     -12.158  15.302  69.198  1.00  0.00    -0.304 OA 
HETATM   19  O   UNL     1     -10.038  14.502  69.109  1.00  0.00    -0.214 OA 
ENDBRANCH   9  11
ENDBRANCH   5   9
TORSDOF 2
ENDMDL
MODEL       76
REMARK 921   NORMALIZED FREE ENERGY PREDICTED BY IDOCK:   -5.06 KCAL/MOL
REMARK 922        TOTAL FREE ENERGY PREDICTED BY IDOCK:   -6.29 KCAL/MOL
REMARK 923 INTER-LIGAND FREE ENERGY PREDICTED BY IDOCK:   -5.63 KCAL/MOL
REMARK 924 INTRA-LIGAND FREE ENERGY PREDICTED BY IDOCK:   -0.66 KCAL/MOL
REMARK 927      BINDING AFFINITY PREDICTED BY RF-SCORE:    0.00 PKD
ROOT
HETATM    1  C   UNL     1     -13.135  11.295  71.881  1.00  0.00    -0.510 C  
HETATM    2  C   UNL     1     -13.139   9.816  71.599  1.00  0.00    -0.516 A  
HETATM    3  C   UNL     1     -12.049   9.139  71.010  1.00  0.00    -0.324 A  
HETATM    4  C   UNL     1     -10.917   9.899  70.371  1.00  0.00    -0.379 C  
HETATM    5  C   UNL     1     -12.024   7.727  71.061  1.00  0.00    -0.262 A  
HETATM    6  C   UNL     1     -14.282   9.099  71.978  1.00  0.00    -0.319 A  
HETATM    7  C   UNL     1     -13.209   7.043  71.384  1.00  0.00    -0.352 A  
HETATM    8  C   UNL     1     -14.335   7.718  71.824  1.00  0.00    -0.594 A  
ENDROOT
BRANCH   5   9
HETATM    9  N   UNL     1     -10.807   7.012  70.853  1.00  0.00    -0.236 NA 
HETATM   10  H   UNL     1     -10.052   7.165  71.522  1.00  0.00     0.000 HD 
BRANCH   9  11
HETATM   11  C   UNL     1     -10.565   6.102  69.785  1.00  0.00    -0.280 A  
HETATM   12  C   UNL     1     -11.033   6.392  68.491  1.00  0.00    -0.396 A  
HETATM   13  C   UNL     1     -10.658   5.632  67.384  1.00  0.00    -0.312 A  
HETATM   14  C   UNL     1      -9.840   4.522  67.558  1.00  0.00    -0.191 A  
HETATM   15  C   UNL     1      -9.469   4.136  68.845  1.00  0.00    -0.238 A  
HETATM   16  C   UNL     1      -9.868   4.891  69.960  1.00  0.00    -0.304 A  
HETATM   17  C   UNL     1      -9.528   4.360  71.296  1.00  0.00    -0.157 C  
HETATM   18  O   UNL     1      -8.488   3.782  71.552  1.00  0.00    -0.078 OA 
HETATM   19  O   UNL     1     -10.533   4.525  72.189  1.00  0.00    -0.187 OA 
ENDBRANCH   9  11
ENDBRANCH   5   9
TORSDOF 2
ENDMDL
MODEL       77
REMARK 921   NORMALIZED FREE ENERGY PREDICTED BY IDOCK:   -5.05 KCAL/MOL
REMARK 922        TOTAL FREE ENERGY PREDICTED BY IDOCK:   -6.29 KCAL/MOL
REMARK 923 INTER-LIGAND FREE ENERGY PREDICTED BY IDOCK:   -5.71 KCAL/MOL
REMARK 924 INTRA-LIGAND FREE ENERGY PREDICTED BY IDOCK:   -0.58 KCAL/MOL
REMARK 927      BINDING AFFINITY PREDICTED BY RF-SCORE:    0.00 PKD
ROOT
HETATM    1  C   UNL     1     -10.884  19.141  67.541  1.00  0.00    -0.512 C  
HETATM    2  C   UNL     1      -9.947  17.994  67.269  1.00  0.00    -0.324 A  
HETATM    3  C   UNL     1     -10.267  16.649  67.556  1.00  0.00    -0.289 A  
HETATM    4  C   UNL     1     -11.456  16.300  68.410  1.00  0.00    -0.243 C  
HETATM    5  C   UNL     1      -9.464  15.630  66.996  1.00  0.00    -0.224 A  
HETATM    6  C   UNL     1      -8.717  18.306  66.673  1.00  0.00    -0.289 A  
HETATM    7  C   UNL     1      -8.209  15.976  66.465  1.00  0.00    -0.334 A  
HETATM    8  C   UNL     1      -7.827  17.299  66.316  1.00  0.00    -0.344 A  
ENDROOT
BRANCH   5   9
HETATM    9  N   UNL     1      -9.943  14.289  66.912  1.00  0.00    -0.257 NA 
HETATM   10  H   UNL     1      -9.762  13.674  67.706  1.00  0.00     0.000 HD 
BRANCH   9  11
HETATM   11  C   UNL     1     -10.655  13.742  65.806  1.00  0.00    -0.293 A  
HETATM   12  C   UNL     1     -11.747  14.438  65.257  1.00  0.00    -0.364 A  
HETATM   13  C   UNL     1     -12.350  14.040  64.065  1.00  0.00    -0.341 A  
HETATM   14  C   UNL     1     -11.902  12.895  63.418  1.00  0.00    -0.576 A  
HETATM   15  C   UNL     1     -10.910  12.114  64.009  1.00  0.00    -0.436 A  
HETATM   16  C   UNL     1     -10.321  12.506  65.222  1.00  0.00    -0.310 A  
HETATM   17  C   UNL     1      -9.355  11.574  65.840  1.00  0.00    -0.226 C  
HETATM   18  O   UNL     1      -8.565  10.898  65.208  1.00  0.00    -0.172 OA 
HETATM   19  O   UNL     1      -9.495  11.502  67.186  1.00  0.00    -0.175 OA 
ENDBRANCH   9  11
ENDBRANCH   5   9
TORSDOF 2
ENDMDL
MODEL       78
REMARK 921   NORMALIZED FREE ENERGY PREDICTED BY IDOCK:   -5.05 KCAL/MOL
REMARK 922        TOTAL FREE ENERGY PREDICTED BY IDOCK:   -6.28 KCAL/MOL
REMARK 923 INTER-LIGAND FREE ENERGY PREDICTED BY IDOCK:   -5.88 KCAL/MOL
REMARK 924 INTRA-LIGAND FREE ENERGY PREDICTED BY IDOCK:   -0.40 KCAL/MOL
REMARK 927      BINDING AFFINITY PREDICTED BY RF-SCORE:    0.00 PKD
ROOT
HETATM    1  C   UNL     1     -12.364  12.636  64.228  1.00  0.00    -0.517 C  
HETATM    2  C   UNL     1     -11.194  11.793  64.661  1.00  0.00    -0.349 A  
HETATM    3  C   UNL     1     -10.849  11.588  66.015  1.00  0.00    -0.330 A  
HETATM    4  C   UNL     1     -11.461  12.424  67.107  1.00  0.00    -0.423 C  
HETATM    5  C   UNL     1      -9.938  10.555  66.330  1.00  0.00    -0.218 A  
HETATM    6  C   UNL     1     -10.450  11.170  63.651  1.00  0.00    -0.438 A  
HETATM    7  C   UNL     1      -9.165  10.000  65.297  1.00  0.00    -0.268 A  
HETATM    8  C   UNL     1      -9.403  10.311  63.968  1.00  0.00    -0.337 A  
ENDROOT
BRANCH   5   9
HETATM    9  N   UNL     1      -9.851  10.041  67.658  1.00  0.00    -0.158 NA 
HETATM   10  H   UNL     1      -9.391  10.622  68.359  1.00  0.00     0.000 HD 
BRANCH   9  11
HETATM   11  C   UNL     1     -10.358   8.778  68.082  1.00  0.00    -0.216 A  
HETATM   12  C   UNL     1     -10.660   7.786  67.133  1.00  0.00    -0.401 A  
HETATM   13  C   UNL     1     -10.973   6.480  67.508  1.00  0.00    -0.444 A  
HETATM   14  C   UNL     1     -11.043   6.150  68.855  1.00  0.00    -0.417 A  
HETATM   15  C   UNL     1     -10.877   7.146  69.818  1.00  0.00    -0.261 A  
HETATM   16  C   UNL     1     -10.585   8.465  69.436  1.00  0.00    -0.204 A  
HETATM   17  C   UNL     1     -10.530   9.484  70.504  1.00  0.00    -0.296 C  
HETATM   18  O   UNL     1     -10.083   9.278  71.617  1.00  0.00    -0.311 OA 
HETATM   19  O   UNL     1     -11.099  10.655  70.130  1.00  0.00    -0.288 OA 
ENDBRANCH   9  11
ENDBRANCH   5   9
TORSDOF 2
ENDMDL
MODEL       79
REMARK 921   NORMALIZED FREE ENERGY PREDICTED BY IDOCK:   -5.02 KCAL/MOL
REMARK 922        TOTAL FREE ENERGY PREDICTED BY IDOCK:   -6.26 KCAL/MOL
REMARK 923 INTER-LIGAND FREE ENERGY PREDICTED BY IDOCK:   -5.64 KCAL/MOL
REMARK 924 INTRA-LIGAND FREE ENERGY PREDICTED BY IDOCK:   -0.62 KCAL/MOL
REMARK 927      BINDING AFFINITY PREDICTED BY RF-SCORE:    0.00 PKD
ROOT
HETATM    1  C   UNL     1     -11.958  12.606  66.026  1.00  0.00    -0.478 C  
HETATM    2  C   UNL     1     -11.550  14.054  66.081  1.00  0.00    -0.374 A  
HETATM    3  C   UNL     1     -11.431  14.777  67.288  1.00  0.00    -0.378 A  
HETATM    4  C   UNL     1     -11.974  14.226  68.580  1.00  0.00    -0.352 C  
HETATM    5  C   UNL     1     -10.760  16.020  67.267  1.00  0.00    -0.295 A  
HETATM    6  C   UNL     1     -11.250  14.678  64.863  1.00  0.00    -0.400 A  
HETATM    7  C   UNL     1     -10.535  16.643  66.027  1.00  0.00    -0.306 A  
HETATM    8  C   UNL     1     -10.790  15.990  64.833  1.00  0.00    -0.391 A  
ENDROOT
BRANCH   5   9
HETATM    9  N   UNL     1     -10.263  16.601  68.471  1.00  0.00    -0.264 NA 
HETATM   10  H   UNL     1     -10.929  16.757  69.228  1.00  0.00     0.000 HD 
BRANCH   9  11
HETATM   11  C   UNL     1      -8.909  16.979  68.700  1.00  0.00    -0.267 A  
HETATM   12  C   UNL     1      -7.998  16.050  69.231  1.00  0.00    -0.217 A  
HETATM   13  C   UNL     1      -6.629  16.312  69.293  1.00  0.00    -0.197 A  
HETATM   14  C   UNL     1      -6.147  17.543  68.868  1.00  0.00    -0.195 A  
HETATM   15  C   UNL     1      -7.043  18.531  68.460  1.00  0.00    -0.293 A  
HETATM   16  C   UNL     1      -8.422  18.271  68.422  1.00  0.00    -0.319 A  
HETATM   17  C   UNL     1      -9.316  19.397  68.083  1.00  0.00    -0.342 C  
HETATM   18  O   UNL     1      -9.045  20.257  67.265  1.00  0.00    -0.356 OA 
HETATM   19  O   UNL     1     -10.442  19.408  68.836  1.00  0.00    -0.212 OA 
ENDBRANCH   9  11
ENDBRANCH   5   9
TORSDOF 2
ENDMDL
MODEL       80
REMARK 921   NORMALIZED FREE ENERGY PREDICTED BY IDOCK:   -4.99 KCAL/MOL
REMARK 922        TOTAL FREE ENERGY PREDICTED BY IDOCK:   -6.21 KCAL/MOL
REMARK 923 INTER-LIGAND FREE ENERGY PREDICTED BY IDOCK:   -5.92 KCAL/MOL
REMARK 924 INTRA-LIGAND FREE ENERGY PREDICTED BY IDOCK:   -0.30 KCAL/MOL
REMARK 927      BINDING AFFINITY PREDICTED BY RF-SCORE:    0.00 PKD
ROOT
HETATM    1  C   UNL     1     -12.595  13.414  65.448  1.00  0.00    -0.528 C  
HETATM    2  C   UNL     1     -11.247  14.003  65.772  1.00  0.00    -0.303 A  
HETATM    3  C   UNL     1     -10.834  15.277  65.326  1.00  0.00    -0.417 A  
HETATM    4  C   UNL     1     -11.606  16.016  64.265  1.00  0.00    -0.139 C  
HETATM    5  C   UNL     1      -9.694  15.863  65.920  1.00  0.00    -0.351 A  
HETATM    6  C   UNL     1     -10.397  13.238  66.582  1.00  0.00    -0.274 A  
HETATM    7  C   UNL     1      -8.832  15.048  66.673  1.00  0.00    -0.307 A  
HETATM    8  C   UNL     1      -9.167  13.743  66.992  1.00  0.00    -0.256 A  
ENDROOT
BRANCH   5   9
HETATM    9  N   UNL     1      -9.458  17.266  65.813  1.00  0.00    -0.527 NA 
HETATM   10  H   UNL     1     -10.095  17.808  65.229  1.00  0.00     0.000 HD 
BRANCH   9  11
HETATM   11  C   UNL     1      -8.401  17.970  66.460  1.00  0.00    -0.268 A  
HETATM   12  C   UNL     1      -7.076  17.812  66.018  1.00  0.00    -0.335 A  
HETATM   13  C   UNL     1      -6.041  18.619  66.490  1.00  0.00    -0.182 A  
HETATM   14  C   UNL     1      -6.305  19.575  67.463  1.00  0.00    -0.217 A  
HETATM   15  C   UNL     1      -7.583  19.662  68.014  1.00  0.00    -0.334 A  
HETATM   16  C   UNL     1      -8.617  18.832  67.552  1.00  0.00    -0.292 A  
HETATM   17  C   UNL     1      -9.914  18.907  68.256  1.00  0.00    -0.376 C  
HETATM   18  O   UNL     1     -10.390  19.938  68.694  1.00  0.00    -0.446 OA 
HETATM   19  O   UNL     1     -10.482  17.689  68.425  1.00  0.00    -0.364 OA 
ENDBRANCH   9  11
ENDBRANCH   5   9
TORSDOF 2
ENDMDL
MODEL       81
REMARK 921   NORMALIZED FREE ENERGY PREDICTED BY IDOCK:   -4.98 KCAL/MOL
REMARK 922        TOTAL FREE ENERGY PREDICTED BY IDOCK:   -6.21 KCAL/MOL
REMARK 923 INTER-LIGAND FREE ENERGY PREDICTED BY IDOCK:   -5.61 KCAL/MOL
REMARK 924 INTRA-LIGAND FREE ENERGY PREDICTED BY IDOCK:   -0.60 KCAL/MOL
REMARK 927      BINDING AFFINITY PREDICTED BY RF-SCORE:    0.00 PKD
ROOT
HETATM    1  C   UNL     1     -10.746  10.916  65.646  1.00  0.00    -0.178 C  
HETATM    2  C   UNL     1     -10.905  12.413  65.627  1.00  0.00    -0.312 A  
HETATM    3  C   UNL     1     -10.164  13.279  66.460  1.00  0.00    -0.283 A  
HETATM    4  C   UNL     1      -9.365  12.745  67.619  1.00  0.00    -0.191 C  
HETATM    5  C   UNL     1     -10.160  14.660  66.164  1.00  0.00    -0.300 A  
HETATM    6  C   UNL     1     -11.818  12.944  64.706  1.00  0.00    -0.409 A  
HETATM    7  C   UNL     1     -11.133  15.164  65.283  1.00  0.00    -0.389 A  
HETATM    8  C   UNL     1     -11.967  14.320  64.570  1.00  0.00    -0.478 A  
ENDROOT
BRANCH   5   9
HETATM    9  N   UNL     1      -9.150  15.516  66.696  1.00  0.00    -0.255 NA 
HETATM   10  H   UNL     1      -8.228  15.111  66.860  1.00  0.00     0.000 HD 
BRANCH   9  11
HETATM   11  C   UNL     1      -9.328  16.893  67.015  1.00  0.00    -0.235 A  
HETATM   12  C   UNL     1      -8.971  17.884  66.084  1.00  0.00    -0.122 A  
HETATM   13  C   UNL     1      -9.303  19.226  66.273  1.00  0.00    -0.375 A  
HETATM   14  C   UNL     1      -9.958  19.614  67.435  1.00  0.00    -0.510 A  
HETATM   15  C   UNL     1     -10.206  18.672  68.433  1.00  0.00    -0.415 A  
HETATM   16  C   UNL     1      -9.849  17.327  68.249  1.00  0.00    -0.304 A  
HETATM   17  C   UNL     1     -10.045  16.411  69.392  1.00  0.00    -0.243 C  
HETATM   18  O   UNL     1     -10.985  16.477  70.162  1.00  0.00    -0.347 OA 
HETATM   19  O   UNL     1      -9.024  15.532  69.530  1.00  0.00    -0.268 OA 
ENDBRANCH   9  11
ENDBRANCH   5   9
TORSDOF 2
ENDMDL
MODEL       82
REMARK 921   NORMALIZED FREE ENERGY PREDICTED BY IDOCK:   -4.97 KCAL/MOL
REMARK 922        TOTAL FREE ENERGY PREDICTED BY IDOCK:   -6.19 KCAL/MOL
REMARK 923 INTER-LIGAND FREE ENERGY PREDICTED BY IDOCK:   -5.74 KCAL/MOL
REMARK 924 INTRA-LIGAND FREE ENERGY PREDICTED BY IDOCK:   -0.45 KCAL/MOL
REMARK 927      BINDING AFFINITY PREDICTED BY RF-SCORE:    0.00 PKD
ROOT
HETATM    1  C   UNL     1      -8.276  16.175  69.147  1.00  0.00    -0.230 C  
HETATM    2  C   UNL     1      -9.620  15.506  69.027  1.00  0.00    -0.238 A  
HETATM    3  C   UNL     1      -9.902  14.505  68.071  1.00  0.00    -0.222 A  
HETATM    4  C   UNL     1      -8.961  14.239  66.926  1.00  0.00    -0.255 C  
HETATM    5  C   UNL     1     -11.075  13.733  68.228  1.00  0.00    -0.255 A  
HETATM    6  C   UNL     1     -10.608  15.894  69.942  1.00  0.00    -0.327 A  
HETATM    7  C   UNL     1     -12.070  14.191  69.109  1.00  0.00    -0.362 A  
HETATM    8  C   UNL     1     -11.851  15.269  69.950  1.00  0.00    -0.363 A  
ENDROOT
BRANCH   5   9
HETATM    9  N   UNL     1     -11.218  12.483  67.557  1.00  0.00    -0.274 NA 
HETATM   10  H   UNL     1     -11.190  11.637  68.127  1.00  0.00     0.000 HD 
BRANCH   9  11
HETATM   11  C   UNL     1     -11.399  12.323  66.153  1.00  0.00    -0.353 A  
HETATM   12  C   UNL     1     -12.326  13.126  65.466  1.00  0.00    -0.529 A  
HETATM   13  C   UNL     1     -12.399  13.140  64.073  1.00  0.00    -0.425 A  
HETATM   14  C   UNL     1     -11.574  12.302  63.334  1.00  0.00    -0.530 A  
HETATM   15  C   UNL     1     -10.738  11.401  63.994  1.00  0.00    -0.450 A  
HETATM   16  C   UNL     1     -10.685  11.374  65.397  1.00  0.00    -0.313 A  
HETATM   17  C   UNL     1      -9.859  10.322  66.024  1.00  0.00    -0.233 C  
HETATM   18  O   UNL     1      -8.799   9.932  65.572  1.00  0.00    -0.144 OA 
HETATM   19  O   UNL     1     -10.448   9.788  67.121  1.00  0.00    -0.243 OA 
ENDBRANCH   9  11
ENDBRANCH   5   9
TORSDOF 2
ENDMDL
MODEL       83
REMARK 921   NORMALIZED FREE ENERGY PREDICTED BY IDOCK:   -4.96 KCAL/MOL
REMARK 922        TOTAL FREE ENERGY PREDICTED BY IDOCK:   -6.18 KCAL/MOL
REMARK 923 INTER-LIGAND FREE ENERGY PREDICTED BY IDOCK:   -5.65 KCAL/MOL
REMARK 924 INTRA-LIGAND FREE ENERGY PREDICTED BY IDOCK:   -0.53 KCAL/MOL
REMARK 927      BINDING AFFINITY PREDICTED BY RF-SCORE:    0.00 PKD
ROOT
HETATM    1  C   UNL     1      -6.883  16.974  69.028  1.00  0.00    -0.229 C  
HETATM    2  C   UNL     1      -8.320  16.936  68.581  1.00  0.00    -0.261 A  
HETATM    3  C   UNL     1      -9.076  15.746  68.508  1.00  0.00    -0.194 A  
HETATM    4  C   UNL     1      -8.412  14.398  68.607  1.00  0.00    -0.156 C  
HETATM    5  C   UNL     1     -10.479  15.844  68.373  1.00  0.00    -0.254 A  
HETATM    6  C   UNL     1      -8.918  18.162  68.258  1.00  0.00    -0.306 A  
HETATM    7  C   UNL     1     -11.034  17.076  67.986  1.00  0.00    -0.252 A  
HETATM    8  C   UNL     1     -10.264  18.224  67.912  1.00  0.00    -0.400 A  
ENDROOT
BRANCH   5   9
HETATM    9  N   UNL     1     -11.320  14.735  68.686  1.00  0.00    -0.271 NA 
HETATM   10  H   UNL     1     -11.530  14.077  67.935  1.00  0.00     0.000 HD 
BRANCH   9  11
HETATM   11  C   UNL     1     -11.888  14.474  69.966  1.00  0.00    -0.313 A  
HETATM   12  C   UNL     1     -12.078  15.526  70.880  1.00  0.00    -0.433 A  
HETATM   13  C   UNL     1     -12.801  15.355  72.060  1.00  0.00    -0.468 A  
HETATM   14  C   UNL     1     -13.308  14.101  72.378  1.00  0.00    -0.591 A  
HETATM   15  C   UNL     1     -13.022  13.013  71.555  1.00  0.00    -0.398 A  
HETATM   16  C   UNL     1     -12.274  13.185  70.379  1.00  0.00    -0.389 A  
HETATM   17  C   UNL     1     -11.920  11.970  69.617  1.00  0.00    -0.293 C  
HETATM   18  O   UNL     1     -12.656  11.010  69.488  1.00  0.00    -0.289 OA 
HETATM   19  O   UNL     1     -10.655  12.014  69.134  1.00  0.00    -0.150 OA 
ENDBRANCH   9  11
ENDBRANCH   5   9
TORSDOF 2
ENDMDL
MODEL       84
REMARK 921   NORMALIZED FREE ENERGY PREDICTED BY IDOCK:   -4.93 KCAL/MOL
REMARK 922        TOTAL FREE ENERGY PREDICTED BY IDOCK:   -6.15 KCAL/MOL
REMARK 923 INTER-LIGAND FREE ENERGY PREDICTED BY IDOCK:   -5.97 KCAL/MOL
REMARK 924 INTRA-LIGAND FREE ENERGY PREDICTED BY IDOCK:   -0.18 KCAL/MOL
REMARK 927      BINDING AFFINITY PREDICTED BY RF-SCORE:    0.00 PKD
ROOT
HETATM    1  C   UNL     1      -7.356  17.976  69.328  1.00  0.00    -0.031 C  
HETATM    2  C   UNL     1      -7.941  16.621  69.028  1.00  0.00    -0.208 A  
HETATM    3  C   UNL     1      -9.319  16.405  68.806  1.00  0.00    -0.245 A  
HETATM    4  C   UNL     1     -10.332  17.471  69.129  1.00  0.00    -0.239 C  
HETATM    5  C   UNL     1      -9.727  15.177  68.241  1.00  0.00    -0.219 A  
HETATM    6  C   UNL     1      -7.045  15.547  68.941  1.00  0.00    -0.134 A  
HETATM    7  C   UNL     1      -8.818  14.105  68.230  1.00  0.00    -0.187 A  
HETATM    8  C   UNL     1      -7.492  14.278  68.590  1.00  0.00    -0.127 A  
ENDROOT
BRANCH   5   9
HETATM    9  N   UNL     1     -11.012  15.045  67.635  1.00  0.00    -0.295 NA 
HETATM   10  H   UNL     1     -11.782  15.574  68.045  1.00  0.00     0.000 HD 
BRANCH   9  11
HETATM   11  C   UNL     1     -11.303  14.232  66.502  1.00  0.00    -0.346 A  
HETATM   12  C   UNL     1     -11.493  12.848  66.658  1.00  0.00    -0.393 A  
HETATM   13  C   UNL     1     -11.965  12.047  65.619  1.00  0.00    -0.151 A  
HETATM   14  C   UNL     1     -12.210  12.612  64.374  1.00  0.00    -0.518 A  
HETATM   15  C   UNL     1     -11.905  13.955  64.155  1.00  0.00    -0.417 A  
HETATM   16  C   UNL     1     -11.407  14.753  65.199  1.00  0.00    -0.379 A  
HETATM   17  C   UNL     1     -11.007  16.135  64.864  1.00  0.00    -0.349 C  
HETATM   18  O   UNL     1     -11.597  16.838  64.066  1.00  0.00    -1.195 OA 
HETATM   19  O   UNL     1      -9.867  16.509  65.493  1.00  0.00    -0.537 OA 
ENDBRANCH   9  11
ENDBRANCH   5   9
TORSDOF 2
ENDMDL
MODEL       85
REMARK 921   NORMALIZED FREE ENERGY PREDICTED BY IDOCK:   -4.92 KCAL/MOL
REMARK 922        TOTAL FREE ENERGY PREDICTED BY IDOCK:   -6.14 KCAL/MOL
REMARK 923 INTER-LIGAND FREE ENERGY PREDICTED BY IDOCK:   -5.80 KCAL/MOL
REMARK 924 INTRA-LIGAND FREE ENERGY PREDICTED BY IDOCK:   -0.34 KCAL/MOL
REMARK 927      BINDING AFFINITY PREDICTED BY RF-SCORE:    0.00 PKD
ROOT
HETATM    1  C   UNL     1     -13.141  14.272  70.831  1.00  0.00    -0.368 C  
HETATM    2  C   UNL     1     -12.247  13.212  70.246  1.00  0.00    -0.376 A  
HETATM    3  C   UNL     1     -12.333  11.847  70.599  1.00  0.00    -0.405 A  
HETATM    4  C   UNL     1     -13.140  11.404  71.791  1.00  0.00    -0.523 C  
HETATM    5  C   UNL     1     -11.672  10.897  69.790  1.00  0.00    -0.338 A  
HETATM    6  C   UNL     1     -11.315  13.625  69.285  1.00  0.00    -0.323 A  
HETATM    7  C   UNL     1     -10.698  11.347  68.882  1.00  0.00    -0.248 A  
HETATM    8  C   UNL     1     -10.505  12.697  68.638  1.00  0.00    -0.224 A  
ENDROOT
BRANCH   5   9
HETATM    9  N   UNL     1     -12.030   9.517  69.845  1.00  0.00    -0.428 NA 
HETATM   10  H   UNL     1     -12.820   9.214  69.276  1.00  0.00     0.000 HD 
BRANCH   9  11
HETATM   11  C   UNL     1     -11.370   8.531  70.633  1.00  0.00    -0.241 A  
HETATM   12  C   UNL     1     -11.153   8.753  72.004  1.00  0.00    -0.441 A  
HETATM   13  C   UNL     1     -10.688   7.746  72.849  1.00  0.00    -0.446 A  
HETATM   14  C   UNL     1     -10.376   6.498  72.323  1.00  0.00    -0.212 A  
HETATM   15  C   UNL     1     -10.456   6.292  70.946  1.00  0.00    -0.274 A  
HETATM   16  C   UNL     1     -10.903   7.316  70.096  1.00  0.00    -0.274 A  
HETATM   17  C   UNL     1     -10.858   7.058  68.642  1.00  0.00    -0.147 C  
HETATM   18  O   UNL     1     -11.103   5.979  68.136  1.00  0.00    -0.306 OA 
HETATM   19  O   UNL     1     -10.446   8.139  67.938  1.00  0.00    -0.222 OA 
ENDBRANCH   9  11
ENDBRANCH   5   9
TORSDOF 2
ENDMDL
MODEL       86
REMARK 921   NORMALIZED FREE ENERGY PREDICTED BY IDOCK:   -4.91 KCAL/MOL
REMARK 922        TOTAL FREE ENERGY PREDICTED BY IDOCK:   -6.13 KCAL/MOL
REMARK 923 INTER-LIGAND FREE ENERGY PREDICTED BY IDOCK:   -5.90 KCAL/MOL
REMARK 924 INTRA-LIGAND FREE ENERGY PREDICTED BY IDOCK:   -0.23 KCAL/MOL
REMARK 927      BINDING AFFINITY PREDICTED BY RF-SCORE:    0.00 PKD
ROOT
HETATM    1  C   UNL     1     -11.025  10.890  68.081  1.00  0.00    -0.302 C  
HETATM    2  C   UNL     1     -10.884  12.270  68.666  1.00  0.00    -0.268 A  
HETATM    3  C   UNL     1      -9.933  13.210  68.211  1.00  0.00    -0.236 A  
HETATM    4  C   UNL     1      -8.811  12.797  67.296  1.00  0.00    -0.198 C  
HETATM    5  C   UNL     1     -10.074  14.559  68.607  1.00  0.00    -0.244 A  
HETATM    6  C   UNL     1     -11.774  12.620  69.691  1.00  0.00    -0.373 A  
HETATM    7  C   UNL     1     -10.930  14.860  69.680  1.00  0.00    -0.294 A  
HETATM    8  C   UNL     1     -11.763  13.902  70.232  1.00  0.00    -0.294 A  
ENDROOT
BRANCH   5   9
HETATM    9  N   UNL     1      -9.414  15.601  67.890  1.00  0.00    -0.204 NA 
HETATM   10  H   UNL     1      -8.555  15.360  67.395  1.00  0.00     0.000 HD 
BRANCH   9  11
HETATM   11  C   UNL     1      -9.860  16.951  67.813  1.00  0.00    -0.252 A  
HETATM   12  C   UNL     1      -9.667  17.821  68.901  1.00  0.00    -0.262 A  
HETATM   13  C   UNL     1      -9.911  19.190  68.802  1.00  0.00    -0.493 A  
HETATM   14  C   UNL     1     -10.409  19.715  67.616  1.00  0.00    -0.583 A  
HETATM   15  C   UNL     1     -10.734  18.856  66.566  1.00  0.00    -0.375 A  
HETATM   16  C   UNL     1     -10.508  17.475  66.678  1.00  0.00    -0.270 A  
HETATM   17  C   UNL     1     -10.976  16.619  65.568  1.00  0.00    -0.059 C  
HETATM   18  O   UNL     1     -10.929  16.941  64.396  1.00  0.00    -1.016 OA 
HETATM   19  O   UNL     1     -11.530  15.462  66.006  1.00  0.00    -0.180 OA 
ENDBRANCH   9  11
ENDBRANCH   5   9
TORSDOF 2
ENDMDL
MODEL       87
REMARK 921   NORMALIZED FREE ENERGY PREDICTED BY IDOCK:   -4.91 KCAL/MOL
REMARK 922        TOTAL FREE ENERGY PREDICTED BY IDOCK:   -6.12 KCAL/MOL
REMARK 923 INTER-LIGAND FREE ENERGY PREDICTED BY IDOCK:   -5.91 KCAL/MOL
REMARK 924 INTRA-LIGAND FREE ENERGY PREDICTED BY IDOCK:   -0.21 KCAL/MOL
REMARK 927      BINDING AFFINITY PREDICTED BY RF-SCORE:    0.00 PKD
ROOT
HETATM    1  C   UNL     1      -8.092  11.273  66.760  1.00  0.00    -0.159 C  
HETATM    2  C   UNL     1      -8.830  12.444  67.351  1.00  0.00    -0.188 A  
HETATM    3  C   UNL     1     -10.232  12.469  67.518  1.00  0.00    -0.219 A  
HETATM    4  C   UNL     1     -11.110  11.438  66.861  1.00  0.00    -0.356 C  
HETATM    5  C   UNL     1     -10.795  13.466  68.346  1.00  0.00    -0.264 A  
HETATM    6  C   UNL     1      -8.058  13.534  67.774  1.00  0.00    -0.177 A  
HETATM    7  C   UNL     1     -10.007  14.576  68.696  1.00  0.00    -0.237 A  
HETATM    8  C   UNL     1      -8.654  14.623  68.403  1.00  0.00    -0.169 A  
ENDROOT
BRANCH   5   9
HETATM    9  N   UNL     1     -12.115  13.319  68.868  1.00  0.00    -0.287 NA 
HETATM   10  H   UNL     1     -12.815  12.890  68.264  1.00  0.00     0.000 HD 
BRANCH   9  11
HETATM   11  C   UNL     1     -12.529  13.724  70.170  1.00  0.00    -0.267 A  
HETATM   12  C   UNL     1     -12.602  15.090  70.493  1.00  0.00    -0.420 A  
HETATM   13  C   UNL     1     -13.181  15.537  71.680  1.00  0.00    -0.575 A  
HETATM   14  C   UNL     1     -13.656  14.613  72.602  1.00  0.00    -0.571 A  
HETATM   15  C   UNL     1     -13.477  13.250  72.366  1.00  0.00    -0.670 A  
HETATM   16  C   UNL     1     -12.872  12.805  71.180  1.00  0.00    -0.315 A  
HETATM   17  C   UNL     1     -12.620  11.355  71.050  1.00  0.00    -0.386 C  
HETATM   18  O   UNL     1     -13.373  10.495  71.465  1.00  0.00    -0.356 OA 
HETATM   19  O   UNL     1     -11.421  11.089  70.478  1.00  0.00    -0.294 OA 
ENDBRANCH   9  11
ENDBRANCH   5   9
TORSDOF 2
ENDMDL
MODEL       88
REMARK 921   NORMALIZED FREE ENERGY PREDICTED BY IDOCK:   -4.85 KCAL/MOL
REMARK 922        TOTAL FREE ENERGY PREDICTED BY IDOCK:   -6.06 KCAL/MOL
REMARK 923 INTER-LIGAND FREE ENERGY PREDICTED BY IDOCK:   -6.01 KCAL/MOL
REMARK 924 INTRA-LIGAND FREE ENERGY PREDICTED BY IDOCK:   -0.05 KCAL/MOL
REMARK 927      BINDING AFFINITY PREDICTED BY RF-SCORE:    0.00 PKD
ROOT
HETATM    1  C   UNL     1      -8.086   8.451  65.847  1.00  0.00    -0.110 C  
HETATM    2  C   UNL     1      -9.253   9.401  65.883  1.00  0.00    -0.269 A  
HETATM    3  C   UNL     1     -10.241   9.375  66.892  1.00  0.00    -0.318 A  
HETATM    4  C   UNL     1     -10.343   8.214  67.846  1.00  0.00    -0.280 C  
HETATM    5  C   UNL     1     -11.114  10.478  67.010  1.00  0.00    -0.110 A  
HETATM    6  C   UNL     1      -9.318  10.367  64.869  1.00  0.00    -0.294 A  
HETATM    7  C   UNL     1     -11.197  11.390  65.944  1.00  0.00    -0.172 A  
HETATM    8  C   UNL     1     -10.321  11.332  64.873  1.00  0.00    -0.362 A  
ENDROOT
BRANCH   5   9
HETATM    9  N   UNL     1     -11.849  10.700  68.213  1.00  0.00    -0.786 NA 
HETATM   10  H   UNL     1     -12.407   9.925  68.573  1.00  0.00     0.000 HD 
BRANCH   9  11
HETATM   11  C   UNL     1     -11.863  11.918  68.951  1.00  0.00    -0.307 A  
HETATM   12  C   UNL     1     -11.559  13.133  68.312  1.00  0.00    -0.370 A  
HETATM   13  C   UNL     1     -11.745  14.363  68.941  1.00  0.00    -0.357 A  
HETATM   14  C   UNL     1     -12.195  14.401  70.255  1.00  0.00    -0.397 A  
HETATM   15  C   UNL     1     -12.378  13.209  70.955  1.00  0.00    -0.393 A  
HETATM   16  C   UNL     1     -12.166  11.972  70.325  1.00  0.00    -0.348 A  
HETATM   17  C   UNL     1     -12.276  10.758  71.160  1.00  0.00    -0.352 C  
HETATM   18  O   UNL     1     -13.088  10.621  72.055  1.00  0.00    -0.481 OA 
HETATM   19  O   UNL     1     -11.323   9.841  70.865  1.00  0.00    -0.307 OA 
ENDBRANCH   9  11
ENDBRANCH   5   9
TORSDOF 2
ENDMDL
MODEL       89
REMARK 921   NORMALIZED FREE ENERGY PREDICTED BY IDOCK:   -4.84 KCAL/MOL
REMARK 922        TOTAL FREE ENERGY PREDICTED BY IDOCK:   -6.05 KCAL/MOL
REMARK 923 INTER-LIGAND FREE ENERGY PREDICTED BY IDOCK:   -5.47 KCAL/MOL
REMARK 924 INTRA-LIGAND FREE ENERGY PREDICTED BY IDOCK:   -0.58 KCAL/MOL
REMARK 927      BINDING AFFINITY PREDICTED BY RF-SCORE:    0.00 PKD
ROOT
HETATM    1  C   UNL     1      -7.201  20.188  65.979  1.00  0.00    -0.312 C  
HETATM    2  C   UNL     1      -8.444  19.496  66.472  1.00  0.00    -0.365 A  
HETATM    3  C   UNL     1      -8.506  18.109  66.729  1.00  0.00    -0.273 A  
HETATM    4  C   UNL     1      -7.413  17.184  66.261  1.00  0.00    -0.344 C  
HETATM    5  C   UNL     1      -9.602  17.607  67.465  1.00  0.00    -0.267 A  
HETATM    6  C   UNL     1      -9.568  20.299  66.708  1.00  0.00    -0.548 A  
HETATM    7  C   UNL     1     -10.736  18.421  67.626  1.00  0.00    -0.390 A  
HETATM    8  C   UNL     1     -10.731  19.751  67.239  1.00  0.00    -0.532 A  
ENDROOT
BRANCH   5   9
HETATM    9  N   UNL     1      -9.534  16.326  68.090  1.00  0.00    -0.212 NA 
HETATM   10  H   UNL     1      -9.118  16.277  69.020  1.00  0.00     0.000 HD 
BRANCH   9  11
HETATM   11  C   UNL     1     -10.002  15.109  67.515  1.00  0.00    -0.225 A  
HETATM   12  C   UNL     1     -11.360  14.965  67.178  1.00  0.00    -0.348 A  
HETATM   13  C   UNL     1     -11.825  13.876  66.443  1.00  0.00    -0.436 A  
HETATM   14  C   UNL     1     -10.941  12.870  66.072  1.00  0.00    -0.301 A  
HETATM   15  C   UNL     1      -9.617  12.923  66.506  1.00  0.00    -0.259 A  
HETATM   16  C   UNL     1      -9.158  14.011  67.266  1.00  0.00    -0.224 A  
HETATM   17  C   UNL     1      -7.774  13.944  67.779  1.00  0.00    -0.172 C  
HETATM   18  O   UNL     1      -6.843  13.462  67.160  1.00  0.00    -0.129 OA 
HETATM   19  O   UNL     1      -7.669  14.414  69.045  1.00  0.00    -0.131 OA 
ENDBRANCH   9  11
ENDBRANCH   5   9
TORSDOF 2
ENDMDL
MODEL       90
REMARK 921   NORMALIZED FREE ENERGY PREDICTED BY IDOCK:   -4.82 KCAL/MOL
REMARK 922        TOTAL FREE ENERGY PREDICTED BY IDOCK:   -6.03 KCAL/MOL
REMARK 923 INTER-LIGAND FREE ENERGY PREDICTED BY IDOCK:   -5.62 KCAL/MOL
REMARK 924 INTRA-LIGAND FREE ENERGY PREDICTED BY IDOCK:   -0.41 KCAL/MOL
REMARK 927      BINDING AFFINITY PREDICTED BY RF-SCORE:    0.00 PKD
ROOT
HETATM    1  C   UNL     1      -8.236  18.785  68.696  1.00  0.00    -0.363 C  
HETATM    2  C   UNL     1      -9.177  17.724  68.189  1.00  0.00    -0.277 A  
HETATM    3  C   UNL     1      -8.893  16.908  67.072  1.00  0.00    -0.231 A  
HETATM    4  C   UNL     1      -7.751  17.233  66.145  1.00  0.00    -0.317 C  
HETATM    5  C   UNL     1      -9.683  15.757  66.858  1.00  0.00    -0.230 A  
HETATM    6  C   UNL     1     -10.371  17.541  68.899  1.00  0.00    -0.338 A  
HETATM    7  C   UNL     1     -10.905  15.642  67.543  1.00  0.00    -0.316 A  
HETATM    8  C   UNL     1     -11.258  16.531  68.545  1.00  0.00    -0.296 A  
ENDROOT
BRANCH   5   9
HETATM    9  N   UNL     1      -9.221  14.703  66.015  1.00  0.00    -0.513 NA 
HETATM   10  H   UNL     1      -8.224  14.672  65.803  1.00  0.00     0.000 HD 
BRANCH   9  11
HETATM   11  C   UNL     1     -10.045  13.689  65.446  1.00  0.00    -0.271 A  
HETATM   12  C   UNL     1     -11.027  14.029  64.498  1.00  0.00    -0.361 A  
HETATM   13  C   UNL     1     -11.721  13.058  63.777  1.00  0.00    -0.547 A  
HETATM   14  C   UNL     1     -11.483  11.713  64.031  1.00  0.00    -0.404 A  
HETATM   15  C   UNL     1     -10.612  11.350  65.057  1.00  0.00    -0.359 A  
HETATM   16  C   UNL     1      -9.932  12.331  65.797  1.00  0.00    -0.273 A  
HETATM   17  C   UNL     1      -9.111  11.873  66.936  1.00  0.00    -0.196 C  
HETATM   18  O   UNL     1      -8.458  10.846  66.934  1.00  0.00    -0.128 OA 
HETATM   19  O   UNL     1      -9.220  12.689  68.012  1.00  0.00    -0.195 OA 
ENDBRANCH   9  11
ENDBRANCH   5   9
TORSDOF 2
ENDMDL
MODEL       91
REMARK 921   NORMALIZED FREE ENERGY PREDICTED BY IDOCK:   -4.82 KCAL/MOL
REMARK 922        TOTAL FREE ENERGY PREDICTED BY IDOCK:   -6.02 KCAL/MOL
REMARK 923 INTER-LIGAND FREE ENERGY PREDICTED BY IDOCK:   -5.32 KCAL/MOL
REMARK 924 INTRA-LIGAND FREE ENERGY PREDICTED BY IDOCK:   -0.70 KCAL/MOL
REMARK 927      BINDING AFFINITY PREDICTED BY RF-SCORE:    0.00 PKD
ROOT
HETATM    1  C   UNL     1     -12.202  13.412  63.604  1.00  0.00    -0.480 C  
HETATM    2  C   UNL     1     -11.163  12.596  64.325  1.00  0.00    -0.410 A  
HETATM    3  C   UNL     1     -10.567  13.002  65.539  1.00  0.00    -0.297 A  
HETATM    4  C   UNL     1     -10.729  14.409  66.050  1.00  0.00    -0.302 C  
HETATM    5  C   UNL     1      -9.840  12.048  66.286  1.00  0.00    -0.231 A  
HETATM    6  C   UNL     1     -10.814  11.364  63.755  1.00  0.00    -0.468 A  
HETATM    7  C   UNL     1      -9.454  10.852  65.658  1.00  0.00    -0.252 A  
HETATM    8  C   UNL     1      -9.920  10.514  64.398  1.00  0.00    -0.410 A  
ENDROOT
BRANCH   5   9
HETATM    9  N   UNL     1      -9.560  12.266  67.668  1.00  0.00    -0.186 NA 
HETATM   10  H   UNL     1      -8.876  12.985  67.901  1.00  0.00     0.000 HD 
BRANCH   9  11
HETATM   11  C   UNL     1     -10.161  11.556  68.747  1.00  0.00    -0.179 A  
HETATM   12  C   UNL     1     -11.425  11.940  69.226  1.00  0.00    -0.366 A  
HETATM   13  C   UNL     1     -12.133  11.165  70.143  1.00  0.00    -0.443 A  
HETATM   14  C   UNL     1     -11.561  10.003  70.646  1.00  0.00    -0.422 A  
HETATM   15  C   UNL     1     -10.255   9.668  70.288  1.00  0.00    -0.333 A  
HETATM   16  C   UNL     1      -9.537  10.465  69.381  1.00  0.00    -0.213 A  
HETATM   17  C   UNL     1      -8.125  10.107  69.135  1.00  0.00    -0.134 C  
HETATM   18  O   UNL     1      -7.714   8.963  69.079  1.00  0.00    -0.087 OA 
HETATM   19  O   UNL     1      -7.324  11.196  69.048  1.00  0.00    -0.105 OA 
ENDBRANCH   9  11
ENDBRANCH   5   9
TORSDOF 2
ENDMDL
MODEL       92
REMARK 921   NORMALIZED FREE ENERGY PREDICTED BY IDOCK:   -4.81 KCAL/MOL
REMARK 922        TOTAL FREE ENERGY PREDICTED BY IDOCK:   -6.02 KCAL/MOL
REMARK 923 INTER-LIGAND FREE ENERGY PREDICTED BY IDOCK:   -5.34 KCAL/MOL
REMARK 924 INTRA-LIGAND FREE ENERGY PREDICTED BY IDOCK:   -0.68 KCAL/MOL
REMARK 927      BINDING AFFINITY PREDICTED BY RF-SCORE:    0.00 PKD
ROOT
HETATM    1  C   UNL     1     -10.867   9.169  71.313  1.00  0.00    -0.402 C  
HETATM    2  C   UNL     1     -10.318   9.776  70.049  1.00  0.00    -0.307 A  
HETATM    3  C   UNL     1     -10.892  10.903  69.419  1.00  0.00    -0.286 A  
HETATM    4  C   UNL     1     -12.255  11.403  69.818  1.00  0.00    -0.332 C  
HETATM    5  C   UNL     1     -10.145  11.574  68.426  1.00  0.00    -0.204 A  
HETATM    6  C   UNL     1      -9.164   9.191  69.512  1.00  0.00    -0.160 A  
HETATM    7  C   UNL     1      -9.030  10.927  67.868  1.00  0.00    -0.141 A  
HETATM    8  C   UNL     1      -8.548   9.738  68.391  1.00  0.00    -0.119 A  
ENDROOT
BRANCH   5   9
HETATM    9  N   UNL     1     -10.476  12.908  68.044  1.00  0.00    -0.224 NA 
HETATM   10  H   UNL     1     -10.410  13.633  68.759  1.00  0.00     0.000 HD 
BRANCH   9  11
HETATM   11  C   UNL     1     -10.892  13.308  66.741  1.00  0.00    -0.281 A  
HETATM   12  C   UNL     1     -11.851  12.551  66.045  1.00  0.00    -0.478 A  
HETATM   13  C   UNL     1     -12.426  13.003  64.858  1.00  0.00    -0.512 A  
HETATM   14  C   UNL     1     -12.011  14.210  64.310  1.00  0.00    -0.460 A  
HETATM   15  C   UNL     1     -10.968  14.917  64.910  1.00  0.00    -0.422 A  
HETATM   16  C   UNL     1     -10.376  14.446  66.093  1.00  0.00    -0.305 A  
HETATM   17  C   UNL     1      -9.208  15.189  66.609  1.00  0.00    -0.270 C  
HETATM   18  O   UNL     1      -9.097  16.400  66.557  1.00  0.00    -0.232 OA 
HETATM   19  O   UNL     1      -8.241  14.368  67.084  1.00  0.00    -0.204 OA 
ENDBRANCH   9  11
ENDBRANCH   5   9
TORSDOF 2
ENDMDL
MODEL       93
REMARK 921   NORMALIZED FREE ENERGY PREDICTED BY IDOCK:   -4.81 KCAL/MOL
REMARK 922        TOTAL FREE ENERGY PREDICTED BY IDOCK:   -6.01 KCAL/MOL
REMARK 923 INTER-LIGAND FREE ENERGY PREDICTED BY IDOCK:   -5.49 KCAL/MOL
REMARK 924 INTRA-LIGAND FREE ENERGY PREDICTED BY IDOCK:   -0.52 KCAL/MOL
REMARK 927      BINDING AFFINITY PREDICTED BY RF-SCORE:    0.00 PKD
ROOT
HETATM    1  C   UNL     1      -9.976  16.285  66.459  1.00  0.00    -0.290 C  
HETATM    2  C   UNL     1     -10.636  15.012  65.998  1.00  0.00    -0.329 A  
HETATM    3  C   UNL     1     -10.597  13.809  66.737  1.00  0.00    -0.273 A  
HETATM    4  C   UNL     1      -9.658  13.645  67.902  1.00  0.00    -0.223 C  
HETATM    5  C   UNL     1     -11.484  12.770  66.381  1.00  0.00    -0.357 A  
HETATM    6  C   UNL     1     -11.340  15.064  64.788  1.00  0.00    -0.409 A  
HETATM    7  C   UNL     1     -12.123  12.828  65.130  1.00  0.00    -0.498 A  
HETATM    8  C   UNL     1     -12.044  13.955  64.329  1.00  0.00    -0.477 A  
ENDROOT
BRANCH   5   9
HETATM    9  N   UNL     1     -11.777  11.716  67.297  1.00  0.00    -0.611 NA 
HETATM   10  H   UNL     1     -12.625  11.801  67.856  1.00  0.00     0.000 HD 
BRANCH   9  11
HETATM   11  C   UNL     1     -10.975  10.554  67.491  1.00  0.00    -0.303 A  
HETATM   12  C   UNL     1     -10.322   9.958  66.398  1.00  0.00    -0.246 A  
HETATM   13  C   UNL     1      -9.381   8.943  66.566  1.00  0.00    -0.252 A  
HETATM   14  C   UNL     1      -9.111   8.462  67.841  1.00  0.00    -0.137 A  
HETATM   15  C   UNL     1      -9.840   8.944  68.928  1.00  0.00    -0.182 A  
HETATM   16  C   UNL     1     -10.803   9.950  68.751  1.00  0.00    -0.240 A  
HETATM   17  C   UNL     1     -11.609  10.332  69.929  1.00  0.00    -0.256 C  
HETATM   18  O   UNL     1     -11.170  10.389  71.062  1.00  0.00    -0.266 OA 
HETATM   19  O   UNL     1     -12.911  10.543  69.617  1.00  0.00    -0.141 OA 
ENDBRANCH   9  11
ENDBRANCH   5   9
TORSDOF 2
ENDMDL
MODEL       94
REMARK 921   NORMALIZED FREE ENERGY PREDICTED BY IDOCK:   -4.79 KCAL/MOL
REMARK 922        TOTAL FREE ENERGY PREDICTED BY IDOCK:   -6.00 KCAL/MOL
REMARK 923 INTER-LIGAND FREE ENERGY PREDICTED BY IDOCK:   -5.69 KCAL/MOL
REMARK 924 INTRA-LIGAND FREE ENERGY PREDICTED BY IDOCK:   -0.31 KCAL/MOL
REMARK 927      BINDING AFFINITY PREDICTED BY RF-SCORE:    0.00 PKD
ROOT
HETATM    1  C   UNL     1     -11.388  13.961  69.385  1.00  0.00    -0.311 C  
HETATM    2  C   UNL     1     -12.077  12.839  70.117  1.00  0.00    -0.370 A  
HETATM    3  C   UNL     1     -12.132  11.516  69.628  1.00  0.00    -0.363 A  
HETATM    4  C   UNL     1     -11.746  11.197  68.208  1.00  0.00    -0.323 C  
HETATM    5  C   UNL     1     -12.527  10.486  70.511  1.00  0.00    -0.347 A  
HETATM    6  C   UNL     1     -12.654  13.149  71.356  1.00  0.00    -0.352 A  
HETATM    7  C   UNL     1     -13.160  10.836  71.715  1.00  0.00    -0.573 A  
HETATM    8  C   UNL     1     -13.240  12.155  72.133  1.00  0.00    -0.438 A  
ENDROOT
BRANCH   5   9
HETATM    9  N   UNL     1     -12.231   9.122  70.216  1.00  0.00    -0.381 NA 
HETATM   10  H   UNL     1     -12.801   8.659  69.508  1.00  0.00     0.000 HD 
BRANCH   9  11
HETATM   11  C   UNL     1     -11.202   8.355  70.835  1.00  0.00    -0.262 A  
HETATM   12  C   UNL     1     -10.776   8.669  72.138  1.00  0.00    -0.417 A  
HETATM   13  C   UNL     1      -9.915   7.837  72.852  1.00  0.00    -0.341 A  
HETATM   14  C   UNL     1      -9.415   6.689  72.252  1.00  0.00    -0.149 A  
HETATM   15  C   UNL     1      -9.717   6.423  70.916  1.00  0.00    -0.193 A  
HETATM   16  C   UNL     1     -10.566   7.276  70.193  1.00  0.00    -0.245 A  
HETATM   17  C   UNL     1     -10.752   6.989  68.756  1.00  0.00    -0.194 C  
HETATM   18  O   UNL     1     -10.817   5.866  68.291  1.00  0.00    -0.270 OA 
HETATM   19  O   UNL     1     -10.771   8.115  68.003  1.00  0.00    -0.157 OA 
ENDBRANCH   9  11
ENDBRANCH   5   9
TORSDOF 2
ENDMDL
MODEL       95
REMARK 921   NORMALIZED FREE ENERGY PREDICTED BY IDOCK:   -4.77 KCAL/MOL
REMARK 922        TOTAL FREE ENERGY PREDICTED BY IDOCK:   -5.97 KCAL/MOL
REMARK 923 INTER-LIGAND FREE ENERGY PREDICTED BY IDOCK:   -5.37 KCAL/MOL
REMARK 924 INTRA-LIGAND FREE ENERGY PREDICTED BY IDOCK:   -0.60 KCAL/MOL
REMARK 927      BINDING AFFINITY PREDICTED BY RF-SCORE:    0.00 PKD
ROOT
HETATM    1  C   UNL     1      -8.754   2.293  71.778  1.00  0.00    -0.103 C  
HETATM    2  C   UNL     1      -9.520   3.514  72.214  1.00  0.00    -0.183 A  
HETATM    3  C   UNL     1      -9.946   4.520  71.319  1.00  0.00    -0.258 A  
HETATM    4  C   UNL     1      -9.420   4.577  69.909  1.00  0.00    -0.245 C  
HETATM    5  C   UNL     1     -10.904   5.457  71.764  1.00  0.00    -0.174 A  
HETATM    6  C   UNL     1      -9.838   3.612  73.575  1.00  0.00    -0.156 A  
HETATM    7  C   UNL     1     -11.148   5.569  73.143  1.00  0.00    -0.337 A  
HETATM    8  C   UNL     1     -10.611   4.668  74.048  1.00  0.00    -0.346 A  
ENDROOT
BRANCH   5   9
HETATM    9  N   UNL     1     -11.657   6.229  70.829  1.00  0.00    -0.329 NA 
HETATM   10  H   UNL     1     -11.788   5.840  69.896  1.00  0.00     0.000 HD 
BRANCH   9  11
HETATM   11  C   UNL     1     -12.239   7.501  71.098  1.00  0.00    -0.301 A  
HETATM   12  C   UNL     1     -13.564   7.586  71.560  1.00  0.00    -0.439 A  
HETATM   13  C   UNL     1     -14.110   8.785  72.017  1.00  0.00    -0.508 A  
HETATM   14  C   UNL     1     -13.349   9.947  71.971  1.00  0.00    -0.532 A  
HETATM   15  C   UNL     1     -12.079   9.916  71.395  1.00  0.00    -0.501 A  
HETATM   16  C   UNL     1     -11.542   8.711  70.915  1.00  0.00    -0.307 A  
HETATM   17  C   UNL     1     -10.239   8.777  70.223  1.00  0.00    -0.196 C  
HETATM   18  O   UNL     1      -9.333   9.519  70.552  1.00  0.00    -0.252 OA 
HETATM   19  O   UNL     1     -10.190   7.969  69.136  1.00  0.00    -0.207 OA 
ENDBRANCH   9  11
ENDBRANCH   5   9
TORSDOF 2
ENDMDL
MODEL       96
REMARK 921   NORMALIZED FREE ENERGY PREDICTED BY IDOCK:   -4.77 KCAL/MOL
REMARK 922        TOTAL FREE ENERGY PREDICTED BY IDOCK:   -5.97 KCAL/MOL
REMARK 923 INTER-LIGAND FREE ENERGY PREDICTED BY IDOCK:   -5.26 KCAL/MOL
REMARK 924 INTRA-LIGAND FREE ENERGY PREDICTED BY IDOCK:   -0.71 KCAL/MOL
REMARK 927      BINDING AFFINITY PREDICTED BY RF-SCORE:    0.00 PKD
ROOT
HETATM    1  C   UNL     1     -13.300  14.016  72.754  1.00  0.00    -0.603 C  
HETATM    2  C   UNL     1     -12.841  13.294  71.516  1.00  0.00    -0.419 A  
HETATM    3  C   UNL     1     -12.433  13.960  70.339  1.00  0.00    -0.404 A  
HETATM    4  C   UNL     1     -12.695  15.430  70.150  1.00  0.00    -0.263 C  
HETATM    5  C   UNL     1     -11.742  13.223  69.351  1.00  0.00    -0.325 A  
HETATM    6  C   UNL     1     -12.797  11.894  71.574  1.00  0.00    -0.421 A  
HETATM    7  C   UNL     1     -11.776  11.819  69.410  1.00  0.00    -0.405 A  
HETATM    8  C   UNL     1     -12.310  11.155  70.501  1.00  0.00    -0.454 A  
ENDROOT
BRANCH   5   9
HETATM    9  N   UNL     1     -10.972  13.889  68.352  1.00  0.00    -0.244 NA 
HETATM   10  H   UNL     1     -11.475  14.286  67.557  1.00  0.00     0.000 HD 
BRANCH   9  11
HETATM   11  C   UNL     1      -9.556  14.043  68.377  1.00  0.00    -0.222 A  
HETATM   12  C   UNL     1      -8.969  15.028  69.191  1.00  0.00    -0.186 A  
HETATM   13  C   UNL     1      -7.591  15.090  69.394  1.00  0.00    -0.195 A  
HETATM   14  C   UNL     1      -6.759  14.191  68.738  1.00  0.00    -0.098 A  
HETATM   15  C   UNL     1      -7.304  13.290  67.824  1.00  0.00    -0.147 A  
HETATM   16  C   UNL     1      -8.690  13.246  67.604  1.00  0.00    -0.195 A  
HETATM   17  C   UNL     1      -9.181  12.342  66.544  1.00  0.00    -0.215 C  
HETATM   18  O   UNL     1      -8.701  11.249  66.308  1.00  0.00    -0.179 OA 
HETATM   19  O   UNL     1     -10.181  12.895  65.816  1.00  0.00    -0.280 OA 
ENDBRANCH   9  11
ENDBRANCH   5   9
TORSDOF 2
ENDMDL
MODEL       97
REMARK 921   NORMALIZED FREE ENERGY PREDICTED BY IDOCK:   -4.75 KCAL/MOL
REMARK 922        TOTAL FREE ENERGY PREDICTED BY IDOCK:   -5.95 KCAL/MOL
REMARK 923 INTER-LIGAND FREE ENERGY PREDICTED BY IDOCK:   -5.34 KCAL/MOL
REMARK 924 INTRA-LIGAND FREE ENERGY PREDICTED BY IDOCK:   -0.61 KCAL/MOL
REMARK 927      BINDING AFFINITY PREDICTED BY RF-SCORE:    0.00 PKD
ROOT
HETATM    1  C   UNL     1      -7.422   7.358  64.644  1.00  0.00    -0.093 C  
HETATM    2  C   UNL     1      -8.507   8.155  65.318  1.00  0.00    -0.157 A  
HETATM    3  C   UNL     1      -8.752   9.517  65.037  1.00  0.00    -0.205 A  
HETATM    4  C   UNL     1      -7.765  10.337  64.249  1.00  0.00    -0.102 C  
HETATM    5  C   UNL     1      -9.963  10.091  65.485  1.00  0.00    -0.296 A  
HETATM    6  C   UNL     1      -9.316   7.477  66.240  1.00  0.00    -0.176 A  
HETATM    7  C   UNL     1     -10.714   9.409  66.457  1.00  0.00    -0.012 A  
HETATM    8  C   UNL     1     -10.390   8.120  66.847  1.00  0.00    -0.401 A  
ENDROOT
BRANCH   5   9
HETATM    9  N   UNL     1     -10.448  11.306  64.914  1.00  0.00    -0.302 NA 
HETATM   10  H   UNL     1     -10.881  11.253  63.993  1.00  0.00     0.000 HD 
BRANCH   9  11
HETATM   11  C   UNL     1     -10.374  12.587  65.533  1.00  0.00    -0.280 A  
HETATM   12  C   UNL     1      -9.425  12.829  66.542  1.00  0.00    -0.253 A  
HETATM   13  C   UNL     1      -9.187  14.110  67.038  1.00  0.00    -0.249 A  
HETATM   14  C   UNL     1      -9.939  15.179  66.566  1.00  0.00    -0.279 A  
HETATM   15  C   UNL     1     -10.975  14.947  65.663  1.00  0.00    -0.347 A  
HETATM   16  C   UNL     1     -11.227  13.651  65.183  1.00  0.00    -0.318 A  
HETATM   17  C   UNL     1     -12.407  13.467  64.314  1.00  0.00    -0.335 C  
HETATM   18  O   UNL     1     -12.775  14.281  63.487  1.00  0.00    -0.767 OA 
HETATM   19  O   UNL     1     -13.076  12.322  64.587  1.00  0.00    -0.770 OA 
ENDBRANCH   9  11
ENDBRANCH   5   9
TORSDOF 2
ENDMDL
MODEL       98
REMARK 921   NORMALIZED FREE ENERGY PREDICTED BY IDOCK:   -4.74 KCAL/MOL
REMARK 922        TOTAL FREE ENERGY PREDICTED BY IDOCK:   -5.94 KCAL/MOL
REMARK 923 INTER-LIGAND FREE ENERGY PREDICTED BY IDOCK:   -5.43 KCAL/MOL
REMARK 924 INTRA-LIGAND FREE ENERGY PREDICTED BY IDOCK:   -0.51 KCAL/MOL
REMARK 927      BINDING AFFINITY PREDICTED BY RF-SCORE:    0.00 PKD
ROOT
HETATM    1  C   UNL     1     -12.200  13.132  65.900  1.00  0.00    -0.497 C  
HETATM    2  C   UNL     1     -11.402  11.894  66.216  1.00  0.00    -0.394 A  
HETATM    3  C   UNL     1     -11.340  11.324  67.506  1.00  0.00    -0.360 A  
HETATM    4  C   UNL     1     -11.843  12.074  68.711  1.00  0.00    -0.358 C  
HETATM    5  C   UNL     1     -10.824  10.016  67.641  1.00  0.00    -0.278 A  
HETATM    6  C   UNL     1     -10.725  11.285  65.151  1.00  0.00    -0.312 A  
HETATM    7  C   UNL     1     -10.096   9.464  66.573  1.00  0.00    -0.332 A  
HETATM    8  C   UNL     1     -10.030  10.095  65.342  1.00  0.00    -0.377 A  
ENDROOT
BRANCH   5   9
HETATM    9  N   UNL     1     -11.091   9.245  68.812  1.00  0.00    -0.453 NA 
HETATM   10  H   UNL     1     -12.056   8.956  68.975  1.00  0.00     0.000 HD 
BRANCH   9  11
HETATM   11  C   UNL     1     -10.116   8.846  69.770  1.00  0.00    -0.199 A  
HETATM   12  C   UNL     1      -8.857   9.471  69.796  1.00  0.00    -0.211 A  
HETATM   13  C   UNL     1      -7.946   9.252  70.828  1.00  0.00    -0.187 A  
HETATM   14  C   UNL     1      -8.258   8.352  71.839  1.00  0.00    -0.210 A  
HETATM   15  C   UNL     1      -9.443   7.620  71.768  1.00  0.00    -0.178 A  
HETATM   16  C   UNL     1     -10.347   7.827  70.714  1.00  0.00    -0.206 A  
HETATM   17  C   UNL     1     -11.527   6.940  70.647  1.00  0.00    -0.336 C  
HETATM   18  O   UNL     1     -12.132   6.541  71.624  1.00  0.00    -0.337 OA 
HETATM   19  O   UNL     1     -11.818   6.562  69.379  1.00  0.00    -0.209 OA 
ENDBRANCH   9  11
ENDBRANCH   5   9
TORSDOF 2
ENDMDL
MODEL       99
REMARK 921   NORMALIZED FREE ENERGY PREDICTED BY IDOCK:   -4.74 KCAL/MOL
REMARK 922        TOTAL FREE ENERGY PREDICTED BY IDOCK:   -5.94 KCAL/MOL
REMARK 923 INTER-LIGAND FREE ENERGY PREDICTED BY IDOCK:   -5.47 KCAL/MOL
REMARK 924 INTRA-LIGAND FREE ENERGY PREDICTED BY IDOCK:   -0.47 KCAL/MOL
REMARK 927      BINDING AFFINITY PREDICTED BY RF-SCORE:    0.00 PKD
ROOT
HETATM    1  C   UNL     1      -8.286  18.884  68.183  1.00  0.00    -0.341 C  
HETATM    2  C   UNL     1      -8.813  17.525  67.805  1.00  0.00    -0.241 A  
HETATM    3  C   UNL     1      -9.784  16.834  68.563  1.00  0.00    -0.248 A  
HETATM    4  C   UNL     1     -10.152  17.288  69.950  1.00  0.00     0.441 C  
HETATM    5  C   UNL     1     -10.430  15.722  67.979  1.00  0.00    -0.270 A  
HETATM    6  C   UNL     1      -8.321  16.959  66.621  1.00  0.00    -0.289 A  
HETATM    7  C   UNL     1      -9.868  15.144  66.827  1.00  0.00    -0.251 A  
HETATM    8  C   UNL     1      -8.814  15.743  66.159  1.00  0.00    -0.346 A  
ENDROOT
BRANCH   5   9
HETATM    9  N   UNL     1     -11.662  15.235  68.508  1.00  0.00    -0.422 NA 
HETATM   10  H   UNL     1     -12.457  15.874  68.511  1.00  0.00     0.000 HD 
BRANCH   9  11
HETATM   11  C   UNL     1     -11.868  13.926  69.031  1.00  0.00    -0.358 A  
HETATM   12  C   UNL     1     -11.771  12.806  68.187  1.00  0.00    -0.392 A  
HETATM   13  C   UNL     1     -11.774  11.504  68.686  1.00  0.00    -0.389 A  
HETATM   14  C   UNL     1     -11.931  11.293  70.050  1.00  0.00    -0.447 A  
HETATM   15  C   UNL     1     -12.161  12.379  70.894  1.00  0.00    -0.290 A  
HETATM   16  C   UNL     1     -12.180  13.688  70.383  1.00  0.00    -0.434 A  
HETATM   17  C   UNL     1     -12.537  14.775  71.317  1.00  0.00    -0.334 C  
HETATM   18  O   UNL     1     -12.201  14.803  72.486  1.00  0.00    -0.321 OA 
HETATM   19  O   UNL     1     -13.341  15.704  70.746  1.00  0.00    -0.535 OA 
ENDBRANCH   9  11
ENDBRANCH   5   9
TORSDOF 2
ENDMDL
MODEL      100
REMARK 921   NORMALIZED FREE ENERGY PREDICTED BY IDOCK:   -4.73 KCAL/MOL
REMARK 922        TOTAL FREE ENERGY PREDICTED BY IDOCK:   -5.93 KCAL/MOL
REMARK 923 INTER-LIGAND FREE ENERGY PREDICTED BY IDOCK:   -5.30 KCAL/MOL
REMARK 924 INTRA-LIGAND FREE ENERGY PREDICTED BY IDOCK:   -0.63 KCAL/MOL
REMARK 927      BINDING AFFINITY PREDICTED BY RF-SCORE:    0.00 PKD
ROOT
HETATM    1  C   UNL     1     -11.868  13.272  64.594  1.00  0.00    -0.420 C  
HETATM    2  C   UNL     1     -11.070  12.055  64.981  1.00  0.00    -0.368 A  
HETATM    3  C   UNL     1     -11.061  11.519  66.287  1.00  0.00    -0.321 A  
HETATM    4  C   UNL     1     -11.631  12.293  67.446  1.00  0.00    -0.425 C  
HETATM    5  C   UNL     1     -10.535  10.223  66.481  1.00  0.00    -0.173 A  
HETATM    6  C   UNL     1     -10.335  11.428  63.966  1.00  0.00    -0.418 A  
HETATM    7  C   UNL     1      -9.750   9.654  65.464  1.00  0.00    -0.372 A  
HETATM    8  C   UNL     1      -9.634  10.254  64.220  1.00  0.00    -0.375 A  
ENDROOT
BRANCH   5   9
HETATM    9  N   UNL     1     -10.847   9.479  67.658  1.00  0.00    -0.444 NA 
HETATM   10  H   UNL     1     -11.801   9.132  67.756  1.00  0.00     0.000 HD 
BRANCH   9  11
HETATM   11  C   UNL     1      -9.929   9.183  68.707  1.00  0.00    -0.176 A  
HETATM   12  C   UNL     1      -8.848  10.045  68.962  1.00  0.00    -0.159 A  
HETATM   13  C   UNL     1      -8.042   9.902  70.090  1.00  0.00    -0.169 A  
HETATM   14  C   UNL     1      -8.270   8.850  70.968  1.00  0.00    -0.217 A  
HETATM   15  C   UNL     1      -9.251   7.904  70.670  1.00  0.00    -0.157 A  
HETATM   16  C   UNL     1     -10.046   8.039  69.520  1.00  0.00    -0.196 A  
HETATM   17  C   UNL     1     -10.988   6.944  69.214  1.00  0.00    -0.221 C  
HETATM   18  O   UNL     1     -11.605   6.323  70.060  1.00  0.00    -0.425 OA 
HETATM   19  O   UNL     1     -11.037   6.658  67.891  1.00  0.00    -0.269 OA 
ENDBRANCH   9  11
ENDBRANCH   5   9
TORSDOF 2
ENDMDL
MODEL      101
REMARK 921   NORMALIZED FREE ENERGY PREDICTED BY IDOCK:   -4.73 KCAL/MOL
REMARK 922        TOTAL FREE ENERGY PREDICTED BY IDOCK:   -5.92 KCAL/MOL
REMARK 923 INTER-LIGAND FREE ENERGY PREDICTED BY IDOCK:   -5.39 KCAL/MOL
REMARK 924 INTRA-LIGAND FREE ENERGY PREDICTED BY IDOCK:   -0.53 KCAL/MOL
REMARK 927      BINDING AFFINITY PREDICTED BY RF-SCORE:    0.00 PKD
ROOT
HETATM    1  C   UNL     1     -12.442  12.734  70.583  1.00  0.00    -0.328 C  
HETATM    2  C   UNL     1     -12.308  11.263  70.874  1.00  0.00    -0.490 A  
HETATM    3  C   UNL     1     -11.309  10.448  70.297  1.00  0.00    -0.406 A  
HETATM    4  C   UNL     1     -10.483  10.939  69.137  1.00  0.00    -0.248 C  
HETATM    5  C   UNL     1     -11.076   9.171  70.853  1.00  0.00    -0.291 A  
HETATM    6  C   UNL     1     -13.214  10.711  71.790  1.00  0.00    -0.526 A  
HETATM    7  C   UNL     1     -12.039   8.626  71.718  1.00  0.00    -0.403 A  
HETATM    8  C   UNL     1     -13.109   9.378  72.175  1.00  0.00    -0.526 A  
ENDROOT
BRANCH   5   9
HETATM    9  N   UNL     1      -9.857   8.475  70.593  1.00  0.00    -0.180 NA 
HETATM   10  H   UNL     1      -9.006   9.032  70.511  1.00  0.00     0.000 HD 
BRANCH   9  11
HETATM   11  C   UNL     1      -9.737   7.064  70.439  1.00  0.00    -0.176 A  
HETATM   12  C   UNL     1      -9.255   6.278  71.500  1.00  0.00    -0.149 A  
HETATM   13  C   UNL     1      -9.300   4.885  71.464  1.00  0.00    -0.196 A  
HETATM   14  C   UNL     1      -9.785   4.242  70.332  1.00  0.00    -0.280 A  
HETATM   15  C   UNL     1     -10.147   4.995  69.215  1.00  0.00    -0.270 A  
HETATM   16  C   UNL     1     -10.078   6.397  69.246  1.00  0.00    -0.203 A  
HETATM   17  C   UNL     1     -10.373   7.119  67.992  1.00  0.00    -0.194 C  
HETATM   18  O   UNL     1     -11.227   6.776  67.196  1.00  0.00    -0.379 OA 
HETATM   19  O   UNL     1      -9.539   8.168  67.791  1.00  0.00    -0.146 OA 
ENDBRANCH   9  11
ENDBRANCH   5   9
TORSDOF 2
ENDMDL
MODEL      102
REMARK 921   NORMALIZED FREE ENERGY PREDICTED BY IDOCK:   -4.72 KCAL/MOL
REMARK 922        TOTAL FREE ENERGY PREDICTED BY IDOCK:   -5.91 KCAL/MOL
REMARK 923 INTER-LIGAND FREE ENERGY PREDICTED BY IDOCK:   -5.22 KCAL/MOL
REMARK 924 INTRA-LIGAND FREE ENERGY PREDICTED BY IDOCK:   -0.69 KCAL/MOL
REMARK 927      BINDING AFFINITY PREDICTED BY RF-SCORE:    0.00 PKD
ROOT
HETATM    1  C   UNL     1      -8.279  14.142  67.312  1.00  0.00    -0.200 C  
HETATM    2  C   UNL     1      -9.463  13.264  67.616  1.00  0.00    -0.211 A  
HETATM    3  C   UNL     1      -9.370  12.074  68.372  1.00  0.00    -0.175 A  
HETATM    4  C   UNL     1      -8.032  11.461  68.689  1.00  0.00    -0.141 C  
HETATM    5  C   UNL     1     -10.559  11.486  68.855  1.00  0.00    -0.204 A  
HETATM    6  C   UNL     1     -10.711  13.688  67.138  1.00  0.00    -0.279 A  
HETATM    7  C   UNL     1     -11.786  11.896  68.305  1.00  0.00    -0.385 A  
HETATM    8  C   UNL     1     -11.866  12.976  67.442  1.00  0.00    -0.411 A  
ENDROOT
BRANCH   5   9
HETATM    9  N   UNL     1     -10.523  10.544  69.926  1.00  0.00    -0.418 NA 
HETATM   10  H   UNL     1     -10.223  10.882  70.840  1.00  0.00     0.000 HD 
BRANCH   9  11
HETATM   11  C   UNL     1     -10.873   9.167  69.817  1.00  0.00    -0.211 A  
HETATM   12  C   UNL     1     -10.401   8.403  68.735  1.00  0.00    -0.225 A  
HETATM   13  C   UNL     1     -10.557   7.018  68.687  1.00  0.00    -0.238 A  
HETATM   14  C   UNL     1     -11.242   6.369  69.707  1.00  0.00    -0.484 A  
HETATM   15  C   UNL     1     -11.834   7.118  70.724  1.00  0.00    -0.367 A  
HETATM   16  C   UNL     1     -11.695   8.515  70.755  1.00  0.00    -0.228 A  
HETATM   17  C   UNL     1     -12.439   9.247  71.800  1.00  0.00    -0.381 C  
HETATM   18  O   UNL     1     -12.605   8.833  72.932  1.00  0.00    -0.288 OA 
HETATM   19  O   UNL     1     -12.979  10.400  71.338  1.00  0.00    -0.379 OA 
ENDBRANCH   9  11
ENDBRANCH   5   9
TORSDOF 2
ENDMDL
MODEL      103
REMARK 921   NORMALIZED FREE ENERGY PREDICTED BY IDOCK:   -4.71 KCAL/MOL
REMARK 922        TOTAL FREE ENERGY PREDICTED BY IDOCK:   -5.91 KCAL/MOL
REMARK 923 INTER-LIGAND FREE ENERGY PREDICTED BY IDOCK:   -5.70 KCAL/MOL
REMARK 924 INTRA-LIGAND FREE ENERGY PREDICTED BY IDOCK:   -0.21 KCAL/MOL
REMARK 927      BINDING AFFINITY PREDICTED BY RF-SCORE:    0.00 PKD
ROOT
HETATM    1  C   UNL     1     -12.495  13.124  65.089  1.00  0.00    -0.539 C  
HETATM    2  C   UNL     1     -11.442  12.267  65.739  1.00  0.00    -0.417 A  
HETATM    3  C   UNL     1     -11.007  12.453  67.070  1.00  0.00    -0.303 A  
HETATM    4  C   UNL     1     -11.367  13.698  67.836  1.00  0.00    -0.325 C  
HETATM    5  C   UNL     1     -10.251  11.429  67.682  1.00  0.00    -0.180 A  
HETATM    6  C   UNL     1     -10.910  11.221  64.972  1.00  0.00    -0.285 A  
HETATM    7  C   UNL     1      -9.681  10.433  66.869  1.00  0.00    -0.223 A  
HETATM    8  C   UNL     1      -9.991  10.334  65.523  1.00  0.00    -0.364 A  
ENDROOT
BRANCH   5   9
HETATM    9  N   UNL     1     -10.122  11.368  69.101  1.00  0.00    -0.413 NA 
HETATM   10  H   UNL     1     -10.005  12.249  69.601  1.00  0.00     0.000 HD 
BRANCH   9  11
HETATM   11  C   UNL     1     -10.145  10.172  69.875  1.00  0.00    -0.222 A  
HETATM   12  C   UNL     1      -9.104   9.235  69.755  1.00  0.00    -0.186 A  
HETATM   13  C   UNL     1      -8.984   8.151  70.624  1.00  0.00    -0.153 A  
HETATM   14  C   UNL     1      -9.945   7.951  71.607  1.00  0.00    -0.227 A  
HETATM   15  C   UNL     1     -11.057   8.789  71.664  1.00  0.00    -0.398 A  
HETATM   16  C   UNL     1     -11.186   9.866  70.772  1.00  0.00    -0.427 A  
HETATM   17  C   UNL     1     -12.441  10.643  70.823  1.00  0.00    -0.385 C  
HETATM   18  O   UNL     1     -13.041  10.897  71.851  1.00  0.00    -0.482 OA 
HETATM   19  O   UNL     1     -12.889  10.981  69.590  1.00  0.00    -0.168 OA 
ENDBRANCH   9  11
ENDBRANCH   5   9
TORSDOF 2
ENDMDL
MODEL      104
REMARK 921   NORMALIZED FREE ENERGY PREDICTED BY IDOCK:   -4.71 KCAL/MOL
REMARK 922        TOTAL FREE ENERGY PREDICTED BY IDOCK:   -5.90 KCAL/MOL
REMARK 923 INTER-LIGAND FREE ENERGY PREDICTED BY IDOCK:   -5.50 KCAL/MOL
REMARK 924 INTRA-LIGAND FREE ENERGY PREDICTED BY IDOCK:   -0.41 KCAL/MOL
REMARK 927      BINDING AFFINITY PREDICTED BY RF-SCORE:    0.00 PKD
ROOT
HETATM    1  C   UNL     1     -12.184  15.183  70.822  1.00  0.00    -0.392 C  
HETATM    2  C   UNL     1     -12.454  13.703  70.893  1.00  0.00    -0.448 A  
HETATM    3  C   UNL     1     -12.019  12.790  69.908  1.00  0.00    -0.368 A  
HETATM    4  C   UNL     1     -11.497  13.272  68.580  1.00  0.00    -0.339 C  
HETATM    5  C   UNL     1     -12.052  11.409  70.205  1.00  0.00    -0.357 A  
HETATM    6  C   UNL     1     -13.146  13.236  72.019  1.00  0.00    -0.475 A  
HETATM    7  C   UNL     1     -12.810  10.975  71.306  1.00  0.00    -0.528 A  
HETATM    8  C   UNL     1     -13.367  11.875  72.200  1.00  0.00    -0.361 A  
ENDROOT
BRANCH   5   9
HETATM    9  N   UNL     1     -11.281  10.482  69.443  1.00  0.00    -0.251 NA 
HETATM   10  H   UNL     1     -11.747  10.006  68.670  1.00  0.00     0.000 HD 
BRANCH   9  11
HETATM   11  C   UNL     1      -9.912  10.168  69.678  1.00  0.00    -0.232 A  
HETATM   12  C   UNL     1      -8.917  10.663  68.816  1.00  0.00    -0.172 A  
HETATM   13  C   UNL     1      -7.560  10.544  69.111  1.00  0.00    -0.123 A  
HETATM   14  C   UNL     1      -7.164   9.874  70.262  1.00  0.00    -0.160 A  
HETATM   15  C   UNL     1      -8.124   9.260  71.066  1.00  0.00    -0.115 A  
HETATM   16  C   UNL     1      -9.489   9.362  70.753  1.00  0.00    -0.307 A  
HETATM   17  C   UNL     1     -10.436   8.597  71.589  1.00  0.00    -0.296 C  
HETATM   18  O   UNL     1     -10.309   8.441  72.789  1.00  0.00    -0.297 OA 
HETATM   19  O   UNL     1     -11.426   8.028  70.859  1.00  0.00    -0.276 OA 
ENDBRANCH   9  11
ENDBRANCH   5   9
TORSDOF 2
ENDMDL
MODEL      105
REMARK 921   NORMALIZED FREE ENERGY PREDICTED BY IDOCK:   -4.71 KCAL/MOL
REMARK 922        TOTAL FREE ENERGY PREDICTED BY IDOCK:   -5.90 KCAL/MOL
REMARK 923 INTER-LIGAND FREE ENERGY PREDICTED BY IDOCK:   -5.89 KCAL/MOL
REMARK 924 INTRA-LIGAND FREE ENERGY PREDICTED BY IDOCK:   -0.01 KCAL/MOL
REMARK 927      BINDING AFFINITY PREDICTED BY RF-SCORE:    0.00 PKD
ROOT
HETATM    1  C   UNL     1     -12.608  14.031  65.329  1.00  0.00    -0.495 C  
HETATM    2  C   UNL     1     -11.805  13.043  66.132  1.00  0.00    -0.466 A  
HETATM    3  C   UNL     1     -11.537  13.202  67.509  1.00  0.00    -0.398 A  
HETATM    4  C   UNL     1     -11.803  14.511  68.205  1.00  0.00    -0.348 C  
HETATM    5  C   UNL     1     -11.043  12.094  68.233  1.00  0.00    -0.243 A  
HETATM    6  C   UNL     1     -11.339  11.905  65.459  1.00  0.00    -0.334 A  
HETATM    7  C   UNL     1     -10.527  10.998  67.520  1.00  0.00    -0.244 A  
HETATM    8  C   UNL     1     -10.657  10.906  66.145  1.00  0.00    -0.270 A  
ENDROOT
BRANCH   5   9
HETATM    9  N   UNL     1     -11.127  12.059  69.657  1.00  0.00    -0.473 NA 
HETATM   10  H   UNL     1     -10.662  12.805  70.174  1.00  0.00     0.000 HD 
BRANCH   9  11
HETATM   11  C   UNL     1     -11.810  11.063  70.413  1.00  0.00    -0.367 A  
HETATM   12  C   UNL     1     -11.585   9.700  70.148  1.00  0.00    -0.193 A  
HETATM   13  C   UNL     1     -12.079   8.697  70.981  1.00  0.00    -0.247 A  
HETATM   14  C   UNL     1     -12.860   9.038  72.078  1.00  0.00    -0.468 A  
HETATM   15  C   UNL     1     -13.207  10.372  72.288  1.00  0.00    -0.285 A  
HETATM   16  C   UNL     1     -12.727  11.377  71.433  1.00  0.00    -0.489 A  
HETATM   17  C   UNL     1     -13.224  12.751  71.655  1.00  0.00    -0.317 C  
HETATM   18  O   UNL     1     -13.439  13.226  72.755  1.00  0.00    -0.575 OA 
HETATM   19  O   UNL     1     -13.481  13.401  70.495  1.00  0.00     0.318 OA 
ENDBRANCH   9  11
ENDBRANCH   5   9
TORSDOF 2
ENDMDL
MODEL      106
REMARK 921   NORMALIZED FREE ENERGY PREDICTED BY IDOCK:   -4.71 KCAL/MOL
REMARK 922        TOTAL FREE ENERGY PREDICTED BY IDOCK:   -5.90 KCAL/MOL
REMARK 923 INTER-LIGAND FREE ENERGY PREDICTED BY IDOCK:   -5.23 KCAL/MOL
REMARK 924 INTRA-LIGAND FREE ENERGY PREDICTED BY IDOCK:   -0.67 KCAL/MOL
REMARK 927      BINDING AFFINITY PREDICTED BY RF-SCORE:    0.00 PKD
ROOT
HETATM    1  C   UNL     1     -12.075   6.503  72.009  1.00  0.00    -0.358 C  
HETATM    2  C   UNL     1     -11.983   7.910  71.482  1.00  0.00    -0.333 A  
HETATM    3  C   UNL     1     -11.188   8.270  70.371  1.00  0.00    -0.222 A  
HETATM    4  C   UNL     1     -10.163   7.319  69.812  1.00  0.00    -0.214 C  
HETATM    5  C   UNL     1     -11.397   9.531  69.772  1.00  0.00    -0.083 A  
HETATM    6  C   UNL     1     -12.760   8.883  72.126  1.00  0.00    -0.470 A  
HETATM    7  C   UNL     1     -12.129  10.501  70.478  1.00  0.00    -0.437 A  
HETATM    8  C   UNL     1     -12.794  10.190  71.653  1.00  0.00    -0.559 A  
ENDROOT
BRANCH   5   9
HETATM    9  N   UNL     1     -10.932   9.795  68.449  1.00  0.00    -0.427 NA 
HETATM   10  H   UNL     1     -11.430   9.350  67.678  1.00  0.00     0.000 HD 
BRANCH   9  11
HETATM   11  C   UNL     1      -9.826  10.631  68.121  1.00  0.00    -0.155 A  
HETATM   12  C   UNL     1      -8.683  10.640  68.939  1.00  0.00    -0.163 A  
HETATM   13  C   UNL     1      -7.509  11.290  68.559  1.00  0.00    -0.115 A  
HETATM   14  C   UNL     1      -7.474  11.998  67.364  1.00  0.00    -0.152 A  
HETATM   15  C   UNL     1      -8.633  12.115  66.598  1.00  0.00    -0.122 A  
HETATM   16  C   UNL     1      -9.819  11.478  66.997  1.00  0.00    -0.212 A  
HETATM   17  C   UNL     1     -11.032  11.736  66.193  1.00  0.00    -0.307 C  
HETATM   18  O   UNL     1     -11.030  11.864  64.983  1.00  0.00    -0.299 OA 
HETATM   19  O   UNL     1     -12.138  11.887  66.961  1.00  0.00    -0.600 OA 
ENDBRANCH   9  11
ENDBRANCH   5   9
TORSDOF 2
ENDMDL
MODEL      107
REMARK 921   NORMALIZED FREE ENERGY PREDICTED BY IDOCK:   -4.67 KCAL/MOL
REMARK 922        TOTAL FREE ENERGY PREDICTED BY IDOCK:   -5.86 KCAL/MOL
REMARK 923 INTER-LIGAND FREE ENERGY PREDICTED BY IDOCK:   -5.31 KCAL/MOL
REMARK 924 INTRA-LIGAND FREE ENERGY PREDICTED BY IDOCK:   -0.54 KCAL/MOL
REMARK 927      BINDING AFFINITY PREDICTED BY RF-SCORE:    0.00 PKD
ROOT
HETATM    1  C   UNL     1     -12.625  11.997  63.360  1.00  0.00    -0.592 C  
HETATM    2  C   UNL     1     -11.386  11.854  64.202  1.00  0.00    -0.455 A  
HETATM    3  C   UNL     1     -11.198  12.538  65.423  1.00  0.00    -0.343 A  
HETATM    4  C   UNL     1     -12.107  13.669  65.826  1.00  0.00    -0.463 C  
HETATM    5  C   UNL     1     -10.156  12.117  66.279  1.00  0.00    -0.224 A  
HETATM    6  C   UNL     1     -10.402  10.969  63.741  1.00  0.00    -0.427 A  
HETATM    7  C   UNL     1      -9.154  11.279  65.761  1.00  0.00    -0.216 A  
HETATM    8  C   UNL     1      -9.262  10.720  64.499  1.00  0.00    -0.250 A  
ENDROOT
BRANCH   5   9
HETATM    9  N   UNL     1     -10.156  12.480  67.659  1.00  0.00    -0.213 NA 
HETATM   10  H   UNL     1     -10.788  11.974  68.279  1.00  0.00     0.000 HD 
BRANCH   9  11
HETATM   11  C   UNL     1      -9.341  13.496  68.238  1.00  0.00    -0.205 A  
HETATM   12  C   UNL     1      -7.946  13.334  68.291  1.00  0.00    -0.144 A  
HETATM   13  C   UNL     1      -7.098  14.374  68.670  1.00  0.00    -0.116 A  
HETATM   14  C   UNL     1      -7.638  15.593  69.059  1.00  0.00    -0.187 A  
HETATM   15  C   UNL     1      -9.022  15.738  69.142  1.00  0.00    -0.256 A  
HETATM   16  C   UNL     1      -9.873  14.680  68.782  1.00  0.00    -0.227 A  
HETATM   17  C   UNL     1     -11.322  14.871  68.999  1.00  0.00    -0.292 C  
HETATM   18  O   UNL     1     -11.900  15.929  68.831  1.00  0.00    -0.397 OA 
HETATM   19  O   UNL     1     -11.925  13.755  69.474  1.00  0.00    -0.307 OA 
ENDBRANCH   9  11
ENDBRANCH   5   9
TORSDOF 2
ENDMDL
MODEL      108
REMARK 921   NORMALIZED FREE ENERGY PREDICTED BY IDOCK:   -4.67 KCAL/MOL
REMARK 922        TOTAL FREE ENERGY PREDICTED BY IDOCK:   -5.86 KCAL/MOL
REMARK 923 INTER-LIGAND FREE ENERGY PREDICTED BY IDOCK:   -5.18 KCAL/MOL
REMARK 924 INTRA-LIGAND FREE ENERGY PREDICTED BY IDOCK:   -0.68 KCAL/MOL
REMARK 927      BINDING AFFINITY PREDICTED BY RF-SCORE:    0.00 PKD
ROOT
HETATM    1  C   UNL     1     -13.277  11.522  71.729  1.00  0.00    -0.456 C  
HETATM    2  C   UNL     1     -13.164  10.033  71.534  1.00  0.00    -0.497 A  
HETATM    3  C   UNL     1     -12.001   9.405  71.038  1.00  0.00    -0.389 A  
HETATM    4  C   UNL     1     -10.894  10.208  70.408  1.00  0.00    -0.365 C  
HETATM    5  C   UNL     1     -11.881   8.004  71.173  1.00  0.00    -0.284 A  
HETATM    6  C   UNL     1     -14.272   9.258  71.901  1.00  0.00    -0.210 A  
HETATM    7  C   UNL     1     -13.030   7.255  71.480  1.00  0.00    -0.434 A  
HETATM    8  C   UNL     1     -14.222   7.870  71.827  1.00  0.00    -0.555 A  
ENDROOT
BRANCH   5   9
HETATM    9  N   UNL     1     -10.608   7.368  71.065  1.00  0.00    -0.223 NA 
HETATM   10  H   UNL     1     -10.307   7.072  70.136  1.00  0.00     0.000 HD 
BRANCH   9  11
HETATM   11  C   UNL     1      -9.725   7.115  72.153  1.00  0.00    -0.146 A  
HETATM   12  C   UNL     1      -8.936   8.154  72.677  1.00  0.00    -0.299 A  
HETATM   13  C   UNL     1      -8.205   8.003  73.855  1.00  0.00    -0.306 A  
HETATM   14  C   UNL     1      -8.207   6.779  74.511  1.00  0.00    -0.160 A  
HETATM   15  C   UNL     1      -8.874   5.694  73.943  1.00  0.00    -0.123 A  
HETATM   16  C   UNL     1      -9.590   5.844  72.744  1.00  0.00    -0.163 A  
HETATM   17  C   UNL     1     -10.179   4.628  72.149  1.00  0.00    -0.193 C  
HETATM   18  O   UNL     1     -10.667   3.722  72.798  1.00  0.00    -0.149 OA 
HETATM   19  O   UNL     1     -10.052   4.599  70.800  1.00  0.00    -0.224 OA 
ENDBRANCH   9  11
ENDBRANCH   5   9
TORSDOF 2
ENDMDL
MODEL      109
REMARK 921   NORMALIZED FREE ENERGY PREDICTED BY IDOCK:   -4.65 KCAL/MOL
REMARK 922        TOTAL FREE ENERGY PREDICTED BY IDOCK:   -5.84 KCAL/MOL
REMARK 923 INTER-LIGAND FREE ENERGY PREDICTED BY IDOCK:   -5.17 KCAL/MOL
REMARK 924 INTRA-LIGAND FREE ENERGY PREDICTED BY IDOCK:   -0.67 KCAL/MOL
REMARK 927      BINDING AFFINITY PREDICTED BY RF-SCORE:    0.00 PKD
ROOT
HETATM    1  C   UNL     1      -8.185   5.022  65.270  1.00  0.00    -0.123 C  
HETATM    2  C   UNL     1      -8.968   6.087  65.991  1.00  0.00    -0.157 A  
HETATM    3  C   UNL     1      -8.511   7.416  66.138  1.00  0.00    -0.147 A  
HETATM    4  C   UNL     1      -7.085   7.785  65.824  1.00  0.00    -0.061 C  
HETATM    5  C   UNL     1      -9.431   8.403  66.556  1.00  0.00    -0.220 A  
HETATM    6  C   UNL     1     -10.220   5.720  66.503  1.00  0.00    -0.241 A  
HETATM    7  C   UNL     1     -10.650   7.993  67.123  1.00  0.00    -0.367 A  
HETATM    8  C   UNL     1     -11.040   6.664  67.113  1.00  0.00    -0.427 A  
ENDROOT
BRANCH   5   9
HETATM    9  N   UNL     1      -9.157   9.788  66.347  1.00  0.00    -0.151 NA 
HETATM   10  H   UNL     1      -8.323  10.174  66.788  1.00  0.00     0.000 HD 
BRANCH   9  11
HETATM   11  C   UNL     1      -9.959  10.673  65.571  1.00  0.00    -0.272 A  
HETATM   12  C   UNL     1      -9.786  10.742  64.177  1.00  0.00    -0.384 A  
HETATM   13  C   UNL     1     -10.670  11.444  63.359  1.00  0.00    -0.405 A  
HETATM   14  C   UNL     1     -11.726  12.143  63.930  1.00  0.00    -0.546 A  
HETATM   15  C   UNL     1     -11.844  12.200  65.318  1.00  0.00    -0.356 A  
HETATM   16  C   UNL     1     -10.938  11.510  66.140  1.00  0.00    -0.320 A  
HETATM   17  C   UNL     1     -11.061  11.705  67.599  1.00  0.00    -0.255 C  
HETATM   18  O   UNL     1     -12.124  11.823  68.181  1.00  0.00    -0.556 OA 
HETATM   19  O   UNL     1      -9.857  11.809  68.210  1.00  0.00    -0.187 OA 
ENDBRANCH   9  11
ENDBRANCH   5   9
TORSDOF 2
ENDMDL
MODEL      110
REMARK 921   NORMALIZED FREE ENERGY PREDICTED BY IDOCK:   -4.65 KCAL/MOL
REMARK 922        TOTAL FREE ENERGY PREDICTED BY IDOCK:   -5.84 KCAL/MOL
REMARK 923 INTER-LIGAND FREE ENERGY PREDICTED BY IDOCK:   -5.77 KCAL/MOL
REMARK 924 INTRA-LIGAND FREE ENERGY PREDICTED BY IDOCK:   -0.07 KCAL/MOL
REMARK 927      BINDING AFFINITY PREDICTED BY RF-SCORE:    0.00 PKD
ROOT
HETATM    1  C   UNL     1     -10.080  11.531  64.249  1.00  0.00    -0.338 C  
HETATM    2  C   UNL     1      -9.901  10.775  65.539  1.00  0.00    -0.309 A  
HETATM    3  C   UNL     1      -9.772  11.408  66.795  1.00  0.00    -0.221 A  
HETATM    4  C   UNL     1      -9.527  12.890  66.894  1.00  0.00    -0.237 C  
HETATM    5  C   UNL     1      -9.912  10.626  67.963  1.00  0.00    -0.160 A  
HETATM    6  C   UNL     1      -9.897   9.376  65.461  1.00  0.00    -0.231 A  
HETATM    7  C   UNL     1      -9.839   9.227  67.850  1.00  0.00    -0.200 A  
HETATM    8  C   UNL     1      -9.816   8.602  66.614  1.00  0.00    -0.336 A  
ENDROOT
BRANCH   5   9
HETATM    9  N   UNL     1     -10.186  11.239  69.221  1.00  0.00    -0.419 NA 
HETATM   10  H   UNL     1      -9.561  11.984  69.528  1.00  0.00     0.000 HD 
BRANCH   9  11
HETATM   11  C   UNL     1     -11.266  10.892  70.083  1.00  0.00    -0.237 A  
HETATM   12  C   UNL     1     -11.502   9.545  70.410  1.00  0.00    -0.297 A  
HETATM   13  C   UNL     1     -12.419   9.175  71.393  1.00  0.00    -0.396 A  
HETATM   14  C   UNL     1     -13.166  10.153  72.038  1.00  0.00    -0.534 A  
HETATM   15  C   UNL     1     -13.048  11.484  71.639  1.00  0.00    -0.478 A  
HETATM   16  C   UNL     1     -12.139  11.850  70.633  1.00  0.00    -0.389 A  
HETATM   17  C   UNL     1     -12.148  13.259  70.191  1.00  0.00    -0.333 C  
HETATM   18  O   UNL     1     -12.323  14.204  70.938  1.00  0.00    -0.323 OA 
HETATM   19  O   UNL     1     -12.008  13.381  68.849  1.00  0.00    -0.330 OA 
ENDBRANCH   9  11
ENDBRANCH   5   9
TORSDOF 2
ENDMDL
MODEL      111
REMARK 921   NORMALIZED FREE ENERGY PREDICTED BY IDOCK:   -4.64 KCAL/MOL
REMARK 922        TOTAL FREE ENERGY PREDICTED BY IDOCK:   -5.82 KCAL/MOL
REMARK 923 INTER-LIGAND FREE ENERGY PREDICTED BY IDOCK:   -5.67 KCAL/MOL
REMARK 924 INTRA-LIGAND FREE ENERGY PREDICTED BY IDOCK:   -0.16 KCAL/MOL
REMARK 927      BINDING AFFINITY PREDICTED BY RF-SCORE:    0.00 PKD
ROOT
HETATM    1  C   UNL     1      -9.841   8.604  71.067  1.00  0.00    -0.267 C  
HETATM    2  C   UNL     1     -10.476   9.757  70.335  1.00  0.00    -0.358 A  
HETATM    3  C   UNL     1      -9.788  10.540  69.382  1.00  0.00    -0.205 A  
HETATM    4  C   UNL     1      -8.292  10.450  69.238  1.00  0.00    -0.161 C  
HETATM    5  C   UNL     1     -10.538  11.390  68.539  1.00  0.00    -0.198 A  
HETATM    6  C   UNL     1     -11.824  10.020  70.611  1.00  0.00    -0.411 A  
HETATM    7  C   UNL     1     -11.869  11.679  68.886  1.00  0.00    -0.392 A  
HETATM    8  C   UNL     1     -12.507  11.016  69.920  1.00  0.00    -0.286 A  
ENDROOT
BRANCH   5   9
HETATM    9  N   UNL     1      -9.979  11.891  67.326  1.00  0.00    -0.186 NA 
HETATM   10  H   UNL     1      -9.032  12.269  67.366  1.00  0.00     0.000 HD 
BRANCH   9  11
HETATM   11  C   UNL     1     -10.639  11.906  66.064  1.00  0.00    -0.265 A  
HETATM   12  C   UNL     1     -11.867  12.575  65.918  1.00  0.00    -0.489 A  
HETATM   13  C   UNL     1     -12.452  12.779  64.669  1.00  0.00    -0.525 A  
HETATM   14  C   UNL     1     -11.840  12.264  63.533  1.00  0.00    -0.601 A  
HETATM   15  C   UNL     1     -10.692  11.484  63.663  1.00  0.00    -0.491 A  
HETATM   16  C   UNL     1     -10.119  11.261  64.925  1.00  0.00    -0.333 A  
HETATM   17  C   UNL     1      -8.968  10.338  64.995  1.00  0.00    -0.196 C  
HETATM   18  O   UNL     1      -8.104  10.264  64.142  1.00  0.00    -0.157 OA 
HETATM   19  O   UNL     1      -9.019   9.530  66.082  1.00  0.00    -0.145 OA 
ENDBRANCH   9  11
ENDBRANCH   5   9
TORSDOF 2
ENDMDL
MODEL      112
REMARK 921   NORMALIZED FREE ENERGY PREDICTED BY IDOCK:   -4.63 KCAL/MOL
REMARK 922        TOTAL FREE ENERGY PREDICTED BY IDOCK:   -5.82 KCAL/MOL
REMARK 923 INTER-LIGAND FREE ENERGY PREDICTED BY IDOCK:   -5.22 KCAL/MOL
REMARK 924 INTRA-LIGAND FREE ENERGY PREDICTED BY IDOCK:   -0.59 KCAL/MOL
REMARK 927      BINDING AFFINITY PREDICTED BY RF-SCORE:    0.00 PKD
ROOT
HETATM    1  C   UNL     1     -11.728  15.703  69.099  1.00  0.00    -0.402 C  
HETATM    2  C   UNL     1     -11.850  14.209  68.965  1.00  0.00    -0.384 A  
HETATM    3  C   UNL     1     -11.723  13.530  67.733  1.00  0.00    -0.394 A  
HETATM    4  C   UNL     1     -11.735  14.283  66.428  1.00  0.00    -0.403 C  
HETATM    5  C   UNL     1     -11.552  12.128  67.749  1.00  0.00    -0.342 A  
HETATM    6  C   UNL     1     -12.068  13.480  70.142  1.00  0.00    -0.425 A  
HETATM    7  C   UNL     1     -11.843  11.427  68.931  1.00  0.00    -0.413 A  
HETATM    8  C   UNL     1     -12.114  12.090  70.117  1.00  0.00    -0.377 A  
ENDROOT
BRANCH   5   9
HETATM    9  N   UNL     1     -11.033  11.445  66.609  1.00  0.00    -0.291 NA 
HETATM   10  H   UNL     1     -11.701  11.122  65.909  1.00  0.00     0.000 HD 
BRANCH   9  11
HETATM   11  C   UNL     1      -9.654  11.179  66.372  1.00  0.00    -0.200 A  
HETATM   12  C   UNL     1      -8.735  11.221  67.435  1.00  0.00    -0.139 A  
HETATM   13  C   UNL     1      -7.419  10.784  67.290  1.00  0.00    -0.101 A  
HETATM   14  C   UNL     1      -6.976  10.341  66.050  1.00  0.00    -0.120 A  
HETATM   15  C   UNL     1      -7.828  10.413  64.948  1.00  0.00    -0.099 A  
HETATM   16  C   UNL     1      -9.146  10.876  65.094  1.00  0.00    -0.216 A  
HETATM   17  C   UNL     1      -9.952  11.025  63.866  1.00  0.00    -0.341 C  
HETATM   18  O   UNL     1      -9.896  10.262  62.919  1.00  0.00    -0.244 OA 
HETATM   19  O   UNL     1     -10.711  12.147  63.879  1.00  0.00    -0.331 OA 
ENDBRANCH   9  11
ENDBRANCH   5   9
TORSDOF 2
ENDMDL
MODEL      113
REMARK 921   NORMALIZED FREE ENERGY PREDICTED BY IDOCK:   -4.59 KCAL/MOL
REMARK 922        TOTAL FREE ENERGY PREDICTED BY IDOCK:   -5.77 KCAL/MOL
REMARK 923 INTER-LIGAND FREE ENERGY PREDICTED BY IDOCK:   -5.91 KCAL/MOL
REMARK 924 INTRA-LIGAND FREE ENERGY PREDICTED BY IDOCK:    0.13 KCAL/MOL
REMARK 927      BINDING AFFINITY PREDICTED BY RF-SCORE:    0.00 PKD
ROOT
HETATM    1  C   UNL     1      -9.594   4.727  71.925  1.00  0.00    -0.206 C  
HETATM    2  C   UNL     1      -9.450   6.181  71.560  1.00  0.00    -0.161 A  
HETATM    3  C   UNL     1     -10.317   6.841  70.661  1.00  0.00    -0.225 A  
HETATM    4  C   UNL     1     -11.274   6.066  69.795  1.00  0.00    -0.440 C  
HETATM    5  C   UNL     1     -10.291   8.253  70.613  1.00  0.00    -0.199 A  
HETATM    6  C   UNL     1      -8.416   6.894  72.181  1.00  0.00    -0.114 A  
HETATM    7  C   UNL     1      -9.203   8.928  71.194  1.00  0.00    -0.324 A  
HETATM    8  C   UNL     1      -8.263   8.258  71.959  1.00  0.00    -0.211 A  
ENDROOT
BRANCH   5   9
HETATM    9  N   UNL     1     -11.378   8.982  70.046  1.00  0.00    -0.422 NA 
HETATM   10  H   UNL     1     -11.850   8.572  69.239  1.00  0.00     0.000 HD 
BRANCH   9  11
HETATM   11  C   UNL     1     -11.856  10.238  70.517  1.00  0.00    -0.329 A  
HETATM   12  C   UNL     1     -11.380  11.433  69.948  1.00  0.00    -0.300 A  
HETATM   13  C   UNL     1     -11.955  12.669  70.241  1.00  0.00    -0.363 A  
HETATM   14  C   UNL     1     -12.994  12.742  71.160  1.00  0.00    -0.244 A  
HETATM   15  C   UNL     1     -13.397  11.591  71.837  1.00  0.00    -0.408 A  
HETATM   16  C   UNL     1     -12.800  10.352  71.556  1.00  0.00    -0.569 A  
HETATM   17  C   UNL     1     -13.203   9.200  72.389  1.00  0.00    -0.444 C  
HETATM   18  O   UNL     1     -14.336   9.019  72.794  1.00  0.00    -0.596 OA 
HETATM   19  O   UNL     1     -12.155   8.404  72.712  1.00  0.00    -0.354 OA 
ENDBRANCH   9  11
ENDBRANCH   5   9
TORSDOF 2
ENDMDL
MODEL      114
REMARK 921   NORMALIZED FREE ENERGY PREDICTED BY IDOCK:   -4.56 KCAL/MOL
REMARK 922        TOTAL FREE ENERGY PREDICTED BY IDOCK:   -5.74 KCAL/MOL
REMARK 923 INTER-LIGAND FREE ENERGY PREDICTED BY IDOCK:   -5.13 KCAL/MOL
REMARK 924 INTRA-LIGAND FREE ENERGY PREDICTED BY IDOCK:   -0.61 KCAL/MOL
REMARK 927      BINDING AFFINITY PREDICTED BY RF-SCORE:    0.00 PKD
ROOT
HETATM    1  C   UNL     1     -11.943  14.402  67.169  1.00  0.00    -0.419 C  
HETATM    2  C   UNL     1     -11.615  13.554  65.969  1.00  0.00    -0.363 A  
HETATM    3  C   UNL     1     -10.357  12.944  65.774  1.00  0.00    -0.297 A  
HETATM    4  C   UNL     1      -9.170  13.328  66.617  1.00  0.00    -0.222 C  
HETATM    5  C   UNL     1     -10.240  11.937  64.789  1.00  0.00    -0.276 A  
HETATM    6  C   UNL     1     -12.639  13.355  65.032  1.00  0.00    -0.459 A  
HETATM    7  C   UNL     1     -11.259  11.812  63.830  1.00  0.00    -0.518 A  
HETATM    8  C   UNL     1     -12.443  12.522  63.936  1.00  0.00    -0.540 A  
ENDROOT
BRANCH   5   9
HETATM    9  N   UNL     1      -9.144  11.025  64.808  1.00  0.00    -0.313 NA 
HETATM   10  H   UNL     1      -8.289  11.306  64.328  1.00  0.00     0.000 HD 
BRANCH   9  11
HETATM   11  C   UNL     1      -9.150   9.750  65.444  1.00  0.00    -0.204 A  
HETATM   12  C   UNL     1     -10.160   9.429  66.368  1.00  0.00    -0.332 A  
HETATM   13  C   UNL     1     -10.318   8.136  66.868  1.00  0.00    -0.401 A  
HETATM   14  C   UNL     1      -9.424   7.142  66.491  1.00  0.00    -0.208 A  
HETATM   15  C   UNL     1      -8.336   7.464  65.681  1.00  0.00    -0.143 A  
HETATM   16  C   UNL     1      -8.168   8.772  65.198  1.00  0.00    -0.149 A  
HETATM   17  C   UNL     1      -6.936   9.061  64.436  1.00  0.00    -0.089 C  
HETATM   18  O   UNL     1      -6.415   8.277  63.665  1.00  0.00    -0.071 OA 
HETATM   19  O   UNL     1      -6.410  10.271  64.744  1.00  0.00    -0.127 OA 
ENDBRANCH   9  11
ENDBRANCH   5   9
TORSDOF 2
ENDMDL
MODEL      115
REMARK 921   NORMALIZED FREE ENERGY PREDICTED BY IDOCK:   -4.56 KCAL/MOL
REMARK 922        TOTAL FREE ENERGY PREDICTED BY IDOCK:   -5.73 KCAL/MOL
REMARK 923 INTER-LIGAND FREE ENERGY PREDICTED BY IDOCK:   -5.19 KCAL/MOL
REMARK 924 INTRA-LIGAND FREE ENERGY PREDICTED BY IDOCK:   -0.54 KCAL/MOL
REMARK 927      BINDING AFFINITY PREDICTED BY RF-SCORE:    0.00 PKD
ROOT
HETATM    1  C   UNL     1     -11.157  15.924  64.751  1.00  0.00    -0.397 C  
HETATM    2  C   UNL     1     -10.357  15.365  65.897  1.00  0.00    -0.359 A  
HETATM    3  C   UNL     1     -10.860  14.391  66.788  1.00  0.00    -0.301 A  
HETATM    4  C   UNL     1     -12.326  14.052  66.818  1.00  0.00    -0.368 C  
HETATM    5  C   UNL     1      -9.951  13.715  67.631  1.00  0.00    -0.239 A  
HETATM    6  C   UNL     1      -9.043  15.829  66.041  1.00  0.00    -0.361 A  
HETATM    7  C   UNL     1      -8.661  14.249  67.799  1.00  0.00    -0.179 A  
HETATM    8  C   UNL     1      -8.211  15.305  67.025  1.00  0.00    -0.267 A  
ENDROOT
BRANCH   5   9
HETATM    9  N   UNL     1     -10.311  12.480  68.249  1.00  0.00    -0.231 NA 
HETATM   10  H   UNL     1     -10.601  12.510  69.226  1.00  0.00     0.000 HD 
BRANCH   9  11
HETATM   11  C   UNL     1     -10.298  11.209  67.606  1.00  0.00    -0.192 A  
HETATM   12  C   UNL     1      -9.973  11.112  66.242  1.00  0.00    -0.261 A  
HETATM   13  C   UNL     1      -9.760   9.882  65.621  1.00  0.00    -0.346 A  
HETATM   14  C   UNL     1      -9.923   8.709  66.347  1.00  0.00    -0.331 A  
HETATM   15  C   UNL     1     -10.373   8.772  67.665  1.00  0.00    -0.317 A  
HETATM   16  C   UNL     1     -10.608  10.012  68.281  1.00  0.00    -0.264 A  
HETATM   17  C   UNL     1     -11.186   9.997  69.640  1.00  0.00    -0.239 C  
HETATM   18  O   UNL     1     -10.900   9.173  70.489  1.00  0.00    -0.227 OA 
HETATM   19  O   UNL     1     -12.122  10.959  69.815  1.00  0.00    -0.309 OA 
ENDBRANCH   9  11
ENDBRANCH   5   9
TORSDOF 2
ENDMDL
MODEL      116
REMARK 921   NORMALIZED FREE ENERGY PREDICTED BY IDOCK:   -4.55 KCAL/MOL
REMARK 922        TOTAL FREE ENERGY PREDICTED BY IDOCK:   -5.73 KCAL/MOL
REMARK 923 INTER-LIGAND FREE ENERGY PREDICTED BY IDOCK:   -5.04 KCAL/MOL
REMARK 924 INTRA-LIGAND FREE ENERGY PREDICTED BY IDOCK:   -0.69 KCAL/MOL
REMARK 927      BINDING AFFINITY PREDICTED BY RF-SCORE:    0.00 PKD
ROOT
HETATM    1  C   UNL     1     -13.956   9.201  72.674  1.00  0.00    -0.367 C  
HETATM    2  C   UNL     1     -12.810   9.701  71.835  1.00  0.00    -0.515 A  
HETATM    3  C   UNL     1     -11.599   8.990  71.679  1.00  0.00    -0.426 A  
HETATM    4  C   UNL     1     -11.268   7.818  72.565  1.00  0.00    -0.419 C  
HETATM    5  C   UNL     1     -10.715   9.382  70.650  1.00  0.00    -0.290 A  
HETATM    6  C   UNL     1     -12.995  10.917  71.165  1.00  0.00    -0.449 A  
HETATM    7  C   UNL     1     -10.897  10.637  70.046  1.00  0.00    -0.280 A  
HETATM    8  C   UNL     1     -12.016  11.410  70.308  1.00  0.00    -0.460 A  
ENDROOT
BRANCH   5   9
HETATM    9  N   UNL     1      -9.698   8.494  70.187  1.00  0.00    -0.168 NA 
HETATM   10  H   UNL     1      -8.775   8.572  70.614  1.00  0.00     0.000 HD 
BRANCH   9  11
HETATM   11  C   UNL     1      -9.872   7.508  69.173  1.00  0.00    -0.170 A  
HETATM   12  C   UNL     1     -10.291   6.211  69.517  1.00  0.00    -0.277 A  
HETATM   13  C   UNL     1     -10.657   5.274  68.551  1.00  0.00    -0.084 A  
HETATM   14  C   UNL     1     -10.559   5.603  67.205  1.00  0.00    -0.344 A  
HETATM   15  C   UNL     1     -10.022   6.835  66.834  1.00  0.00    -0.252 A  
HETATM   16  C   UNL     1      -9.633   7.767  67.810  1.00  0.00    -0.172 A  
HETATM   17  C   UNL     1      -8.974   9.004  67.343  1.00  0.00    -0.124 C  
HETATM   18  O   UNL     1      -9.281   9.593  66.324  1.00  0.00    -0.152 OA 
HETATM   19  O   UNL     1      -7.942   9.372  68.139  1.00  0.00    -0.091 OA 
ENDBRANCH   9  11
ENDBRANCH   5   9
TORSDOF 2
ENDMDL
MODEL      117
REMARK 921   NORMALIZED FREE ENERGY PREDICTED BY IDOCK:   -4.55 KCAL/MOL
REMARK 922        TOTAL FREE ENERGY PREDICTED BY IDOCK:   -5.73 KCAL/MOL
REMARK 923 INTER-LIGAND FREE ENERGY PREDICTED BY IDOCK:   -5.27 KCAL/MOL
REMARK 924 INTRA-LIGAND FREE ENERGY PREDICTED BY IDOCK:   -0.46 KCAL/MOL
REMARK 927      BINDING AFFINITY PREDICTED BY RF-SCORE:    0.00 PKD
ROOT
HETATM    1  C   UNL     1     -11.903  11.926  70.108  1.00  0.00    -0.390 C  
HETATM    2  C   UNL     1     -12.076  10.614  70.826  1.00  0.00    -0.474 A  
HETATM    3  C   UNL     1     -11.052   9.647  70.927  1.00  0.00    -0.422 A  
HETATM    4  C   UNL     1      -9.808   9.744  70.085  1.00  0.00    -0.306 C  
HETATM    5  C   UNL     1     -11.204   8.599  71.862  1.00  0.00    -0.343 A  
HETATM    6  C   UNL     1     -13.315  10.384  71.440  1.00  0.00    -0.373 A  
HETATM    7  C   UNL     1     -12.477   8.361  72.407  1.00  0.00    -0.390 A  
HETATM    8  C   UNL     1     -13.531   9.233  72.190  1.00  0.00    -0.539 A  
ENDROOT
BRANCH   5   9
HETATM    9  N   UNL     1     -10.076   7.839  72.293  1.00  0.00    -0.205 NA 
HETATM   10  H   UNL     1      -9.212   8.347  72.485  1.00  0.00     0.000 HD 
BRANCH   9  11
HETATM   11  C   UNL     1     -10.062   6.427  72.477  1.00  0.00    -0.176 A  
HETATM   12  C   UNL     1     -10.653   5.859  73.620  1.00  0.00    -0.292 A  
HETATM   13  C   UNL     1     -10.833   4.482  73.749  1.00  0.00    -0.360 A  
HETATM   14  C   UNL     1     -10.372   3.633  72.752  1.00  0.00    -0.239 A  
HETATM   15  C   UNL     1      -9.665   4.159  71.671  1.00  0.00    -0.246 A  
HETATM   16  C   UNL     1      -9.465   5.545  71.556  1.00  0.00    -0.179 A  
HETATM   17  C   UNL     1      -8.616   6.018  70.444  1.00  0.00    -0.133 C  
HETATM   18  O   UNL     1      -8.607   5.516  69.335  1.00  0.00    -0.103 OA 
HETATM   19  O   UNL     1      -7.794   7.029  70.815  1.00  0.00    -0.094 OA 
ENDBRANCH   9  11
ENDBRANCH   5   9
TORSDOF 2
ENDMDL
MODEL      118
REMARK 921   NORMALIZED FREE ENERGY PREDICTED BY IDOCK:   -4.52 KCAL/MOL
REMARK 922        TOTAL FREE ENERGY PREDICTED BY IDOCK:   -5.69 KCAL/MOL
REMARK 923 INTER-LIGAND FREE ENERGY PREDICTED BY IDOCK:   -5.15 KCAL/MOL
REMARK 924 INTRA-LIGAND FREE ENERGY PREDICTED BY IDOCK:   -0.55 KCAL/MOL
REMARK 927      BINDING AFFINITY PREDICTED BY RF-SCORE:    0.00 PKD
ROOT
HETATM    1  C   UNL     1      -6.268  10.718  66.511  1.00  0.00    -0.107 C  
HETATM    2  C   UNL     1      -7.692  10.318  66.793  1.00  0.00    -0.111 A  
HETATM    3  C   UNL     1      -8.679  11.228  67.232  1.00  0.00    -0.145 A  
HETATM    4  C   UNL     1      -8.304  12.605  67.714  1.00  0.00    -0.172 C  
HETATM    5  C   UNL     1     -10.034  10.833  67.179  1.00  0.00    -0.194 A  
HETATM    6  C   UNL     1      -8.032   8.977  66.571  1.00  0.00    -0.103 A  
HETATM    7  C   UNL     1     -10.332   9.469  67.018  1.00  0.00    -0.319 A  
HETATM    8  C   UNL     1      -9.343   8.542  66.731  1.00  0.00    -0.232 A  
ENDROOT
BRANCH   5   9
HETATM    9  N   UNL     1     -11.078  11.804  67.223  1.00  0.00    -0.269 NA 
HETATM   10  H   UNL     1     -11.478  12.104  66.334  1.00  0.00     0.000 HD 
BRANCH   9  11
HETATM   11  C   UNL     1     -11.605  12.386  68.411  1.00  0.00    -0.324 A  
HETATM   12  C   UNL     1     -11.972  11.568  69.494  1.00  0.00    -0.402 A  
HETATM   13  C   UNL     1     -12.309  12.100  70.738  1.00  0.00    -0.391 A  
HETATM   14  C   UNL     1     -12.337  13.478  70.911  1.00  0.00    -0.437 A  
HETATM   15  C   UNL     1     -12.106  14.314  69.819  1.00  0.00    -0.401 A  
HETATM   16  C   UNL     1     -11.790  13.774  68.562  1.00  0.00    -0.406 A  
HETATM   17  C   UNL     1     -11.665  14.716  67.431  1.00  0.00    -0.390 C  
HETATM   18  O   UNL     1     -11.181  15.829  67.524  1.00  0.00    -0.308 OA 
HETATM   19  O   UNL     1     -12.213  14.231  66.291  1.00  0.00    -0.436 OA 
ENDBRANCH   9  11
ENDBRANCH   5   9
TORSDOF 2
ENDMDL
MODEL      119
REMARK 921   NORMALIZED FREE ENERGY PREDICTED BY IDOCK:   -4.52 KCAL/MOL
REMARK 922        TOTAL FREE ENERGY PREDICTED BY IDOCK:   -5.69 KCAL/MOL
REMARK 923 INTER-LIGAND FREE ENERGY PREDICTED BY IDOCK:   -5.64 KCAL/MOL
REMARK 924 INTRA-LIGAND FREE ENERGY PREDICTED BY IDOCK:   -0.05 KCAL/MOL
REMARK 927      BINDING AFFINITY PREDICTED BY RF-SCORE:    0.00 PKD
ROOT
HETATM    1  C   UNL     1     -10.956  16.017  67.876  1.00  0.00    -0.327 C  
HETATM    2  C   UNL     1     -11.575  14.946  68.736  1.00  0.00    -0.348 A  
HETATM    3  C   UNL     1     -11.909  13.663  68.252  1.00  0.00    -0.404 A  
HETATM    4  C   UNL     1     -11.925  13.372  66.774  1.00  0.00    -0.447 C  
HETATM    5  C   UNL     1     -12.197  12.643  69.185  1.00  0.00    -0.009 A  
HETATM    6  C   UNL     1     -11.788  15.259  70.085  1.00  0.00    -0.356 A  
HETATM    7  C   UNL     1     -12.468  13.004  70.516  1.00  0.00    -0.306 A  
HETATM    8  C   UNL     1     -12.282  14.301  70.965  1.00  0.00    -0.428 A  
ENDROOT
BRANCH   5   9
HETATM    9  N   UNL     1     -12.151  11.270  68.801  1.00  0.00    -0.545 NA 
HETATM   10  H   UNL     1     -12.659  10.999  67.959  1.00  0.00     0.000 HD 
BRANCH   9  11
HETATM   11  C   UNL     1     -11.449  10.247  69.502  1.00  0.00    -0.210 A  
HETATM   12  C   UNL     1     -11.452  10.226  70.908  1.00  0.00    -0.425 A  
HETATM   13  C   UNL     1     -10.945   9.146  71.630  1.00  0.00    -0.445 A  
HETATM   14  C   UNL     1     -10.370   8.078  70.954  1.00  0.00    -0.221 A  
HETATM   15  C   UNL     1     -10.235   8.132  69.567  1.00  0.00    -0.213 A  
HETATM   16  C   UNL     1     -10.726   9.232  68.845  1.00  0.00    -0.182 A  
HETATM   17  C   UNL     1     -10.451   9.269  67.394  1.00  0.00    -0.273 C  
HETATM   18  O   UNL     1     -10.450   8.285  66.678  1.00  0.00    -0.305 OA 
HETATM   19  O   UNL     1     -10.130  10.512  66.961  1.00  0.00    -0.196 OA 
ENDBRANCH   9  11
ENDBRANCH   5   9
TORSDOF 2
ENDMDL
MODEL      120
REMARK 921   NORMALIZED FREE ENERGY PREDICTED BY IDOCK:   -4.52 KCAL/MOL
REMARK 922        TOTAL FREE ENERGY PREDICTED BY IDOCK:   -5.69 KCAL/MOL
REMARK 923 INTER-LIGAND FREE ENERGY PREDICTED BY IDOCK:   -5.15 KCAL/MOL
REMARK 924 INTRA-LIGAND FREE ENERGY PREDICTED BY IDOCK:   -0.54 KCAL/MOL
REMARK 927      BINDING AFFINITY PREDICTED BY RF-SCORE:    0.00 PKD
ROOT
HETATM    1  C   UNL     1      -8.374   5.389  72.475  1.00  0.00    -0.114 C  
HETATM    2  C   UNL     1      -9.353   6.015  71.518  1.00  0.00    -0.161 A  
HETATM    3  C   UNL     1      -9.630   7.400  71.491  1.00  0.00    -0.163 A  
HETATM    4  C   UNL     1      -9.170   8.304  72.604  1.00  0.00    -0.345 C  
HETATM    5  C   UNL     1     -10.321   7.928  70.378  1.00  0.00    -0.212 A  
HETATM    6  C   UNL     1      -9.982   5.161  70.602  1.00  0.00    -0.296 A  
HETATM    7  C   UNL     1     -10.992   7.042  69.518  1.00  0.00    -0.251 A  
HETATM    8  C   UNL     1     -10.841   5.670  69.633  1.00  0.00    -0.365 A  
ENDROOT
BRANCH   5   9
HETATM    9  N   UNL     1     -10.285   9.326  70.096  1.00  0.00    -0.200 NA 
HETATM   10  H   UNL     1      -9.479   9.682  69.582  1.00  0.00     0.000 HD 
BRANCH   9  11
HETATM   11  C   UNL     1     -11.289  10.264  70.475  1.00  0.00    -0.341 A  
HETATM   12  C   UNL     1     -12.199   9.947  71.498  1.00  0.00    -0.505 A  
HETATM   13  C   UNL     1     -13.069  10.898  72.032  1.00  0.00    -0.462 A  
HETATM   14  C   UNL     1     -13.081  12.185  71.510  1.00  0.00    -0.357 A  
HETATM   15  C   UNL     1     -12.283  12.490  70.408  1.00  0.00    -0.368 A  
HETATM   16  C   UNL     1     -11.425  11.523  69.859  1.00  0.00    -0.340 A  
HETATM   17  C   UNL     1     -10.692  11.886  68.629  1.00  0.00    -0.235 C  
HETATM   18  O   UNL     1     -10.242  12.995  68.410  1.00  0.00    -0.242 OA 
HETATM   19  O   UNL     1     -10.638  10.866  67.740  1.00  0.00    -0.190 OA 
ENDBRANCH   9  11
ENDBRANCH   5   9
TORSDOF 2
ENDMDL
MODEL      121
REMARK 921   NORMALIZED FREE ENERGY PREDICTED BY IDOCK:   -4.51 KCAL/MOL
REMARK 922        TOTAL FREE ENERGY PREDICTED BY IDOCK:   -5.69 KCAL/MOL
REMARK 923 INTER-LIGAND FREE ENERGY PREDICTED BY IDOCK:   -5.27 KCAL/MOL
REMARK 924 INTRA-LIGAND FREE ENERGY PREDICTED BY IDOCK:   -0.41 KCAL/MOL
REMARK 927      BINDING AFFINITY PREDICTED BY RF-SCORE:    0.00 PKD
ROOT
HETATM    1  C   UNL     1     -10.898  15.524  68.671  1.00  0.00    -0.267 C  
HETATM    2  C   UNL     1     -11.590  14.333  69.277  1.00  0.00    -0.350 A  
HETATM    3  C   UNL     1     -11.910  13.169  68.544  1.00  0.00    -0.377 A  
HETATM    4  C   UNL     1     -11.828  13.153  67.041  1.00  0.00    -0.435 C  
HETATM    5  C   UNL     1     -12.278  12.004  69.254  1.00  0.00    -0.077 A  
HETATM    6  C   UNL     1     -11.892  14.400  70.644  1.00  0.00    -0.361 A  
HETATM    7  C   UNL     1     -12.634  12.124  70.608  1.00  0.00    -0.255 A  
HETATM    8  C   UNL     1     -12.460  13.312  71.299  1.00  0.00    -0.351 A  
ENDROOT
BRANCH   5   9
HETATM    9  N   UNL     1     -12.226  10.723  68.628  1.00  0.00    -0.827 NA 
HETATM   10  H   UNL     1     -13.111  10.301  68.346  1.00  0.00     0.000 HD 
BRANCH   9  11
HETATM   11  C   UNL     1     -11.034   9.988  68.366  1.00  0.00    -0.217 A  
HETATM   12  C   UNL     1     -10.525   9.914  67.057  1.00  0.00    -0.296 A  
HETATM   13  C   UNL     1      -9.269   9.372  66.785  1.00  0.00    -0.179 A  
HETATM   14  C   UNL     1      -8.512   8.840  67.820  1.00  0.00    -0.125 A  
HETATM   15  C   UNL     1      -9.048   8.781  69.106  1.00  0.00    -0.141 A  
HETATM   16  C   UNL     1     -10.323   9.307  69.372  1.00  0.00    -0.223 A  
HETATM   17  C   UNL     1     -10.867   9.112  70.732  1.00  0.00    -0.268 C  
HETATM   18  O   UNL     1     -10.194   9.154  71.745  1.00  0.00    -0.338 OA 
HETATM   19  O   UNL     1     -12.188   8.809  70.721  1.00  0.00    -0.182 OA 
ENDBRANCH   9  11
ENDBRANCH   5   9
TORSDOF 2
ENDMDL
MODEL      122
REMARK 921   NORMALIZED FREE ENERGY PREDICTED BY IDOCK:   -4.50 KCAL/MOL
REMARK 922        TOTAL FREE ENERGY PREDICTED BY IDOCK:   -5.67 KCAL/MOL
REMARK 923 INTER-LIGAND FREE ENERGY PREDICTED BY IDOCK:   -5.20 KCAL/MOL
REMARK 924 INTRA-LIGAND FREE ENERGY PREDICTED BY IDOCK:   -0.47 KCAL/MOL
REMARK 927      BINDING AFFINITY PREDICTED BY RF-SCORE:    0.00 PKD
ROOT
HETATM    1  C   UNL     1     -12.281  13.649  70.242  1.00  0.00    -0.423 C  
HETATM    2  C   UNL     1     -12.263  12.186  70.600  1.00  0.00    -0.392 A  
HETATM    3  C   UNL     1     -11.380  11.257  70.009  1.00  0.00    -0.292 A  
HETATM    4  C   UNL     1     -10.586  11.614  68.780  1.00  0.00    -0.241 C  
HETATM    5  C   UNL     1     -11.229   9.989  70.614  1.00  0.00    -0.350 A  
HETATM    6  C   UNL     1     -13.157  11.763  71.593  1.00  0.00    -0.443 A  
HETATM    7  C   UNL     1     -12.183   9.577  71.560  1.00  0.00    -0.468 A  
HETATM    8  C   UNL     1     -13.150  10.445  72.038  1.00  0.00    -0.521 A  
ENDROOT
BRANCH   5   9
HETATM    9  N   UNL     1     -10.098   9.172  70.321  1.00  0.00    -0.192 NA 
HETATM   10  H   UNL     1      -9.249   9.640  70.004  1.00  0.00     0.000 HD 
BRANCH   9  11
HETATM   11  C   UNL     1     -10.061   7.752  70.437  1.00  0.00    -0.194 A  
HETATM   12  C   UNL     1     -10.929   6.960  69.666  1.00  0.00    -0.298 A  
HETATM   13  C   UNL     1     -10.799   5.573  69.603  1.00  0.00    -0.279 A  
HETATM   14  C   UNL     1      -9.821   4.940  70.359  1.00  0.00    -0.302 A  
HETATM   15  C   UNL     1      -9.034   5.689  71.233  1.00  0.00    -0.149 A  
HETATM   16  C   UNL     1      -9.183   7.083  71.311  1.00  0.00    -0.152 A  
HETATM   17  C   UNL     1      -8.391   7.794  72.335  1.00  0.00    -0.126 C  
HETATM   18  O   UNL     1      -7.252   7.493  72.642  1.00  0.00    -0.070 OA 
HETATM   19  O   UNL     1      -9.097   8.775  72.946  1.00  0.00    -0.311 OA 
ENDBRANCH   9  11
ENDBRANCH   5   9
TORSDOF 2
ENDMDL
MODEL      123
REMARK 921   NORMALIZED FREE ENERGY PREDICTED BY IDOCK:   -4.50 KCAL/MOL
REMARK 922        TOTAL FREE ENERGY PREDICTED BY IDOCK:   -5.67 KCAL/MOL
REMARK 923 INTER-LIGAND FREE ENERGY PREDICTED BY IDOCK:   -5.09 KCAL/MOL
REMARK 924 INTRA-LIGAND FREE ENERGY PREDICTED BY IDOCK:   -0.58 KCAL/MOL
REMARK 927      BINDING AFFINITY PREDICTED BY RF-SCORE:    0.00 PKD
ROOT
HETATM    1  C   UNL     1      -8.904   7.594  70.967  1.00  0.00    -0.142 C  
HETATM    2  C   UNL     1      -9.696   8.828  70.623  1.00  0.00    -0.239 A  
HETATM    3  C   UNL     1      -9.180   9.884  69.840  1.00  0.00    -0.245 A  
HETATM    4  C   UNL     1      -7.709   9.973  69.530  1.00  0.00    -0.146 C  
HETATM    5  C   UNL     1     -10.080  10.843  69.323  1.00  0.00    -0.140 A  
HETATM    6  C   UNL     1     -11.016   8.887  71.090  1.00  0.00    -0.356 A  
HETATM    7  C   UNL     1     -11.375  10.911  69.863  1.00  0.00    -0.381 A  
HETATM    8  C   UNL     1     -11.840   9.955  70.750  1.00  0.00    -0.415 A  
ENDROOT
BRANCH   5   9
HETATM    9  N   UNL     1      -9.703  11.680  68.231  1.00  0.00    -0.192 NA 
HETATM   10  H   UNL     1      -8.717  11.702  67.973  1.00  0.00     0.000 HD 
BRANCH   9  11
HETATM   11  C   UNL     1     -10.599  12.487  67.472  1.00  0.00    -0.220 A  
HETATM   12  C   UNL     1     -11.259  11.948  66.354  1.00  0.00    -0.387 A  
HETATM   13  C   UNL     1     -12.282  12.634  65.700  1.00  0.00    -0.474 A  
HETATM   14  C   UNL     1     -12.631  13.910  66.123  1.00  0.00    -0.426 A  
HETATM   15  C   UNL     1     -11.904  14.521  67.144  1.00  0.00    -0.412 A  
HETATM   16  C   UNL     1     -10.860  13.835  67.785  1.00  0.00    -0.262 A  
HETATM   17  C   UNL     1     -10.067  14.584  68.781  1.00  0.00    -0.239 C  
HETATM   18  O   UNL     1     -10.538  15.405  69.545  1.00  0.00    -0.235 OA 
HETATM   19  O   UNL     1      -8.743  14.307  68.701  1.00  0.00    -0.181 OA 
ENDBRANCH   9  11
ENDBRANCH   5   9
TORSDOF 2
ENDMDL
MODEL      124
REMARK 921   NORMALIZED FREE ENERGY PREDICTED BY IDOCK:   -4.50 KCAL/MOL
REMARK 922        TOTAL FREE ENERGY PREDICTED BY IDOCK:   -5.67 KCAL/MOL
REMARK 923 INTER-LIGAND FREE ENERGY PREDICTED BY IDOCK:   -5.10 KCAL/MOL
REMARK 924 INTRA-LIGAND FREE ENERGY PREDICTED BY IDOCK:   -0.57 KCAL/MOL
REMARK 927      BINDING AFFINITY PREDICTED BY RF-SCORE:    0.00 PKD
ROOT
HETATM    1  C   UNL     1     -10.574   7.335  73.313  1.00  0.00    -0.428 C  
HETATM    2  C   UNL     1     -10.729   6.957  71.863  1.00  0.00    -0.245 A  
HETATM    3  C   UNL     1     -11.165   7.861  70.871  1.00  0.00    -0.284 A  
HETATM    4  C   UNL     1     -11.772   9.188  71.243  1.00  0.00    -0.396 C  
HETATM    5  C   UNL     1     -10.992   7.510  69.514  1.00  0.00    -0.113 A  
HETATM    6  C   UNL     1     -10.385   5.645  71.508  1.00  0.00    -0.279 A  
HETATM    7  C   UNL     1     -10.710   6.170  69.195  1.00  0.00    -0.381 A  
HETATM    8  C   UNL     1     -10.424   5.238  70.179  1.00  0.00    -0.338 A  
ENDROOT
BRANCH   5   9
HETATM    9  N   UNL     1     -11.036   8.505  68.492  1.00  0.00    -0.436 NA 
HETATM   10  H   UNL     1     -11.881   8.558  67.924  1.00  0.00     0.000 HD 
BRANCH   9  11
HETATM   11  C   UNL     1      -9.991   9.429  68.204  1.00  0.00    -0.175 A  
HETATM   12  C   UNL     1      -8.656   9.096  68.492  1.00  0.00    -0.129 A  
HETATM   13  C   UNL     1      -7.590   9.882  68.056  1.00  0.00    -0.085 A  
HETATM   14  C   UNL     1      -7.843  11.058  67.361  1.00  0.00    -0.118 A  
HETATM   15  C   UNL     1      -9.159  11.479  67.177  1.00  0.00    -0.167 A  
HETATM   16  C   UNL     1     -10.230  10.696  67.638  1.00  0.00    -0.229 A  
HETATM   17  C   UNL     1     -11.589  11.259  67.503  1.00  0.00    -0.175 C  
HETATM   18  O   UNL     1     -11.957  11.924  66.553  1.00  0.00    -0.588 OA 
HETATM   19  O   UNL     1     -12.362  11.010  68.588  1.00  0.00    -0.539 OA 
ENDBRANCH   9  11
ENDBRANCH   5   9
TORSDOF 2
ENDMDL
MODEL      125
REMARK 921   NORMALIZED FREE ENERGY PREDICTED BY IDOCK:   -4.46 KCAL/MOL
REMARK 922        TOTAL FREE ENERGY PREDICTED BY IDOCK:   -5.63 KCAL/MOL
REMARK 923 INTER-LIGAND FREE ENERGY PREDICTED BY IDOCK:   -5.12 KCAL/MOL
REMARK 924 INTRA-LIGAND FREE ENERGY PREDICTED BY IDOCK:   -0.51 KCAL/MOL
REMARK 927      BINDING AFFINITY PREDICTED BY RF-SCORE:    0.00 PKD
ROOT
HETATM    1  C   UNL     1     -11.778  15.400  68.236  1.00  0.00    -0.313 C  
HETATM    2  C   UNL     1     -10.292  15.512  68.024  1.00  0.00    -0.247 A  
HETATM    3  C   UNL     1      -9.557  16.685  68.304  1.00  0.00    -0.233 A  
HETATM    4  C   UNL     1     -10.255  17.992  68.571  1.00  0.00    -0.392 C  
HETATM    5  C   UNL     1      -8.148  16.601  68.361  1.00  0.00    -0.208 A  
HETATM    6  C   UNL     1      -9.629  14.370  67.554  1.00  0.00    -0.215 A  
HETATM    7  C   UNL     1      -7.518  15.466  67.822  1.00  0.00    -0.173 A  
HETATM    8  C   UNL     1      -8.246  14.364  67.406  1.00  0.00    -0.215 A  
ENDROOT
BRANCH   5   9
HETATM    9  N   UNL     1      -7.384  17.615  69.011  1.00  0.00    -0.233 NA 
HETATM   10  H   UNL     1      -7.172  17.483  70.000  1.00  0.00     0.000 HD 
BRANCH   9  11
HETATM   11  C   UNL     1      -6.895  18.798  68.387  1.00  0.00    -0.249 A  
HETATM   12  C   UNL     1      -6.980  18.945  66.991  1.00  0.00    -0.211 A  
HETATM   13  C   UNL     1      -6.693  20.155  66.358  1.00  0.00    -0.250 A  
HETATM   14  C   UNL     1      -6.260  21.238  67.113  1.00  0.00    -0.414 A  
HETATM   15  C   UNL     1      -6.041  21.081  68.481  1.00  0.00    -0.269 A  
HETATM   16  C   UNL     1      -6.308  19.854  69.110  1.00  0.00    -0.353 A  
HETATM   17  C   UNL     1      -5.950  19.732  70.538  1.00  0.00    -0.269 C  
HETATM   18  O   UNL     1      -6.066  20.634  71.347  1.00  0.00    -0.628 OA 
HETATM   19  O   UNL     1      -5.410  18.525  70.834  1.00  0.00    -0.253 OA 
ENDBRANCH   9  11
ENDBRANCH   5   9
TORSDOF 2
ENDMDL
MODEL      126
REMARK 921   NORMALIZED FREE ENERGY PREDICTED BY IDOCK:   -4.46 KCAL/MOL
REMARK 922        TOTAL FREE ENERGY PREDICTED BY IDOCK:   -5.62 KCAL/MOL
REMARK 923 INTER-LIGAND FREE ENERGY PREDICTED BY IDOCK:   -5.11 KCAL/MOL
REMARK 924 INTRA-LIGAND FREE ENERGY PREDICTED BY IDOCK:   -0.51 KCAL/MOL
REMARK 927      BINDING AFFINITY PREDICTED BY RF-SCORE:    0.00 PKD
ROOT
HETATM    1  C   UNL     1      -7.306  10.474  67.576  1.00  0.00    -0.092 C  
HETATM    2  C   UNL     1      -8.459  10.506  68.544  1.00  0.00    -0.131 A  
HETATM    3  C   UNL     1      -9.366  11.585  68.630  1.00  0.00    -0.142 A  
HETATM    4  C   UNL     1      -9.077  12.897  67.951  1.00  0.00    -0.201 C  
HETATM    5  C   UNL     1     -10.571  11.397  69.342  1.00  0.00    -0.052 A  
HETATM    6  C   UNL     1      -8.631   9.383  69.365  1.00  0.00    -0.148 A  
HETATM    7  C   UNL     1     -10.681  10.292  70.203  1.00  0.00    -0.334 A  
HETATM    8  C   UNL     1      -9.717   9.299  70.231  1.00  0.00    -0.274 A  
ENDROOT
BRANCH   5   9
HETATM    9  N   UNL     1     -11.679  12.274  69.142  1.00  0.00    -0.309 NA 
HETATM   10  H   UNL     1     -12.169  12.216  68.250  1.00  0.00     0.000 HD 
BRANCH   9  11
HETATM   11  C   UNL     1     -12.154  13.224  70.092  1.00  0.00    -0.333 A  
HETATM   12  C   UNL     1     -12.798  12.788  71.263  1.00  0.00    -0.355 A  
HETATM   13  C   UNL     1     -13.105  13.663  72.305  1.00  0.00    -0.491 A  
HETATM   14  C   UNL     1     -12.819  15.015  72.171  1.00  0.00    -0.414 A  
HETATM   15  C   UNL     1     -12.302  15.495  70.968  1.00  0.00    -0.471 A  
HETATM   16  C   UNL     1     -12.015  14.614  69.913  1.00  0.00    -0.381 A  
HETATM   17  C   UNL     1     -11.571  15.207  68.635  1.00  0.00    -0.338 C  
HETATM   18  O   UNL     1     -10.847  16.181  68.554  1.00  0.00    -0.279 OA 
HETATM   19  O   UNL     1     -12.118  14.588  67.561  1.00  0.00    -0.366 OA 
ENDBRANCH   9  11
ENDBRANCH   5   9
TORSDOF 2
ENDMDL
MODEL      127
REMARK 921   NORMALIZED FREE ENERGY PREDICTED BY IDOCK:   -4.45 KCAL/MOL
REMARK 922        TOTAL FREE ENERGY PREDICTED BY IDOCK:   -5.61 KCAL/MOL
REMARK 923 INTER-LIGAND FREE ENERGY PREDICTED BY IDOCK:   -4.97 KCAL/MOL
REMARK 924 INTRA-LIGAND FREE ENERGY PREDICTED BY IDOCK:   -0.64 KCAL/MOL
REMARK 927      BINDING AFFINITY PREDICTED BY RF-SCORE:    0.00 PKD
ROOT
HETATM    1  C   UNL     1      -9.037   6.145  74.266  1.00  0.00    -0.148 C  
HETATM    2  C   UNL     1      -9.972   6.546  73.157  1.00  0.00    -0.193 A  
HETATM    3  C   UNL     1      -9.704   7.608  72.266  1.00  0.00    -0.226 A  
HETATM    4  C   UNL     1      -8.595   8.589  72.540  1.00  0.00    -0.204 C  
HETATM    5  C   UNL     1     -10.479   7.714  71.090  1.00  0.00    -0.208 A  
HETATM    6  C   UNL     1     -11.142   5.789  73.007  1.00  0.00    -0.305 A  
HETATM    7  C   UNL     1     -11.679   6.987  71.005  1.00  0.00    -0.375 A  
HETATM    8  C   UNL     1     -12.021   6.043  71.959  1.00  0.00    -0.237 A  
ENDROOT
BRANCH   5   9
HETATM    9  N   UNL     1     -10.022   8.492  69.984  1.00  0.00    -0.185 NA 
HETATM   10  H   UNL     1      -9.160   8.196  69.526  1.00  0.00     0.000 HD 
BRANCH   9  11
HETATM   11  C   UNL     1     -10.676   9.649  69.471  1.00  0.00    -0.232 A  
HETATM   12  C   UNL     1     -11.322  10.540  70.346  1.00  0.00    -0.411 A  
HETATM   13  C   UNL     1     -11.806  11.775  69.915  1.00  0.00    -0.423 A  
HETATM   14  C   UNL     1     -11.700  12.124  68.575  1.00  0.00    -0.382 A  
HETATM   15  C   UNL     1     -11.183  11.204  67.663  1.00  0.00    -0.364 A  
HETATM   16  C   UNL     1     -10.718   9.952  68.097  1.00  0.00    -0.279 A  
HETATM   17  C   UNL     1     -10.286   8.992  67.060  1.00  0.00    -0.269 C  
HETATM   18  O   UNL     1      -9.698   9.310  66.044  1.00  0.00    -0.254 OA 
HETATM   19  O   UNL     1     -10.680   7.725  67.334  1.00  0.00    -0.278 OA 
ENDBRANCH   9  11
ENDBRANCH   5   9
TORSDOF 2
ENDMDL
MODEL      128
REMARK 921   NORMALIZED FREE ENERGY PREDICTED BY IDOCK:   -4.44 KCAL/MOL
REMARK 922        TOTAL FREE ENERGY PREDICTED BY IDOCK:   -5.60 KCAL/MOL
REMARK 923 INTER-LIGAND FREE ENERGY PREDICTED BY IDOCK:   -5.67 KCAL/MOL
REMARK 924 INTRA-LIGAND FREE ENERGY PREDICTED BY IDOCK:    0.06 KCAL/MOL
REMARK 927      BINDING AFFINITY PREDICTED BY RF-SCORE:    0.00 PKD
ROOT
HETATM    1  C   UNL     1      -7.687  20.597  66.628  1.00  0.00    -0.172 C  
HETATM    2  C   UNL     1      -7.669  19.095  66.727  1.00  0.00    -0.259 A  
HETATM    3  C   UNL     1      -8.828  18.321  66.956  1.00  0.00    -0.267 A  
HETATM    4  C   UNL     1     -10.116  18.965  67.394  1.00  0.00    -0.420 C  
HETATM    5  C   UNL     1      -8.764  16.927  66.735  1.00  0.00    -0.232 A  
HETATM    6  C   UNL     1      -6.432  18.460  66.549  1.00  0.00    -0.223 A  
HETATM    7  C   UNL     1      -7.501  16.320  66.624  1.00  0.00    -0.238 A  
HETATM    8  C   UNL     1      -6.341  17.072  66.547  1.00  0.00    -0.219 A  
ENDROOT
BRANCH   5   9
HETATM    9  N   UNL     1      -9.955  16.162  66.562  1.00  0.00    -0.265 NA 
HETATM   10  H   UNL     1     -10.843  16.621  66.764  1.00  0.00     0.000 HD 
BRANCH   9  11
HETATM   11  C   UNL     1     -10.001  14.806  66.128  1.00  0.00    -0.304 A  
HETATM   12  C   UNL     1      -9.100  13.865  66.658  1.00  0.00    -0.209 A  
HETATM   13  C   UNL     1      -9.231  12.499  66.411  1.00  0.00    -0.177 A  
HETATM   14  C   UNL     1     -10.244  12.047  65.575  1.00  0.00    -0.290 A  
HETATM   15  C   UNL     1     -11.069  12.969  64.931  1.00  0.00    -0.326 A  
HETATM   16  C   UNL     1     -10.920  14.345  65.166  1.00  0.00    -0.380 A  
HETATM   17  C   UNL     1     -11.757  15.264  64.367  1.00  0.00    -0.285 C  
HETATM   18  O   UNL     1     -12.909  15.032  64.051  1.00  0.00    -0.676 OA 
HETATM   19  O   UNL     1     -11.076  16.364  63.964  1.00  0.00    -0.725 OA 
ENDBRANCH   9  11
ENDBRANCH   5   9
TORSDOF 2
ENDMDL
MODEL      129
REMARK 921   NORMALIZED FREE ENERGY PREDICTED BY IDOCK:   -4.42 KCAL/MOL
REMARK 922        TOTAL FREE ENERGY PREDICTED BY IDOCK:   -5.58 KCAL/MOL
REMARK 923 INTER-LIGAND FREE ENERGY PREDICTED BY IDOCK:   -4.90 KCAL/MOL
REMARK 924 INTRA-LIGAND FREE ENERGY PREDICTED BY IDOCK:   -0.67 KCAL/MOL
REMARK 927      BINDING AFFINITY PREDICTED BY RF-SCORE:    0.00 PKD
ROOT
HETATM    1  C   UNL     1      -9.223   7.714  70.358  1.00  0.00    -0.156 C  
HETATM    2  C   UNL     1      -9.074   8.967  69.537  1.00  0.00    -0.146 A  
HETATM    3  C   UNL     1      -9.878   9.254  68.412  1.00  0.00    -0.173 A  
HETATM    4  C   UNL     1     -10.752   8.196  67.794  1.00  0.00    -0.166 C  
HETATM    5  C   UNL     1      -9.871  10.568  67.895  1.00  0.00    -0.160 A  
HETATM    6  C   UNL     1      -8.102   9.888  69.952  1.00  0.00    -0.200 A  
HETATM    7  C   UNL     1      -8.842  11.442  68.288  1.00  0.00    -0.167 A  
HETATM    8  C   UNL     1      -7.954  11.105  69.296  1.00  0.00     0.018 A  
ENDROOT
BRANCH   5   9
HETATM    9  N   UNL     1     -10.922  11.022  67.043  1.00  0.00    -0.284 NA 
HETATM   10  H   UNL     1     -11.846  11.137  67.458  1.00  0.00     0.000 HD 
BRANCH   9  11
HETATM   11  C   UNL     1     -10.779  11.326  65.659  1.00  0.00    -0.217 A  
HETATM   12  C   UNL     1      -9.929  10.551  64.850  1.00  0.00    -0.401 A  
HETATM   13  C   UNL     1      -9.905  10.687  63.463  1.00  0.00    -0.384 A  
HETATM   14  C   UNL     1     -10.700  11.650  62.854  1.00  0.00     0.006 A  
HETATM   15  C   UNL     1     -11.453  12.520  63.642  1.00  0.00    -0.568 A  
HETATM   16  C   UNL     1     -11.457  12.394  65.041  1.00  0.00    -0.378 A  
HETATM   17  C   UNL     1     -12.192  13.417  65.812  1.00  0.00    -0.458 C  
HETATM   18  O   UNL     1     -13.241  13.917  65.449  1.00  0.00    -0.750 OA 
HETATM   19  O   UNL     1     -11.533  13.789  66.935  1.00  0.00    -0.319 OA 
ENDBRANCH   9  11
ENDBRANCH   5   9
TORSDOF 2
ENDMDL
MODEL      130
REMARK 921   NORMALIZED FREE ENERGY PREDICTED BY IDOCK:   -4.42 KCAL/MOL
REMARK 922        TOTAL FREE ENERGY PREDICTED BY IDOCK:   -5.58 KCAL/MOL
REMARK 923 INTER-LIGAND FREE ENERGY PREDICTED BY IDOCK:   -4.84 KCAL/MOL
REMARK 924 INTRA-LIGAND FREE ENERGY PREDICTED BY IDOCK:   -0.73 KCAL/MOL
REMARK 927      BINDING AFFINITY PREDICTED BY RF-SCORE:    0.00 PKD
ROOT
HETATM    1  C   UNL     1      -9.053   9.854  67.467  1.00  0.00    -0.145 C  
HETATM    2  C   UNL     1      -8.928  11.352  67.373  1.00  0.00    -0.154 A  
HETATM    3  C   UNL     1     -10.039  12.213  67.238  1.00  0.00    -0.214 A  
HETATM    4  C   UNL     1     -11.403  11.672  66.898  1.00  0.00    -0.364 C  
HETATM    5  C   UNL     1      -9.853  13.595  67.460  1.00  0.00    -0.227 A  
HETATM    6  C   UNL     1      -7.637  11.889  67.459  1.00  0.00    -0.140 A  
HETATM    7  C   UNL     1      -8.543  14.105  67.477  1.00  0.00    -0.196 A  
HETATM    8  C   UNL     1      -7.441  13.266  67.461  1.00  0.00    -0.163 A  
ENDROOT
BRANCH   5   9
HETATM    9  N   UNL     1     -10.966  14.446  67.729  1.00  0.00    -0.268 NA 
HETATM   10  H   UNL     1     -11.495  14.796  66.929  1.00  0.00     0.000 HD 
BRANCH   9  11
HETATM   11  C   UNL     1     -11.398  14.845  69.026  1.00  0.00    -0.292 A  
HETATM   12  C   UNL     1     -12.230  14.002  69.783  1.00  0.00    -0.396 A  
HETATM   13  C   UNL     1     -12.518  14.260  71.123  1.00  0.00    -0.433 A  
HETATM   14  C   UNL     1     -12.019  15.409  71.723  1.00  0.00    -0.473 A  
HETATM   15  C   UNL     1     -11.301  16.329  70.960  1.00  0.00    -0.315 A  
HETATM   16  C   UNL     1     -11.032  16.076  69.605  1.00  0.00    -0.326 A  
HETATM   17  C   UNL     1     -10.361  17.144  68.836  1.00  0.00    -0.348 C  
HETATM   18  O   UNL     1      -9.494  17.866  69.291  1.00  0.00    -0.056 OA 
HETATM   19  O   UNL     1     -10.869  17.278  67.587  1.00  0.00    -0.335 OA 
ENDBRANCH   9  11
ENDBRANCH   5   9
TORSDOF 2
ENDMDL
MODEL      131
REMARK 921   NORMALIZED FREE ENERGY PREDICTED BY IDOCK:   -4.41 KCAL/MOL
REMARK 922        TOTAL FREE ENERGY PREDICTED BY IDOCK:   -5.57 KCAL/MOL
REMARK 923 INTER-LIGAND FREE ENERGY PREDICTED BY IDOCK:   -4.85 KCAL/MOL
REMARK 924 INTRA-LIGAND FREE ENERGY PREDICTED BY IDOCK:   -0.72 KCAL/MOL
REMARK 927      BINDING AFFINITY PREDICTED BY RF-SCORE:    0.00 PKD
ROOT
HETATM    1  C   UNL     1     -12.409  14.984  64.627  1.00  0.00    -0.223 C  
HETATM    2  C   UNL     1     -11.658  13.686  64.496  1.00  0.00    -0.415 A  
HETATM    3  C   UNL     1     -10.562  13.340  65.316  1.00  0.00    -0.325 A  
HETATM    4  C   UNL     1      -9.896  14.367  66.194  1.00  0.00    -0.340 C  
HETATM    5  C   UNL     1     -10.120  11.998  65.324  1.00  0.00    -0.260 A  
HETATM    6  C   UNL     1     -12.111  12.784  63.524  1.00  0.00    -0.642 A  
HETATM    7  C   UNL     1     -10.548  11.142  64.295  1.00  0.00    -0.425 A  
HETATM    8  C   UNL     1     -11.523  11.530  63.391  1.00  0.00    -0.274 A  
ENDROOT
BRANCH   5   9
HETATM    9  N   UNL     1      -9.309  11.504  66.388  1.00  0.00    -0.203 NA 
HETATM   10  H   UNL     1      -8.303  11.659  66.324  1.00  0.00     0.000 HD 
BRANCH   9  11
HETATM   11  C   UNL     1      -9.796  10.813  67.535  1.00  0.00    -0.172 A  
HETATM   12  C   UNL     1     -10.373  11.529  68.598  1.00  0.00    -0.226 A  
HETATM   13  C   UNL     1     -11.032  10.888  69.647  1.00  0.00    -0.311 A  
HETATM   14  C   UNL     1     -11.080   9.500  69.680  1.00  0.00    -0.196 A  
HETATM   15  C   UNL     1     -10.403   8.763  68.709  1.00  0.00    -0.234 A  
HETATM   16  C   UNL     1      -9.721   9.413  67.667  1.00  0.00    -0.191 A  
HETATM   17  C   UNL     1      -8.939   8.570  66.740  1.00  0.00    -0.146 C  
HETATM   18  O   UNL     1      -9.289   7.467  66.365  1.00  0.00    -0.177 OA 
HETATM   19  O   UNL     1      -7.753   9.133  66.406  1.00  0.00    -0.095 OA 
ENDBRANCH   9  11
ENDBRANCH   5   9
TORSDOF 2
ENDMDL
MODEL      132
REMARK 921   NORMALIZED FREE ENERGY PREDICTED BY IDOCK:   -4.40 KCAL/MOL
REMARK 922        TOTAL FREE ENERGY PREDICTED BY IDOCK:   -5.56 KCAL/MOL
REMARK 923 INTER-LIGAND FREE ENERGY PREDICTED BY IDOCK:   -5.50 KCAL/MOL
REMARK 924 INTRA-LIGAND FREE ENERGY PREDICTED BY IDOCK:   -0.06 KCAL/MOL
REMARK 927      BINDING AFFINITY PREDICTED BY RF-SCORE:    0.00 PKD
ROOT
HETATM    1  C   UNL     1     -10.495   8.596  70.669  1.00  0.00    -0.243 C  
HETATM    2  C   UNL     1     -10.770   9.519  69.511  1.00  0.00    -0.246 A  
HETATM    3  C   UNL     1     -11.687  10.591  69.579  1.00  0.00    -0.313 A  
HETATM    4  C   UNL     1     -12.655  10.712  70.725  1.00  0.00    -0.479 C  
HETATM    5  C   UNL     1     -11.656  11.570  68.561  1.00  0.00    -0.313 A  
HETATM    6  C   UNL     1     -10.044   9.296  68.334  1.00  0.00    -0.215 A  
HETATM    7  C   UNL     1     -10.968  11.283  67.370  1.00  0.00    -0.337 A  
HETATM    8  C   UNL     1     -10.181  10.151  67.245  1.00  0.00    -0.273 A  
ENDROOT
BRANCH   5   9
HETATM    9  N   UNL     1     -12.253  12.850  68.764  1.00  0.00    -0.109 NA 
HETATM   10  H   UNL     1     -13.263  12.880  68.904  1.00  0.00     0.000 HD 
BRANCH   9  11
HETATM   11  C   UNL     1     -11.549  14.088  68.785  1.00  0.00    -0.331 A  
HETATM   12  C   UNL     1     -10.493  14.314  67.885  1.00  0.00    -0.240 A  
HETATM   13  C   UNL     1      -9.905  15.570  67.739  1.00  0.00    -0.213 A  
HETATM   14  C   UNL     1     -10.331  16.624  68.538  1.00  0.00    -0.303 A  
HETATM   15  C   UNL     1     -11.284  16.395  69.530  1.00  0.00    -0.250 A  
HETATM   16  C   UNL     1     -11.857  15.123  69.689  1.00  0.00    -0.362 A  
HETATM   17  C   UNL     1     -12.778  14.931  70.828  1.00  0.00    -0.363 C  
HETATM   18  O   UNL     1     -13.561  15.778  71.218  1.00  0.00    -0.561 OA 
HETATM   19  O   UNL     1     -12.605  13.733  71.436  1.00  0.00    -0.348 OA 
ENDBRANCH   9  11
ENDBRANCH   5   9
TORSDOF 2
ENDMDL
MODEL      133
REMARK 921   NORMALIZED FREE ENERGY PREDICTED BY IDOCK:   -4.40 KCAL/MOL
REMARK 922        TOTAL FREE ENERGY PREDICTED BY IDOCK:   -5.56 KCAL/MOL
REMARK 923 INTER-LIGAND FREE ENERGY PREDICTED BY IDOCK:   -4.96 KCAL/MOL
REMARK 924 INTRA-LIGAND FREE ENERGY PREDICTED BY IDOCK:   -0.59 KCAL/MOL
REMARK 927      BINDING AFFINITY PREDICTED BY RF-SCORE:    0.00 PKD
ROOT
HETATM    1  C   UNL     1      -8.512   8.168  69.028  1.00  0.00    -0.129 C  
HETATM    2  C   UNL     1      -9.107   9.535  68.816  1.00  0.00    -0.133 A  
HETATM    3  C   UNL     1      -8.577  10.477  67.907  1.00  0.00    -0.123 A  
HETATM    4  C   UNL     1      -7.217  10.280  67.292  1.00  0.00    -0.089 C  
HETATM    5  C   UNL     1      -9.365  11.596  67.558  1.00  0.00    -0.168 A  
HETATM    6  C   UNL     1     -10.261   9.846  69.548  1.00  0.00    -0.243 A  
HETATM    7  C   UNL     1     -10.478  11.911  68.356  1.00  0.00    -0.231 A  
HETATM    8  C   UNL     1     -10.918  11.057  69.353  1.00  0.00    -0.301 A  
ENDROOT
BRANCH   5   9
HETATM    9  N   UNL     1      -9.076  12.353  66.384  1.00  0.00    -0.358 NA 
HETATM   10  H   UNL     1      -8.096  12.542  66.175  1.00  0.00     0.000 HD 
BRANCH   9  11
HETATM   11  C   UNL     1     -10.051  12.865  65.480  1.00  0.00    -0.257 A  
HETATM   12  C   UNL     1     -10.480  12.086  64.391  1.00  0.00    -0.353 A  
HETATM   13  C   UNL     1     -11.562  12.463  63.597  1.00  0.00    -0.580 A  
HETATM   14  C   UNL     1     -12.210  13.667  63.845  1.00  0.00    -0.429 A  
HETATM   15  C   UNL     1     -11.722  14.520  64.834  1.00  0.00    -0.402 A  
HETATM   16  C   UNL     1     -10.617  14.147  65.617  1.00  0.00    -0.317 A  
HETATM   17  C   UNL     1     -10.092  15.146  66.569  1.00  0.00    -0.269 C  
HETATM   18  O   UNL     1     -10.792  15.916  67.201  1.00  0.00    -0.319 OA 
HETATM   19  O   UNL     1      -8.738  15.160  66.609  1.00  0.00    -0.262 OA 
ENDBRANCH   9  11
ENDBRANCH   5   9
TORSDOF 2
ENDMDL
MODEL      134
REMARK 921   NORMALIZED FREE ENERGY PREDICTED BY IDOCK:   -4.38 KCAL/MOL
REMARK 922        TOTAL FREE ENERGY PREDICTED BY IDOCK:   -5.53 KCAL/MOL
REMARK 923 INTER-LIGAND FREE ENERGY PREDICTED BY IDOCK:   -5.33 KCAL/MOL
REMARK 924 INTRA-LIGAND FREE ENERGY PREDICTED BY IDOCK:   -0.20 KCAL/MOL
REMARK 927      BINDING AFFINITY PREDICTED BY RF-SCORE:    0.00 PKD
ROOT
HETATM    1  C   UNL     1      -6.215  11.203  66.915  1.00  0.00    -0.111 C  
HETATM    2  C   UNL     1      -7.693  11.116  66.638  1.00  0.00    -0.155 A  
HETATM    3  C   UNL     1      -8.578  12.202  66.815  1.00  0.00    -0.163 A  
HETATM    4  C   UNL     1      -8.148  13.440  67.558  1.00  0.00    -0.183 C  
HETATM    5  C   UNL     1      -9.870  12.119  66.251  1.00  0.00    -0.234 A  
HETATM    6  C   UNL     1      -8.178   9.894  66.153  1.00  0.00    -0.118 A  
HETATM    7  C   UNL     1     -10.344  10.863  65.835  1.00  0.00    -0.310 A  
HETATM    8  C   UNL     1      -9.516   9.753  65.799  1.00  0.00    -0.300 A  
ENDROOT
BRANCH   5   9
HETATM    9  N   UNL     1     -10.653  13.294  66.048  1.00  0.00    -0.282 NA 
HETATM   10  H   UNL     1     -10.961  13.495  65.097  1.00  0.00     0.000 HD 
BRANCH   9  11
HETATM   11  C   UNL     1     -11.040  14.207  67.071  1.00  0.00    -0.307 A  
HETATM   12  C   UNL     1     -11.715  13.742  68.213  1.00  0.00    -0.394 A  
HETATM   13  C   UNL     1     -11.941  14.560  69.320  1.00  0.00    -0.355 A  
HETATM   14  C   UNL     1     -11.539  15.889  69.284  1.00  0.00    -0.372 A  
HETATM   15  C   UNL     1     -10.987  16.411  68.114  1.00  0.00    -0.339 A  
HETATM   16  C   UNL     1     -10.782  15.589  66.994  1.00  0.00    -0.321 A  
HETATM   17  C   UNL     1     -10.294  16.236  65.759  1.00  0.00    -0.374 C  
HETATM   18  O   UNL     1      -9.488  17.147  65.743  1.00  0.00    -0.525 OA 
HETATM   19  O   UNL     1     -10.896  15.748  64.648  1.00  0.00    -0.488 OA 
ENDBRANCH   9  11
ENDBRANCH   5   9
TORSDOF 2
ENDMDL
MODEL      135
REMARK 921   NORMALIZED FREE ENERGY PREDICTED BY IDOCK:   -4.38 KCAL/MOL
REMARK 922        TOTAL FREE ENERGY PREDICTED BY IDOCK:   -5.53 KCAL/MOL
REMARK 923 INTER-LIGAND FREE ENERGY PREDICTED BY IDOCK:   -4.90 KCAL/MOL
REMARK 924 INTRA-LIGAND FREE ENERGY PREDICTED BY IDOCK:   -0.63 KCAL/MOL
REMARK 927      BINDING AFFINITY PREDICTED BY RF-SCORE:    0.00 PKD
ROOT
HETATM    1  C   UNL     1      -8.795  10.748  65.647  1.00  0.00    -0.202 C  
HETATM    2  C   UNL     1      -9.824  10.830  66.743  1.00  0.00    -0.233 A  
HETATM    3  C   UNL     1     -10.390   9.692  67.359  1.00  0.00    -0.306 A  
HETATM    4  C   UNL     1     -10.206   8.319  66.769  1.00  0.00    -0.375 C  
HETATM    5  C   UNL     1     -11.108   9.864  68.563  1.00  0.00    -0.129 A  
HETATM    6  C   UNL     1     -10.196  12.111  67.171  1.00  0.00    -0.226 A  
HETATM    7  C   UNL     1     -11.517  11.158  68.926  1.00  0.00    -0.363 A  
HETATM    8  C   UNL     1     -11.082  12.275  68.232  1.00  0.00    -0.282 A  
ENDROOT
BRANCH   5   9
HETATM    9  N   UNL     1     -11.356   8.756  69.427  1.00  0.00    -0.391 NA 
HETATM   10  H   UNL     1     -12.167   8.172  69.222  1.00  0.00     0.000 HD 
BRANCH   9  11
HETATM   11  C   UNL     1     -10.559   8.401  70.554  1.00  0.00    -0.216 A  
HETATM   12  C   UNL     1      -9.174   8.211  70.405  1.00  0.00    -0.151 A  
HETATM   13  C   UNL     1      -8.330   8.054  71.504  1.00  0.00    -0.139 A  
HETATM   14  C   UNL     1      -8.868   8.030  72.785  1.00  0.00    -0.277 A  
HETATM   15  C   UNL     1     -10.251   8.084  72.952  1.00  0.00    -0.384 A  
HETATM   16  C   UNL     1     -11.100   8.219  71.841  1.00  0.00    -0.357 A  
HETATM   17  C   UNL     1     -12.555   8.161  72.088  1.00  0.00    -0.310 C  
HETATM   18  O   UNL     1     -13.097   8.635  73.068  1.00  0.00    -0.251 OA 
HETATM   19  O   UNL     1     -13.213   7.458  71.134  1.00  0.00    -0.306 OA 
ENDBRANCH   9  11
ENDBRANCH   5   9
TORSDOF 2
ENDMDL
MODEL      136
REMARK 921   NORMALIZED FREE ENERGY PREDICTED BY IDOCK:   -4.37 KCAL/MOL
REMARK 922        TOTAL FREE ENERGY PREDICTED BY IDOCK:   -5.52 KCAL/MOL
REMARK 923 INTER-LIGAND FREE ENERGY PREDICTED BY IDOCK:   -5.33 KCAL/MOL
REMARK 924 INTRA-LIGAND FREE ENERGY PREDICTED BY IDOCK:   -0.20 KCAL/MOL
REMARK 927      BINDING AFFINITY PREDICTED BY RF-SCORE:    0.00 PKD
ROOT
HETATM    1  C   UNL     1     -10.225  13.440  65.848  1.00  0.00    -0.302 C  
HETATM    2  C   UNL     1     -10.322  14.329  67.060  1.00  0.00    -0.267 A  
HETATM    3  C   UNL     1      -9.225  15.053  67.576  1.00  0.00    -0.189 A  
HETATM    4  C   UNL     1      -7.820  14.768  67.113  1.00  0.00    -0.180 C  
HETATM    5  C   UNL     1      -9.475  16.079  68.514  1.00  0.00    -0.216 A  
HETATM    6  C   UNL     1     -11.580  14.446  67.664  1.00  0.00    -0.396 A  
HETATM    7  C   UNL     1     -10.730  16.124  69.145  1.00  0.00    -0.292 A  
HETATM    8  C   UNL     1     -11.773  15.307  68.740  1.00  0.00    -0.374 A  
ENDROOT
BRANCH   5   9
HETATM    9  N   UNL     1      -8.498  17.087  68.769  1.00  0.00    -0.255 NA 
HETATM   10  H   UNL     1      -8.139  17.164  69.721  1.00  0.00     0.000 HD 
BRANCH   9  11
HETATM   11  C   UNL     1      -7.986  17.994  67.798  1.00  0.00    -0.235 A  
HETATM   12  C   UNL     1      -6.662  17.866  67.342  1.00  0.00    -0.191 A  
HETATM   13  C   UNL     1      -6.180  18.603  66.261  1.00  0.00    -0.215 A  
HETATM   14  C   UNL     1      -7.005  19.533  65.642  1.00  0.00    -0.317 A  
HETATM   15  C   UNL     1      -8.278  19.775  66.157  1.00  0.00    -0.363 A  
HETATM   16  C   UNL     1      -8.752  19.046  67.260  1.00  0.00    -0.298 A  
HETATM   17  C   UNL     1     -10.065  19.433  67.815  1.00  0.00    -0.401 C  
HETATM   18  O   UNL     1     -11.008  19.796  67.137  1.00  0.00    -0.426 OA 
HETATM   19  O   UNL     1     -10.082  19.406  69.169  1.00  0.00    -0.408 OA 
ENDBRANCH   9  11
ENDBRANCH   5   9
TORSDOF 2
ENDMDL
MODEL      137
REMARK 921   NORMALIZED FREE ENERGY PREDICTED BY IDOCK:   -4.36 KCAL/MOL
REMARK 922        TOTAL FREE ENERGY PREDICTED BY IDOCK:   -5.51 KCAL/MOL
REMARK 923 INTER-LIGAND FREE ENERGY PREDICTED BY IDOCK:   -4.94 KCAL/MOL
REMARK 924 INTRA-LIGAND FREE ENERGY PREDICTED BY IDOCK:   -0.58 KCAL/MOL
REMARK 927      BINDING AFFINITY PREDICTED BY RF-SCORE:    0.00 PKD
ROOT
HETATM    1  C   UNL     1     -10.494  15.525  65.016  1.00  0.00    -0.392 C  
HETATM    2  C   UNL     1      -9.911  14.658  66.101  1.00  0.00    -0.323 A  
HETATM    3  C   UNL     1     -10.457  13.408  66.468  1.00  0.00    -0.283 A  
HETATM    4  C   UNL     1     -11.821  12.987  65.989  1.00  0.00    -0.471 C  
HETATM    5  C   UNL     1      -9.681  12.542  67.270  1.00  0.00    -0.202 A  
HETATM    6  C   UNL     1      -8.754  15.126  66.737  1.00  0.00    -0.307 A  
HETATM    7  C   UNL     1      -8.564  13.066  67.942  1.00  0.00    -0.189 A  
HETATM    8  C   UNL     1      -8.108  14.350  67.694  1.00  0.00    -0.188 A  
ENDROOT
BRANCH   5   9
HETATM    9  N   UNL     1      -9.986  11.151  67.346  1.00  0.00    -0.177 NA 
HETATM   10  H   UNL     1     -10.415  10.718  66.527  1.00  0.00     0.000 HD 
BRANCH   9  11
HETATM   11  C   UNL     1      -9.738  10.318  68.475  1.00  0.00    -0.161 A  
HETATM   12  C   UNL     1      -8.681   9.391  68.449  1.00  0.00    -0.124 A  
HETATM   13  C   UNL     1      -8.282   8.696  69.590  1.00  0.00    -0.114 A  
HETATM   14  C   UNL     1      -8.975   8.877  70.780  1.00  0.00    -0.254 A  
HETATM   15  C   UNL     1     -10.108   9.689  70.802  1.00  0.00    -0.293 A  
HETATM   16  C   UNL     1     -10.520  10.369  69.645  1.00  0.00    -0.279 A  
HETATM   17  C   UNL     1     -11.788  11.124  69.716  1.00  0.00    -0.349 C  
HETATM   18  O   UNL     1     -12.157  11.740  70.699  1.00  0.00    -0.368 OA 
HETATM   19  O   UNL     1     -12.531  10.995  68.590  1.00  0.00    -0.462 OA 
ENDBRANCH   9  11
ENDBRANCH   5   9
TORSDOF 2
ENDMDL
MODEL      138
REMARK 921   NORMALIZED FREE ENERGY PREDICTED BY IDOCK:   -4.36 KCAL/MOL
REMARK 922        TOTAL FREE ENERGY PREDICTED BY IDOCK:   -5.51 KCAL/MOL
REMARK 923 INTER-LIGAND FREE ENERGY PREDICTED BY IDOCK:   -5.19 KCAL/MOL
REMARK 924 INTRA-LIGAND FREE ENERGY PREDICTED BY IDOCK:   -0.32 KCAL/MOL
REMARK 927      BINDING AFFINITY PREDICTED BY RF-SCORE:    0.00 PKD
ROOT
HETATM    1  C   UNL     1     -11.720  11.998  65.772  1.00  0.00    -0.313 C  
HETATM    2  C   UNL     1     -11.423  13.145  66.701  1.00  0.00    -0.389 A  
HETATM    3  C   UNL     1     -10.846  14.359  66.270  1.00  0.00    -0.313 A  
HETATM    4  C   UNL     1     -10.233  14.483  64.901  1.00  0.00    -0.338 C  
HETATM    5  C   UNL     1     -10.884  15.471  67.141  1.00  0.00    -0.316 A  
HETATM    6  C   UNL     1     -11.777  12.981  68.048  1.00  0.00    -0.397 A  
HETATM    7  C   UNL     1     -11.181  15.255  68.497  1.00  0.00    -0.308 A  
HETATM    8  C   UNL     1     -11.609  14.021  68.956  1.00  0.00    -0.345 A  
ENDROOT
BRANCH   5   9
HETATM    9  N   UNL     1     -10.690  16.794  66.642  1.00  0.00    -0.179 NA 
HETATM   10  H   UNL     1     -11.083  17.014  65.727  1.00  0.00     0.000 HD 
BRANCH   9  11
HETATM   11  C   UNL     1      -9.989  17.831  67.323  1.00  0.00    -0.324 A  
HETATM   12  C   UNL     1     -10.678  18.974  67.764  1.00  0.00    -0.441 A  
HETATM   13  C   UNL     1     -10.079  19.920  68.596  1.00  0.00    -0.518 A  
HETATM   14  C   UNL     1      -8.749  19.765  68.965  1.00  0.00    -0.072 A  
HETATM   15  C   UNL     1      -8.005  18.711  68.435  1.00  0.00    -0.351 A  
HETATM   16  C   UNL     1      -8.606  17.774  67.579  1.00  0.00    -0.228 A  
HETATM   17  C   UNL     1      -7.730  16.750  66.973  1.00  0.00    -0.195 C  
HETATM   18  O   UNL     1      -6.797  16.226  67.552  1.00  0.00    -0.131 OA 
HETATM   19  O   UNL     1      -8.038  16.508  65.676  1.00  0.00    -0.030 OA 
ENDBRANCH   9  11
ENDBRANCH   5   9
TORSDOF 2
ENDMDL
MODEL      139
REMARK 921   NORMALIZED FREE ENERGY PREDICTED BY IDOCK:   -4.33 KCAL/MOL
REMARK 922        TOTAL FREE ENERGY PREDICTED BY IDOCK:   -5.48 KCAL/MOL
REMARK 923 INTER-LIGAND FREE ENERGY PREDICTED BY IDOCK:   -4.84 KCAL/MOL
REMARK 924 INTRA-LIGAND FREE ENERGY PREDICTED BY IDOCK:   -0.64 KCAL/MOL
REMARK 927      BINDING AFFINITY PREDICTED BY RF-SCORE:    0.00 PKD
ROOT
HETATM    1  C   UNL     1     -12.458  14.334  71.809  1.00  0.00    -0.396 C  
HETATM    2  C   UNL     1     -12.584  12.991  71.140  1.00  0.00    -0.388 A  
HETATM    3  C   UNL     1     -12.283  12.775  69.777  1.00  0.00    -0.213 A  
HETATM    4  C   UNL     1     -12.084  13.932  68.835  1.00  0.00    -0.355 C  
HETATM    5  C   UNL     1     -12.140  11.446  69.320  1.00  0.00    -0.289 A  
HETATM    6  C   UNL     1     -12.991  11.916  71.943  1.00  0.00    -0.434 A  
HETATM    7  C   UNL     1     -12.619  10.400  70.127  1.00  0.00    -0.197 A  
HETATM    8  C   UNL     1     -13.056  10.628  71.422  1.00  0.00    -0.499 A  
ENDROOT
BRANCH   5   9
HETATM    9  N   UNL     1     -11.466  11.167  68.094  1.00  0.00    -0.387 NA 
HETATM   10  H   UNL     1     -12.041  10.977  67.273  1.00  0.00     0.000 HD 
BRANCH   9  11
HETATM   11  C   UNL     1     -10.051  11.132  67.928  1.00  0.00    -0.176 A  
HETATM   12  C   UNL     1      -9.215  10.949  69.043  1.00  0.00    -0.128 A  
HETATM   13  C   UNL     1      -7.846  10.718  68.907  1.00  0.00    -0.136 A  
HETATM   14  C   UNL     1      -7.272  10.719  67.642  1.00  0.00    -0.092 A  
HETATM   15  C   UNL     1      -8.055  11.028  66.531  1.00  0.00    -0.161 A  
HETATM   16  C   UNL     1      -9.429  11.283  66.674  1.00  0.00    -0.204 A  
HETATM   17  C   UNL     1     -10.169  11.709  65.469  1.00  0.00    -0.260 C  
HETATM   18  O   UNL     1      -9.954  11.277  64.352  1.00  0.00    -0.248 OA 
HETATM   19  O   UNL     1     -11.068  12.688  65.733  1.00  0.00    -0.282 OA 
ENDBRANCH   9  11
ENDBRANCH   5   9
TORSDOF 2
ENDMDL
MODEL      140
REMARK 921   NORMALIZED FREE ENERGY PREDICTED BY IDOCK:   -4.32 KCAL/MOL
REMARK 922        TOTAL FREE ENERGY PREDICTED BY IDOCK:   -5.47 KCAL/MOL
REMARK 923 INTER-LIGAND FREE ENERGY PREDICTED BY IDOCK:   -5.13 KCAL/MOL
REMARK 924 INTRA-LIGAND FREE ENERGY PREDICTED BY IDOCK:   -0.34 KCAL/MOL
REMARK 927      BINDING AFFINITY PREDICTED BY RF-SCORE:    0.00 PKD
ROOT
HETATM    1  C   UNL     1     -12.155  15.172  64.223  1.00  0.00    -0.277 C  
HETATM    2  C   UNL     1     -11.474  13.942  64.761  1.00  0.00    -0.368 A  
HETATM    3  C   UNL     1     -10.863  13.890  66.033  1.00  0.00    -0.290 A  
HETATM    4  C   UNL     1     -10.610  15.146  66.823  1.00  0.00    -0.298 C  
HETATM    5  C   UNL     1     -10.523  12.628  66.568  1.00  0.00    -0.247 A  
HETATM    6  C   UNL     1     -11.490  12.799  63.949  1.00  0.00    -0.505 A  
HETATM    7  C   UNL     1     -10.490  11.517  65.706  1.00  0.00    -0.308 A  
HETATM    8  C   UNL     1     -10.953  11.600  64.404  1.00  0.00    -0.399 A  
ENDROOT
BRANCH   5   9
HETATM    9  N   UNL     1     -10.281  12.469  67.965  1.00  0.00    -0.218 NA 
HETATM   10  H   UNL     1     -10.562  13.233  68.580  1.00  0.00     0.000 HD 
BRANCH   9  11
HETATM   11  C   UNL     1      -9.678  11.328  68.567  1.00  0.00    -0.198 A  
HETATM   12  C   UNL     1      -8.404  10.903  68.153  1.00  0.00    -0.123 A  
HETATM   13  C   UNL     1      -7.697   9.916  68.839  1.00  0.00    -0.085 A  
HETATM   14  C   UNL     1      -8.279   9.290  69.934  1.00  0.00    -0.148 A  
HETATM   15  C   UNL     1      -9.593   9.600  70.286  1.00  0.00    -0.307 A  
HETATM   16  C   UNL     1     -10.310  10.578  69.578  1.00  0.00    -0.251 A  
HETATM   17  C   UNL     1     -11.729  10.773  69.939  1.00  0.00    -0.333 C  
HETATM   18  O   UNL     1     -12.155  10.706  71.077  1.00  0.00    -0.340 OA 
HETATM   19  O   UNL     1     -12.516  10.966  68.854  1.00  0.00    -0.431 OA 
ENDBRANCH   9  11
ENDBRANCH   5   9
TORSDOF 2
ENDMDL
MODEL      141
REMARK 921   NORMALIZED FREE ENERGY PREDICTED BY IDOCK:   -4.32 KCAL/MOL
REMARK 922        TOTAL FREE ENERGY PREDICTED BY IDOCK:   -5.47 KCAL/MOL
REMARK 923 INTER-LIGAND FREE ENERGY PREDICTED BY IDOCK:   -4.84 KCAL/MOL
REMARK 924 INTRA-LIGAND FREE ENERGY PREDICTED BY IDOCK:   -0.63 KCAL/MOL
REMARK 927      BINDING AFFINITY PREDICTED BY RF-SCORE:    0.00 PKD
ROOT
HETATM    1  C   UNL     1     -10.039  15.979  67.185  1.00  0.00    -0.270 C  
HETATM    2  C   UNL     1     -10.623  14.654  66.774  1.00  0.00    -0.288 A  
HETATM    3  C   UNL     1      -9.969  13.421  66.990  1.00  0.00    -0.246 A  
HETATM    4  C   UNL     1      -8.520  13.372  67.395  1.00  0.00    -0.197 C  
HETATM    5  C   UNL     1     -10.714  12.229  66.850  1.00  0.00    -0.232 A  
HETATM    6  C   UNL     1     -11.891  14.675  66.179  1.00  0.00    -0.282 A  
HETATM    7  C   UNL     1     -11.954  12.282  66.190  1.00  0.00    -0.323 A  
HETATM    8  C   UNL     1     -12.535  13.489  65.842  1.00  0.00    -0.484 A  
ENDROOT
BRANCH   5   9
HETATM    9  N   UNL     1     -10.248  11.008  67.423  1.00  0.00    -0.189 NA 
HETATM   10  H   UNL     1      -9.675  10.401  66.836  1.00  0.00     0.000 HD 
BRANCH   9  11
HETATM   11  C   UNL     1     -10.521  10.570  68.751  1.00  0.00    -0.196 A  
HETATM   12  C   UNL     1     -11.556  11.168  69.491  1.00  0.00    -0.392 A  
HETATM   13  C   UNL     1     -11.983  10.649  70.713  1.00  0.00    -0.477 A  
HETATM   14  C   UNL     1     -11.340   9.541  71.250  1.00  0.00    -0.446 A  
HETATM   15  C   UNL     1     -10.226   9.009  70.601  1.00  0.00    -0.284 A  
HETATM   16  C   UNL     1      -9.785   9.549  69.382  1.00  0.00    -0.190 A  
HETATM   17  C   UNL     1      -8.537   9.004  68.810  1.00  0.00    -0.132 C  
HETATM   18  O   UNL     1      -8.219   7.831  68.869  1.00  0.00    -0.124 OA 
HETATM   19  O   UNL     1      -7.750   9.968  68.274  1.00  0.00    -0.084 OA 
ENDBRANCH   9  11
ENDBRANCH   5   9
TORSDOF 2
ENDMDL
MODEL      142
REMARK 921   NORMALIZED FREE ENERGY PREDICTED BY IDOCK:   -4.30 KCAL/MOL
REMARK 922        TOTAL FREE ENERGY PREDICTED BY IDOCK:   -5.45 KCAL/MOL
REMARK 923 INTER-LIGAND FREE ENERGY PREDICTED BY IDOCK:   -4.86 KCAL/MOL
REMARK 924 INTRA-LIGAND FREE ENERGY PREDICTED BY IDOCK:   -0.60 KCAL/MOL
REMARK 927      BINDING AFFINITY PREDICTED BY RF-SCORE:    0.00 PKD
ROOT
HETATM    1  C   UNL     1      -7.745   8.294  65.394  1.00  0.00    -0.103 C  
HETATM    2  C   UNL     1      -8.620   8.007  66.585  1.00  0.00    -0.141 A  
HETATM    3  C   UNL     1      -8.478   8.667  67.826  1.00  0.00    -0.125 A  
HETATM    4  C   UNL     1      -7.261   9.502  68.125  1.00  0.00    -0.080 C  
HETATM    5  C   UNL     1      -9.519   8.554  68.774  1.00  0.00    -0.143 A  
HETATM    6  C   UNL     1      -9.636   7.058  66.414  1.00  0.00    -0.159 A  
HETATM    7  C   UNL     1     -10.483   7.547  68.599  1.00  0.00    -0.207 A  
HETATM    8  C   UNL     1     -10.538   6.792  67.440  1.00  0.00    -0.372 A  
ENDROOT
BRANCH   5   9
HETATM    9  N   UNL     1      -9.627   9.484  69.850  1.00  0.00    -0.208 NA 
HETATM   10  H   UNL     1      -8.792  10.014  70.100  1.00  0.00     0.000 HD 
BRANCH   9  11
HETATM   11  C   UNL     1     -10.812   9.731  70.603  1.00  0.00    -0.329 A  
HETATM   12  C   UNL     1     -11.758  10.663  70.142  1.00  0.00    -0.417 A  
HETATM   13  C   UNL     1     -13.012  10.796  70.739  1.00  0.00    -0.348 A  
HETATM   14  C   UNL     1     -13.326  10.029  71.854  1.00  0.00    -0.516 A  
HETATM   15  C   UNL     1     -12.358   9.194  72.410  1.00  0.00    -0.310 A  
HETATM   16  C   UNL     1     -11.089   9.079  71.820  1.00  0.00    -0.444 A  
HETATM   17  C   UNL     1     -10.084   8.260  72.526  1.00  0.00    -0.306 C  
HETATM   18  O   UNL     1     -10.344   7.232  73.124  1.00  0.00    -0.244 OA 
HETATM   19  O   UNL     1      -8.849   8.816  72.495  1.00  0.00    -0.402 OA 
ENDBRANCH   9  11
ENDBRANCH   5   9
TORSDOF 2
ENDMDL
MODEL      143
REMARK 921   NORMALIZED FREE ENERGY PREDICTED BY IDOCK:   -4.29 KCAL/MOL
REMARK 922        TOTAL FREE ENERGY PREDICTED BY IDOCK:   -5.44 KCAL/MOL
REMARK 923 INTER-LIGAND FREE ENERGY PREDICTED BY IDOCK:   -5.35 KCAL/MOL
REMARK 924 INTRA-LIGAND FREE ENERGY PREDICTED BY IDOCK:   -0.09 KCAL/MOL
REMARK 927      BINDING AFFINITY PREDICTED BY RF-SCORE:    0.00 PKD
ROOT
HETATM    1  C   UNL     1      -9.435  17.754  68.318  1.00  0.00    -0.290 C  
HETATM    2  C   UNL     1     -10.481  16.722  68.647  1.00  0.00    -0.333 A  
HETATM    3  C   UNL     1     -10.959  15.780  67.711  1.00  0.00    -0.314 A  
HETATM    4  C   UNL     1     -10.657  15.924  66.243  1.00  0.00    -0.301 C  
HETATM    5  C   UNL     1     -11.704  14.677  68.183  1.00  0.00    -0.330 A  
HETATM    6  C   UNL     1     -10.961  16.701  69.964  1.00  0.00    -0.148 A  
HETATM    7  C   UNL     1     -12.222  14.722  69.489  1.00  0.00    -0.280 A  
HETATM    8  C   UNL     1     -11.870  15.731  70.371  1.00  0.00    -0.391 A  
ENDROOT
BRANCH   5   9
HETATM    9  N   UNL     1     -11.872  13.512  67.376  1.00  0.00    -0.376 NA 
HETATM   10  H   UNL     1     -12.320  13.630  66.468  1.00  0.00     0.000 HD 
BRANCH   9  11
HETATM   11  C   UNL     1     -11.461  12.198  67.741  1.00  0.00    -0.332 A  
HETATM   12  C   UNL     1     -11.530  11.785  69.083  1.00  0.00    -0.358 A  
HETATM   13  C   UNL     1     -11.324  10.457  69.457  1.00  0.00    -0.325 A  
HETATM   14  C   UNL     1     -10.988   9.517  68.492  1.00  0.00    -0.109 A  
HETATM   15  C   UNL     1     -10.784   9.924  67.174  1.00  0.00    -0.276 A  
HETATM   16  C   UNL     1     -10.970  11.267  66.806  1.00  0.00    -0.339 A  
HETATM   17  C   UNL     1     -10.631  11.643  65.418  1.00  0.00    -0.280 C  
HETATM   18  O   UNL     1     -10.831  10.929  64.453  1.00  0.00    -0.299 OA 
HETATM   19  O   UNL     1     -10.008  12.843  65.345  1.00  0.00    -0.266 OA 
ENDBRANCH   9  11
ENDBRANCH   5   9
TORSDOF 2
ENDMDL
MODEL      144
REMARK 921   NORMALIZED FREE ENERGY PREDICTED BY IDOCK:   -4.29 KCAL/MOL
REMARK 922        TOTAL FREE ENERGY PREDICTED BY IDOCK:   -5.43 KCAL/MOL
REMARK 923 INTER-LIGAND FREE ENERGY PREDICTED BY IDOCK:   -4.77 KCAL/MOL
REMARK 924 INTRA-LIGAND FREE ENERGY PREDICTED BY IDOCK:   -0.66 KCAL/MOL
REMARK 927      BINDING AFFINITY PREDICTED BY RF-SCORE:    0.00 PKD
ROOT
HETATM    1  C   UNL     1     -11.006   5.860  71.143  1.00  0.00    -0.327 C  
HETATM    2  C   UNL     1     -10.854   6.786  69.966  1.00  0.00    -0.311 A  
HETATM    3  C   UNL     1     -10.582   8.166  70.098  1.00  0.00    -0.237 A  
HETATM    4  C   UNL     1     -10.700   8.855  71.432  1.00  0.00    -0.382 C  
HETATM    5  C   UNL     1     -10.163   8.883  68.956  1.00  0.00    -0.206 A  
HETATM    6  C   UNL     1     -10.964   6.217  68.690  1.00  0.00    -0.423 A  
HETATM    7  C   UNL     1     -10.348   8.303  67.690  1.00  0.00    -0.313 A  
HETATM    8  C   UNL     1     -10.759   6.988  67.551  1.00  0.00    -0.352 A  
ENDROOT
BRANCH   5   9
HETATM    9  N   UNL     1      -9.505  10.142  69.088  1.00  0.00    -0.195 NA 
HETATM   10  H   UNL     1      -8.535  10.136  69.405  1.00  0.00     0.000 HD 
BRANCH   9  11
HETATM   11  C   UNL     1     -10.097  11.408  68.811  1.00  0.00    -0.188 A  
HETATM   12  C   UNL     1     -11.437  11.652  69.161  1.00  0.00    -0.364 A  
HETATM   13  C   UNL     1     -11.998  12.926  69.086  1.00  0.00    -0.308 A  
HETATM   14  C   UNL     1     -11.238  13.983  68.604  1.00  0.00    -0.294 A  
HETATM   15  C   UNL     1      -9.949  13.744  68.127  1.00  0.00    -0.242 A  
HETATM   16  C   UNL     1      -9.395  12.455  68.183  1.00  0.00    -0.209 A  
HETATM   17  C   UNL     1      -8.070  12.259  67.561  1.00  0.00    -0.170 C  
HETATM   18  O   UNL     1      -7.175  13.083  67.595  1.00  0.00    -0.123 OA 
HETATM   19  O   UNL     1      -7.984  11.086  66.888  1.00  0.00    -0.130 OA 
ENDBRANCH   9  11
ENDBRANCH   5   9
TORSDOF 2
ENDMDL
MODEL      145
REMARK 921   NORMALIZED FREE ENERGY PREDICTED BY IDOCK:   -4.29 KCAL/MOL
REMARK 922        TOTAL FREE ENERGY PREDICTED BY IDOCK:   -5.43 KCAL/MOL
REMARK 923 INTER-LIGAND FREE ENERGY PREDICTED BY IDOCK:   -5.16 KCAL/MOL
REMARK 924 INTRA-LIGAND FREE ENERGY PREDICTED BY IDOCK:   -0.27 KCAL/MOL
REMARK 927      BINDING AFFINITY PREDICTED BY RF-SCORE:    0.00 PKD
ROOT
HETATM    1  C   UNL     1     -10.271  14.206  65.654  1.00  0.00    -0.357 C  
HETATM    2  C   UNL     1     -10.316  14.994  66.936  1.00  0.00    -0.266 A  
HETATM    3  C   UNL     1      -9.173  15.580  67.523  1.00  0.00    -0.200 A  
HETATM    4  C   UNL     1      -7.789  15.221  67.053  1.00  0.00    -0.224 C  
HETATM    5  C   UNL     1      -9.357  16.540  68.544  1.00  0.00    -0.229 A  
HETATM    6  C   UNL     1     -11.572  15.162  67.535  1.00  0.00    -0.268 A  
HETATM    7  C   UNL     1     -10.615  16.634  69.163  1.00  0.00    -0.340 A  
HETATM    8  C   UNL     1     -11.712  15.943  68.678  1.00  0.00    -0.328 A  
ENDROOT
BRANCH   5   9
HETATM    9  N   UNL     1      -8.306  17.440  68.894  1.00  0.00    -0.214 NA 
HETATM   10  H   UNL     1      -7.827  17.282  69.780  1.00  0.00     0.000 HD 
BRANCH   9  11
HETATM   11  C   UNL     1      -7.875  18.543  68.101  1.00  0.00    -0.290 A  
HETATM   12  C   UNL     1      -8.267  18.639  66.755  1.00  0.00    -0.276 A  
HETATM   13  C   UNL     1      -8.031  19.787  65.999  1.00  0.00    -0.339 A  
HETATM   14  C   UNL     1      -7.344  20.852  66.566  1.00  0.00    -0.085 A  
HETATM   15  C   UNL     1      -6.829  20.732  67.856  1.00  0.00    -0.322 A  
HETATM   16  C   UNL     1      -7.049  19.565  68.606  1.00  0.00    -0.373 A  
HETATM   17  C   UNL     1      -6.382  19.468  69.921  1.00  0.00    -0.292 C  
HETATM   18  O   UNL     1      -6.231  20.410  70.676  1.00  0.00    -0.516 OA 
HETATM   19  O   UNL     1      -5.894  18.227  70.162  1.00  0.00    -0.238 OA 
ENDBRANCH   9  11
ENDBRANCH   5   9
TORSDOF 2
ENDMDL
MODEL      146
REMARK 921   NORMALIZED FREE ENERGY PREDICTED BY IDOCK:   -4.28 KCAL/MOL
REMARK 922        TOTAL FREE ENERGY PREDICTED BY IDOCK:   -5.43 KCAL/MOL
REMARK 923 INTER-LIGAND FREE ENERGY PREDICTED BY IDOCK:   -4.70 KCAL/MOL
REMARK 924 INTRA-LIGAND FREE ENERGY PREDICTED BY IDOCK:   -0.73 KCAL/MOL
REMARK 927      BINDING AFFINITY PREDICTED BY RF-SCORE:    0.00 PKD
ROOT
HETATM    1  C   UNL     1     -12.487  15.243  70.797  1.00  0.00    -0.457 C  
HETATM    2  C   UNL     1     -12.347  13.854  70.233  1.00  0.00    -0.413 A  
HETATM    3  C   UNL     1     -11.911  13.596  68.915  1.00  0.00    -0.402 A  
HETATM    4  C   UNL     1     -11.822  14.702  67.897  1.00  0.00    -0.352 C  
HETATM    5  C   UNL     1     -11.526  12.279  68.577  1.00  0.00    -0.303 A  
HETATM    6  C   UNL     1     -12.643  12.786  71.090  1.00  0.00    -0.365 A  
HETATM    7  C   UNL     1     -11.897  11.228  69.433  1.00  0.00    -0.424 A  
HETATM    8  C   UNL     1     -12.465  11.471  70.672  1.00  0.00    -0.405 A  
ENDROOT
BRANCH   5   9
HETATM    9  N   UNL     1     -10.722  12.028  67.425  1.00  0.00    -0.222 NA 
HETATM   10  H   UNL     1     -11.201  11.920  66.531  1.00  0.00     0.000 HD 
BRANCH   9  11
HETATM   11  C   UNL     1      -9.302  11.918  67.427  1.00  0.00    -0.176 A  
HETATM   12  C   UNL     1      -8.505  13.075  67.380  1.00  0.00    -0.200 A  
HETATM   13  C   UNL     1      -7.125  13.027  67.572  1.00  0.00    -0.158 A  
HETATM   14  C   UNL     1      -6.500  11.801  67.764  1.00  0.00    -0.075 A  
HETATM   15  C   UNL     1      -7.249  10.627  67.684  1.00  0.00    -0.089 A  
HETATM   16  C   UNL     1      -8.635  10.678  67.467  1.00  0.00    -0.122 A  
HETATM   17  C   UNL     1      -9.341   9.393  67.287  1.00  0.00    -0.131 C  
HETATM   18  O   UNL     1      -9.066   8.376  67.895  1.00  0.00    -0.133 OA 
HETATM   19  O   UNL     1     -10.285   9.454  66.317  1.00  0.00    -0.274 OA 
ENDBRANCH   9  11
ENDBRANCH   5   9
TORSDOF 2
ENDMDL
MODEL      147
REMARK 921   NORMALIZED FREE ENERGY PREDICTED BY IDOCK:   -4.25 KCAL/MOL
REMARK 922        TOTAL FREE ENERGY PREDICTED BY IDOCK:   -5.39 KCAL/MOL
REMARK 923 INTER-LIGAND FREE ENERGY PREDICTED BY IDOCK:   -4.67 KCAL/MOL
REMARK 924 INTRA-LIGAND FREE ENERGY PREDICTED BY IDOCK:   -0.72 KCAL/MOL
REMARK 927      BINDING AFFINITY PREDICTED BY RF-SCORE:    0.00 PKD
ROOT
HETATM    1  C   UNL     1     -12.127  12.923  70.316  1.00  0.00    -0.377 C  
HETATM    2  C   UNL     1     -12.215  11.449  70.615  1.00  0.00    -0.484 A  
HETATM    3  C   UNL     1     -11.538  10.466  69.860  1.00  0.00    -0.358 A  
HETATM    4  C   UNL     1     -10.905  10.804  68.536  1.00  0.00    -0.270 C  
HETATM    5  C   UNL     1     -11.438   9.160  70.389  1.00  0.00    -0.194 A  
HETATM    6  C   UNL     1     -12.989  11.069  71.719  1.00  0.00    -0.544 A  
HETATM    7  C   UNL     1     -12.277   8.799  71.457  1.00  0.00    -0.382 A  
HETATM    8  C   UNL     1     -13.059   9.736  72.110  1.00  0.00    -0.513 A  
ENDROOT
BRANCH   5   9
HETATM    9  N   UNL     1     -10.459   8.248  69.893  1.00  0.00    -0.219 NA 
HETATM   10  H   UNL     1     -10.649   7.794  69.000  1.00  0.00     0.000 HD 
BRANCH   9  11
HETATM   11  C   UNL     1      -9.238   7.921  70.550  1.00  0.00    -0.158 A  
HETATM   12  C   UNL     1      -8.108   8.741  70.385  1.00  0.00    -0.118 A  
HETATM   13  C   UNL     1      -6.956   8.571  71.153  1.00  0.00    -0.070 A  
HETATM   14  C   UNL     1      -6.891   7.533  72.073  1.00  0.00    -0.062 A  
HETATM   15  C   UNL     1      -7.946   6.625  72.163  1.00  0.00    -0.097 A  
HETATM   16  C   UNL     1      -9.095   6.786  71.371  1.00  0.00    -0.142 A  
HETATM   17  C   UNL     1     -10.122   5.727  71.443  1.00  0.00    -0.198 C  
HETATM   18  O   UNL     1     -10.416   5.134  72.464  1.00  0.00    -0.199 OA 
HETATM   19  O   UNL     1     -10.652   5.438  70.230  1.00  0.00    -0.285 OA 
ENDBRANCH   9  11
ENDBRANCH   5   9
TORSDOF 2
ENDMDL
MODEL      148
REMARK 921   NORMALIZED FREE ENERGY PREDICTED BY IDOCK:   -4.25 KCAL/MOL
REMARK 922        TOTAL FREE ENERGY PREDICTED BY IDOCK:   -5.39 KCAL/MOL
REMARK 923 INTER-LIGAND FREE ENERGY PREDICTED BY IDOCK:   -4.88 KCAL/MOL
REMARK 924 INTRA-LIGAND FREE ENERGY PREDICTED BY IDOCK:   -0.51 KCAL/MOL
REMARK 927      BINDING AFFINITY PREDICTED BY RF-SCORE:    0.00 PKD
ROOT
HETATM    1  C   UNL     1     -10.780  19.161  67.500  1.00  0.00    -0.555 C  
HETATM    2  C   UNL     1      -9.667  18.218  67.126  1.00  0.00    -0.307 A  
HETATM    3  C   UNL     1      -9.782  16.813  67.214  1.00  0.00    -0.250 A  
HETATM    4  C   UNL     1     -10.928  16.173  67.950  1.00  0.00    -0.318 C  
HETATM    5  C   UNL     1      -8.813  16.016  66.566  1.00  0.00    -0.305 A  
HETATM    6  C   UNL     1      -8.483  18.792  66.643  1.00  0.00    -0.299 A  
HETATM    7  C   UNL     1      -7.612  16.617  66.152  1.00  0.00    -0.090 A  
HETATM    8  C   UNL     1      -7.436  17.990  66.202  1.00  0.00    -0.305 A  
ENDROOT
BRANCH   5   9
HETATM    9  N   UNL     1      -9.074  14.643  66.278  1.00  0.00    -0.479 NA 
HETATM   10  H   UNL     1      -9.568  14.429  65.412  1.00  0.00     0.000 HD 
BRANCH   9  11
HETATM   11  C   UNL     1      -8.697  13.547  67.107  1.00  0.00    -0.215 A  
HETATM   12  C   UNL     1      -7.434  13.531  67.725  1.00  0.00    -0.168 A  
HETATM   13  C   UNL     1      -7.098  12.583  68.690  1.00  0.00    -0.100 A  
HETATM   14  C   UNL     1      -8.008  11.588  69.021  1.00  0.00     0.013 A  
HETATM   15  C   UNL     1      -9.216  11.501  68.330  1.00  0.00    -0.186 A  
HETATM   16  C   UNL     1      -9.542  12.445  67.342  1.00  0.00    -0.184 A  
HETATM   17  C   UNL     1     -10.788  12.226  66.579  1.00  0.00    -0.259 C  
HETATM   18  O   UNL     1     -11.811  11.780  67.064  1.00  0.00    -0.599 OA 
HETATM   19  O   UNL     1     -10.644  12.510  65.262  1.00  0.00    -0.276 OA 
ENDBRANCH   9  11
ENDBRANCH   5   9
TORSDOF 2
ENDMDL
MODEL      149
REMARK 921   NORMALIZED FREE ENERGY PREDICTED BY IDOCK:   -4.22 KCAL/MOL
REMARK 922        TOTAL FREE ENERGY PREDICTED BY IDOCK:   -5.36 KCAL/MOL
REMARK 923 INTER-LIGAND FREE ENERGY PREDICTED BY IDOCK:   -4.89 KCAL/MOL
REMARK 924 INTRA-LIGAND FREE ENERGY PREDICTED BY IDOCK:   -0.47 KCAL/MOL
REMARK 927      BINDING AFFINITY PREDICTED BY RF-SCORE:    0.00 PKD
ROOT
HETATM    1  C   UNL     1      -6.736  21.080  66.896  1.00  0.00    -0.388 C  
HETATM    2  C   UNL     1      -7.932  20.195  66.668  1.00  0.00    -0.335 A  
HETATM    3  C   UNL     1      -7.834  18.873  66.181  1.00  0.00    -0.272 A  
HETATM    4  C   UNL     1      -6.546  18.356  65.595  1.00  0.00    -0.313 C  
HETATM    5  C   UNL     1      -8.962  18.029  66.285  1.00  0.00    -0.172 A  
HETATM    6  C   UNL     1      -9.188  20.725  66.993  1.00  0.00    -0.314 A  
HETATM    7  C   UNL     1     -10.215  18.609  66.550  1.00  0.00    -0.449 A  
HETATM    8  C   UNL     1     -10.335  19.947  66.886  1.00  0.00    -0.596 A  
ENDROOT
BRANCH   5   9
HETATM    9  N   UNL     1      -8.823  16.613  66.189  1.00  0.00    -0.425 NA 
HETATM   10  H   UNL     1      -9.072  16.175  65.302  1.00  0.00     0.000 HD 
BRANCH   9  11
HETATM   11  C   UNL     1      -8.364  15.762  67.236  1.00  0.00    -0.188 A  
HETATM   12  C   UNL     1      -7.054  15.252  67.206  1.00  0.00    -0.187 A  
HETATM   13  C   UNL     1      -6.501  14.578  68.294  1.00  0.00    -0.118 A  
HETATM   14  C   UNL     1      -7.273  14.352  69.426  1.00  0.00    -0.086 A  
HETATM   15  C   UNL     1      -8.615  14.730  69.431  1.00  0.00     0.023 A  
HETATM   16  C   UNL     1      -9.175  15.388  68.324  1.00  0.00    -0.188 A  
HETATM   17  C   UNL     1     -10.627  15.661  68.360  1.00  0.00    -0.252 C  
HETATM   18  O   UNL     1     -11.233  15.977  69.366  1.00  0.00    -0.305 OA 
HETATM   19  O   UNL     1     -11.221  15.450  67.161  1.00  0.00    -0.326 OA 
ENDBRANCH   9  11
ENDBRANCH   5   9
TORSDOF 2
ENDMDL
MODEL      150
REMARK 921   NORMALIZED FREE ENERGY PREDICTED BY IDOCK:   -4.21 KCAL/MOL
REMARK 922        TOTAL FREE ENERGY PREDICTED BY IDOCK:   -5.34 KCAL/MOL
REMARK 923 INTER-LIGAND FREE ENERGY PREDICTED BY IDOCK:   -5.10 KCAL/MOL
REMARK 924 INTRA-LIGAND FREE ENERGY PREDICTED BY IDOCK:   -0.24 KCAL/MOL
REMARK 927      BINDING AFFINITY PREDICTED BY RF-SCORE:    0.00 PKD
ROOT
HETATM    1  C   UNL     1      -8.548   8.461  65.314  1.00  0.00    -0.177 C  
HETATM    2  C   UNL     1      -9.335   9.620  64.763  1.00  0.00    -0.286 A  
HETATM    3  C   UNL     1     -10.252  10.368  65.533  1.00  0.00    -0.316 A  
HETATM    4  C   UNL     1     -10.710   9.881  66.882  1.00  0.00    -0.195 C  
HETATM    5  C   UNL     1     -10.708  11.605  65.025  1.00  0.00    -0.296 A  
HETATM    6  C   UNL     1      -9.100   9.968  63.425  1.00  0.00    -0.301 A  
HETATM    7  C   UNL     1     -10.510  11.889  63.663  1.00  0.00    -0.493 A  
HETATM    8  C   UNL     1      -9.727  11.075  62.862  1.00  0.00    -0.353 A  
ENDROOT
BRANCH   5   9
HETATM    9  N   UNL     1     -11.300  12.573  65.890  1.00  0.00    -0.323 NA 
HETATM   10  H   UNL     1     -12.220  12.359  66.277  1.00  0.00     0.000 HD 
BRANCH   9  11
HETATM   11  C   UNL     1     -10.707  13.816  66.255  1.00  0.00    -0.285 A  
HETATM   12  C   UNL     1      -9.790  14.439  65.392  1.00  0.00    -0.265 A  
HETATM   13  C   UNL     1      -9.333  15.738  65.615  1.00  0.00    -0.202 A  
HETATM   14  C   UNL     1      -9.749  16.426  66.748  1.00  0.00    -0.263 A  
HETATM   15  C   UNL     1     -10.554  15.783  67.688  1.00  0.00    -0.301 A  
HETATM   16  C   UNL     1     -10.993  14.467  67.470  1.00  0.00    -0.297 A  
HETATM   17  C   UNL     1     -11.752  13.816  68.558  1.00  0.00    -0.356 C  
HETATM   18  O   UNL     1     -12.552  14.396  69.268  1.00  0.00    -0.138 OA 
HETATM   19  O   UNL     1     -11.405  12.517  68.724  1.00  0.00    -0.251 OA 
ENDBRANCH   9  11
ENDBRANCH   5   9
TORSDOF 2
ENDMDL
MODEL      151
REMARK 921   NORMALIZED FREE ENERGY PREDICTED BY IDOCK:   -4.20 KCAL/MOL
REMARK 922        TOTAL FREE ENERGY PREDICTED BY IDOCK:   -5.33 KCAL/MOL
REMARK 923 INTER-LIGAND FREE ENERGY PREDICTED BY IDOCK:   -4.71 KCAL/MOL
REMARK 924 INTRA-LIGAND FREE ENERGY PREDICTED BY IDOCK:   -0.62 KCAL/MOL
REMARK 927      BINDING AFFINITY PREDICTED BY RF-SCORE:    0.00 PKD
ROOT
HETATM    1  C   UNL     1      -6.243   8.145  67.212  1.00  0.00    -0.055 C  
HETATM    2  C   UNL     1      -7.565   8.776  66.863  1.00  0.00    -0.090 A  
HETATM    3  C   UNL     1      -7.705  10.140  66.524  1.00  0.00    -0.108 A  
HETATM    4  C   UNL     1      -6.584  11.117  66.760  1.00  0.00    -0.133 C  
HETATM    5  C   UNL     1      -8.912  10.566  65.926  1.00  0.00    -0.166 A  
HETATM    6  C   UNL     1      -8.687   7.937  66.852  1.00  0.00    -0.136 A  
HETATM    7  C   UNL     1     -10.033   9.721  65.993  1.00  0.00    -0.342 A  
HETATM    8  C   UNL     1      -9.932   8.423  66.464  1.00  0.00    -0.335 A  
ENDROOT
BRANCH   5   9
HETATM    9  N   UNL     1      -8.975  11.800  65.213  1.00  0.00    -0.405 NA 
HETATM   10  H   UNL     1      -8.113  12.143  64.789  1.00  0.00     0.000 HD 
BRANCH   9  11
HETATM   11  C   UNL     1     -10.148  12.591  65.047  1.00  0.00    -0.236 A  
HETATM   12  C   UNL     1     -10.895  12.503  63.859  1.00  0.00    -0.472 A  
HETATM   13  C   UNL     1     -12.145  13.107  63.727  1.00  0.00    -0.563 A  
HETATM   14  C   UNL     1     -12.655  13.864  64.774  1.00  0.00    -0.329 A  
HETATM   15  C   UNL     1     -11.878  14.076  65.913  1.00  0.00    -0.395 A  
HETATM   16  C   UNL     1     -10.609  13.485  66.032  1.00  0.00    -0.285 A  
HETATM   17  C   UNL     1      -9.803  13.843  67.216  1.00  0.00    -0.244 C  
HETATM   18  O   UNL     1     -10.269  14.023  68.326  1.00  0.00    -0.235 OA 
HETATM   19  O   UNL     1      -8.493  14.017  66.916  1.00  0.00    -0.179 OA 
ENDBRANCH   9  11
ENDBRANCH   5   9
TORSDOF 2
ENDMDL
MODEL      152
REMARK 921   NORMALIZED FREE ENERGY PREDICTED BY IDOCK:   -4.17 KCAL/MOL
REMARK 922        TOTAL FREE ENERGY PREDICTED BY IDOCK:   -5.30 KCAL/MOL
REMARK 923 INTER-LIGAND FREE ENERGY PREDICTED BY IDOCK:   -4.74 KCAL/MOL
REMARK 924 INTRA-LIGAND FREE ENERGY PREDICTED BY IDOCK:   -0.56 KCAL/MOL
REMARK 927      BINDING AFFINITY PREDICTED BY RF-SCORE:    0.00 PKD
ROOT
HETATM    1  C   UNL     1     -12.222  12.054  70.458  1.00  0.00    -0.414 C  
HETATM    2  C   UNL     1     -12.186  10.640  70.973  1.00  0.00    -0.498 A  
HETATM    3  C   UNL     1     -11.142   9.736  70.677  1.00  0.00    -0.398 A  
HETATM    4  C   UNL     1     -10.136  10.039  69.598  1.00  0.00    -0.263 C  
HETATM    5  C   UNL     1     -11.040   8.550  71.437  1.00  0.00    -0.265 A  
HETATM    6  C   UNL     1     -13.237  10.240  71.809  1.00  0.00    -0.534 A  
HETATM    7  C   UNL     1     -12.141   8.151  72.215  1.00  0.00    -0.419 A  
HETATM    8  C   UNL     1     -13.238   8.977  72.391  1.00  0.00    -0.507 A  
ENDROOT
BRANCH   5   9
HETATM    9  N   UNL     1      -9.822   7.807  71.468  1.00  0.00    -0.166 NA 
HETATM   10  H   UNL     1      -9.135   8.060  72.178  1.00  0.00     0.000 HD 
BRANCH   9  11
HETATM   11  C   UNL     1      -9.492   6.739  70.584  1.00  0.00    -0.169 A  
HETATM   12  C   UNL     1     -10.284   5.577  70.556  1.00  0.00    -0.311 A  
HETATM   13  C   UNL     1     -10.116   4.595  69.582  1.00  0.00    -0.232 A  
HETATM   14  C   UNL     1      -9.106   4.730  68.637  1.00  0.00    -0.149 A  
HETATM   15  C   UNL     1      -8.224   5.807  68.722  1.00  0.00    -0.101 A  
HETATM   16  C   UNL     1      -8.382   6.782  69.720  1.00  0.00    -0.132 A  
HETATM   17  C   UNL     1      -7.347   7.832  69.813  1.00  0.00    -0.080 C  
HETATM   18  O   UNL     1      -6.794   8.327  68.849  1.00  0.00    -0.058 OA 
HETATM   19  O   UNL     1      -7.029   8.132  71.095  1.00  0.00    -0.047 OA 
ENDBRANCH   9  11
ENDBRANCH   5   9
TORSDOF 2
ENDMDL
MODEL      153
REMARK 921   NORMALIZED FREE ENERGY PREDICTED BY IDOCK:   -4.17 KCAL/MOL
REMARK 922        TOTAL FREE ENERGY PREDICTED BY IDOCK:   -5.30 KCAL/MOL
REMARK 923 INTER-LIGAND FREE ENERGY PREDICTED BY IDOCK:   -4.72 KCAL/MOL
REMARK 924 INTRA-LIGAND FREE ENERGY PREDICTED BY IDOCK:   -0.58 KCAL/MOL
REMARK 927      BINDING AFFINITY PREDICTED BY RF-SCORE:    0.00 PKD
ROOT
HETATM    1  C   UNL     1     -12.895  11.905  71.382  1.00  0.00    -0.411 C  
HETATM    2  C   UNL     1     -12.055  11.159  70.380  1.00  0.00    -0.475 A  
HETATM    3  C   UNL     1     -11.579   9.846  70.595  1.00  0.00    -0.413 A  
HETATM    4  C   UNL     1     -11.647   9.210  71.958  1.00  0.00    -0.371 C  
HETATM    5  C   UNL     1     -11.065   9.126  69.493  1.00  0.00    -0.051 A  
HETATM    6  C   UNL     1     -11.774  11.812  69.173  1.00  0.00    -0.388 A  
HETATM    7  C   UNL     1     -10.738   9.829  68.322  1.00  0.00    -0.277 A  
HETATM    8  C   UNL     1     -11.072  11.164  68.162  1.00  0.00    -0.324 A  
ENDROOT
BRANCH   5   9
HETATM    9  N   UNL     1     -10.943   7.706  69.546  1.00  0.00    -0.415 NA 
HETATM   10  H   UNL     1     -11.312   7.232  70.370  1.00  0.00     0.000 HD 
BRANCH   9  11
HETATM   11  C   UNL     1     -10.346   6.898  68.535  1.00  0.00    -0.186 A  
HETATM   12  C   UNL     1     -11.152   6.260  67.576  1.00  0.00    -0.379 A  
HETATM   13  C   UNL     1     -10.607   5.621  66.462  1.00  0.00    -0.320 A  
HETATM   14  C   UNL     1      -9.227   5.561  66.314  1.00  0.00    -0.161 A  
HETATM   15  C   UNL     1      -8.403   6.070  67.317  1.00  0.00    -0.105 A  
HETATM   16  C   UNL     1      -8.956   6.692  68.448  1.00  0.00    -0.123 A  
HETATM   17  C   UNL     1      -8.026   7.108  69.517  1.00  0.00    -0.128 C  
HETATM   18  O   UNL     1      -6.915   7.560  69.311  1.00  0.00    -0.064 OA 
HETATM   19  O   UNL     1      -8.519   6.865  70.755  1.00  0.00    -0.132 OA 
ENDBRANCH   9  11
ENDBRANCH   5   9
TORSDOF 2
ENDMDL
MODEL      154
REMARK 921   NORMALIZED FREE ENERGY PREDICTED BY IDOCK:   -4.16 KCAL/MOL
REMARK 922        TOTAL FREE ENERGY PREDICTED BY IDOCK:   -5.29 KCAL/MOL
REMARK 923 INTER-LIGAND FREE ENERGY PREDICTED BY IDOCK:   -5.04 KCAL/MOL
REMARK 924 INTRA-LIGAND FREE ENERGY PREDICTED BY IDOCK:   -0.25 KCAL/MOL
REMARK 927      BINDING AFFINITY PREDICTED BY RF-SCORE:    0.00 PKD
ROOT
HETATM    1  C   UNL     1     -13.352  10.887  71.851  1.00  0.00    -0.429 C  
HETATM    2  C   UNL     1     -12.137  10.589  71.013  1.00  0.00    -0.492 A  
HETATM    3  C   UNL     1     -11.337   9.439  71.193  1.00  0.00    -0.422 A  
HETATM    4  C   UNL     1     -11.485   8.576  72.418  1.00  0.00    -0.419 C  
HETATM    5  C   UNL     1     -10.413   9.094  70.182  1.00  0.00    -0.218 A  
HETATM    6  C   UNL     1     -11.829  11.499  69.992  1.00  0.00    -0.435 A  
HETATM    7  C   UNL     1     -10.083  10.057  69.213  1.00  0.00    -0.226 A  
HETATM    8  C   UNL     1     -10.770  11.256  69.123  1.00  0.00    -0.247 A  
ENDROOT
BRANCH   5   9
HETATM    9  N   UNL     1      -9.875   7.775  70.106  1.00  0.00    -0.184 NA 
HETATM   10  H   UNL     1      -9.268   7.470  70.867  1.00  0.00     0.000 HD 
BRANCH   9  11
HETATM   11  C   UNL     1     -10.121   6.850  69.051  1.00  0.00    -0.170 A  
HETATM   12  C   UNL     1     -10.528   7.313  67.788  1.00  0.00    -0.292 A  
HETATM   13  C   UNL     1     -10.595   6.470  66.679  1.00  0.00    -0.241 A  
HETATM   14  C   UNL     1     -10.303   5.119  66.826  1.00  0.00    -0.306 A  
HETATM   15  C   UNL     1     -10.026   4.609  68.094  1.00  0.00    -0.127 A  
HETATM   16  C   UNL     1      -9.983   5.458  69.212  1.00  0.00    -0.277 A  
HETATM   17  C   UNL     1      -9.789   4.829  70.534  1.00  0.00    -0.230 C  
HETATM   18  O   UNL     1      -9.069   3.868  70.730  1.00  0.00    -0.089 OA 
HETATM   19  O   UNL     1     -10.558   5.397  71.494  1.00  0.00    -0.233 OA 
ENDBRANCH   9  11
ENDBRANCH   5   9
TORSDOF 2
ENDMDL
MODEL      155
REMARK 921   NORMALIZED FREE ENERGY PREDICTED BY IDOCK:   -4.15 KCAL/MOL
REMARK 922        TOTAL FREE ENERGY PREDICTED BY IDOCK:   -5.28 KCAL/MOL
REMARK 923 INTER-LIGAND FREE ENERGY PREDICTED BY IDOCK:   -4.80 KCAL/MOL
REMARK 924 INTRA-LIGAND FREE ENERGY PREDICTED BY IDOCK:   -0.48 KCAL/MOL
REMARK 927      BINDING AFFINITY PREDICTED BY RF-SCORE:    0.00 PKD
ROOT
HETATM    1  C   UNL     1     -12.534  15.016  70.809  1.00  0.00    -0.411 C  
HETATM    2  C   UNL     1     -12.347  13.529  70.664  1.00  0.00    -0.432 A  
HETATM    3  C   UNL     1     -11.451  12.949  69.739  1.00  0.00    -0.203 A  
HETATM    4  C   UNL     1     -10.827  13.772  68.643  1.00  0.00    -0.280 C  
HETATM    5  C   UNL     1     -11.125  11.582  69.881  1.00  0.00    -0.004 A  
HETATM    6  C   UNL     1     -13.089  12.708  71.523  1.00  0.00    -0.373 A  
HETATM    7  C   UNL     1     -11.933  10.778  70.704  1.00  0.00    -0.466 A  
HETATM    8  C   UNL     1     -12.917  11.327  71.508  1.00  0.00    -0.520 A  
ENDROOT
BRANCH   5   9
HETATM    9  N   UNL     1      -9.962  11.042  69.256  1.00  0.00    -0.406 NA 
HETATM   10  H   UNL     1      -9.126  11.627  69.232  1.00  0.00     0.000 HD 
BRANCH   9  11
HETATM   11  C   UNL     1      -9.876   9.750  68.663  1.00  0.00    -0.157 A  
HETATM   12  C   UNL     1     -10.688   9.424  67.562  1.00  0.00    -0.290 A  
HETATM   13  C   UNL     1     -10.505   8.249  66.834  1.00  0.00    -0.365 A  
HETATM   14  C   UNL     1      -9.531   7.341  67.229  1.00  0.00    -0.169 A  
HETATM   15  C   UNL     1      -8.801   7.577  68.394  1.00  0.00    -0.126 A  
HETATM   16  C   UNL     1      -9.005   8.751  69.138  1.00  0.00    -0.137 A  
HETATM   17  C   UNL     1      -8.274   8.880  70.415  1.00  0.00    -0.138 C  
HETATM   18  O   UNL     1      -7.136   8.484  70.589  1.00  0.00    -0.041 OA 
HETATM   19  O   UNL     1      -9.036   9.424  71.394  1.00  0.00    -0.285 OA 
ENDBRANCH   9  11
ENDBRANCH   5   9
TORSDOF 2
ENDMDL
MODEL      156
REMARK 921   NORMALIZED FREE ENERGY PREDICTED BY IDOCK:   -4.12 KCAL/MOL
REMARK 922        TOTAL FREE ENERGY PREDICTED BY IDOCK:   -5.25 KCAL/MOL
REMARK 923 INTER-LIGAND FREE ENERGY PREDICTED BY IDOCK:   -4.65 KCAL/MOL
REMARK 924 INTRA-LIGAND FREE ENERGY PREDICTED BY IDOCK:   -0.60 KCAL/MOL
REMARK 927      BINDING AFFINITY PREDICTED BY RF-SCORE:    0.00 PKD
ROOT
HETATM    1  C   UNL     1     -12.782  14.119  70.921  1.00  0.00    -0.432 C  
HETATM    2  C   UNL     1     -11.928  13.707  69.751  1.00  0.00    -0.404 A  
HETATM    3  C   UNL     1     -11.350  14.630  68.853  1.00  0.00    -0.305 A  
HETATM    4  C   UNL     1     -11.777  16.074  68.843  1.00  0.00    -0.322 C  
HETATM    5  C   UNL     1     -10.334  14.178  67.982  1.00  0.00    -0.231 A  
HETATM    6  C   UNL     1     -11.689  12.335  69.591  1.00  0.00    -0.386 A  
HETATM    7  C   UNL     1     -10.167  12.794  67.800  1.00  0.00    -0.223 A  
HETATM    8  C   UNL     1     -10.847  11.876  68.584  1.00  0.00    -0.273 A  
ENDROOT
BRANCH   5   9
HETATM    9  N   UNL     1      -9.452  15.104  67.349  1.00  0.00    -0.202 NA 
HETATM   10  H   UNL     1      -9.748  15.503  66.458  1.00  0.00     0.000 HD 
BRANCH   9  11
HETATM   11  C   UNL     1      -8.189  15.516  67.866  1.00  0.00    -0.143 A  
HETATM   12  C   UNL     1      -7.632  14.855  68.975  1.00  0.00    -0.151 A  
HETATM   13  C   UNL     1      -6.324  15.094  69.394  1.00  0.00    -0.129 A  
HETATM   14  C   UNL     1      -5.556  16.046  68.737  1.00  0.00    -0.108 A  
HETATM   15  C   UNL     1      -6.127  16.809  67.718  1.00  0.00    -0.155 A  
HETATM   16  C   UNL     1      -7.453  16.582  67.315  1.00  0.00    -0.195 A  
HETATM   17  C   UNL     1      -8.022  17.499  66.307  1.00  0.00    -0.268 C  
HETATM   18  O   UNL     1      -7.390  17.959  65.374  1.00  0.00    -0.453 OA 
HETATM   19  O   UNL     1      -9.308  17.829  66.575  1.00  0.00    -0.271 OA 
ENDBRANCH   9  11
ENDBRANCH   5   9
TORSDOF 2
ENDMDL
MODEL      157
REMARK 921   NORMALIZED FREE ENERGY PREDICTED BY IDOCK:   -4.12 KCAL/MOL
REMARK 922        TOTAL FREE ENERGY PREDICTED BY IDOCK:   -5.25 KCAL/MOL
REMARK 923 INTER-LIGAND FREE ENERGY PREDICTED BY IDOCK:   -4.56 KCAL/MOL
REMARK 924 INTRA-LIGAND FREE ENERGY PREDICTED BY IDOCK:   -0.69 KCAL/MOL
REMARK 927      BINDING AFFINITY PREDICTED BY RF-SCORE:    0.00 PKD
ROOT
HETATM    1  C   UNL     1     -10.410  20.089  66.141  1.00  0.00    -0.570 C  
HETATM    2  C   UNL     1      -9.676  18.774  66.140  1.00  0.00    -0.280 A  
HETATM    3  C   UNL     1      -8.267  18.675  66.126  1.00  0.00    -0.187 A  
HETATM    4  C   UNL     1      -7.409  19.876  65.830  1.00  0.00    -0.335 C  
HETATM    5  C   UNL     1      -7.675  17.429  66.429  1.00  0.00    -0.308 A  
HETATM    6  C   UNL     1     -10.456  17.610  66.188  1.00  0.00    -0.295 A  
HETATM    7  C   UNL     1      -8.479  16.277  66.404  1.00  0.00    -0.365 A  
HETATM    8  C   UNL     1      -9.855  16.358  66.270  1.00  0.00    -0.336 A  
ENDROOT
BRANCH   5   9
HETATM    9  N   UNL     1      -6.305  17.349  66.817  1.00  0.00    -0.181 NA 
HETATM   10  H   UNL     1      -5.618  17.175  66.083  1.00  0.00     0.000 HD 
BRANCH   9  11
HETATM   11  C   UNL     1      -5.821  17.494  68.149  1.00  0.00    -0.153 A  
HETATM   12  C   UNL     1      -5.461  18.764  68.634  1.00  0.00    -0.197 A  
HETATM   13  C   UNL     1      -5.168  18.982  69.980  1.00  0.00    -0.213 A  
HETATM   14  C   UNL     1      -5.176  17.913  70.866  1.00  0.00    -0.269 A  
HETATM   15  C   UNL     1      -5.399  16.623  70.387  1.00  0.00    -0.209 A  
HETATM   16  C   UNL     1      -5.672  16.404  69.027  1.00  0.00    -0.130 A  
HETATM   17  C   UNL     1      -5.790  15.002  68.576  1.00  0.00    -0.096 C  
HETATM   18  O   UNL     1      -6.301  14.117  69.237  1.00  0.00    -0.099 OA 
HETATM   19  O   UNL     1      -5.203  14.795  67.373  1.00  0.00    -0.334 OA 
ENDBRANCH   9  11
ENDBRANCH   5   9
TORSDOF 2
ENDMDL
MODEL      158
REMARK 921   NORMALIZED FREE ENERGY PREDICTED BY IDOCK:   -4.11 KCAL/MOL
REMARK 922        TOTAL FREE ENERGY PREDICTED BY IDOCK:   -5.24 KCAL/MOL
REMARK 923 INTER-LIGAND FREE ENERGY PREDICTED BY IDOCK:   -4.66 KCAL/MOL
REMARK 924 INTRA-LIGAND FREE ENERGY PREDICTED BY IDOCK:   -0.58 KCAL/MOL
REMARK 927      BINDING AFFINITY PREDICTED BY RF-SCORE:    0.00 PKD
ROOT
HETATM    1  C   UNL     1      -9.787   3.922  72.516  1.00  0.00    -0.216 C  
HETATM    2  C   UNL     1     -10.495   5.020  71.767  1.00  0.00    -0.246 A  
HETATM    3  C   UNL     1     -10.236   5.324  70.413  1.00  0.00    -0.338 A  
HETATM    4  C   UNL     1      -9.036   4.751  69.705  1.00  0.00    -0.159 C  
HETATM    5  C   UNL     1     -11.146   6.153  69.721  1.00  0.00    -0.416 A  
HETATM    6  C   UNL     1     -11.474   5.739  72.467  1.00  0.00    -0.349 A  
HETATM    7  C   UNL     1     -12.072   6.905  70.464  1.00  0.00    -0.315 A  
HETATM    8  C   UNL     1     -12.229   6.716  71.827  1.00  0.00    -0.400 A  
ENDROOT
BRANCH   5   9
HETATM    9  N   UNL     1     -11.170   6.177  68.294  1.00  0.00    -0.370 NA 
HETATM   10  H   UNL     1     -11.786   5.515  67.823  1.00  0.00     0.000 HD 
BRANCH   9  11
HETATM   11  C   UNL     1     -10.400   7.054  67.477  1.00  0.00    -0.225 A  
HETATM   12  C   UNL     1     -10.512   8.446  67.638  1.00  0.00    -0.307 A  
HETATM   13  C   UNL     1      -9.645   9.333  67.001  1.00  0.00    -0.223 A  
HETATM   14  C   UNL     1      -8.672   8.842  66.139  1.00  0.00    -0.177 A  
HETATM   15  C   UNL     1      -8.625   7.477  65.859  1.00  0.00    -0.165 A  
HETATM   16  C   UNL     1      -9.515   6.589  66.486  1.00  0.00    -0.190 A  
HETATM   17  C   UNL     1      -9.476   5.176  66.059  1.00  0.00    -0.160 C  
HETATM   18  O   UNL     1      -8.454   4.583  65.767  1.00  0.00    -0.113 OA 
HETATM   19  O   UNL     1     -10.712   4.631  65.960  1.00  0.00    -0.295 OA 
ENDBRANCH   9  11
ENDBRANCH   5   9
TORSDOF 2
ENDMDL
MODEL      159
REMARK 921   NORMALIZED FREE ENERGY PREDICTED BY IDOCK:   -4.11 KCAL/MOL
REMARK 922        TOTAL FREE ENERGY PREDICTED BY IDOCK:   -5.24 KCAL/MOL
REMARK 923 INTER-LIGAND FREE ENERGY PREDICTED BY IDOCK:   -4.68 KCAL/MOL
REMARK 924 INTRA-LIGAND FREE ENERGY PREDICTED BY IDOCK:   -0.56 KCAL/MOL
REMARK 927      BINDING AFFINITY PREDICTED BY RF-SCORE:    0.00 PKD
ROOT
HETATM    1  C   UNL     1     -11.052   8.028  71.828  1.00  0.00    -0.313 C  
HETATM    2  C   UNL     1     -10.931   7.803  70.344  1.00  0.00    -0.255 A  
HETATM    3  C   UNL     1     -10.454   8.786  69.449  1.00  0.00    -0.228 A  
HETATM    4  C   UNL     1     -10.297  10.219  69.884  1.00  0.00    -0.281 C  
HETATM    5  C   UNL     1     -10.096   8.391  68.141  1.00  0.00    -0.200 A  
HETATM    6  C   UNL     1     -11.289   6.537  69.861  1.00  0.00    -0.469 A  
HETATM    7  C   UNL     1     -10.527   7.138  67.673  1.00  0.00    -0.306 A  
HETATM    8  C   UNL     1     -11.132   6.221  68.516  1.00  0.00    -0.397 A  
ENDROOT
BRANCH   5   9
HETATM    9  N   UNL     1      -9.257   9.218  67.336  1.00  0.00    -0.126 NA 
HETATM   10  H   UNL     1      -8.259   9.221  67.545  1.00  0.00     0.000 HD 
BRANCH   9  11
HETATM   11  C   UNL     1      -9.706  10.038  66.261  1.00  0.00    -0.214 A  
HETATM   12  C   UNL     1     -10.780  10.925  66.452  1.00  0.00    -0.257 A  
HETATM   13  C   UNL     1     -11.127  11.878  65.495  1.00  0.00    -0.356 A  
HETATM   14  C   UNL     1     -10.434  11.928  64.292  1.00  0.00    -0.370 A  
HETATM   15  C   UNL     1      -9.452  10.975  64.023  1.00  0.00    -0.278 A  
HETATM   16  C   UNL     1      -9.121  10.002  64.980  1.00  0.00    -0.255 A  
HETATM   17  C   UNL     1      -8.150   8.962  64.583  1.00  0.00    -0.151 C  
HETATM   18  O   UNL     1      -7.186   9.171  63.870  1.00  0.00    -0.094 OA 
HETATM   19  O   UNL     1      -8.490   7.734  65.042  1.00  0.00    -0.128 OA 
ENDBRANCH   9  11
ENDBRANCH   5   9
TORSDOF 2
ENDMDL
MODEL      160
REMARK 921   NORMALIZED FREE ENERGY PREDICTED BY IDOCK:   -4.11 KCAL/MOL
REMARK 922        TOTAL FREE ENERGY PREDICTED BY IDOCK:   -5.23 KCAL/MOL
REMARK 923 INTER-LIGAND FREE ENERGY PREDICTED BY IDOCK:   -4.52 KCAL/MOL
REMARK 924 INTRA-LIGAND FREE ENERGY PREDICTED BY IDOCK:   -0.71 KCAL/MOL
REMARK 927      BINDING AFFINITY PREDICTED BY RF-SCORE:    0.00 PKD
ROOT
HETATM    1  C   UNL     1      -7.527   8.846  66.464  1.00  0.00    -0.088 C  
HETATM    2  C   UNL     1      -8.654   9.020  67.446  1.00  0.00    -0.115 A  
HETATM    3  C   UNL     1      -9.694   8.077  67.605  1.00  0.00    -0.198 A  
HETATM    4  C   UNL     1      -9.893   6.968  66.606  1.00  0.00    -0.223 C  
HETATM    5  C   UNL     1     -10.526   8.175  68.742  1.00  0.00    -0.174 A  
HETATM    6  C   UNL     1      -8.627  10.168  68.250  1.00  0.00    -0.116 A  
HETATM    7  C   UNL     1     -10.516   9.368  69.484  1.00  0.00    -0.229 A  
HETATM    8  C   UNL     1      -9.588  10.366  69.236  1.00  0.00    -0.226 A  
ENDROOT
BRANCH   5   9
HETATM    9  N   UNL     1     -11.313   7.063  69.166  1.00  0.00    -0.510 NA 
HETATM   10  H   UNL     1     -12.247   6.968  68.767  1.00  0.00     0.000 HD 
BRANCH   9  11
HETATM   11  C   UNL     1     -10.895   6.074  70.103  1.00  0.00    -0.339 A  
HETATM   12  C   UNL     1     -10.275   4.895  69.654  1.00  0.00    -0.265 A  
HETATM   13  C   UNL     1      -9.680   3.993  70.536  1.00  0.00    -0.258 A  
HETATM   14  C   UNL     1      -9.741   4.229  71.903  1.00  0.00    -0.231 A  
HETATM   15  C   UNL     1     -10.463   5.322  72.382  1.00  0.00    -0.268 A  
HETATM   16  C   UNL     1     -11.081   6.215  71.491  1.00  0.00    -0.342 A  
HETATM   17  C   UNL     1     -11.917   7.284  72.074  1.00  0.00    -0.296 C  
HETATM   18  O   UNL     1     -11.650   7.867  73.108  1.00  0.00    -0.292 OA 
HETATM   19  O   UNL     1     -13.051   7.497  71.365  1.00  0.00    -0.351 OA 
ENDBRANCH   9  11
ENDBRANCH   5   9
TORSDOF 2
ENDMDL
MODEL      161
REMARK 921   NORMALIZED FREE ENERGY PREDICTED BY IDOCK:   -4.10 KCAL/MOL
REMARK 922        TOTAL FREE ENERGY PREDICTED BY IDOCK:   -5.23 KCAL/MOL
REMARK 923 INTER-LIGAND FREE ENERGY PREDICTED BY IDOCK:   -4.95 KCAL/MOL
REMARK 924 INTRA-LIGAND FREE ENERGY PREDICTED BY IDOCK:   -0.28 KCAL/MOL
REMARK 927      BINDING AFFINITY PREDICTED BY RF-SCORE:    0.00 PKD
ROOT
HETATM    1  C   UNL     1     -10.293  17.736  68.910  1.00  0.00    -0.300 C  
HETATM    2  C   UNL     1      -9.661  16.517  68.293  1.00  0.00    -0.231 A  
HETATM    3  C   UNL     1     -10.302  15.259  68.237  1.00  0.00    -0.234 A  
HETATM    4  C   UNL     1     -11.547  14.987  69.039  1.00  0.00    -0.342 C  
HETATM    5  C   UNL     1      -9.768  14.267  67.385  1.00  0.00    -0.235 A  
HETATM    6  C   UNL     1      -8.389  16.676  67.728  1.00  0.00    -0.184 A  
HETATM    7  C   UNL     1      -8.464  14.434  66.890  1.00  0.00    -0.156 A  
HETATM    8  C   UNL     1      -7.769  15.619  67.069  1.00  0.00    -0.257 A  
ENDROOT
BRANCH   5   9
HETATM    9  N   UNL     1     -10.560  13.151  66.983  1.00  0.00    -0.257 NA 
HETATM   10  H   UNL     1     -11.555  13.174  67.207  1.00  0.00     0.000 HD 
BRANCH   9  11
HETATM   11  C   UNL     1     -10.069  12.006  66.291  1.00  0.00    -0.222 A  
HETATM   12  C   UNL     1      -9.301  11.046  66.974  1.00  0.00    -0.186 A  
HETATM   13  C   UNL     1      -8.963   9.824  66.394  1.00  0.00    -0.176 A  
HETATM   14  C   UNL     1      -9.346   9.556  65.085  1.00  0.00    -0.316 A  
HETATM   15  C   UNL     1      -9.994  10.542  64.342  1.00  0.00    -0.410 A  
HETATM   16  C   UNL     1     -10.312  11.781  64.923  1.00  0.00    -0.334 A  
HETATM   17  C   UNL     1     -10.900  12.812  64.043  1.00  0.00    -0.424 C  
HETATM   18  O   UNL     1     -11.690  12.571  63.150  1.00  0.00    -0.430 OA 
HETATM   19  O   UNL     1     -10.408  14.048  64.296  1.00  0.00    -0.253 OA 
ENDBRANCH   9  11
ENDBRANCH   5   9
TORSDOF 2
ENDMDL
MODEL      162
REMARK 921   NORMALIZED FREE ENERGY PREDICTED BY IDOCK:   -4.10 KCAL/MOL
REMARK 922        TOTAL FREE ENERGY PREDICTED BY IDOCK:   -5.22 KCAL/MOL
REMARK 923 INTER-LIGAND FREE ENERGY PREDICTED BY IDOCK:   -4.71 KCAL/MOL
REMARK 924 INTRA-LIGAND FREE ENERGY PREDICTED BY IDOCK:   -0.51 KCAL/MOL
REMARK 927      BINDING AFFINITY PREDICTED BY RF-SCORE:    0.00 PKD
ROOT
HETATM    1  C   UNL     1     -10.614   5.108  66.218  1.00  0.00    -0.325 C  
HETATM    2  C   UNL     1      -9.976   5.470  67.533  1.00  0.00    -0.189 A  
HETATM    3  C   UNL     1      -9.537   6.776  67.845  1.00  0.00    -0.125 A  
HETATM    4  C   UNL     1      -9.424   7.832  66.778  1.00  0.00    -0.251 C  
HETATM    5  C   UNL     1      -9.235   7.083  69.190  1.00  0.00    -0.138 A  
HETATM    6  C   UNL     1      -9.854   4.448  68.484  1.00  0.00    -0.140 A  
HETATM    7  C   UNL     1      -9.059   6.026  70.100  1.00  0.00    -0.154 A  
HETATM    8  C   UNL     1      -9.349   4.717  69.752  1.00  0.00    -0.215 A  
ENDROOT
BRANCH   5   9
HETATM    9  N   UNL     1      -9.175   8.438  69.632  1.00  0.00    -0.159 NA 
HETATM   10  H   UNL     1      -8.252   8.862  69.724  1.00  0.00     0.000 HD 
BRANCH   9  11
HETATM   11  C   UNL     1     -10.304   9.244  69.956  1.00  0.00    -0.217 A  
HETATM   12  C   UNL     1     -10.770  10.205  69.041  1.00  0.00    -0.249 A  
HETATM   13  C   UNL     1     -11.976  10.878  69.229  1.00  0.00    -0.382 A  
HETATM   14  C   UNL     1     -12.723  10.641  70.376  1.00  0.00    -0.340 A  
HETATM   15  C   UNL     1     -12.221   9.792  71.361  1.00  0.00    -0.486 A  
HETATM   16  C   UNL     1     -10.994   9.133  71.178  1.00  0.00    -0.390 A  
HETATM   17  C   UNL     1     -10.476   8.336  72.309  1.00  0.00    -0.321 C  
HETATM   18  O   UNL     1     -11.179   7.679  73.055  1.00  0.00    -0.384 OA 
HETATM   19  O   UNL     1      -9.138   8.474  72.468  1.00  0.00    -0.244 OA 
ENDBRANCH   9  11
ENDBRANCH   5   9
TORSDOF 2
ENDMDL
MODEL      163
REMARK 921   NORMALIZED FREE ENERGY PREDICTED BY IDOCK:   -4.09 KCAL/MOL
REMARK 922        TOTAL FREE ENERGY PREDICTED BY IDOCK:   -5.22 KCAL/MOL
REMARK 923 INTER-LIGAND FREE ENERGY PREDICTED BY IDOCK:   -4.55 KCAL/MOL
REMARK 924 INTRA-LIGAND FREE ENERGY PREDICTED BY IDOCK:   -0.66 KCAL/MOL
REMARK 927      BINDING AFFINITY PREDICTED BY RF-SCORE:    0.00 PKD
ROOT
HETATM    1  C   UNL     1      -8.073  15.011  69.340  1.00  0.00    -0.155 C  
HETATM    2  C   UNL     1      -7.957  13.729  68.558  1.00  0.00    -0.131 A  
HETATM    3  C   UNL     1      -9.052  12.873  68.312  1.00  0.00    -0.180 A  
HETATM    4  C   UNL     1     -10.353  13.045  69.050  1.00  0.00     0.035 C  
HETATM    5  C   UNL     1      -8.914  11.867  67.330  1.00  0.00    -0.176 A  
HETATM    6  C   UNL     1      -6.694  13.414  68.038  1.00  0.00    -0.131 A  
HETATM    7  C   UNL     1      -7.624  11.536  66.880  1.00  0.00    -0.151 A  
HETATM    8  C   UNL     1      -6.519  12.289  67.239  1.00  0.00    -0.152 A  
ENDROOT
BRANCH   5   9
HETATM    9  N   UNL     1     -10.064  11.244  66.758  1.00  0.00    -0.213 NA 
HETATM   10  H   UNL     1     -10.379  10.367  67.173  1.00  0.00     0.000 HD 
BRANCH   9  11
HETATM   11  C   UNL     1     -10.806  11.753  65.654  1.00  0.00    -0.292 A  
HETATM   12  C   UNL     1     -11.937  12.558  65.876  1.00  0.00    -0.472 A  
HETATM   13  C   UNL     1     -12.578  13.231  64.837  1.00  0.00    -0.444 A  
HETATM   14  C   UNL     1     -12.127  13.069  63.533  1.00  0.00    -0.617 A  
HETATM   15  C   UNL     1     -11.091  12.174  63.269  1.00  0.00    -0.408 A  
HETATM   16  C   UNL     1     -10.463  11.480  64.316  1.00  0.00    -0.393 A  
HETATM   17  C   UNL     1      -9.449  10.471  63.949  1.00  0.00    -0.292 C  
HETATM   18  O   UNL     1      -8.667  10.598  63.025  1.00  0.00    -0.182 OA 
HETATM   19  O   UNL     1      -9.532   9.354  64.712  1.00  0.00    -0.201 OA 
ENDBRANCH   9  11
ENDBRANCH   5   9
TORSDOF 2
ENDMDL
MODEL      164
REMARK 921   NORMALIZED FREE ENERGY PREDICTED BY IDOCK:   -4.07 KCAL/MOL
REMARK 922        TOTAL FREE ENERGY PREDICTED BY IDOCK:   -5.19 KCAL/MOL
REMARK 923 INTER-LIGAND FREE ENERGY PREDICTED BY IDOCK:   -4.54 KCAL/MOL
REMARK 924 INTRA-LIGAND FREE ENERGY PREDICTED BY IDOCK:   -0.65 KCAL/MOL
REMARK 927      BINDING AFFINITY PREDICTED BY RF-SCORE:    0.00 PKD
ROOT
HETATM    1  C   UNL     1      -8.495  12.574  67.078  1.00  0.00    -0.161 C  
HETATM    2  C   UNL     1      -8.780  14.052  67.032  1.00  0.00    -0.220 A  
HETATM    3  C   UNL     1      -7.798  15.037  67.275  1.00  0.00    -0.241 A  
HETATM    4  C   UNL     1      -6.464  14.671  67.870  1.00  0.00    -0.177 C  
HETATM    5  C   UNL     1      -8.080  16.374  66.917  1.00  0.00    -0.226 A  
HETATM    6  C   UNL     1     -10.086  14.437  66.698  1.00  0.00    -0.276 A  
HETATM    7  C   UNL     1      -9.412  16.734  66.652  1.00  0.00    -0.275 A  
HETATM    8  C   UNL     1     -10.413  15.782  66.557  1.00  0.00    -0.304 A  
ENDROOT
BRANCH   5   9
HETATM    9  N   UNL     1      -7.027  17.324  66.765  1.00  0.00    -0.190 NA 
HETATM   10  H   UNL     1      -6.417  17.224  65.954  1.00  0.00     0.000 HD 
BRANCH   9  11
HETATM   11  C   UNL     1      -6.762  18.403  67.657  1.00  0.00    -0.198 A  
HETATM   12  C   UNL     1      -6.661  18.165  69.039  1.00  0.00    -0.253 A  
HETATM   13  C   UNL     1      -6.216  19.146  69.925  1.00  0.00    -0.251 A  
HETATM   14  C   UNL     1      -5.911  20.414  69.448  1.00  0.00    -0.385 A  
HETATM   15  C   UNL     1      -6.128  20.715  68.104  1.00  0.00    -0.345 A  
HETATM   16  C   UNL     1      -6.598  19.731  67.219  1.00  0.00    -0.223 A  
HETATM   17  C   UNL     1      -6.906  20.152  65.837  1.00  0.00    -0.263 C  
HETATM   18  O   UNL     1      -6.257  20.973  65.217  1.00  0.00    -0.244 OA 
HETATM   19  O   UNL     1      -8.034  19.573  65.360  1.00  0.00    -0.305 OA 
ENDBRANCH   9  11
ENDBRANCH   5   9
TORSDOF 2
ENDMDL
MODEL      165
REMARK 921   NORMALIZED FREE ENERGY PREDICTED BY IDOCK:   -4.05 KCAL/MOL
REMARK 922        TOTAL FREE ENERGY PREDICTED BY IDOCK:   -5.17 KCAL/MOL
REMARK 923 INTER-LIGAND FREE ENERGY PREDICTED BY IDOCK:   -4.46 KCAL/MOL
REMARK 924 INTRA-LIGAND FREE ENERGY PREDICTED BY IDOCK:   -0.71 KCAL/MOL
REMARK 927      BINDING AFFINITY PREDICTED BY RF-SCORE:    0.00 PKD
ROOT
HETATM    1  C   UNL     1     -12.238  10.727  69.314  1.00  0.00    -0.185 C  
HETATM    2  C   UNL     1     -11.740  12.127  69.553  1.00  0.00    -0.402 A  
HETATM    3  C   UNL     1     -10.585  12.653  68.934  1.00  0.00    -0.157 A  
HETATM    4  C   UNL     1      -9.619  11.756  68.206  1.00  0.00    -0.199 C  
HETATM    5  C   UNL     1     -10.369  14.048  68.982  1.00  0.00    -0.125 A  
HETATM    6  C   UNL     1     -12.497  12.933  70.414  1.00  0.00    -0.247 A  
HETATM    7  C   UNL     1     -11.105  14.813  69.903  1.00  0.00    -0.266 A  
HETATM    8  C   UNL     1     -12.150  14.263  70.627  1.00  0.00    -0.417 A  
ENDROOT
BRANCH   5   9
HETATM    9  N   UNL     1      -9.472  14.678  68.069  1.00  0.00    -0.202 NA 
HETATM   10  H   UNL     1      -8.473  14.554  68.230  1.00  0.00     0.000 HD 
BRANCH   9  11
HETATM   11  C   UNL     1      -9.864  15.467  66.949  1.00  0.00    -0.237 A  
HETATM   12  C   UNL     1     -10.277  14.845  65.758  1.00  0.00    -0.358 A  
HETATM   13  C   UNL     1     -10.848  15.566  64.710  1.00  0.00    -0.385 A  
HETATM   14  C   UNL     1     -10.968  16.946  64.811  1.00  0.00     0.079 A  
HETATM   15  C   UNL     1     -10.446  17.603  65.925  1.00  0.00    -0.247 A  
HETATM   16  C   UNL     1      -9.851  16.875  66.969  1.00  0.00    -0.270 A  
HETATM   17  C   UNL     1      -9.226  17.646  68.063  1.00  0.00    -0.271 C  
HETATM   18  O   UNL     1      -9.676  18.687  68.503  1.00  0.00    -0.333 OA 
HETATM   19  O   UNL     1      -8.056  17.102  68.475  1.00  0.00    -0.241 OA 
ENDBRANCH   9  11
ENDBRANCH   5   9
TORSDOF 2
ENDMDL
MODEL      166
REMARK 921   NORMALIZED FREE ENERGY PREDICTED BY IDOCK:   -4.05 KCAL/MOL
REMARK 922        TOTAL FREE ENERGY PREDICTED BY IDOCK:   -5.16 KCAL/MOL
REMARK 923 INTER-LIGAND FREE ENERGY PREDICTED BY IDOCK:   -4.64 KCAL/MOL
REMARK 924 INTRA-LIGAND FREE ENERGY PREDICTED BY IDOCK:   -0.52 KCAL/MOL
REMARK 927      BINDING AFFINITY PREDICTED BY RF-SCORE:    0.00 PKD
ROOT
HETATM    1  C   UNL     1      -6.460   7.803  67.886  1.00  0.00    -0.051 C  
HETATM    2  C   UNL     1      -7.922   8.077  67.654  1.00  0.00    -0.123 A  
HETATM    3  C   UNL     1      -8.453   9.378  67.513  1.00  0.00    -0.122 A  
HETATM    4  C   UNL     1      -7.632  10.591  67.864  1.00  0.00    -0.092 C  
HETATM    5  C   UNL     1      -9.762   9.522  67.004  1.00  0.00    -0.176 A  
HETATM    6  C   UNL     1      -8.768   6.965  67.545  1.00  0.00    -0.120 A  
HETATM    7  C   UNL     1     -10.600   8.394  66.971  1.00  0.00    -0.316 A  
HETATM    8  C   UNL     1     -10.118   7.127  67.253  1.00  0.00    -0.278 A  
ENDROOT
BRANCH   5   9
HETATM    9  N   UNL     1     -10.204  10.770  66.473  1.00  0.00    -0.228 NA 
HETATM   10  H   UNL     1     -10.027  10.951  65.485  1.00  0.00     0.000 HD 
BRANCH   9  11
HETATM   11  C   UNL     1     -10.874  11.785  67.216  1.00  0.00    -0.253 A  
HETATM   12  C   UNL     1     -11.197  11.571  68.568  1.00  0.00    -0.315 A  
HETATM   13  C   UNL     1     -11.676  12.597  69.382  1.00  0.00    -0.387 A  
HETATM   14  C   UNL     1     -11.893  13.858  68.841  1.00  0.00    -0.393 A  
HETATM   15  C   UNL     1     -11.706  14.063  67.474  1.00  0.00    -0.421 A  
HETATM   16  C   UNL     1     -11.246  13.020  66.653  1.00  0.00    -0.341 A  
HETATM   17  C   UNL     1     -11.176  13.282  65.201  1.00  0.00    -0.302 C  
HETATM   18  O   UNL     1     -10.847  14.350  64.718  1.00  0.00    -0.395 OA 
HETATM   19  O   UNL     1     -11.585  12.221  64.464  1.00  0.00    -0.329 OA 
ENDBRANCH   9  11
ENDBRANCH   5   9
TORSDOF 2
ENDMDL
MODEL      167
REMARK 921   NORMALIZED FREE ENERGY PREDICTED BY IDOCK:   -4.04 KCAL/MOL
REMARK 922        TOTAL FREE ENERGY PREDICTED BY IDOCK:   -5.16 KCAL/MOL
REMARK 923 INTER-LIGAND FREE ENERGY PREDICTED BY IDOCK:   -4.47 KCAL/MOL
REMARK 924 INTRA-LIGAND FREE ENERGY PREDICTED BY IDOCK:   -0.69 KCAL/MOL
REMARK 927      BINDING AFFINITY PREDICTED BY RF-SCORE:    0.00 PKD
ROOT
HETATM    1  C   UNL     1     -10.126   9.785  66.502  1.00  0.00    -0.307 C  
HETATM    2  C   UNL     1     -10.275  11.241  66.854  1.00  0.00    -0.254 A  
HETATM    3  C   UNL     1      -9.190  12.144  66.886  1.00  0.00    -0.203 A  
HETATM    4  C   UNL     1      -7.768  11.649  66.841  1.00  0.00    -0.147 C  
HETATM    5  C   UNL     1      -9.464  13.529  66.928  1.00  0.00    -0.258 A  
HETATM    6  C   UNL     1     -11.571  11.700  67.128  1.00  0.00    -0.291 A  
HETATM    7  C   UNL     1     -10.762  13.949  67.268  1.00  0.00    -0.286 A  
HETATM    8  C   UNL     1     -11.806  13.047  67.384  1.00  0.00    -0.411 A  
ENDROOT
BRANCH   5   9
HETATM    9  N   UNL     1      -8.465  14.481  66.568  1.00  0.00    -0.408 NA 
HETATM   10  H   UNL     1      -8.166  14.504  65.593  1.00  0.00     0.000 HD 
BRANCH   9  11
HETATM   11  C   UNL     1      -7.851  15.402  67.466  1.00  0.00    -0.170 A  
HETATM   12  C   UNL     1      -7.365  14.958  68.708  1.00  0.00    -0.127 A  
HETATM   13  C   UNL     1      -6.591  15.775  69.531  1.00  0.00    -0.183 A  
HETATM   14  C   UNL     1      -6.330  17.085  69.148  1.00  0.00    -0.211 A  
HETATM   15  C   UNL     1      -6.909  17.591  67.985  1.00  0.00    -0.190 A  
HETATM   16  C   UNL     1      -7.707  16.771  67.170  1.00  0.00    -0.213 A  
HETATM   17  C   UNL     1      -8.373  17.406  66.015  1.00  0.00    -0.106 C  
HETATM   18  O   UNL     1      -7.867  18.279  65.335  1.00  0.00    -0.240 OA 
HETATM   19  O   UNL     1      -9.639  16.957  65.838  1.00  0.00    -0.469 OA 
ENDBRANCH   9  11
ENDBRANCH   5   9
TORSDOF 2
ENDMDL
MODEL      168
REMARK 921   NORMALIZED FREE ENERGY PREDICTED BY IDOCK:   -4.03 KCAL/MOL
REMARK 922        TOTAL FREE ENERGY PREDICTED BY IDOCK:   -5.15 KCAL/MOL
REMARK 923 INTER-LIGAND FREE ENERGY PREDICTED BY IDOCK:   -4.57 KCAL/MOL
REMARK 924 INTRA-LIGAND FREE ENERGY PREDICTED BY IDOCK:   -0.58 KCAL/MOL
REMARK 927      BINDING AFFINITY PREDICTED BY RF-SCORE:    0.00 PKD
ROOT
HETATM    1  C   UNL     1      -6.521   6.065  73.150  1.00  0.00    -0.068 C  
HETATM    2  C   UNL     1      -8.002   5.881  72.950  1.00  0.00    -0.107 A  
HETATM    3  C   UNL     1      -8.808   6.809  72.254  1.00  0.00    -0.135 A  
HETATM    4  C   UNL     1      -8.291   8.180  71.908  1.00  0.00    -0.187 C  
HETATM    5  C   UNL     1     -10.105   6.413  71.859  1.00  0.00    -0.183 A  
HETATM    6  C   UNL     1      -8.572   4.708  73.462  1.00  0.00    -0.101 A  
HETATM    7  C   UNL     1     -10.667   5.265  72.444  1.00  0.00    -0.286 A  
HETATM    8  C   UNL     1      -9.918   4.424  73.251  1.00  0.00    -0.183 A  
ENDROOT
BRANCH   5   9
HETATM    9  N   UNL     1     -10.806   7.124  70.840  1.00  0.00    -0.239 NA 
HETATM   10  H   UNL     1     -10.660   6.828  69.875  1.00  0.00     0.000 HD 
BRANCH   9  11
HETATM   11  C   UNL     1     -11.692   8.216  71.066  1.00  0.00    -0.274 A  
HETATM   12  C   UNL     1     -12.805   8.057  71.911  1.00  0.00    -0.343 A  
HETATM   13  C   UNL     1     -13.586   9.141  72.312  1.00  0.00    -0.548 A  
HETATM   14  C   UNL     1     -13.299  10.410  71.827  1.00  0.00    -0.456 A  
HETATM   15  C   UNL     1     -12.284  10.575  70.885  1.00  0.00    -0.490 A  
HETATM   16  C   UNL     1     -11.514   9.478  70.467  1.00  0.00    -0.337 A  
HETATM   17  C   UNL     1     -10.531   9.710  69.389  1.00  0.00    -0.220 C  
HETATM   18  O   UNL     1      -9.875  10.729  69.277  1.00  0.00    -0.205 OA 
HETATM   19  O   UNL     1     -10.492   8.691  68.497  1.00  0.00    -0.209 OA 
ENDBRANCH   9  11
ENDBRANCH   5   9
TORSDOF 2
ENDMDL
MODEL      169
REMARK 921   NORMALIZED FREE ENERGY PREDICTED BY IDOCK:   -4.01 KCAL/MOL
REMARK 922        TOTAL FREE ENERGY PREDICTED BY IDOCK:   -5.13 KCAL/MOL
REMARK 923 INTER-LIGAND FREE ENERGY PREDICTED BY IDOCK:   -4.67 KCAL/MOL
REMARK 924 INTRA-LIGAND FREE ENERGY PREDICTED BY IDOCK:   -0.46 KCAL/MOL
REMARK 927      BINDING AFFINITY PREDICTED BY RF-SCORE:    0.00 PKD
ROOT
HETATM    1  C   UNL     1     -10.146  13.321  66.705  1.00  0.00    -0.266 C  
HETATM    2  C   UNL     1      -9.721  12.263  67.688  1.00  0.00    -0.194 A  
HETATM    3  C   UNL     1     -10.615  11.633  68.581  1.00  0.00    -0.236 A  
HETATM    4  C   UNL     1     -12.002  12.176  68.801  1.00  0.00    -0.292 C  
HETATM    5  C   UNL     1     -10.193  10.458  69.242  1.00  0.00    -0.230 A  
HETATM    6  C   UNL     1      -8.371  11.884  67.670  1.00  0.00    -0.152 A  
HETATM    7  C   UNL     1      -8.822  10.147  69.255  1.00  0.00    -0.191 A  
HETATM    8  C   UNL     1      -7.913  10.858  68.491  1.00  0.00    -0.134 A  
ENDROOT
BRANCH   5   9
HETATM    9  N   UNL     1     -11.144   9.571  69.829  1.00  0.00    -0.327 NA 
HETATM   10  H   UNL     1     -11.965   9.987  70.269  1.00  0.00     0.000 HD 
BRANCH   9  11
HETATM   11  C   UNL     1     -11.036   8.151  69.849  1.00  0.00    -0.168 A  
HETATM   12  C   UNL     1     -10.784   7.447  68.658  1.00  0.00    -0.134 A  
HETATM   13  C   UNL     1     -10.481   6.086  68.656  1.00  0.00    -0.297 A  
HETATM   14  C   UNL     1     -10.476   5.383  69.854  1.00  0.00    -0.378 A  
HETATM   15  C   UNL     1     -10.851   6.027  71.033  1.00  0.00    -0.345 A  
HETATM   16  C   UNL     1     -11.178   7.393  71.026  1.00  0.00    -0.285 A  
HETATM   17  C   UNL     1     -11.669   7.979  72.290  1.00  0.00    -0.371 C  
HETATM   18  O   UNL     1     -11.249   7.670  73.390  1.00  0.00    -0.314 OA 
HETATM   19  O   UNL     1     -12.690   8.848  72.095  1.00  0.00    -0.358 OA 
ENDBRANCH   9  11
ENDBRANCH   5   9
TORSDOF 2
ENDMDL
MODEL      170
REMARK 921   NORMALIZED FREE ENERGY PREDICTED BY IDOCK:   -4.01 KCAL/MOL
REMARK 922        TOTAL FREE ENERGY PREDICTED BY IDOCK:   -5.12 KCAL/MOL
REMARK 923 INTER-LIGAND FREE ENERGY PREDICTED BY IDOCK:   -4.53 KCAL/MOL
REMARK 924 INTRA-LIGAND FREE ENERGY PREDICTED BY IDOCK:   -0.60 KCAL/MOL
REMARK 927      BINDING AFFINITY PREDICTED BY RF-SCORE:    0.00 PKD
ROOT
HETATM    1  C   UNL     1      -6.319  19.822  67.927  1.00  0.00    -0.257 C  
HETATM    2  C   UNL     1      -7.626  19.096  68.105  1.00  0.00    -0.321 A  
HETATM    3  C   UNL     1      -7.728  17.688  68.150  1.00  0.00    -0.244 A  
HETATM    4  C   UNL     1      -6.571  16.814  67.745  1.00  0.00    -0.161 C  
HETATM    5  C   UNL     1      -8.931  17.114  68.617  1.00  0.00    -0.267 A  
HETATM    6  C   UNL     1      -8.775  19.883  68.262  1.00  0.00    -0.263 A  
HETATM    7  C   UNL     1     -10.077  17.923  68.700  1.00  0.00    -0.394 A  
HETATM    8  C   UNL     1     -10.010  19.293  68.510  1.00  0.00    -0.513 A  
ENDROOT
BRANCH   5   9
HETATM    9  N   UNL     1      -8.967  15.757  69.057  1.00  0.00    -0.228 NA 
HETATM   10  H   UNL     1      -8.121  15.377  69.480  1.00  0.00     0.000 HD 
BRANCH   9  11
HETATM   11  C   UNL     1     -10.094  14.892  68.951  1.00  0.00    -0.236 A  
HETATM   12  C   UNL     1     -10.945  14.705  70.054  1.00  0.00    -0.149 A  
HETATM   13  C   UNL     1     -12.158  14.025  69.942  1.00  0.00    -0.406 A  
HETATM   14  C   UNL     1     -12.522  13.467  68.724  1.00  0.00     0.272 A  
HETATM   15  C   UNL     1     -11.636  13.524  67.648  1.00  0.00    -0.374 A  
HETATM   16  C   UNL     1     -10.406  14.189  67.771  1.00  0.00    -0.242 A  
HETATM   17  C   UNL     1      -9.477  14.114  66.625  1.00  0.00    -0.289 C  
HETATM   18  O   UNL     1      -9.831  14.135  65.461  1.00  0.00    -0.300 OA 
HETATM   19  O   UNL     1      -8.189  13.949  67.014  1.00  0.00    -0.154 OA 
ENDBRANCH   9  11
ENDBRANCH   5   9
TORSDOF 2
ENDMDL
MODEL      171
REMARK 921   NORMALIZED FREE ENERGY PREDICTED BY IDOCK:   -3.99 KCAL/MOL
REMARK 922        TOTAL FREE ENERGY PREDICTED BY IDOCK:   -5.10 KCAL/MOL
REMARK 923 INTER-LIGAND FREE ENERGY PREDICTED BY IDOCK:   -4.58 KCAL/MOL
REMARK 924 INTRA-LIGAND FREE ENERGY PREDICTED BY IDOCK:   -0.52 KCAL/MOL
REMARK 927      BINDING AFFINITY PREDICTED BY RF-SCORE:    0.00 PKD
ROOT
HETATM    1  C   UNL     1     -11.877  12.775  69.778  1.00  0.00    -0.380 C  
HETATM    2  C   UNL     1     -11.191  13.358  68.571  1.00  0.00    -0.316 A  
HETATM    3  C   UNL     1     -10.210  14.371  68.653  1.00  0.00    -0.245 A  
HETATM    4  C   UNL     1      -9.986  15.132  69.933  1.00  0.00    -0.107 C  
HETATM    5  C   UNL     1      -9.417  14.636  67.514  1.00  0.00    -0.198 A  
HETATM    6  C   UNL     1     -11.541  12.827  67.322  1.00  0.00    -0.420 A  
HETATM    7  C   UNL     1      -9.837  14.138  66.269  1.00  0.00    -0.321 A  
HETATM    8  C   UNL     1     -10.898  13.254  66.165  1.00  0.00    -0.290 A  
ENDROOT
BRANCH   5   9
HETATM    9  N   UNL     1      -8.181  15.339  67.635  1.00  0.00    -0.150 NA 
HETATM   10  H   UNL     1      -7.324  14.787  67.634  1.00  0.00     0.000 HD 
BRANCH   9  11
HETATM   11  C   UNL     1      -8.052  16.752  67.758  1.00  0.00    -0.179 A  
HETATM   12  C   UNL     1      -8.879  17.604  67.004  1.00  0.00    -0.256 A  
HETATM   13  C   UNL     1      -8.922  18.979  67.231  1.00  0.00    -0.308 A  
HETATM   14  C   UNL     1      -8.090  19.543  68.190  1.00  0.00    -0.354 A  
HETATM   15  C   UNL     1      -7.167  18.740  68.859  1.00  0.00    -0.333 A  
HETATM   16  C   UNL     1      -7.111  17.359  68.611  1.00  0.00    -0.237 A  
HETATM   17  C   UNL     1      -6.037  16.594  69.277  1.00  0.00    -0.182 C  
HETATM   18  O   UNL     1      -5.644  16.817  70.407  1.00  0.00    -0.209 OA 
HETATM   19  O   UNL     1      -5.488  15.660  68.464  1.00  0.00    -0.096 OA 
ENDBRANCH   9  11
ENDBRANCH   5   9
TORSDOF 2
ENDMDL
MODEL      172
REMARK 921   NORMALIZED FREE ENERGY PREDICTED BY IDOCK:   -3.98 KCAL/MOL
REMARK 922        TOTAL FREE ENERGY PREDICTED BY IDOCK:   -5.09 KCAL/MOL
REMARK 923 INTER-LIGAND FREE ENERGY PREDICTED BY IDOCK:   -4.61 KCAL/MOL
REMARK 924 INTRA-LIGAND FREE ENERGY PREDICTED BY IDOCK:   -0.48 KCAL/MOL
REMARK 927      BINDING AFFINITY PREDICTED BY RF-SCORE:    0.00 PKD
ROOT
HETATM    1  C   UNL     1      -8.214  12.187  67.979  1.00  0.00    -0.158 C  
HETATM    2  C   UNL     1      -7.662  13.520  68.411  1.00  0.00    -0.135 A  
HETATM    3  C   UNL     1      -8.235  14.753  68.031  1.00  0.00    -0.142 A  
HETATM    4  C   UNL     1      -9.272  14.824  66.942  1.00  0.00    -0.263 C  
HETATM    5  C   UNL     1      -7.838  15.922  68.719  1.00  0.00    -0.185 A  
HETATM    6  C   UNL     1      -6.543  13.501  69.255  1.00  0.00    -0.103 A  
HETATM    7  C   UNL     1      -6.674  15.879  69.506  1.00  0.00    -0.192 A  
HETATM    8  C   UNL     1      -6.019  14.686  69.763  1.00  0.00    -0.122 A  
ENDROOT
BRANCH   5   9
HETATM    9  N   UNL     1      -8.637  17.103  68.669  1.00  0.00    -0.264 NA 
HETATM   10  H   UNL     1      -9.572  17.055  69.075  1.00  0.00     0.000 HD 
BRANCH   9  11
HETATM   11  C   UNL     1      -8.231  18.343  68.098  1.00  0.00    -0.287 A  
HETATM   12  C   UNL     1      -7.151  19.053  68.650  1.00  0.00    -0.341 A  
HETATM   13  C   UNL     1      -6.598  20.165  68.016  1.00  0.00    -0.307 A  
HETATM   14  C   UNL     1      -7.155  20.625  66.829  1.00  0.00    -0.328 A  
HETATM   15  C   UNL     1      -8.307  20.020  66.328  1.00  0.00    -0.322 A  
HETATM   16  C   UNL     1      -8.874  18.914  66.983  1.00  0.00    -0.306 A  
HETATM   17  C   UNL     1     -10.152  18.395  66.455  1.00  0.00    -0.403 C  
HETATM   18  O   UNL     1     -10.427  18.347  65.271  1.00  0.00    -0.458 OA 
HETATM   19  O   UNL     1     -11.014  18.044  67.440  1.00  0.00    -0.293 OA 
ENDBRANCH   9  11
ENDBRANCH   5   9
TORSDOF 2
ENDMDL
MODEL      173
REMARK 921   NORMALIZED FREE ENERGY PREDICTED BY IDOCK:   -3.98 KCAL/MOL
REMARK 922        TOTAL FREE ENERGY PREDICTED BY IDOCK:   -5.09 KCAL/MOL
REMARK 923 INTER-LIGAND FREE ENERGY PREDICTED BY IDOCK:   -5.17 KCAL/MOL
REMARK 924 INTRA-LIGAND FREE ENERGY PREDICTED BY IDOCK:    0.08 KCAL/MOL
REMARK 927      BINDING AFFINITY PREDICTED BY RF-SCORE:    0.00 PKD
ROOT
HETATM    1  C   UNL     1      -8.697  16.465  67.918  1.00  0.00    -0.179 C  
HETATM    2  C   UNL     1      -9.919  15.736  68.412  1.00  0.00    -0.217 A  
HETATM    3  C   UNL     1     -10.696  14.888  67.593  1.00  0.00    -0.270 A  
HETATM    4  C   UNL     1     -10.516  14.875  66.098  1.00  0.00    -0.313 C  
HETATM    5  C   UNL     1     -11.629  14.024  68.209  1.00  0.00    -0.329 A  
HETATM    6  C   UNL     1     -10.257  15.903  69.761  1.00  0.00    -0.268 A  
HETATM    7  C   UNL     1     -11.989  14.264  69.546  1.00  0.00    -0.384 A  
HETATM    8  C   UNL     1     -11.324  15.204  70.316  1.00  0.00    -0.315 A  
ENDROOT
BRANCH   5   9
HETATM    9  N   UNL     1     -12.145  12.892  67.510  1.00  0.00    -0.333 NA 
HETATM   10  H   UNL     1     -13.142  12.697  67.603  1.00  0.00     0.000 HD 
BRANCH   9  11
HETATM   11  C   UNL     1     -11.377  12.015  66.692  1.00  0.00    -0.340 A  
HETATM   12  C   UNL     1     -11.547  12.022  65.297  1.00  0.00    -0.337 A  
HETATM   13  C   UNL     1     -10.690  11.326  64.446  1.00  0.00    -0.407 A  
HETATM   14  C   UNL     1      -9.666  10.556  64.983  1.00  0.00    -0.351 A  
HETATM   15  C   UNL     1      -9.556  10.426  66.367  1.00  0.00    -0.225 A  
HETATM   16  C   UNL     1     -10.436  11.110  67.221  1.00  0.00    -0.263 A  
HETATM   17  C   UNL     1     -10.326  10.838  68.669  1.00  0.00    -0.192 C  
HETATM   18  O   UNL     1      -9.272  10.648  69.246  1.00  0.00    -0.178 OA 
HETATM   19  O   UNL     1     -11.537  10.754  69.271  1.00  0.00    -0.269 OA 
ENDBRANCH   9  11
ENDBRANCH   5   9
TORSDOF 2
ENDMDL
MODEL      174
REMARK 921   NORMALIZED FREE ENERGY PREDICTED BY IDOCK:   -3.97 KCAL/MOL
REMARK 922        TOTAL FREE ENERGY PREDICTED BY IDOCK:   -5.07 KCAL/MOL
REMARK 923 INTER-LIGAND FREE ENERGY PREDICTED BY IDOCK:   -4.41 KCAL/MOL
REMARK 924 INTRA-LIGAND FREE ENERGY PREDICTED BY IDOCK:   -0.66 KCAL/MOL
REMARK 927      BINDING AFFINITY PREDICTED BY RF-SCORE:    0.00 PKD
ROOT
HETATM    1  C   UNL     1     -11.608  15.013  64.699  1.00  0.00    -0.386 C  
HETATM    2  C   UNL     1     -10.654  14.569  65.776  1.00  0.00    -0.326 A  
HETATM    3  C   UNL     1     -10.681  13.278  66.349  1.00  0.00    -0.291 A  
HETATM    4  C   UNL     1     -11.845  12.352  66.117  1.00  0.00    -0.442 C  
HETATM    5  C   UNL     1      -9.575  12.859  67.121  1.00  0.00    -0.225 A  
HETATM    6  C   UNL     1      -9.684  15.493  66.186  1.00  0.00    -0.348 A  
HETATM    7  C   UNL     1      -8.658  13.827  67.566  1.00  0.00    -0.194 A  
HETATM    8  C   UNL     1      -8.715  15.136  67.119  1.00  0.00    -0.238 A  
ENDROOT
BRANCH   5   9
HETATM    9  N   UNL     1      -9.356  11.475  67.388  1.00  0.00    -0.165 NA 
HETATM   10  H   UNL     1      -9.039  10.891  66.614  1.00  0.00     0.000 HD 
BRANCH   9  11
HETATM   11  C   UNL     1      -9.547  10.845  68.651  1.00  0.00    -0.190 A  
HETATM   12  C   UNL     1     -10.731  11.066  69.377  1.00  0.00    -0.247 A  
HETATM   13  C   UNL     1     -11.044  10.327  70.518  1.00  0.00    -0.381 A  
HETATM   14  C   UNL     1     -10.145   9.379  70.990  1.00  0.00    -0.353 A  
HETATM   15  C   UNL     1      -8.907   9.233  70.366  1.00  0.00    -0.271 A  
HETATM   16  C   UNL     1      -8.586   9.995  69.231  1.00  0.00    -0.172 A  
HETATM   17  C   UNL     1      -7.217   9.863  68.690  1.00  0.00    -0.072 C  
HETATM   18  O   UNL     1      -6.597   8.817  68.661  1.00  0.00    -0.053 OA 
HETATM   19  O   UNL     1      -6.702  11.051  68.293  1.00  0.00    -0.058 OA 
ENDBRANCH   9  11
ENDBRANCH   5   9
TORSDOF 2
ENDMDL
MODEL      175
REMARK 921   NORMALIZED FREE ENERGY PREDICTED BY IDOCK:   -3.96 KCAL/MOL
REMARK 922        TOTAL FREE ENERGY PREDICTED BY IDOCK:   -5.07 KCAL/MOL
REMARK 923 INTER-LIGAND FREE ENERGY PREDICTED BY IDOCK:   -4.39 KCAL/MOL
REMARK 924 INTRA-LIGAND FREE ENERGY PREDICTED BY IDOCK:   -0.68 KCAL/MOL
REMARK 927      BINDING AFFINITY PREDICTED BY RF-SCORE:    0.00 PKD
ROOT
HETATM    1  C   UNL     1     -10.060   4.383  71.648  1.00  0.00    -0.230 C  
HETATM    2  C   UNL     1     -10.340   5.863  71.635  1.00  0.00    -0.268 A  
HETATM    3  C   UNL     1      -9.857   6.733  70.633  1.00  0.00    -0.191 A  
HETATM    4  C   UNL     1      -8.798   6.284  69.662  1.00  0.00    -0.136 C  
HETATM    5  C   UNL     1     -10.414   8.028  70.538  1.00  0.00    -0.214 A  
HETATM    6  C   UNL     1     -11.149   6.365  72.664  1.00  0.00    -0.294 A  
HETATM    7  C   UNL     1     -11.166   8.519  71.619  1.00  0.00    -0.361 A  
HETATM    8  C   UNL     1     -11.520   7.706  72.682  1.00  0.00    -0.403 A  
ENDROOT
BRANCH   5   9
HETATM    9  N   UNL     1     -10.271   8.796  69.345  1.00  0.00    -0.204 NA 
HETATM   10  H   UNL     1     -10.806   8.500  68.528  1.00  0.00     0.000 HD 
BRANCH   9  11
HETATM   11  C   UNL     1      -9.440   9.944  69.205  1.00  0.00    -0.196 A  
HETATM   12  C   UNL     1      -8.132   9.935  69.721  1.00  0.00    -0.185 A  
HETATM   13  C   UNL     1      -7.223  10.955  69.443  1.00  0.00    -0.126 A  
HETATM   14  C   UNL     1      -7.624  12.042  68.678  1.00  0.00    -0.112 A  
HETATM   15  C   UNL     1      -8.952  12.141  68.264  1.00  0.00    -0.186 A  
HETATM   16  C   UNL     1      -9.871  11.123  68.566  1.00  0.00    -0.199 A  
HETATM   17  C   UNL     1     -11.281  11.347  68.188  1.00  0.00    -0.278 C  
HETATM   18  O   UNL     1     -11.629  11.915  67.169  1.00  0.00    -0.444 OA 
HETATM   19  O   UNL     1     -12.146  10.914  69.137  1.00  0.00    -0.362 OA 
ENDBRANCH   9  11
ENDBRANCH   5   9
TORSDOF 2
ENDMDL
MODEL      176
REMARK 921   NORMALIZED FREE ENERGY PREDICTED BY IDOCK:   -3.96 KCAL/MOL
REMARK 922        TOTAL FREE ENERGY PREDICTED BY IDOCK:   -5.07 KCAL/MOL
REMARK 923 INTER-LIGAND FREE ENERGY PREDICTED BY IDOCK:   -4.70 KCAL/MOL
REMARK 924 INTRA-LIGAND FREE ENERGY PREDICTED BY IDOCK:   -0.36 KCAL/MOL
REMARK 927      BINDING AFFINITY PREDICTED BY RF-SCORE:    0.00 PKD
ROOT
HETATM    1  C   UNL     1      -6.617  11.006  67.972  1.00  0.00    -0.062 C  
HETATM    2  C   UNL     1      -6.801  12.488  67.778  1.00  0.00    -0.120 A  
HETATM    3  C   UNL     1      -8.038  13.074  67.430  1.00  0.00    -0.180 A  
HETATM    4  C   UNL     1      -9.191  12.228  66.958  1.00  0.00    -0.205 C  
HETATM    5  C   UNL     1      -8.184  14.472  67.565  1.00  0.00    -0.187 A  
HETATM    6  C   UNL     1      -5.680  13.301  67.990  1.00  0.00    -0.119 A  
HETATM    7  C   UNL     1      -7.029  15.259  67.713  1.00  0.00    -0.185 A  
HETATM    8  C   UNL     1      -5.784  14.686  67.908  1.00  0.00    -0.129 A  
ENDROOT
BRANCH   5   9
HETATM    9  N   UNL     1      -9.480  15.068  67.616  1.00  0.00    -0.194 NA 
HETATM   10  H   UNL     1     -10.275  14.450  67.778  1.00  0.00     0.000 HD 
BRANCH   9  11
HETATM   11  C   UNL     1      -9.749  16.458  67.459  1.00  0.00    -0.231 A  
HETATM   12  C   UNL     1      -9.404  17.362  68.479  1.00  0.00    -0.281 A  
HETATM   13  C   UNL     1      -9.470  18.742  68.294  1.00  0.00    -0.389 A  
HETATM   14  C   UNL     1      -9.939  19.251  67.089  1.00  0.00    -0.452 A  
HETATM   15  C   UNL     1     -10.412  18.378  66.110  1.00  0.00    -0.422 A  
HETATM   16  C   UNL     1     -10.364  16.989  66.310  1.00  0.00    -0.309 A  
HETATM   17  C   UNL     1     -10.981  16.133  65.275  1.00  0.00    -0.270 C  
HETATM   18  O   UNL     1     -10.936  16.370  64.083  1.00  0.00    -0.717 OA 
HETATM   19  O   UNL     1     -11.664  15.091  65.807  1.00  0.00    -0.251 OA 
ENDBRANCH   9  11
ENDBRANCH   5   9
TORSDOF 2
ENDMDL
MODEL      177
REMARK 921   NORMALIZED FREE ENERGY PREDICTED BY IDOCK:   -3.95 KCAL/MOL
REMARK 922        TOTAL FREE ENERGY PREDICTED BY IDOCK:   -5.05 KCAL/MOL
REMARK 923 INTER-LIGAND FREE ENERGY PREDICTED BY IDOCK:   -5.07 KCAL/MOL
REMARK 924 INTRA-LIGAND FREE ENERGY PREDICTED BY IDOCK:    0.01 KCAL/MOL
REMARK 927      BINDING AFFINITY PREDICTED BY RF-SCORE:    0.00 PKD
ROOT
HETATM    1  C   UNL     1     -12.642  12.020  63.495  1.00  0.00    -0.625 C  
HETATM    2  C   UNL     1     -11.310  11.883  64.184  1.00  0.00    -0.455 A  
HETATM    3  C   UNL     1     -10.846  12.795  65.156  1.00  0.00    -0.318 A  
HETATM    4  C   UNL     1     -11.531  14.119  65.367  1.00  0.00    -0.325 C  
HETATM    5  C   UNL     1      -9.740  12.427  65.954  1.00  0.00    -0.228 A  
HETATM    6  C   UNL     1     -10.530  10.769  63.844  1.00  0.00    -0.251 A  
HETATM    7  C   UNL     1      -8.945  11.342  65.545  1.00  0.00    -0.096 A  
HETATM    8  C   UNL     1      -9.323  10.527  64.491  1.00  0.00    -0.299 A  
ENDROOT
BRANCH   5   9
HETATM    9  N   UNL     1      -9.473  13.099  67.184  1.00  0.00    -0.230 NA 
HETATM   10  H   UNL     1      -8.541  13.496  67.310  1.00  0.00     0.000 HD 
BRANCH   9  11
HETATM   11  C   UNL     1     -10.406  13.259  68.248  1.00  0.00    -0.249 A  
HETATM   12  C   UNL     1     -10.790  14.547  68.661  1.00  0.00    -0.259 A  
HETATM   13  C   UNL     1     -11.836  14.751  69.560  1.00  0.00    -0.366 A  
HETATM   14  C   UNL     1     -12.489  13.657  70.113  1.00  0.00    -0.305 A  
HETATM   15  C   UNL     1     -12.042  12.369  69.822  1.00  0.00    -0.292 A  
HETATM   16  C   UNL     1     -10.973  12.168  68.934  1.00  0.00    -0.269 A  
HETATM   17  C   UNL     1     -10.486  10.784  68.760  1.00  0.00    -0.199 C  
HETATM   18  O   UNL     1     -11.210   9.806  68.747  1.00  0.00    -0.144 OA 
HETATM   19  O   UNL     1      -9.135  10.717  68.687  1.00  0.00    -0.158 OA 
ENDBRANCH   9  11
ENDBRANCH   5   9
TORSDOF 2
ENDMDL
MODEL      178
REMARK 921   NORMALIZED FREE ENERGY PREDICTED BY IDOCK:   -3.91 KCAL/MOL
REMARK 922        TOTAL FREE ENERGY PREDICTED BY IDOCK:   -5.01 KCAL/MOL
REMARK 923 INTER-LIGAND FREE ENERGY PREDICTED BY IDOCK:   -4.36 KCAL/MOL
REMARK 924 INTRA-LIGAND FREE ENERGY PREDICTED BY IDOCK:   -0.65 KCAL/MOL
REMARK 927      BINDING AFFINITY PREDICTED BY RF-SCORE:    0.00 PKD
ROOT
HETATM    1  C   UNL     1     -12.250  14.643  64.371  1.00  0.00    -0.473 C  
HETATM    2  C   UNL     1     -11.113  14.662  65.358  1.00  0.00    -0.349 A  
HETATM    3  C   UNL     1     -10.925  13.665  66.340  1.00  0.00    -0.297 A  
HETATM    4  C   UNL     1     -12.007  12.664  66.646  1.00  0.00    -0.382 C  
HETATM    5  C   UNL     1      -9.684  13.604  67.011  1.00  0.00    -0.251 A  
HETATM    6  C   UNL     1     -10.195  15.716  65.251  1.00  0.00    -0.358 A  
HETATM    7  C   UNL     1      -8.819  14.709  66.931  1.00  0.00    -0.267 A  
HETATM    8  C   UNL     1      -9.074  15.765  66.072  1.00  0.00    -0.361 A  
ENDROOT
BRANCH   5   9
HETATM    9  N   UNL     1      -9.287  12.421  67.703  1.00  0.00    -0.181 NA 
HETATM   10  H   UNL     1      -9.466  12.380  68.706  1.00  0.00     0.000 HD 
BRANCH   9  11
HETATM   11  C   UNL     1      -8.661  11.291  67.101  1.00  0.00    -0.147 A  
HETATM   12  C   UNL     1      -9.439  10.210  66.653  1.00  0.00    -0.211 A  
HETATM   13  C   UNL     1      -8.895   9.177  65.890  1.00  0.00    -0.209 A  
HETATM   14  C   UNL     1      -7.536   9.178  65.602  1.00  0.00    -0.093 A  
HETATM   15  C   UNL     1      -6.718  10.169  66.145  1.00  0.00    -0.106 A  
HETATM   16  C   UNL     1      -7.266  11.195  66.932  1.00  0.00    -0.138 A  
HETATM   17  C   UNL     1      -6.325  12.145  67.560  1.00  0.00    -0.129 C  
HETATM   18  O   UNL     1      -5.308  12.546  67.025  1.00  0.00    -0.327 OA 
HETATM   19  O   UNL     1      -6.683  12.465  68.826  1.00  0.00    -0.081 OA 
ENDBRANCH   9  11
ENDBRANCH   5   9
TORSDOF 2
ENDMDL
MODEL      179
REMARK 921   NORMALIZED FREE ENERGY PREDICTED BY IDOCK:   -3.91 KCAL/MOL
REMARK 922        TOTAL FREE ENERGY PREDICTED BY IDOCK:   -5.01 KCAL/MOL
REMARK 923 INTER-LIGAND FREE ENERGY PREDICTED BY IDOCK:   -4.41 KCAL/MOL
REMARK 924 INTRA-LIGAND FREE ENERGY PREDICTED BY IDOCK:   -0.60 KCAL/MOL
REMARK 927      BINDING AFFINITY PREDICTED BY RF-SCORE:    0.00 PKD
ROOT
HETATM    1  C   UNL     1     -12.560  13.538  65.997  1.00  0.00    -0.408 C  
HETATM    2  C   UNL     1     -11.406  12.628  66.323  1.00  0.00    -0.376 A  
HETATM    3  C   UNL     1     -10.751  12.628  67.574  1.00  0.00    -0.247 A  
HETATM    4  C   UNL     1     -10.982  13.733  68.571  1.00  0.00    -0.283 C  
HETATM    5  C   UNL     1      -9.894  11.550  67.887  1.00  0.00    -0.185 A  
HETATM    6  C   UNL     1     -11.006  11.727  65.327  1.00  0.00    -0.350 A  
HETATM    7  C   UNL     1      -9.465  10.706  66.849  1.00  0.00    -0.189 A  
HETATM    8  C   UNL     1     -10.000  10.798  65.575  1.00  0.00    -0.321 A  
ENDROOT
BRANCH   5   9
HETATM    9  N   UNL     1      -9.524  11.283  69.239  1.00  0.00    -0.402 NA 
HETATM   10  H   UNL     1      -9.113  12.048  69.774  1.00  0.00     0.000 HD 
BRANCH   9  11
HETATM   11  C   UNL     1      -9.684  10.031  69.900  1.00  0.00    -0.203 A  
HETATM   12  C   UNL     1     -10.872   9.749  70.596  1.00  0.00    -0.396 A  
HETATM   13  C   UNL     1     -11.151   8.475  71.092  1.00  0.00    -0.312 A  
HETATM   14  C   UNL     1     -10.213   7.461  70.945  1.00  0.00    -0.195 A  
HETATM   15  C   UNL     1      -8.973   7.747  70.376  1.00  0.00    -0.147 A  
HETATM   16  C   UNL     1      -8.687   9.037  69.899  1.00  0.00    -0.160 A  
HETATM   17  C   UNL     1      -7.317   9.290  69.408  1.00  0.00    -0.077 C  
HETATM   18  O   UNL     1      -6.656   8.477  68.791  1.00  0.00    -0.052 OA 
HETATM   19  O   UNL     1      -6.851  10.506  69.783  1.00  0.00    -0.105 OA 
ENDBRANCH   9  11
ENDBRANCH   5   9
TORSDOF 2
ENDMDL
MODEL      180
REMARK 921   NORMALIZED FREE ENERGY PREDICTED BY IDOCK:   -3.91 KCAL/MOL
REMARK 922        TOTAL FREE ENERGY PREDICTED BY IDOCK:   -5.01 KCAL/MOL
REMARK 923 INTER-LIGAND FREE ENERGY PREDICTED BY IDOCK:   -4.40 KCAL/MOL
REMARK 924 INTRA-LIGAND FREE ENERGY PREDICTED BY IDOCK:   -0.60 KCAL/MOL
REMARK 927      BINDING AFFINITY PREDICTED BY RF-SCORE:    0.00 PKD
ROOT
HETATM    1  C   UNL     1      -9.133   2.990  72.686  1.00  0.00    -0.120 C  
HETATM    2  C   UNL     1      -9.603   4.098  71.782  1.00  0.00    -0.223 A  
HETATM    3  C   UNL     1      -9.845   5.415  72.234  1.00  0.00    -0.199 A  
HETATM    4  C   UNL     1      -9.915   5.729  73.705  1.00  0.00    -0.192 C  
HETATM    5  C   UNL     1      -9.987   6.442  71.275  1.00  0.00    -0.182 A  
HETATM    6  C   UNL     1      -9.771   3.786  70.426  1.00  0.00    -0.225 A  
HETATM    7  C   UNL     1     -10.216   6.086  69.935  1.00  0.00    -0.265 A  
HETATM    8  C   UNL     1     -10.126   4.771  69.511  1.00  0.00    -0.260 A  
ENDROOT
BRANCH   5   9
HETATM    9  N   UNL     1      -9.836   7.811  71.646  1.00  0.00    -0.161 NA 
HETATM   10  H   UNL     1      -9.343   8.011  72.517  1.00  0.00     0.000 HD 
BRANCH   9  11
HETATM   11  C   UNL     1     -10.320   8.921  70.896  1.00  0.00    -0.240 A  
HETATM   12  C   UNL     1      -9.430   9.700  70.136  1.00  0.00    -0.298 A  
HETATM   13  C   UNL     1      -9.879  10.670  69.240  1.00  0.00    -0.201 A  
HETATM   14  C   UNL     1     -11.241  10.920  69.126  1.00  0.00    -0.318 A  
HETATM   15  C   UNL     1     -12.136  10.255  69.963  1.00  0.00    -0.230 A  
HETATM   16  C   UNL     1     -11.678   9.295  70.880  1.00  0.00    -0.360 A  
HETATM   17  C   UNL     1     -12.670   8.712  71.805  1.00  0.00    -0.359 C  
HETATM   18  O   UNL     1     -13.819   8.457  71.496  1.00  0.00    -0.360 OA 
HETATM   19  O   UNL     1     -12.180   8.558  73.059  1.00  0.00    -0.211 OA 
ENDBRANCH   9  11
ENDBRANCH   5   9
TORSDOF 2
ENDMDL
MODEL      181
REMARK 921   NORMALIZED FREE ENERGY PREDICTED BY IDOCK:   -3.87 KCAL/MOL
REMARK 922        TOTAL FREE ENERGY PREDICTED BY IDOCK:   -4.97 KCAL/MOL
REMARK 923 INTER-LIGAND FREE ENERGY PREDICTED BY IDOCK:   -4.36 KCAL/MOL
REMARK 924 INTRA-LIGAND FREE ENERGY PREDICTED BY IDOCK:   -0.61 KCAL/MOL
REMARK 927      BINDING AFFINITY PREDICTED BY RF-SCORE:    0.00 PKD
ROOT
HETATM    1  C   UNL     1     -10.545  16.538  67.272  1.00  0.00    -0.285 C  
HETATM    2  C   UNL     1     -10.602  15.162  66.665  1.00  0.00    -0.304 A  
HETATM    3  C   UNL     1      -9.571  14.208  66.812  1.00  0.00    -0.290 A  
HETATM    4  C   UNL     1      -8.222  14.603  67.353  1.00  0.00    -0.220 C  
HETATM    5  C   UNL     1      -9.840  12.864  66.470  1.00  0.00    -0.254 A  
HETATM    6  C   UNL     1     -11.762  14.829  65.951  1.00  0.00    -0.248 A  
HETATM    7  C   UNL     1     -10.980  12.580  65.699  1.00  0.00    -0.323 A  
HETATM    8  C   UNL     1     -11.928  13.552  65.425  1.00  0.00    -0.406 A  
ENDROOT
BRANCH   5   9
HETATM    9  N   UNL     1      -9.009  11.810  66.952  1.00  0.00    -0.189 NA 
HETATM   10  H   UNL     1      -8.026  12.025  67.121  1.00  0.00     0.000 HD 
BRANCH   9  11
HETATM   11  C   UNL     1      -9.445  10.480  67.218  1.00  0.00    -0.158 A  
HETATM   12  C   UNL     1     -10.019  10.161  68.461  1.00  0.00    -0.177 A  
HETATM   13  C   UNL     1     -10.631   8.930  68.696  1.00  0.00    -0.182 A  
HETATM   14  C   UNL     1     -10.635   7.964  67.698  1.00  0.00    -0.276 A  
HETATM   15  C   UNL     1      -9.958   8.205  66.503  1.00  0.00    -0.302 A  
HETATM   16  C   UNL     1      -9.323   9.437  66.279  1.00  0.00    -0.253 A  
HETATM   17  C   UNL     1      -8.536   9.579  65.037  1.00  0.00    -0.167 C  
HETATM   18  O   UNL     1      -8.860   9.093  63.969  1.00  0.00    -0.181 OA 
HETATM   19  O   UNL     1      -7.377  10.252  65.233  1.00  0.00    -0.141 OA 
ENDBRANCH   9  11
ENDBRANCH   5   9
TORSDOF 2
ENDMDL
MODEL      182
REMARK 921   NORMALIZED FREE ENERGY PREDICTED BY IDOCK:   -3.86 KCAL/MOL
REMARK 922        TOTAL FREE ENERGY PREDICTED BY IDOCK:   -4.96 KCAL/MOL
REMARK 923 INTER-LIGAND FREE ENERGY PREDICTED BY IDOCK:   -4.38 KCAL/MOL
REMARK 924 INTRA-LIGAND FREE ENERGY PREDICTED BY IDOCK:   -0.58 KCAL/MOL
REMARK 927      BINDING AFFINITY PREDICTED BY RF-SCORE:    0.00 PKD
ROOT
HETATM    1  C   UNL     1     -10.193   4.788  65.774  1.00  0.00    -0.251 C  
HETATM    2  C   UNL     1      -9.864   4.451  67.203  1.00  0.00    -0.217 A  
HETATM    3  C   UNL     1     -10.211   5.280  68.293  1.00  0.00    -0.200 A  
HETATM    4  C   UNL     1     -10.687   6.691  68.072  1.00  0.00    -0.330 C  
HETATM    5  C   UNL     1     -10.133   4.746  69.599  1.00  0.00    -0.205 A  
HETATM    6  C   UNL     1      -9.209   3.234  67.435  1.00  0.00    -0.233 A  
HETATM    7  C   UNL     1      -9.412   3.556  69.799  1.00  0.00    -0.241 A  
HETATM    8  C   UNL     1      -8.939   2.810  68.732  1.00  0.00    -0.184 A  
ENDROOT
BRANCH   5   9
HETATM    9  N   UNL     1     -10.825   5.367  70.681  1.00  0.00    -0.187 NA 
HETATM   10  H   UNL     1     -11.818   5.159  70.785  1.00  0.00     0.000 HD 
BRANCH   9  11
HETATM   11  C   UNL     1     -10.236   6.253  71.629  1.00  0.00    -0.194 A  
HETATM   12  C   UNL     1      -9.148   5.827  72.410  1.00  0.00    -0.142 A  
HETATM   13  C   UNL     1      -8.422   6.712  73.206  1.00  0.00    -0.128 A  
HETATM   14  C   UNL     1      -8.808   8.045  73.279  1.00  0.00    -0.330 A  
HETATM   15  C   UNL     1      -9.962   8.465  72.618  1.00  0.00    -0.329 A  
HETATM   16  C   UNL     1     -10.703   7.565  71.836  1.00  0.00    -0.253 A  
HETATM   17  C   UNL     1     -11.970   8.055  71.255  1.00  0.00    -0.296 C  
HETATM   18  O   UNL     1     -12.130   9.184  70.831  1.00  0.00    -0.283 OA 
HETATM   19  O   UNL     1     -12.957   7.128  71.311  1.00  0.00    -0.383 OA 
ENDBRANCH   9  11
ENDBRANCH   5   9
TORSDOF 2
ENDMDL
MODEL      183
REMARK 921   NORMALIZED FREE ENERGY PREDICTED BY IDOCK:   -3.85 KCAL/MOL
REMARK 922        TOTAL FREE ENERGY PREDICTED BY IDOCK:   -4.94 KCAL/MOL
REMARK 923 INTER-LIGAND FREE ENERGY PREDICTED BY IDOCK:   -4.74 KCAL/MOL
REMARK 924 INTRA-LIGAND FREE ENERGY PREDICTED BY IDOCK:   -0.21 KCAL/MOL
REMARK 927      BINDING AFFINITY PREDICTED BY RF-SCORE:    0.00 PKD
ROOT
HETATM    1  C   UNL     1     -11.836  14.936  67.573  1.00  0.00    -0.256 C  
HETATM    2  C   UNL     1     -11.497  13.954  66.483  1.00  0.00    -0.361 A  
HETATM    3  C   UNL     1     -10.198  13.435  66.288  1.00  0.00    -0.298 A  
HETATM    4  C   UNL     1      -9.008  14.041  66.982  1.00  0.00    -0.248 C  
HETATM    5  C   UNL     1     -10.041  12.309  65.449  1.00  0.00    -0.269 A  
HETATM    6  C   UNL     1     -12.548  13.530  65.659  1.00  0.00    -0.512 A  
HETATM    7  C   UNL     1     -11.096  11.954  64.591  1.00  0.00    -0.373 A  
HETATM    8  C   UNL     1     -12.335  12.566  64.679  1.00  0.00    -0.547 A  
ENDROOT
BRANCH   5   9
HETATM    9  N   UNL     1      -8.862  11.509  65.518  1.00  0.00    -0.398 NA 
HETATM   10  H   UNL     1      -8.108  11.832  66.126  1.00  0.00     0.000 HD 
BRANCH   9  11
HETATM   11  C   UNL     1      -8.654  10.293  64.806  1.00  0.00    -0.184 A  
HETATM   12  C   UNL     1      -8.275  10.325  63.452  1.00  0.00    -0.164 A  
HETATM   13  C   UNL     1      -7.877   9.175  62.771  1.00  0.00    -0.124 A  
HETATM   14  C   UNL     1      -7.902   7.948  63.422  1.00  0.00    -0.139 A  
HETATM   15  C   UNL     1      -8.399   7.869  64.723  1.00  0.00    -0.066 A  
HETATM   16  C   UNL     1      -8.821   9.026  65.397  1.00  0.00    -0.237 A  
HETATM   17  C   UNL     1      -9.434   8.849  66.729  1.00  0.00    -0.187 C  
HETATM   18  O   UNL     1      -9.067   8.020  67.541  1.00  0.00    -0.136 OA 
HETATM   19  O   UNL     1     -10.499   9.665  66.920  1.00  0.00    -0.242 OA 
ENDBRANCH   9  11
ENDBRANCH   5   9
TORSDOF 2
ENDMDL
MODEL      184
REMARK 921   NORMALIZED FREE ENERGY PREDICTED BY IDOCK:   -3.85 KCAL/MOL
REMARK 922        TOTAL FREE ENERGY PREDICTED BY IDOCK:   -4.94 KCAL/MOL
REMARK 923 INTER-LIGAND FREE ENERGY PREDICTED BY IDOCK:   -4.46 KCAL/MOL
REMARK 924 INTRA-LIGAND FREE ENERGY PREDICTED BY IDOCK:   -0.48 KCAL/MOL
REMARK 927      BINDING AFFINITY PREDICTED BY RF-SCORE:    0.00 PKD
ROOT
HETATM    1  C   UNL     1     -11.697   5.986  72.293  1.00  0.00    -0.338 C  
HETATM    2  C   UNL     1     -11.244   7.139  71.436  1.00  0.00    -0.278 A  
HETATM    3  C   UNL     1     -10.944   7.009  70.062  1.00  0.00    -0.303 A  
HETATM    4  C   UNL     1     -10.789   5.652  69.427  1.00  0.00    -0.334 C  
HETATM    5  C   UNL     1     -10.823   8.181  69.284  1.00  0.00    -0.050 A  
HETATM    6  C   UNL     1     -11.156   8.394  72.052  1.00  0.00    -0.397 A  
HETATM    7  C   UNL     1     -10.674   9.414  69.941  1.00  0.00    -0.258 A  
HETATM    8  C   UNL     1     -10.822   9.524  71.314  1.00  0.00    -0.413 A  
ENDROOT
BRANCH   5   9
HETATM    9  N   UNL     1     -10.917   8.124  67.861  1.00  0.00    -0.478 NA 
HETATM   10  H   UNL     1     -11.654   7.544  67.461  1.00  0.00     0.000 HD 
BRANCH   9  11
HETATM   11  C   UNL     1     -10.060   8.814  66.956  1.00  0.00    -0.265 A  
HETATM   12  C   UNL     1     -10.301  10.165  66.648  1.00  0.00    -0.274 A  
HETATM   13  C   UNL     1      -9.388  10.930  65.924  1.00  0.00    -0.226 A  
HETATM   14  C   UNL     1      -8.227  10.339  65.443  1.00  0.00    -0.156 A  
HETATM   15  C   UNL     1      -8.026   8.970  65.620  1.00  0.00    -0.104 A  
HETATM   16  C   UNL     1      -8.960   8.198  66.330  1.00  0.00    -0.215 A  
HETATM   17  C   UNL     1      -8.733   6.739  66.384  1.00  0.00    -0.138 C  
HETATM   18  O   UNL     1      -7.633   6.226  66.475  1.00  0.00    -0.091 OA 
HETATM   19  O   UNL     1      -9.881   6.033  66.249  1.00  0.00    -0.141 OA 
ENDBRANCH   9  11
ENDBRANCH   5   9
TORSDOF 2
ENDMDL
MODEL      185
REMARK 921   NORMALIZED FREE ENERGY PREDICTED BY IDOCK:   -3.83 KCAL/MOL
REMARK 922        TOTAL FREE ENERGY PREDICTED BY IDOCK:   -4.92 KCAL/MOL
REMARK 923 INTER-LIGAND FREE ENERGY PREDICTED BY IDOCK:   -4.45 KCAL/MOL
REMARK 924 INTRA-LIGAND FREE ENERGY PREDICTED BY IDOCK:   -0.47 KCAL/MOL
REMARK 927      BINDING AFFINITY PREDICTED BY RF-SCORE:    0.00 PKD
ROOT
HETATM    1  C   UNL     1     -10.916   6.467  73.236  1.00  0.00    -0.224 C  
HETATM    2  C   UNL     1     -10.991   7.753  72.457  1.00  0.00    -0.395 A  
HETATM    3  C   UNL     1      -9.877   8.330  71.809  1.00  0.00    -0.284 A  
HETATM    4  C   UNL     1      -8.480   7.843  72.087  1.00  0.00    -0.173 C  
HETATM    5  C   UNL     1     -10.102   9.357  70.865  1.00  0.00    -0.296 A  
HETATM    6  C   UNL     1     -12.247   8.368  72.362  1.00  0.00    -0.430 A  
HETATM    7  C   UNL     1     -11.356   9.991  70.845  1.00  0.00    -0.439 A  
HETATM    8  C   UNL     1     -12.419   9.516  71.596  1.00  0.00    -0.476 A  
ENDROOT
BRANCH   5   9
HETATM    9  N   UNL     1      -9.101   9.699  69.908  1.00  0.00    -0.211 NA 
HETATM   10  H   UNL     1      -8.215  10.060  70.263  1.00  0.00     0.000 HD 
BRANCH   9  11
HETATM   11  C   UNL     1      -9.242   9.576  68.496  1.00  0.00    -0.131 A  
HETATM   12  C   UNL     1     -10.177   8.675  67.957  1.00  0.00    -0.261 A  
HETATM   13  C   UNL     1     -10.484   8.658  66.597  1.00  0.00    -0.239 A  
HETATM   14  C   UNL     1      -9.816   9.514  65.732  1.00  0.00    -0.363 A  
HETATM   15  C   UNL     1      -8.791  10.324  66.219  1.00  0.00    -0.161 A  
HETATM   16  C   UNL     1      -8.468  10.322  67.586  1.00  0.00    -0.118 A  
HETATM   17  C   UNL     1      -7.302  11.123  68.009  1.00  0.00    -0.088 C  
HETATM   18  O   UNL     1      -7.009  12.202  67.528  1.00  0.00    -0.111 OA 
HETATM   19  O   UNL     1      -6.553  10.492  68.945  1.00  0.00    -0.051 OA 
ENDBRANCH   9  11
ENDBRANCH   5   9
TORSDOF 2
ENDMDL
MODEL      186
REMARK 921   NORMALIZED FREE ENERGY PREDICTED BY IDOCK:   -3.83 KCAL/MOL
REMARK 922        TOTAL FREE ENERGY PREDICTED BY IDOCK:   -4.92 KCAL/MOL
REMARK 923 INTER-LIGAND FREE ENERGY PREDICTED BY IDOCK:   -6.43 KCAL/MOL
REMARK 924 INTRA-LIGAND FREE ENERGY PREDICTED BY IDOCK:    1.51 KCAL/MOL
REMARK 927      BINDING AFFINITY PREDICTED BY RF-SCORE:    0.00 PKD
ROOT
HETATM    1  C   UNL     1     -13.216  11.662  71.842  1.00  0.00    -0.475 C  
HETATM    2  C   UNL     1     -12.870  13.115  71.649  1.00  0.00    -0.388 A  
HETATM    3  C   UNL     1     -12.501  13.662  70.400  1.00  0.00    -0.364 A  
HETATM    4  C   UNL     1     -12.158  12.772  69.235  1.00  0.00    -0.224 C  
HETATM    5  C   UNL     1     -12.490  15.067  70.256  1.00  0.00    -0.337 A  
HETATM    6  C   UNL     1     -12.958  13.945  72.774  1.00  0.00    -0.414 A  
HETATM    7  C   UNL     1     -12.516  15.864  71.413  1.00  0.00    -0.459 A  
HETATM    8  C   UNL     1     -12.732  15.313  72.665  1.00  0.00    -0.474 A  
ENDROOT
BRANCH   5   9
HETATM    9  N   UNL     1     -12.518  15.666  68.961  1.00  0.00    -0.533 NA 
HETATM   10  H   UNL     1     -13.312  16.265  68.737  1.00  0.00     0.000 HD 
BRANCH   9  11
HETATM   11  C   UNL     1     -11.522  15.492  67.957  1.00  0.00    -0.308 A  
HETATM   12  C   UNL     1     -11.455  14.290  67.231  1.00  0.00    -0.371 A  
HETATM   13  C   UNL     1     -10.629  14.147  66.117  1.00  0.00    -0.293 A  
HETATM   14  C   UNL     1      -9.805  15.198  65.735  1.00  0.00    -0.384 A  
HETATM   15  C   UNL     1      -9.754  16.353  66.514  1.00  0.00    -0.287 A  
HETATM   16  C   UNL     1     -10.571  16.484  67.649  1.00  0.00    -0.321 A  
HETATM   17  C   UNL     1     -10.384  17.688  68.484  1.00  0.00    -0.370 C  
HETATM   18  O   UNL     1     -10.135  18.792  68.037  1.00  0.00    -0.334 OA 
HETATM   19  O   UNL     1     -10.450  17.413  69.809  1.00  0.00    -0.096 OA 
ENDBRANCH   9  11
ENDBRANCH   5   9
TORSDOF 2
ENDMDL
MODEL      187
REMARK 921   NORMALIZED FREE ENERGY PREDICTED BY IDOCK:   -3.80 KCAL/MOL
REMARK 922        TOTAL FREE ENERGY PREDICTED BY IDOCK:   -4.89 KCAL/MOL
REMARK 923 INTER-LIGAND FREE ENERGY PREDICTED BY IDOCK:   -4.28 KCAL/MOL
REMARK 924 INTRA-LIGAND FREE ENERGY PREDICTED BY IDOCK:   -0.61 KCAL/MOL
REMARK 927      BINDING AFFINITY PREDICTED BY RF-SCORE:    0.00 PKD
ROOT
HETATM    1  C   UNL     1      -9.870   8.252  70.833  1.00  0.00    -0.215 C  
HETATM    2  C   UNL     1      -9.759   9.167  69.644  1.00  0.00    -0.183 A  
HETATM    3  C   UNL     1     -10.399  10.424  69.573  1.00  0.00    -0.264 A  
HETATM    4  C   UNL     1     -11.462  10.810  70.567  1.00  0.00    -0.367 C  
HETATM    5  C   UNL     1      -9.999  11.330  68.566  1.00  0.00    -0.202 A  
HETATM    6  C   UNL     1      -8.948   8.738  68.584  1.00  0.00    -0.138 A  
HETATM    7  C   UNL     1      -9.239  10.846  67.487  1.00  0.00    -0.153 A  
HETATM    8  C   UNL     1      -8.728   9.559  67.483  1.00  0.00    -0.126 A  
ENDROOT
BRANCH   5   9
HETATM    9  N   UNL     1     -10.302  12.720  68.674  1.00  0.00    -0.346 NA 
HETATM   10  H   UNL     1     -11.164  12.977  69.155  1.00  0.00     0.000 HD 
BRANCH   9  11
HETATM   11  C   UNL     1      -9.495  13.776  68.162  1.00  0.00    -0.212 A  
HETATM   12  C   UNL     1      -8.309  14.141  68.823  1.00  0.00    -0.069 A  
HETATM   13  C   UNL     1      -7.395  15.030  68.260  1.00  0.00    -0.111 A  
HETATM   14  C   UNL     1      -7.678  15.621  67.035  1.00  0.00    -0.257 A  
HETATM   15  C   UNL     1      -8.906  15.379  66.421  1.00  0.00    -0.340 A  
HETATM   16  C   UNL     1      -9.834  14.500  67.003  1.00  0.00    -0.249 A  
HETATM   17  C   UNL     1     -11.154  14.377  66.350  1.00  0.00    -0.326 C  
HETATM   18  O   UNL     1     -11.320  14.398  65.145  1.00  0.00    -0.329 OA 
HETATM   19  O   UNL     1     -12.168  14.309  67.246  1.00  0.00    -0.393 OA 
ENDBRANCH   9  11
ENDBRANCH   5   9
TORSDOF 2
ENDMDL
MODEL      188
REMARK 921   NORMALIZED FREE ENERGY PREDICTED BY IDOCK:   -3.80 KCAL/MOL
REMARK 922        TOTAL FREE ENERGY PREDICTED BY IDOCK:   -4.89 KCAL/MOL
REMARK 923 INTER-LIGAND FREE ENERGY PREDICTED BY IDOCK:   -4.36 KCAL/MOL
REMARK 924 INTRA-LIGAND FREE ENERGY PREDICTED BY IDOCK:   -0.53 KCAL/MOL
REMARK 927      BINDING AFFINITY PREDICTED BY RF-SCORE:    0.00 PKD
ROOT
HETATM    1  C   UNL     1      -8.855   8.392  72.927  1.00  0.00    -0.258 C  
HETATM    2  C   UNL     1     -10.028   7.964  72.085  1.00  0.00    -0.266 A  
HETATM    3  C   UNL     1      -9.907   7.574  70.733  1.00  0.00    -0.178 A  
HETATM    4  C   UNL     1      -8.637   7.827  69.964  1.00  0.00    -0.140 C  
HETATM    5  C   UNL     1     -10.993   6.910  70.122  1.00  0.00    -0.281 A  
HETATM    6  C   UNL     1     -11.282   7.932  72.709  1.00  0.00    -0.466 A  
HETATM    7  C   UNL     1     -12.250   6.954  70.750  1.00  0.00    -0.364 A  
HETATM    8  C   UNL     1     -12.402   7.473  72.025  1.00  0.00    -0.305 A  
ENDROOT
BRANCH   5   9
HETATM    9  N   UNL     1     -10.806   6.154  68.927  1.00  0.00    -0.310 NA 
HETATM   10  H   UNL     1     -11.184   6.540  68.062  1.00  0.00     0.000 HD 
BRANCH   9  11
HETATM   11  C   UNL     1     -10.130   4.902  68.847  1.00  0.00    -0.115 A  
HETATM   12  C   UNL     1      -9.781   4.214  70.023  1.00  0.00    -0.282 A  
HETATM   13  C   UNL     1      -9.295   2.907  69.995  1.00  0.00    -0.212 A  
HETATM   14  C   UNL     1      -9.097   2.275  68.774  1.00  0.00    -0.195 A  
HETATM   15  C   UNL     1      -9.311   2.980  67.590  1.00  0.00    -0.242 A  
HETATM   16  C   UNL     1      -9.777   4.304  67.623  1.00  0.00    -0.186 A  
HETATM   17  C   UNL     1      -9.876   5.020  66.334  1.00  0.00    -0.201 C  
HETATM   18  O   UNL     1     -10.221   4.497  65.291  1.00  0.00    -0.206 OA 
HETATM   19  O   UNL     1      -9.472   6.310  66.428  1.00  0.00    -0.156 OA 
ENDBRANCH   9  11
ENDBRANCH   5   9
TORSDOF 2
ENDMDL
MODEL      189
REMARK 921   NORMALIZED FREE ENERGY PREDICTED BY IDOCK:   -3.79 KCAL/MOL
REMARK 922        TOTAL FREE ENERGY PREDICTED BY IDOCK:   -4.88 KCAL/MOL
REMARK 923 INTER-LIGAND FREE ENERGY PREDICTED BY IDOCK:   -4.20 KCAL/MOL
REMARK 924 INTRA-LIGAND FREE ENERGY PREDICTED BY IDOCK:   -0.68 KCAL/MOL
REMARK 927      BINDING AFFINITY PREDICTED BY RF-SCORE:    0.00 PKD
ROOT
HETATM    1  C   UNL     1     -12.400  15.085  64.366  1.00  0.00    -0.283 C  
HETATM    2  C   UNL     1     -11.753  13.733  64.504  1.00  0.00    -0.432 A  
HETATM    3  C   UNL     1     -10.967  13.362  65.617  1.00  0.00    -0.292 A  
HETATM    4  C   UNL     1     -10.494  14.391  66.610  1.00  0.00    -0.274 C  
HETATM    5  C   UNL     1     -10.658  11.996  65.801  1.00  0.00    -0.263 A  
HETATM    6  C   UNL     1     -11.986  12.808  63.477  1.00  0.00    -0.633 A  
HETATM    7  C   UNL     1     -10.847  11.112  64.725  1.00  0.00    -0.277 A  
HETATM    8  C   UNL     1     -11.490  11.511  63.566  1.00  0.00    -0.334 A  
ENDROOT
BRANCH   5   9
HETATM    9  N   UNL     1     -10.226  11.512  67.072  1.00  0.00    -0.209 NA 
HETATM   10  H   UNL     1     -10.879  11.589  67.852  1.00  0.00     0.000 HD 
BRANCH   9  11
HETATM   11  C   UNL     1      -8.954  10.928  67.335  1.00  0.00    -0.136 A  
HETATM   12  C   UNL     1      -7.784  11.533  66.843  1.00  0.00    -0.157 A  
HETATM   13  C   UNL     1      -6.514  11.110  67.233  1.00  0.00    -0.079 A  
HETATM   14  C   UNL     1      -6.387  10.026  68.092  1.00  0.00    -0.054 A  
HETATM   15  C   UNL     1      -7.524   9.325  68.491  1.00  0.00    -0.081 A  
HETATM   16  C   UNL     1      -8.800   9.740  68.077  1.00  0.00    -0.119 A  
HETATM   17  C   UNL     1      -9.946   8.887  68.450  1.00  0.00    -0.178 C  
HETATM   18  O   UNL     1     -10.038   8.301  69.512  1.00  0.00    -0.188 OA 
HETATM   19  O   UNL     1     -10.852   8.771  67.449  1.00  0.00    -0.213 OA 
ENDBRANCH   9  11
ENDBRANCH   5   9
TORSDOF 2
ENDMDL
MODEL      190
REMARK 921   NORMALIZED FREE ENERGY PREDICTED BY IDOCK:   -3.78 KCAL/MOL
REMARK 922        TOTAL FREE ENERGY PREDICTED BY IDOCK:   -4.87 KCAL/MOL
REMARK 923 INTER-LIGAND FREE ENERGY PREDICTED BY IDOCK:   -4.34 KCAL/MOL
REMARK 924 INTRA-LIGAND FREE ENERGY PREDICTED BY IDOCK:   -0.53 KCAL/MOL
REMARK 927      BINDING AFFINITY PREDICTED BY RF-SCORE:    0.00 PKD
ROOT
HETATM    1  C   UNL     1      -9.458  12.819  66.877  1.00  0.00    -0.235 C  
HETATM    2  C   UNL     1      -8.243  13.636  67.230  1.00  0.00    -0.164 A  
HETATM    3  C   UNL     1      -8.164  15.031  67.028  1.00  0.00    -0.246 A  
HETATM    4  C   UNL     1      -9.185  15.752  66.187  1.00  0.00    -0.385 C  
HETATM    5  C   UNL     1      -7.122  15.747  67.658  1.00  0.00    -0.168 A  
HETATM    6  C   UNL     1      -7.167  12.955  67.815  1.00  0.00    -0.134 A  
HETATM    7  C   UNL     1      -6.030  15.031  68.176  1.00  0.00    -0.144 A  
HETATM    8  C   UNL     1      -6.039  13.648  68.243  1.00  0.00    -0.108 A  
ENDROOT
BRANCH   5   9
HETATM    9  N   UNL     1      -7.207  17.162  67.824  1.00  0.00    -0.155 NA 
HETATM   10  H   UNL     1      -7.585  17.510  68.705  1.00  0.00     0.000 HD 
BRANCH   9  11
HETATM   11  C   UNL     1      -6.805  18.125  66.855  1.00  0.00    -0.188 A  
HETATM   12  C   UNL     1      -5.627  17.929  66.113  1.00  0.00    -0.233 A  
HETATM   13  C   UNL     1      -5.295  18.739  65.028  1.00  0.00    -0.230 A  
HETATM   14  C   UNL     1      -6.118  19.807  64.693  1.00  0.00    -0.316 A  
HETATM   15  C   UNL     1      -7.221  20.104  65.492  1.00  0.00    -0.283 A  
HETATM   16  C   UNL     1      -7.539  19.299  66.598  1.00  0.00    -0.255 A  
HETATM   17  C   UNL     1      -8.656  19.738  67.458  1.00  0.00    -0.326 C  
HETATM   18  O   UNL     1      -9.670  20.263  67.038  1.00  0.00    -0.409 OA 
HETATM   19  O   UNL     1      -8.397  19.554  68.775  1.00  0.00    -0.362 OA 
ENDBRANCH   9  11
ENDBRANCH   5   9
TORSDOF 2
ENDMDL
MODEL      191
REMARK 921   NORMALIZED FREE ENERGY PREDICTED BY IDOCK:   -3.76 KCAL/MOL
REMARK 922        TOTAL FREE ENERGY PREDICTED BY IDOCK:   -4.85 KCAL/MOL
REMARK 923 INTER-LIGAND FREE ENERGY PREDICTED BY IDOCK:   -4.53 KCAL/MOL
REMARK 924 INTRA-LIGAND FREE ENERGY PREDICTED BY IDOCK:   -0.32 KCAL/MOL
REMARK 927      BINDING AFFINITY PREDICTED BY RF-SCORE:    0.00 PKD
ROOT
HETATM    1  C   UNL     1      -9.608   8.624  66.192  1.00  0.00    -0.305 C  
HETATM    2  C   UNL     1      -9.368   9.990  66.778  1.00  0.00    -0.193 A  
HETATM    3  C   UNL     1     -10.020  11.155  66.316  1.00  0.00    -0.261 A  
HETATM    4  C   UNL     1     -10.790  11.151  65.022  1.00  0.00    -0.244 C  
HETATM    5  C   UNL     1      -9.962  12.321  67.111  1.00  0.00    -0.205 A  
HETATM    6  C   UNL     1      -8.473  10.073  67.853  1.00  0.00    -0.118 A  
HETATM    7  C   UNL     1      -9.007  12.389  68.140  1.00  0.00    -0.196 A  
HETATM    8  C   UNL     1      -8.256  11.283  68.502  1.00  0.00    -0.150 A  
ENDROOT
BRANCH   5   9
HETATM    9  N   UNL     1     -10.896  13.382  66.917  1.00  0.00    -0.276 NA 
HETATM   10  H   UNL     1     -11.859  13.126  66.698  1.00  0.00     0.000 HD 
BRANCH   9  11
HETATM   11  C   UNL     1     -10.589  14.770  67.006  1.00  0.00    -0.290 A  
HETATM   12  C   UNL     1      -9.753  15.369  66.047  1.00  0.00    -0.370 A  
HETATM   13  C   UNL     1      -9.580  16.751  65.981  1.00  0.00    -0.265 A  
HETATM   14  C   UNL     1     -10.204  17.566  66.917  1.00  0.00    -0.329 A  
HETATM   15  C   UNL     1     -10.932  16.989  67.957  1.00  0.00    -0.252 A  
HETATM   16  C   UNL     1     -11.085  15.595  68.033  1.00  0.00    -0.335 A  
HETATM   17  C   UNL     1     -11.776  15.052  69.220  1.00  0.00    -0.323 C  
HETATM   18  O   UNL     1     -12.724  15.591  69.759  1.00  0.00    -0.189 OA 
HETATM   19  O   UNL     1     -11.192  13.922  69.686  1.00  0.00    -0.226 OA 
ENDBRANCH   9  11
ENDBRANCH   5   9
TORSDOF 2
ENDMDL
MODEL      192
REMARK 921   NORMALIZED FREE ENERGY PREDICTED BY IDOCK:   -3.75 KCAL/MOL
REMARK 922        TOTAL FREE ENERGY PREDICTED BY IDOCK:   -4.83 KCAL/MOL
REMARK 923 INTER-LIGAND FREE ENERGY PREDICTED BY IDOCK:   -4.27 KCAL/MOL
REMARK 924 INTRA-LIGAND FREE ENERGY PREDICTED BY IDOCK:   -0.56 KCAL/MOL
REMARK 927      BINDING AFFINITY PREDICTED BY RF-SCORE:    0.00 PKD
ROOT
HETATM    1  C   UNL     1     -13.477  10.265  71.798  1.00  0.00    -0.387 C  
HETATM    2  C   UNL     1     -12.925  11.634  71.500  1.00  0.00    -0.463 A  
HETATM    3  C   UNL     1     -12.202  11.937  70.326  1.00  0.00    -0.353 A  
HETATM    4  C   UNL     1     -11.696  10.843  69.423  1.00  0.00    -0.397 C  
HETATM    5  C   UNL     1     -11.990  13.294  69.995  1.00  0.00    -0.329 A  
HETATM    6  C   UNL     1     -13.184  12.642  72.439  1.00  0.00    -0.348 A  
HETATM    7  C   UNL     1     -12.201  14.270  70.984  1.00  0.00    -0.428 A  
HETATM    8  C   UNL     1     -12.778  13.951  72.202  1.00  0.00    -0.324 A  
ENDROOT
BRANCH   5   9
HETATM    9  N   UNL     1     -11.633  13.672  68.667  1.00  0.00    -0.305 NA 
HETATM   10  H   UNL     1     -12.370  13.665  67.961  1.00  0.00     0.000 HD 
BRANCH   9  11
HETATM   11  C   UNL     1     -10.327  14.061  68.249  1.00  0.00    -0.247 A  
HETATM   12  C   UNL     1      -9.223  13.239  68.534  1.00  0.00    -0.073 A  
HETATM   13  C   UNL     1      -7.964  13.479  67.984  1.00  0.00    -0.151 A  
HETATM   14  C   UNL     1      -7.771  14.589  67.171  1.00  0.00    -0.093 A  
HETATM   15  C   UNL     1      -8.816  15.492  66.979  1.00  0.00    -0.255 A  
HETATM   16  C   UNL     1     -10.076  15.259  67.554  1.00  0.00    -0.232 A  
HETATM   17  C   UNL     1     -11.099  16.312  67.395  1.00  0.00    -0.095 C  
HETATM   18  O   UNL     1     -11.234  16.982  66.389  1.00  0.00     0.271 OA 
HETATM   19  O   UNL     1     -11.827  16.499  68.523  1.00  0.00    -0.065 OA 
ENDBRANCH   9  11
ENDBRANCH   5   9
TORSDOF 2
ENDMDL
MODEL      193
REMARK 921   NORMALIZED FREE ENERGY PREDICTED BY IDOCK:   -3.75 KCAL/MOL
REMARK 922        TOTAL FREE ENERGY PREDICTED BY IDOCK:   -4.83 KCAL/MOL
REMARK 923 INTER-LIGAND FREE ENERGY PREDICTED BY IDOCK:   -4.13 KCAL/MOL
REMARK 924 INTRA-LIGAND FREE ENERGY PREDICTED BY IDOCK:   -0.69 KCAL/MOL
REMARK 927      BINDING AFFINITY PREDICTED BY RF-SCORE:    0.00 PKD
ROOT
HETATM    1  C   UNL     1     -10.647  17.347  68.267  1.00  0.00    -0.366 C  
HETATM    2  C   UNL     1     -10.915  15.868  68.360  1.00  0.00    -0.331 A  
HETATM    3  C   UNL     1     -10.240  14.909  67.572  1.00  0.00    -0.233 A  
HETATM    4  C   UNL     1      -9.407  15.326  66.388  1.00  0.00    -0.328 C  
HETATM    5  C   UNL     1     -10.337  13.548  67.936  1.00  0.00    -0.249 A  
HETATM    6  C   UNL     1     -11.862  15.451  69.305  1.00  0.00    -0.365 A  
HETATM    7  C   UNL     1     -11.341  13.161  68.839  1.00  0.00    -0.335 A  
HETATM    8  C   UNL     1     -12.110  14.098  69.509  1.00  0.00    -0.388 A  
ENDROOT
BRANCH   5   9
HETATM    9  N   UNL     1      -9.393  12.595  67.448  1.00  0.00    -0.183 NA 
HETATM   10  H   UNL     1      -9.404  12.391  66.449  1.00  0.00     0.000 HD 
BRANCH   9  11
HETATM   11  C   UNL     1      -8.436  11.907  68.249  1.00  0.00    -0.161 A  
HETATM   12  C   UNL     1      -7.240  12.545  68.622  1.00  0.00    -0.103 A  
HETATM   13  C   UNL     1      -6.368  11.987  69.555  1.00  0.00    -0.123 A  
HETATM   14  C   UNL     1      -6.651  10.742  70.101  1.00  0.00    -0.144 A  
HETATM   15  C   UNL     1      -7.762  10.029  69.650  1.00  0.00    -0.158 A  
HETATM   16  C   UNL     1      -8.625  10.585  68.692  1.00  0.00    -0.139 A  
HETATM   17  C   UNL     1      -9.717   9.728  68.186  1.00  0.00    -0.145 C  
HETATM   18  O   UNL     1     -10.334   8.937  68.874  1.00  0.00    -0.206 OA 
HETATM   19  O   UNL     1      -9.909   9.870  66.852  1.00  0.00    -0.180 OA 
ENDBRANCH   9  11
ENDBRANCH   5   9
TORSDOF 2
ENDMDL
MODEL      194
REMARK 921   NORMALIZED FREE ENERGY PREDICTED BY IDOCK:   -3.74 KCAL/MOL
REMARK 922        TOTAL FREE ENERGY PREDICTED BY IDOCK:   -4.82 KCAL/MOL
REMARK 923 INTER-LIGAND FREE ENERGY PREDICTED BY IDOCK:   -4.26 KCAL/MOL
REMARK 924 INTRA-LIGAND FREE ENERGY PREDICTED BY IDOCK:   -0.56 KCAL/MOL
REMARK 927      BINDING AFFINITY PREDICTED BY RF-SCORE:    0.00 PKD
ROOT
HETATM    1  C   UNL     1      -8.707  11.496  65.747  1.00  0.00    -0.007 C  
HETATM    2  C   UNL     1      -9.212  10.411  66.661  1.00  0.00    -0.178 A  
HETATM    3  C   UNL     1      -9.111  10.476  68.068  1.00  0.00    -0.138 A  
HETATM    4  C   UNL     1      -8.242  11.508  68.736  1.00  0.00    -0.082 C  
HETATM    5  C   UNL     1      -9.871   9.571  68.842  1.00  0.00    -0.174 A  
HETATM    6  C   UNL     1      -9.835   9.310  66.057  1.00  0.00    -0.363 A  
HETATM    7  C   UNL     1     -10.426   8.445  68.210  1.00  0.00    -0.214 A  
HETATM    8  C   UNL     1     -10.399   8.302  66.833  1.00  0.00    -0.391 A  
ENDROOT
BRANCH   5   9
HETATM    9  N   UNL     1     -10.124   9.827  70.222  1.00  0.00    -0.262 NA 
HETATM   10  H   UNL     1     -10.674  10.655  70.454  1.00  0.00     0.000 HD 
BRANCH   9  11
HETATM   11  C   UNL     1      -9.670   9.017  71.302  1.00  0.00    -0.301 A  
HETATM   12  C   UNL     1      -8.298   8.752  71.455  1.00  0.00    -0.212 A  
HETATM   13  C   UNL     1      -7.790   8.130  72.596  1.00  0.00    -0.190 A  
HETATM   14  C   UNL     1      -8.661   7.708  73.592  1.00  0.00    -0.283 A  
HETATM   15  C   UNL     1     -10.037   7.839  73.406  1.00  0.00    -0.327 A  
HETATM   16  C   UNL     1     -10.545   8.446  72.246  1.00  0.00    -0.412 A  
HETATM   17  C   UNL     1     -12.012   8.452  72.070  1.00  0.00    -0.357 C  
HETATM   18  O   UNL     1     -12.804   8.600  72.982  1.00  0.00    -0.249 OA 
HETATM   19  O   UNL     1     -12.380   8.204  70.790  1.00  0.00    -0.123 OA 
ENDBRANCH   9  11
ENDBRANCH   5   9
TORSDOF 2
ENDMDL
MODEL      195
REMARK 921   NORMALIZED FREE ENERGY PREDICTED BY IDOCK:   -3.73 KCAL/MOL
REMARK 922        TOTAL FREE ENERGY PREDICTED BY IDOCK:   -4.81 KCAL/MOL
REMARK 923 INTER-LIGAND FREE ENERGY PREDICTED BY IDOCK:   -4.35 KCAL/MOL
REMARK 924 INTRA-LIGAND FREE ENERGY PREDICTED BY IDOCK:   -0.47 KCAL/MOL
REMARK 927      BINDING AFFINITY PREDICTED BY RF-SCORE:    0.00 PKD
ROOT
HETATM    1  C   UNL     1     -12.359  14.996  64.534  1.00  0.00    -0.276 C  
HETATM    2  C   UNL     1     -11.562  13.720  64.471  1.00  0.00    -0.413 A  
HETATM    3  C   UNL     1     -10.518  13.415  65.372  1.00  0.00    -0.310 A  
HETATM    4  C   UNL     1      -9.948  14.469  66.284  1.00  0.00    -0.320 C  
HETATM    5  C   UNL     1     -10.038  12.088  65.425  1.00  0.00    -0.256 A  
HETATM    6  C   UNL     1     -11.917  12.797  63.478  1.00  0.00    -0.633 A  
HETATM    7  C   UNL     1     -10.365  11.210  64.376  1.00  0.00    -0.407 A  
HETATM    8  C   UNL     1     -11.283  11.561  63.401  1.00  0.00    -0.342 A  
ENDROOT
BRANCH   5   9
HETATM    9  N   UNL     1      -9.292  11.627  66.550  1.00  0.00    -0.200 NA 
HETATM   10  H   UNL     1      -9.690  11.786  67.475  1.00  0.00     0.000 HD 
BRANCH   9  11
HETATM   11  C   UNL     1      -8.034  10.963  66.482  1.00  0.00    -0.152 A  
HETATM   12  C   UNL     1      -7.968   9.619  66.074  1.00  0.00    -0.108 A  
HETATM   13  C   UNL     1      -6.753   8.988  65.808  1.00  0.00    -0.072 A  
HETATM   14  C   UNL     1      -5.564   9.681  65.999  1.00  0.00    -0.048 A  
HETATM   15  C   UNL     1      -5.595  10.971  66.529  1.00  0.00    -0.113 A  
HETATM   16  C   UNL     1      -6.820  11.594  66.817  1.00  0.00    -0.086 A  
HETATM   17  C   UNL     1      -6.771  12.915  67.475  1.00  0.00    -0.154 C  
HETATM   18  O   UNL     1      -5.934  13.765  67.230  1.00  0.00    -0.327 OA 
HETATM   19  O   UNL     1      -7.719  13.051  68.433  1.00  0.00    -0.129 OA 
ENDBRANCH   9  11
ENDBRANCH   5   9
TORSDOF 2
ENDMDL
MODEL      196
REMARK 921   NORMALIZED FREE ENERGY PREDICTED BY IDOCK:   -3.72 KCAL/MOL
REMARK 922        TOTAL FREE ENERGY PREDICTED BY IDOCK:   -4.80 KCAL/MOL
REMARK 923 INTER-LIGAND FREE ENERGY PREDICTED BY IDOCK:   -4.27 KCAL/MOL
REMARK 924 INTRA-LIGAND FREE ENERGY PREDICTED BY IDOCK:   -0.52 KCAL/MOL
REMARK 927      BINDING AFFINITY PREDICTED BY RF-SCORE:    0.00 PKD
ROOT
HETATM    1  C   UNL     1      -7.568   8.948  66.772  1.00  0.00    -0.086 C  
HETATM    2  C   UNL     1      -7.743  10.378  67.209  1.00  0.00    -0.099 A  
HETATM    3  C   UNL     1      -8.815  11.192  66.780  1.00  0.00    -0.162 A  
HETATM    4  C   UNL     1      -9.701  10.769  65.638  1.00  0.00    -0.287 C  
HETATM    5  C   UNL     1      -9.062  12.401  67.468  1.00  0.00    -0.185 A  
HETATM    6  C   UNL     1      -6.798  10.888  68.109  1.00  0.00    -0.067 A  
HETATM    7  C   UNL     1      -8.062  12.911  68.314  1.00  0.00    -0.151 A  
HETATM    8  C   UNL     1      -6.931  12.174  68.623  1.00  0.00    -0.097 A  
ENDROOT
BRANCH   5   9
HETATM    9  N   UNL     1     -10.324  13.056  67.359  1.00  0.00    -0.233 NA 
HETATM   10  H   UNL     1     -11.008  12.656  66.716  1.00  0.00     0.000 HD 
BRANCH   9  11
HETATM   11  C   UNL     1     -10.704  14.226  68.077  1.00  0.00    -0.238 A  
HETATM   12  C   UNL     1     -11.146  14.124  69.408  1.00  0.00    -0.261 A  
HETATM   13  C   UNL     1     -11.344  15.249  70.207  1.00  0.00    -0.318 A  
HETATM   14  C   UNL     1     -11.152  16.515  69.670  1.00  0.00    -0.235 A  
HETATM   15  C   UNL     1     -10.842  16.649  68.317  1.00  0.00    -0.356 A  
HETATM   16  C   UNL     1     -10.666  15.514  67.509  1.00  0.00    -0.300 A  
HETATM   17  C   UNL     1     -10.446  15.736  66.065  1.00  0.00    -0.338 C  
HETATM   18  O   UNL     1      -9.793  16.658  65.612  1.00  0.00    -0.528 OA 
HETATM   19  O   UNL     1     -11.110  14.840  65.297  1.00  0.00    -0.332 OA 
ENDBRANCH   9  11
ENDBRANCH   5   9
TORSDOF 2
ENDMDL
MODEL      197
REMARK 921   NORMALIZED FREE ENERGY PREDICTED BY IDOCK:   -3.72 KCAL/MOL
REMARK 922        TOTAL FREE ENERGY PREDICTED BY IDOCK:   -4.80 KCAL/MOL
REMARK 923 INTER-LIGAND FREE ENERGY PREDICTED BY IDOCK:   -4.28 KCAL/MOL
REMARK 924 INTRA-LIGAND FREE ENERGY PREDICTED BY IDOCK:   -0.51 KCAL/MOL
REMARK 927      BINDING AFFINITY PREDICTED BY RF-SCORE:    0.00 PKD
ROOT
HETATM    1  C   UNL     1      -6.484   7.979  65.903  1.00  0.00    -0.045 C  
HETATM    2  C   UNL     1      -7.213   8.616  67.056  1.00  0.00    -0.076 A  
HETATM    3  C   UNL     1      -8.455   9.273  66.918  1.00  0.00    -0.128 A  
HETATM    4  C   UNL     1      -9.001   9.622  65.559  1.00  0.00    -0.223 C  
HETATM    5  C   UNL     1      -9.196   9.568  68.084  1.00  0.00    -0.129 A  
HETATM    6  C   UNL     1      -6.619   8.508  68.321  1.00  0.00    -0.061 A  
HETATM    7  C   UNL     1      -8.546   9.509  69.329  1.00  0.00    -0.149 A  
HETATM    8  C   UNL     1      -7.264   9.000  69.451  1.00  0.00    -0.057 A  
ENDROOT
BRANCH   5   9
HETATM    9  N   UNL     1     -10.591   9.856  68.007  1.00  0.00    -0.226 NA 
HETATM   10  H   UNL     1     -11.105   9.483  67.209  1.00  0.00     0.000 HD 
BRANCH   9  11
HETATM   11  C   UNL     1     -11.322  10.623  68.959  1.00  0.00    -0.277 A  
HETATM   12  C   UNL     1     -11.809  10.016  70.130  1.00  0.00    -0.245 A  
HETATM   13  C   UNL     1     -12.359  10.761  71.173  1.00  0.00    -0.498 A  
HETATM   14  C   UNL     1     -12.483  12.138  71.041  1.00  0.00    -0.369 A  
HETATM   15  C   UNL     1     -12.130  12.750  69.839  1.00  0.00    -0.329 A  
HETATM   16  C   UNL     1     -11.598  11.993  68.782  1.00  0.00    -0.366 A  
HETATM   17  C   UNL     1     -11.349  12.692  67.505  1.00  0.00    -0.308 C  
HETATM   18  O   UNL     1     -10.943  13.836  67.425  1.00  0.00    -0.276 OA 
HETATM   19  O   UNL     1     -11.691  11.941  66.430  1.00  0.00    -0.522 OA 
ENDBRANCH   9  11
ENDBRANCH   5   9
TORSDOF 2
ENDMDL
MODEL      198
REMARK 921   NORMALIZED FREE ENERGY PREDICTED BY IDOCK:   -3.69 KCAL/MOL
REMARK 922        TOTAL FREE ENERGY PREDICTED BY IDOCK:   -4.77 KCAL/MOL
REMARK 923 INTER-LIGAND FREE ENERGY PREDICTED BY IDOCK:   -4.19 KCAL/MOL
REMARK 924 INTRA-LIGAND FREE ENERGY PREDICTED BY IDOCK:   -0.57 KCAL/MOL
REMARK 927      BINDING AFFINITY PREDICTED BY RF-SCORE:    0.00 PKD
ROOT
HETATM    1  C   UNL     1     -12.346  12.330  63.552  1.00  0.00    -0.670 C  
HETATM    2  C   UNL     1     -11.084  11.964  64.285  1.00  0.00    -0.418 A  
HETATM    3  C   UNL     1     -10.661  12.609  65.468  1.00  0.00    -0.303 A  
HETATM    4  C   UNL     1     -11.303  13.894  65.921  1.00  0.00    -0.314 C  
HETATM    5  C   UNL     1      -9.643  12.007  66.239  1.00  0.00    -0.231 A  
HETATM    6  C   UNL     1     -10.328  10.906  63.761  1.00  0.00    -0.384 A  
HETATM    7  C   UNL     1      -8.866  10.992  65.655  1.00  0.00    -0.187 A  
HETATM    8  C   UNL     1      -9.191  10.453  64.421  1.00  0.00    -0.291 A  
ENDROOT
BRANCH   5   9
HETATM    9  N   UNL     1      -9.450  12.374  67.604  1.00  0.00    -0.185 NA 
HETATM   10  H   UNL     1      -9.779  13.294  67.895  1.00  0.00     0.000 HD 
BRANCH   9  11
HETATM   11  C   UNL     1      -8.832  11.555  68.593  1.00  0.00    -0.106 A  
HETATM   12  C   UNL     1      -9.530  10.465  69.142  1.00  0.00    -0.220 A  
HETATM   13  C   UNL     1      -8.905   9.528  69.963  1.00  0.00    -0.246 A  
HETATM   14  C   UNL     1      -7.567   9.693  70.299  1.00  0.00    -0.175 A  
HETATM   15  C   UNL     1      -6.887  10.835  69.877  1.00  0.00    -0.146 A  
HETATM   16  C   UNL     1      -7.527  11.788  69.068  1.00  0.00    -0.030 A  
HETATM   17  C   UNL     1      -6.778  13.021  68.750  1.00  0.00    -0.100 C  
HETATM   18  O   UNL     1      -5.580  13.052  68.538  1.00  0.00    -0.063 OA 
HETATM   19  O   UNL     1      -7.561  14.126  68.791  1.00  0.00    -0.125 OA 
ENDBRANCH   9  11
ENDBRANCH   5   9
TORSDOF 2
ENDMDL
MODEL      199
REMARK 921   NORMALIZED FREE ENERGY PREDICTED BY IDOCK:   -3.68 KCAL/MOL
REMARK 922        TOTAL FREE ENERGY PREDICTED BY IDOCK:   -4.75 KCAL/MOL
REMARK 923 INTER-LIGAND FREE ENERGY PREDICTED BY IDOCK:   -4.07 KCAL/MOL
REMARK 924 INTRA-LIGAND FREE ENERGY PREDICTED BY IDOCK:   -0.68 KCAL/MOL
REMARK 927      BINDING AFFINITY PREDICTED BY RF-SCORE:    0.00 PKD
ROOT
HETATM    1  C   UNL     1     -11.977  13.427  66.554  1.00  0.00    -0.452 C  
HETATM    2  C   UNL     1     -10.519  13.685  66.828  1.00  0.00    -0.270 A  
HETATM    3  C   UNL     1      -9.989  14.976  67.042  1.00  0.00    -0.242 A  
HETATM    4  C   UNL     1     -10.801  16.207  66.735  1.00  0.00    -0.162 C  
HETATM    5  C   UNL     1      -8.690  15.092  67.583  1.00  0.00    -0.170 A  
HETATM    6  C   UNL     1      -9.677  12.567  66.898  1.00  0.00    -0.232 A  
HETATM    7  C   UNL     1      -7.854  13.962  67.577  1.00  0.00    -0.193 A  
HETATM    8  C   UNL     1      -8.332  12.711  67.224  1.00  0.00    -0.189 A  
ENDROOT
BRANCH   5   9
HETATM    9  N   UNL     1      -8.256  16.312  68.182  1.00  0.00    -0.160 NA 
HETATM   10  H   UNL     1      -8.661  16.562  69.085  1.00  0.00     0.000 HD 
BRANCH   9  11
HETATM   11  C   UNL     1      -7.302  17.207  67.619  1.00  0.00    -0.164 A  
HETATM   12  C   UNL     1      -7.332  17.496  66.243  1.00  0.00    -0.355 A  
HETATM   13  C   UNL     1      -6.549  18.504  65.684  1.00  0.00    -0.310 A  
HETATM   14  C   UNL     1      -5.670  19.217  66.491  1.00  0.00    -0.173 A  
HETATM   15  C   UNL     1      -5.524  18.863  67.832  1.00  0.00    -0.177 A  
HETATM   16  C   UNL     1      -6.299  17.831  68.385  1.00  0.00    -0.196 A  
HETATM   17  C   UNL     1      -6.012  17.441  69.781  1.00  0.00    -0.245 C  
HETATM   18  O   UNL     1      -5.706  18.229  70.656  1.00  0.00    -0.195 OA 
HETATM   19  O   UNL     1      -6.059  16.100  69.963  1.00  0.00    -0.188 OA 
ENDBRANCH   9  11
ENDBRANCH   5   9
TORSDOF 2
ENDMDL
MODEL      200
REMARK 921   NORMALIZED FREE ENERGY PREDICTED BY IDOCK:   -3.68 KCAL/MOL
REMARK 922        TOTAL FREE ENERGY PREDICTED BY IDOCK:   -4.75 KCAL/MOL
REMARK 923 INTER-LIGAND FREE ENERGY PREDICTED BY IDOCK:   -4.34 KCAL/MOL
REMARK 924 INTRA-LIGAND FREE ENERGY PREDICTED BY IDOCK:   -0.41 KCAL/MOL
REMARK 927      BINDING AFFINITY PREDICTED BY RF-SCORE:    0.00 PKD
ROOT
HETATM    1  C   UNL     1      -9.270  11.442  68.045  1.00  0.00    -0.171 C  
HETATM    2  C   UNL     1      -9.693  12.873  68.247  1.00  0.00    -0.217 A  
HETATM    3  C   UNL     1      -8.806  13.965  68.132  1.00  0.00    -0.184 A  
HETATM    4  C   UNL     1      -7.316  13.751  68.073  1.00  0.00    -0.134 C  
HETATM    5  C   UNL     1      -9.346  15.267  68.040  1.00  0.00    -0.197 A  
HETATM    6  C   UNL     1     -11.046  13.102  68.532  1.00  0.00    -0.296 A  
HETATM    7  C   UNL     1     -10.691  15.465  68.395  1.00  0.00    -0.256 A  
HETATM    8  C   UNL     1     -11.535  14.398  68.655  1.00  0.00    -0.316 A  
ENDROOT
BRANCH   5   9
HETATM    9  N   UNL     1      -8.562  16.347  67.535  1.00  0.00    -0.172 NA 
HETATM   10  H   UNL     1      -8.520  16.464  66.523  1.00  0.00     0.000 HD 
BRANCH   9  11
HETATM   11  C   UNL     1      -7.834  17.274  68.335  1.00  0.00    -0.254 A  
HETATM   12  C   UNL     1      -7.031  16.813  69.393  1.00  0.00    -0.176 A  
HETATM   13  C   UNL     1      -6.156  17.658  70.076  1.00  0.00    -0.118 A  
HETATM   14  C   UNL     1      -6.106  19.006  69.746  1.00  0.00    -0.278 A  
HETATM   15  C   UNL     1      -6.986  19.515  68.791  1.00  0.00    -0.371 A  
HETATM   16  C   UNL     1      -7.882  18.665  68.122  1.00  0.00    -0.309 A  
HETATM   17  C   UNL     1      -8.855  19.292  67.204  1.00  0.00    -0.294 C  
HETATM   18  O   UNL     1      -8.602  20.248  66.496  1.00  0.00    -0.277 OA 
HETATM   19  O   UNL     1     -10.084  18.728  67.290  1.00  0.00    -0.322 OA 
ENDBRANCH   9  11
ENDBRANCH   5   9
TORSDOF 2
ENDMDL
MODEL      201
REMARK 921   NORMALIZED FREE ENERGY PREDICTED BY IDOCK:   -3.67 KCAL/MOL
REMARK 922        TOTAL FREE ENERGY PREDICTED BY IDOCK:   -4.74 KCAL/MOL
REMARK 923 INTER-LIGAND FREE ENERGY PREDICTED BY IDOCK:   -4.61 KCAL/MOL
REMARK 924 INTRA-LIGAND FREE ENERGY PREDICTED BY IDOCK:   -0.13 KCAL/MOL
REMARK 927      BINDING AFFINITY PREDICTED BY RF-SCORE:    0.00 PKD
ROOT
HETATM    1  C   UNL     1     -11.110  15.228  69.287  1.00  0.00    -0.277 C  
HETATM    2  C   UNL     1     -11.605  13.808  69.357  1.00  0.00    -0.365 A  
HETATM    3  C   UNL     1     -11.479  12.892  68.288  1.00  0.00    -0.348 A  
HETATM    4  C   UNL     1     -11.092  13.358  66.910  1.00  0.00    -0.309 C  
HETATM    5  C   UNL     1     -11.692  11.520  68.547  1.00  0.00    -0.313 A  
HETATM    6  C   UNL     1     -12.185  13.394  70.563  1.00  0.00    -0.425 A  
HETATM    7  C   UNL     1     -12.335  11.151  69.741  1.00  0.00    -0.315 A  
HETATM    8  C   UNL     1     -12.596  12.077  70.737  1.00  0.00    -0.312 A  
ENDROOT
BRANCH   5   9
HETATM    9  N   UNL     1     -11.208  10.526  67.646  1.00  0.00    -0.396 NA 
HETATM   10  H   UNL     1     -11.667  10.449  66.738  1.00  0.00     0.000 HD 
BRANCH   9  11
HETATM   11  C   UNL     1     -10.132   9.632  67.915  1.00  0.00    -0.181 A  
HETATM   12  C   UNL     1      -9.933   9.139  69.217  1.00  0.00    -0.187 A  
HETATM   13  C   UNL     1      -9.020   8.121  69.489  1.00  0.00    -0.151 A  
HETATM   14  C   UNL     1      -8.240   7.607  68.461  1.00  0.00    -0.125 A  
HETATM   15  C   UNL     1      -8.323   8.168  67.186  1.00  0.00    -0.120 A  
HETATM   16  C   UNL     1      -9.227   9.209  66.922  1.00  0.00    -0.183 A  
HETATM   17  C   UNL     1      -9.181   9.823  65.580  1.00  0.00    -0.215 C  
HETATM   18  O   UNL     1      -8.973   9.201  64.555  1.00  0.00    -0.180 OA 
HETATM   19  O   UNL     1      -9.327  11.169  65.622  1.00  0.00    -0.208 OA 
ENDBRANCH   9  11
ENDBRANCH   5   9
TORSDOF 2
ENDMDL
MODEL      202
REMARK 921   NORMALIZED FREE ENERGY PREDICTED BY IDOCK:   -3.63 KCAL/MOL
REMARK 922        TOTAL FREE ENERGY PREDICTED BY IDOCK:   -4.70 KCAL/MOL
REMARK 923 INTER-LIGAND FREE ENERGY PREDICTED BY IDOCK:   -4.48 KCAL/MOL
REMARK 924 INTRA-LIGAND FREE ENERGY PREDICTED BY IDOCK:   -0.22 KCAL/MOL
REMARK 927      BINDING AFFINITY PREDICTED BY RF-SCORE:    0.00 PKD
ROOT
HETATM    1  C   UNL     1     -10.141   9.792  66.511  1.00  0.00    -0.307 C  
HETATM    2  C   UNL     1     -10.335  11.266  66.746  1.00  0.00    -0.278 A  
HETATM    3  C   UNL     1      -9.276  12.199  66.721  1.00  0.00    -0.207 A  
HETATM    4  C   UNL     1      -7.841  11.743  66.733  1.00  0.00    -0.103 C  
HETATM    5  C   UNL     1      -9.589  13.575  66.652  1.00  0.00    -0.278 A  
HETATM    6  C   UNL     1     -11.647  11.707  66.967  1.00  0.00    -0.268 A  
HETATM    7  C   UNL     1     -10.902  13.982  66.942  1.00  0.00    -0.290 A  
HETATM    8  C   UNL     1     -11.923  13.063  67.114  1.00  0.00    -0.389 A  
ENDROOT
BRANCH   5   9
HETATM    9  N   UNL     1      -8.610  14.524  66.232  1.00  0.00    -0.363 NA 
HETATM   10  H   UNL     1      -8.102  14.326  65.370  1.00  0.00     0.000 HD 
BRANCH   9  11
HETATM   11  C   UNL     1      -8.288  15.728  66.923  1.00  0.00    -0.248 A  
HETATM   12  C   UNL     1      -8.852  16.948  66.513  1.00  0.00    -0.305 A  
HETATM   13  C   UNL     1      -8.720  18.112  67.269  1.00  0.00    -0.244 A  
HETATM   14  C   UNL     1      -7.967  18.090  68.436  1.00  0.00    -0.306 A  
HETATM   15  C   UNL     1      -7.288  16.927  68.796  1.00  0.00    -0.227 A  
HETATM   16  C   UNL     1      -7.405  15.763  68.019  1.00  0.00    -0.135 A  
HETATM   17  C   UNL     1      -6.573  14.604  68.403  1.00  0.00    -0.102 C  
HETATM   18  O   UNL     1      -6.326  14.297  69.554  1.00  0.00    -0.112 OA 
HETATM   19  O   UNL     1      -6.055  13.962  67.328  1.00  0.00    -0.314 OA 
ENDBRANCH   9  11
ENDBRANCH   5   9
TORSDOF 2
ENDMDL
MODEL      203
REMARK 921   NORMALIZED FREE ENERGY PREDICTED BY IDOCK:   -3.62 KCAL/MOL
REMARK 922        TOTAL FREE ENERGY PREDICTED BY IDOCK:   -4.69 KCAL/MOL
REMARK 923 INTER-LIGAND FREE ENERGY PREDICTED BY IDOCK:   -4.07 KCAL/MOL
REMARK 924 INTRA-LIGAND FREE ENERGY PREDICTED BY IDOCK:   -0.62 KCAL/MOL
REMARK 927      BINDING AFFINITY PREDICTED BY RF-SCORE:    0.00 PKD
ROOT
HETATM    1  C   UNL     1     -10.205   4.314  64.896  1.00  0.00    -0.193 C  
HETATM    2  C   UNL     1      -9.720   4.259  66.321  1.00  0.00    -0.225 A  
HETATM    3  C   UNL     1     -10.184   5.131  67.330  1.00  0.00    -0.224 A  
HETATM    4  C   UNL     1     -10.990   6.355  66.986  1.00  0.00    -0.463 C  
HETATM    5  C   UNL     1      -9.904   4.813  68.678  1.00  0.00    -0.138 A  
HETATM    6  C   UNL     1      -8.785   3.263  66.636  1.00  0.00    -0.133 A  
HETATM    7  C   UNL     1      -8.915   3.854  68.953  1.00  0.00    -0.174 A  
HETATM    8  C   UNL     1      -8.345   3.093  67.945  1.00  0.00    -0.093 A  
ENDROOT
BRANCH   5   9
HETATM    9  N   UNL     1     -10.655   5.405  69.736  1.00  0.00    -0.313 NA 
HETATM   10  H   UNL     1     -11.633   5.129  69.831  1.00  0.00     0.000 HD 
BRANCH   9  11
HETATM   11  C   UNL     1     -10.146   6.350  70.673  1.00  0.00    -0.187 A  
HETATM   12  C   UNL     1      -9.496   7.511  70.219  1.00  0.00    -0.165 A  
HETATM   13  C   UNL     1      -9.154   8.550  71.084  1.00  0.00    -0.238 A  
HETATM   14  C   UNL     1      -9.410   8.423  72.444  1.00  0.00    -0.356 A  
HETATM   15  C   UNL     1      -9.933   7.228  72.938  1.00  0.00    -0.257 A  
HETATM   16  C   UNL     1     -10.254   6.176  72.066  1.00  0.00    -0.223 A  
HETATM   17  C   UNL     1     -10.701   4.905  72.672  1.00  0.00    -0.213 C  
HETATM   18  O   UNL     1     -11.404   4.836  73.663  1.00  0.00    -0.309 OA 
HETATM   19  O   UNL     1     -10.184   3.822  72.043  1.00  0.00    -0.165 OA 
ENDBRANCH   9  11
ENDBRANCH   5   9
TORSDOF 2
ENDMDL
MODEL      204
REMARK 921   NORMALIZED FREE ENERGY PREDICTED BY IDOCK:   -3.61 KCAL/MOL
REMARK 922        TOTAL FREE ENERGY PREDICTED BY IDOCK:   -4.68 KCAL/MOL
REMARK 923 INTER-LIGAND FREE ENERGY PREDICTED BY IDOCK:   -4.38 KCAL/MOL
REMARK 924 INTRA-LIGAND FREE ENERGY PREDICTED BY IDOCK:   -0.29 KCAL/MOL
REMARK 927      BINDING AFFINITY PREDICTED BY RF-SCORE:    0.00 PKD
ROOT
HETATM    1  C   UNL     1      -9.695  15.445  67.019  1.00  0.00    -0.231 C  
HETATM    2  C   UNL     1     -10.372  14.103  66.935  1.00  0.00    -0.269 A  
HETATM    3  C   UNL     1     -10.022  13.008  67.754  1.00  0.00    -0.227 A  
HETATM    4  C   UNL     1      -8.761  13.026  68.577  1.00  0.00    -0.042 C  
HETATM    5  C   UNL     1     -10.899  11.902  67.814  1.00  0.00    -0.211 A  
HETATM    6  C   UNL     1     -11.416  13.975  66.009  1.00  0.00    -0.340 A  
HETATM    7  C   UNL     1     -11.894  11.777  66.829  1.00  0.00    -0.067 A  
HETATM    8  C   UNL     1     -12.145  12.793  65.923  1.00  0.00    -0.485 A  
ENDROOT
BRANCH   5   9
HETATM    9  N   UNL     1     -10.819  10.966  68.888  1.00  0.00    -0.203 NA 
HETATM   10  H   UNL     1     -11.022  11.309  69.827  1.00  0.00     0.000 HD 
BRANCH   9  11
HETATM   11  C   UNL     1     -10.478   9.590  68.751  1.00  0.00    -0.219 A  
HETATM   12  C   UNL     1     -10.367   9.015  67.473  1.00  0.00    -0.328 A  
HETATM   13  C   UNL     1      -9.852   7.733  67.283  1.00  0.00    -0.249 A  
HETATM   14  C   UNL     1      -9.483   6.972  68.385  1.00  0.00    -0.133 A  
HETATM   15  C   UNL     1      -9.706   7.467  69.670  1.00  0.00    -0.163 A  
HETATM   16  C   UNL     1     -10.246   8.749  69.857  1.00  0.00    -0.206 A  
HETATM   17  C   UNL     1     -10.553   9.161  71.242  1.00  0.00    -0.329 C  
HETATM   18  O   UNL     1      -9.869   8.868  72.205  1.00  0.00    -0.312 OA 
HETATM   19  O   UNL     1     -11.721   9.843  71.331  1.00  0.00    -0.369 OA 
ENDBRANCH   9  11
ENDBRANCH   5   9
TORSDOF 2
ENDMDL
MODEL      205
REMARK 921   NORMALIZED FREE ENERGY PREDICTED BY IDOCK:   -3.60 KCAL/MOL
REMARK 922        TOTAL FREE ENERGY PREDICTED BY IDOCK:   -4.66 KCAL/MOL
REMARK 923 INTER-LIGAND FREE ENERGY PREDICTED BY IDOCK:   -4.09 KCAL/MOL
REMARK 924 INTRA-LIGAND FREE ENERGY PREDICTED BY IDOCK:   -0.58 KCAL/MOL
REMARK 927      BINDING AFFINITY PREDICTED BY RF-SCORE:    0.00 PKD
ROOT
HETATM    1  C   UNL     1      -7.847  17.080  66.508  1.00  0.00    -0.331 C  
HETATM    2  C   UNL     1      -8.676  15.829  66.379  1.00  0.00    -0.372 A  
HETATM    3  C   UNL     1      -8.327  14.605  66.990  1.00  0.00    -0.214 A  
HETATM    4  C   UNL     1      -6.958  14.396  67.581  1.00  0.00    -0.203 C  
HETATM    5  C   UNL     1      -9.302  13.586  67.065  1.00  0.00    -0.247 A  
HETATM    6  C   UNL     1      -9.861  15.925  65.637  1.00  0.00    -0.337 A  
HETATM    7  C   UNL     1     -10.448  13.688  66.257  1.00  0.00    -0.291 A  
HETATM    8  C   UNL     1     -10.722  14.838  65.535  1.00  0.00    -0.369 A  
ENDROOT
BRANCH   5   9
HETATM    9  N   UNL     1      -9.161  12.509  67.990  1.00  0.00    -0.194 NA 
HETATM   10  H   UNL     1      -9.218  12.731  68.984  1.00  0.00     0.000 HD 
BRANCH   9  11
HETATM   11  C   UNL     1      -8.945  11.147  67.633  1.00  0.00    -0.140 A  
HETATM   12  C   UNL     1      -8.367  10.826  66.392  1.00  0.00    -0.153 A  
HETATM   13  C   UNL     1      -7.963   9.528  66.081  1.00  0.00    -0.107 A  
HETATM   14  C   UNL     1      -8.180   8.504  66.994  1.00  0.00    -0.107 A  
HETATM   15  C   UNL     1      -8.870   8.770  68.176  1.00  0.00    -0.141 A  
HETATM   16  C   UNL     1      -9.296  10.074  68.476  1.00  0.00    -0.145 A  
HETATM   17  C   UNL     1     -10.113  10.259  69.692  1.00  0.00    -0.224 C  
HETATM   18  O   UNL     1      -9.937   9.644  70.728  1.00  0.00    -0.270 OA 
HETATM   19  O   UNL     1     -11.127  11.137  69.505  1.00  0.00    -0.243 OA 
ENDBRANCH   9  11
ENDBRANCH   5   9
TORSDOF 2
ENDMDL
MODEL      206
REMARK 921   NORMALIZED FREE ENERGY PREDICTED BY IDOCK:   -3.56 KCAL/MOL
REMARK 922        TOTAL FREE ENERGY PREDICTED BY IDOCK:   -4.62 KCAL/MOL
REMARK 923 INTER-LIGAND FREE ENERGY PREDICTED BY IDOCK:   -4.16 KCAL/MOL
REMARK 924 INTRA-LIGAND FREE ENERGY PREDICTED BY IDOCK:   -0.46 KCAL/MOL
REMARK 927      BINDING AFFINITY PREDICTED BY RF-SCORE:    0.00 PKD
ROOT
HETATM    1  C   UNL     1     -12.100  11.835  70.236  1.00  0.00    -0.426 C  
HETATM    2  C   UNL     1     -11.432  10.559  69.799  1.00  0.00    -0.365 A  
HETATM    3  C   UNL     1     -11.559   9.340  70.501  1.00  0.00    -0.266 A  
HETATM    4  C   UNL     1     -12.145   9.302  71.888  1.00  0.00    -0.440 C  
HETATM    5  C   UNL     1     -11.154   8.147  69.862  1.00  0.00    -0.102 A  
HETATM    6  C   UNL     1     -10.680  10.606  68.617  1.00  0.00    -0.239 A  
HETATM    7  C   UNL     1     -10.347   8.238  68.715  1.00  0.00    -0.223 A  
HETATM    8  C   UNL     1     -10.096   9.454  68.102  1.00  0.00    -0.215 A  
ENDROOT
BRANCH   5   9
HETATM    9  N   UNL     1     -11.608   6.879  70.332  1.00  0.00    -0.418 NA 
HETATM   10  H   UNL     1     -12.614   6.749  70.438  1.00  0.00     0.000 HD 
BRANCH   9  11
HETATM   11  C   UNL     1     -10.765   5.780  70.666  1.00  0.00    -0.281 A  
HETATM   12  C   UNL     1     -10.194   4.996  69.648  1.00  0.00    -0.306 A  
HETATM   13  C   UNL     1      -9.217   4.038  69.917  1.00  0.00    -0.213 A  
HETATM   14  C   UNL     1      -8.826   3.805  71.229  1.00  0.00    -0.143 A  
HETATM   15  C   UNL     1      -9.471   4.475  72.269  1.00  0.00    -0.179 A  
HETATM   16  C   UNL     1     -10.470   5.423  71.996  1.00  0.00    -0.278 A  
HETATM   17  C   UNL     1     -11.181   6.011  73.149  1.00  0.00    -0.140 C  
HETATM   18  O   UNL     1     -10.647   6.283  74.209  1.00  0.00    -0.250 OA 
HETATM   19  O   UNL     1     -12.509   6.151  72.922  1.00  0.00     0.325 OA 
ENDBRANCH   9  11
ENDBRANCH   5   9
TORSDOF 2
ENDMDL
MODEL      207
REMARK 921   NORMALIZED FREE ENERGY PREDICTED BY IDOCK:   -3.56 KCAL/MOL
REMARK 922        TOTAL FREE ENERGY PREDICTED BY IDOCK:   -4.62 KCAL/MOL
REMARK 923 INTER-LIGAND FREE ENERGY PREDICTED BY IDOCK:   -4.05 KCAL/MOL
REMARK 924 INTRA-LIGAND FREE ENERGY PREDICTED BY IDOCK:   -0.58 KCAL/MOL
REMARK 927      BINDING AFFINITY PREDICTED BY RF-SCORE:    0.00 PKD
ROOT
HETATM    1  C   UNL     1     -11.408  16.011  67.337  1.00  0.00     0.003 C  
HETATM    2  C   UNL     1     -11.242  14.746  66.538  1.00  0.00    -0.342 A  
HETATM    3  C   UNL     1      -9.999  14.098  66.365  1.00  0.00    -0.302 A  
HETATM    4  C   UNL     1      -8.710  14.782  66.736  1.00  0.00    -0.255 C  
HETATM    5  C   UNL     1      -9.990  12.777  65.864  1.00  0.00    -0.266 A  
HETATM    6  C   UNL     1     -12.401  14.191  65.978  1.00  0.00    -0.470 A  
HETATM    7  C   UNL     1     -11.154  12.280  65.252  1.00  0.00    -0.359 A  
HETATM    8  C   UNL     1     -12.347  12.982  65.292  1.00  0.00    -0.537 A  
ENDROOT
BRANCH   5   9
HETATM    9  N   UNL     1      -8.846  11.942  66.034  1.00  0.00    -0.395 NA 
HETATM   10  H   UNL     1      -8.104  12.014  65.338  1.00  0.00     0.000 HD 
BRANCH   9  11
HETATM   11  C   UNL     1      -8.659  11.016  67.100  1.00  0.00    -0.136 A  
HETATM   12  C   UNL     1      -9.753  10.624  67.892  1.00  0.00    -0.177 A  
HETATM   13  C   UNL     1      -9.658   9.584  68.816  1.00  0.00    -0.159 A  
HETATM   14  C   UNL     1      -8.439   8.944  69.006  1.00  0.00    -0.133 A  
HETATM   15  C   UNL     1      -7.308   9.401  68.330  1.00  0.00    -0.077 A  
HETATM   16  C   UNL     1      -7.404  10.464  67.418  1.00  0.00    -0.093 A  
HETATM   17  C   UNL     1      -6.147  10.962  66.822  1.00  0.00    -0.088 C  
HETATM   18  O   UNL     1      -5.213  10.246  66.511  1.00  0.00    -0.039 OA 
HETATM   19  O   UNL     1      -6.120  12.313  66.726  1.00  0.00    -0.222 OA 
ENDBRANCH   9  11
ENDBRANCH   5   9
TORSDOF 2
ENDMDL
MODEL      208
REMARK 921   NORMALIZED FREE ENERGY PREDICTED BY IDOCK:   -3.54 KCAL/MOL
REMARK 922        TOTAL FREE ENERGY PREDICTED BY IDOCK:   -4.60 KCAL/MOL
REMARK 923 INTER-LIGAND FREE ENERGY PREDICTED BY IDOCK:   -4.12 KCAL/MOL
REMARK 924 INTRA-LIGAND FREE ENERGY PREDICTED BY IDOCK:   -0.48 KCAL/MOL
REMARK 927      BINDING AFFINITY PREDICTED BY RF-SCORE:    0.00 PKD
ROOT
HETATM    1  C   UNL     1      -8.083   4.744  64.993  1.00  0.00    -0.104 C  
HETATM    2  C   UNL     1      -8.570   4.744  66.417  1.00  0.00    -0.113 A  
HETATM    3  C   UNL     1      -9.208   5.853  67.016  1.00  0.00    -0.120 A  
HETATM    4  C   UNL     1      -9.195   7.205  66.355  1.00  0.00    -0.196 C  
HETATM    5  C   UNL     1      -9.891   5.660  68.237  1.00  0.00    -0.141 A  
HETATM    6  C   UNL     1      -8.395   3.562  67.150  1.00  0.00    -0.092 A  
HETATM    7  C   UNL     1      -9.640   4.489  68.973  1.00  0.00    -0.245 A  
HETATM    8  C   UNL     1      -8.887   3.452  68.446  1.00  0.00    -0.162 A  
ENDROOT
BRANCH   5   9
HETATM    9  N   UNL     1     -10.865   6.602  68.684  1.00  0.00    -0.329 NA 
HETATM   10  H   UNL     1     -11.547   6.933  68.002  1.00  0.00     0.000 HD 
BRANCH   9  11
HETATM   11  C   UNL     1     -10.958   7.116  70.009  1.00  0.00    -0.262 A  
HETATM   12  C   UNL     1     -11.573   6.355  71.019  1.00  0.00    -0.386 A  
HETATM   13  C   UNL     1     -11.518   6.730  72.361  1.00  0.00    -0.302 A  
HETATM   14  C   UNL     1     -10.887   7.914  72.717  1.00  0.00    -0.451 A  
HETATM   15  C   UNL     1     -10.384   8.754  71.723  1.00  0.00    -0.413 A  
HETATM   16  C   UNL     1     -10.462   8.383  70.371  1.00  0.00    -0.228 A  
HETATM   17  C   UNL     1     -10.007   9.370  69.370  1.00  0.00    -0.183 C  
HETATM   18  O   UNL     1      -9.055  10.111  69.532  1.00  0.00    -0.199 OA 
HETATM   19  O   UNL     1     -10.811   9.409  68.281  1.00  0.00    -0.197 OA 
ENDBRANCH   9  11
ENDBRANCH   5   9
TORSDOF 2
ENDMDL
MODEL      209
REMARK 921   NORMALIZED FREE ENERGY PREDICTED BY IDOCK:   -3.52 KCAL/MOL
REMARK 922        TOTAL FREE ENERGY PREDICTED BY IDOCK:   -4.58 KCAL/MOL
REMARK 923 INTER-LIGAND FREE ENERGY PREDICTED BY IDOCK:   -4.49 KCAL/MOL
REMARK 924 INTRA-LIGAND FREE ENERGY PREDICTED BY IDOCK:   -0.09 KCAL/MOL
REMARK 927      BINDING AFFINITY PREDICTED BY RF-SCORE:    0.00 PKD
ROOT
HETATM    1  C   UNL     1     -12.647  12.526  64.148  1.00  0.00    -0.474 C  
HETATM    2  C   UNL     1     -11.354  12.471  64.917  1.00  0.00    -0.351 A  
HETATM    3  C   UNL     1     -10.796  13.591  65.573  1.00  0.00    -0.293 A  
HETATM    4  C   UNL     1     -11.316  14.980  65.313  1.00  0.00    -0.349 C  
HETATM    5  C   UNL     1      -9.758  13.378  66.507  1.00  0.00    -0.282 A  
HETATM    6  C   UNL     1     -10.712  11.228  64.994  1.00  0.00    -0.322 A  
HETATM    7  C   UNL     1      -9.097  12.138  66.509  1.00  0.00    -0.199 A  
HETATM    8  C   UNL     1      -9.555  11.073  65.751  1.00  0.00    -0.260 A  
ENDROOT
BRANCH   5   9
HETATM    9  N   UNL     1      -9.430  14.377  67.471  1.00  0.00    -0.204 NA 
HETATM   10  H   UNL     1      -9.972  14.392  68.335  1.00  0.00     0.000 HD 
BRANCH   9  11
HETATM   11  C   UNL     1      -8.405  15.354  67.322  1.00  0.00    -0.199 A  
HETATM   12  C   UNL     1      -8.461  16.279  66.265  1.00  0.00    -0.369 A  
HETATM   13  C   UNL     1      -7.591  17.366  66.189  1.00  0.00    -0.321 A  
HETATM   14  C   UNL     1      -6.602  17.521  67.152  1.00  0.00    -0.194 A  
HETATM   15  C   UNL     1      -6.440  16.547  68.136  1.00  0.00    -0.141 A  
HETATM   16  C   UNL     1      -7.303  15.441  68.195  1.00  0.00    -0.122 A  
HETATM   17  C   UNL     1      -7.003  14.398  69.197  1.00  0.00    -0.123 C  
HETATM   18  O   UNL     1      -6.570  14.631  70.310  1.00  0.00    -0.182 OA 
HETATM   19  O   UNL     1      -7.196  13.147  68.714  1.00  0.00    -0.102 OA 
ENDBRANCH   9  11
ENDBRANCH   5   9
TORSDOF 2
ENDMDL
MODEL      210
REMARK 921   NORMALIZED FREE ENERGY PREDICTED BY IDOCK:   -3.45 KCAL/MOL
REMARK 922        TOTAL FREE ENERGY PREDICTED BY IDOCK:   -4.50 KCAL/MOL
REMARK 923 INTER-LIGAND FREE ENERGY PREDICTED BY IDOCK:   -4.36 KCAL/MOL
REMARK 924 INTRA-LIGAND FREE ENERGY PREDICTED BY IDOCK:   -0.13 KCAL/MOL
REMARK 927      BINDING AFFINITY PREDICTED BY RF-SCORE:    0.00 PKD
ROOT
HETATM    1  C   UNL     1     -11.284   4.574  73.216  1.00  0.00    -0.388 C  
HETATM    2  C   UNL     1     -10.531   5.772  72.701  1.00  0.00    -0.243 A  
HETATM    3  C   UNL     1      -9.688   5.726  71.569  1.00  0.00    -0.193 A  
HETATM    4  C   UNL     1      -9.269   4.412  70.966  1.00  0.00    -0.201 C  
HETATM    5  C   UNL     1      -9.269   6.945  70.990  1.00  0.00    -0.156 A  
HETATM    6  C   UNL     1     -10.719   6.983  73.381  1.00  0.00    -0.379 A  
HETATM    7  C   UNL     1      -9.418   8.130  71.731  1.00  0.00    -0.249 A  
HETATM    8  C   UNL     1     -10.122   8.153  72.923  1.00  0.00    -0.349 A  
ENDROOT
BRANCH   5   9
HETATM    9  N   UNL     1      -8.765   6.982  69.656  1.00  0.00    -0.141 NA 
HETATM   10  H   UNL     1      -8.094   6.263  69.386  1.00  0.00     0.000 HD 
BRANCH   9  11
HETATM   11  C   UNL     1      -9.128   7.945  68.670  1.00  0.00    -0.136 A  
HETATM   12  C   UNL     1      -8.621   9.254  68.745  1.00  0.00    -0.131 A  
HETATM   13  C   UNL     1      -8.792  10.170  67.707  1.00  0.00    -0.125 A  
HETATM   14  C   UNL     1      -9.526   9.807  66.585  1.00  0.00    -0.220 A  
HETATM   15  C   UNL     1     -10.150   8.561  66.544  1.00  0.00    -0.328 A  
HETATM   16  C   UNL     1      -9.995   7.650  67.601  1.00  0.00    -0.225 A  
HETATM   17  C   UNL     1     -10.773   6.395  67.535  1.00  0.00    -0.319 C  
HETATM   18  O   UNL     1     -10.989   5.784  66.506  1.00  0.00    -0.253 OA 
HETATM   19  O   UNL     1     -11.278   6.037  68.740  1.00  0.00    -0.331 OA 
ENDBRANCH   9  11
ENDBRANCH   5   9
TORSDOF 2
ENDMDL
MODEL      211
REMARK 921   NORMALIZED FREE ENERGY PREDICTED BY IDOCK:   -3.44 KCAL/MOL
REMARK 922        TOTAL FREE ENERGY PREDICTED BY IDOCK:   -4.49 KCAL/MOL
REMARK 923 INTER-LIGAND FREE ENERGY PREDICTED BY IDOCK:   -3.83 KCAL/MOL
REMARK 924 INTRA-LIGAND FREE ENERGY PREDICTED BY IDOCK:   -0.66 KCAL/MOL
REMARK 927      BINDING AFFINITY PREDICTED BY RF-SCORE:    0.00 PKD
ROOT
HETATM    1  C   UNL     1      -5.851   9.547  68.803  1.00  0.00    -0.039 C  
HETATM    2  C   UNL     1      -6.737   9.931  67.648  1.00  0.00    -0.073 A  
HETATM    3  C   UNL     1      -7.989  10.564  67.812  1.00  0.00    -0.106 A  
HETATM    4  C   UNL     1      -8.646  10.645  69.165  1.00  0.00    -0.136 C  
HETATM    5  C   UNL     1      -8.602  11.151  66.683  1.00  0.00    -0.165 A  
HETATM    6  C   UNL     1      -6.256   9.663  66.360  1.00  0.00    -0.068 A  
HETATM    7  C   UNL     1      -8.130  10.807  65.405  1.00  0.00    -0.050 A  
HETATM    8  C   UNL     1      -6.977  10.057  65.238  1.00  0.00    -0.132 A  
ENDROOT
BRANCH   5   9
HETATM    9  N   UNL     1      -9.635  12.123  66.838  1.00  0.00    -0.201 NA 
HETATM   10  H   UNL     1     -10.550  11.792  67.142  1.00  0.00     0.000 HD 
BRANCH   9  11
HETATM   11  C   UNL     1      -9.486  13.520  66.600  1.00  0.00    -0.265 A  
HETATM   12  C   UNL     1      -8.540  14.262  67.329  1.00  0.00    -0.229 A  
HETATM   13  C   UNL     1      -8.226  15.580  67.000  1.00  0.00    -0.275 A  
HETATM   14  C   UNL     1      -8.899  16.207  65.959  1.00  0.00    -0.313 A  
HETATM   15  C   UNL     1      -9.934  15.538  65.307  1.00  0.00    -0.273 A  
HETATM   16  C   UNL     1     -10.263  14.218  65.656  1.00  0.00    -0.366 A  
HETATM   17  C   UNL     1     -11.438  13.614  64.996  1.00  0.00    -0.327 C  
HETATM   18  O   UNL     1     -11.740  13.810  63.834  1.00  0.00    -0.363 OA 
HETATM   19  O   UNL     1     -12.185  12.873  65.849  1.00  0.00    -0.444 OA 
ENDBRANCH   9  11
ENDBRANCH   5   9
TORSDOF 2
ENDMDL
MODEL      212
REMARK 921   NORMALIZED FREE ENERGY PREDICTED BY IDOCK:   -3.41 KCAL/MOL
REMARK 922        TOTAL FREE ENERGY PREDICTED BY IDOCK:   -4.46 KCAL/MOL
REMARK 923 INTER-LIGAND FREE ENERGY PREDICTED BY IDOCK:   -3.80 KCAL/MOL
REMARK 924 INTRA-LIGAND FREE ENERGY PREDICTED BY IDOCK:   -0.65 KCAL/MOL
REMARK 927      BINDING AFFINITY PREDICTED BY RF-SCORE:    0.00 PKD
ROOT
HETATM    1  C   UNL     1     -10.716  13.940  67.594  1.00  0.00    -0.255 C  
HETATM    2  C   UNL     1     -10.341  12.738  66.769  1.00  0.00    -0.248 A  
HETATM    3  C   UNL     1      -9.402  11.772  67.194  1.00  0.00    -0.178 A  
HETATM    4  C   UNL     1      -8.508  12.028  68.378  1.00  0.00    -0.147 C  
HETATM    5  C   UNL     1      -9.340  10.541  66.503  1.00  0.00    -0.163 A  
HETATM    6  C   UNL     1     -10.995  12.580  65.540  1.00  0.00    -0.322 A  
HETATM    7  C   UNL     1      -9.955  10.444  65.243  1.00  0.00    -0.376 A  
HETATM    8  C   UNL     1     -10.764  11.456  64.753  1.00  0.00    -0.362 A  
ENDROOT
BRANCH   5   9
HETATM    9  N   UNL     1      -8.722   9.402  67.099  1.00  0.00    -0.127 NA 
HETATM   10  H   UNL     1      -7.783   9.520  67.478  1.00  0.00     0.000 HD 
BRANCH   9  11
HETATM   11  C   UNL     1      -9.316   8.111  67.207  1.00  0.00    -0.141 A  
HETATM   12  C   UNL     1     -10.276   7.858  68.202  1.00  0.00    -0.248 A  
HETATM   13  C   UNL     1     -11.020   6.679  68.225  1.00  0.00    -0.321 A  
HETATM   14  C   UNL     1     -10.778   5.696  67.274  1.00  0.00    -0.299 A  
HETATM   15  C   UNL     1      -9.741   5.865  66.357  1.00  0.00    -0.168 A  
HETATM   16  C   UNL     1      -8.979   7.045  66.351  1.00  0.00    -0.175 A  
HETATM   17  C   UNL     1      -7.831   7.107  65.424  1.00  0.00    -0.119 C  
HETATM   18  O   UNL     1      -7.834   6.624  64.307  1.00  0.00    -0.111 OA 
HETATM   19  O   UNL     1      -6.748   7.700  65.981  1.00  0.00    -0.045 OA 
ENDBRANCH   9  11
ENDBRANCH   5   9
TORSDOF 2
ENDMDL
MODEL      213
REMARK 921   NORMALIZED FREE ENERGY PREDICTED BY IDOCK:   -3.40 KCAL/MOL
REMARK 922        TOTAL FREE ENERGY PREDICTED BY IDOCK:   -4.44 KCAL/MOL
REMARK 923 INTER-LIGAND FREE ENERGY PREDICTED BY IDOCK:   -3.74 KCAL/MOL
REMARK 924 INTRA-LIGAND FREE ENERGY PREDICTED BY IDOCK:   -0.70 KCAL/MOL
REMARK 927      BINDING AFFINITY PREDICTED BY RF-SCORE:    0.00 PKD
ROOT
HETATM    1  C   UNL     1      -6.986   9.059  65.650  1.00  0.00    -0.080 C  
HETATM    2  C   UNL     1      -8.266   9.026  66.443  1.00  0.00    -0.111 A  
HETATM    3  C   UNL     1      -8.683   7.904  67.191  1.00  0.00    -0.133 A  
HETATM    4  C   UNL     1      -8.013   6.566  67.022  1.00  0.00    -0.112 C  
HETATM    5  C   UNL     1      -9.725   8.068  68.130  1.00  0.00    -0.160 A  
HETATM    6  C   UNL     1      -9.044  10.192  66.443  1.00  0.00    -0.176 A  
HETATM    7  C   UNL     1     -10.523   9.223  68.057  1.00  0.00    -0.275 A  
HETATM    8  C   UNL     1     -10.200  10.272  67.212  1.00  0.00    -0.267 A  
ENDROOT
BRANCH   5   9
HETATM    9  N   UNL     1      -9.923   7.115  69.173  1.00  0.00    -0.164 NA 
HETATM   10  H   UNL     1     -10.311   6.208  68.913  1.00  0.00     0.000 HD 
BRANCH   9  11
HETATM   11  C   UNL     1      -9.621   7.331  70.548  1.00  0.00    -0.168 A  
HETATM   12  C   UNL     1      -8.295   7.226  71.004  1.00  0.00    -0.119 A  
HETATM   13  C   UNL     1      -7.926   7.614  72.291  1.00  0.00    -0.123 A  
HETATM   14  C   UNL     1      -8.895   8.069  73.176  1.00  0.00    -0.318 A  
HETATM   15  C   UNL     1     -10.236   8.059  72.793  1.00  0.00    -0.389 A  
HETATM   16  C   UNL     1     -10.607   7.646  71.503  1.00  0.00    -0.239 A  
HETATM   17  C   UNL     1     -12.052   7.560  71.208  1.00  0.00    -0.323 C  
HETATM   18  O   UNL     1     -12.879   8.344  71.633  1.00  0.00    -0.319 OA 
HETATM   19  O   UNL     1     -12.363   6.469  70.467  1.00  0.00    -0.259 OA 
ENDBRANCH   9  11
ENDBRANCH   5   9
TORSDOF 2
ENDMDL
MODEL      214
REMARK 921   NORMALIZED FREE ENERGY PREDICTED BY IDOCK:   -3.38 KCAL/MOL
REMARK 922        TOTAL FREE ENERGY PREDICTED BY IDOCK:   -4.42 KCAL/MOL
REMARK 923 INTER-LIGAND FREE ENERGY PREDICTED BY IDOCK:   -3.84 KCAL/MOL
REMARK 924 INTRA-LIGAND FREE ENERGY PREDICTED BY IDOCK:   -0.59 KCAL/MOL
REMARK 927      BINDING AFFINITY PREDICTED BY RF-SCORE:    0.00 PKD
ROOT
HETATM    1  C   UNL     1      -7.822  18.399  68.165  1.00  0.00    -0.304 C  
HETATM    2  C   UNL     1      -8.992  17.452  68.176  1.00  0.00    -0.260 A  
HETATM    3  C   UNL     1      -9.217  16.489  67.168  1.00  0.00    -0.226 A  
HETATM    4  C   UNL     1      -8.455  16.533  65.870  1.00  0.00    -0.016 C  
HETATM    5  C   UNL     1     -10.152  15.460  67.414  1.00  0.00    -0.233 A  
HETATM    6  C   UNL     1      -9.865  17.532  69.270  1.00  0.00    -0.056 A  
HETATM    7  C   UNL     1     -11.053  15.608  68.483  1.00  0.00    -0.322 A  
HETATM    8  C   UNL     1     -10.925  16.641  69.397  1.00  0.00    -0.235 A  
ENDROOT
BRANCH   5   9
HETATM    9  N   UNL     1     -10.141  14.264  66.636  1.00  0.00    -0.266 NA 
HETATM   10  H   UNL     1     -10.780  14.214  65.842  1.00  0.00     0.000 HD 
BRANCH   9  11
HETATM   11  C   UNL     1      -9.307  13.135  66.881  1.00  0.00    -0.246 A  
HETATM   12  C   UNL     1      -8.353  13.175  67.912  1.00  0.00    -0.170 A  
HETATM   13  C   UNL     1      -7.652  12.038  68.312  1.00  0.00    -0.117 A  
HETATM   14  C   UNL     1      -7.856  10.836  67.645  1.00  0.00    -0.109 A  
HETATM   15  C   UNL     1      -8.698  10.800  66.534  1.00  0.00    -0.154 A  
HETATM   16  C   UNL     1      -9.384  11.953  66.120  1.00  0.00    -0.228 A  
HETATM   17  C   UNL     1     -10.171  11.863  64.874  1.00  0.00    -0.271 C  
HETATM   18  O   UNL     1     -10.801  10.878  64.538  1.00  0.00    -0.279 OA 
HETATM   19  O   UNL     1     -10.058  12.976  64.110  1.00  0.00    -0.344 OA 
ENDBRANCH   9  11
ENDBRANCH   5   9
TORSDOF 2
ENDMDL
MODEL      215
REMARK 921   NORMALIZED FREE ENERGY PREDICTED BY IDOCK:   -3.37 KCAL/MOL
REMARK 922        TOTAL FREE ENERGY PREDICTED BY IDOCK:   -4.41 KCAL/MOL
REMARK 923 INTER-LIGAND FREE ENERGY PREDICTED BY IDOCK:   -4.01 KCAL/MOL
REMARK 924 INTRA-LIGAND FREE ENERGY PREDICTED BY IDOCK:   -0.40 KCAL/MOL
REMARK 927      BINDING AFFINITY PREDICTED BY RF-SCORE:    0.00 PKD
ROOT
HETATM    1  C   UNL     1      -6.257  15.776  69.693  1.00  0.00    -0.169 C  
HETATM    2  C   UNL     1      -7.354  15.933  68.673  1.00  0.00    -0.141 A  
HETATM    3  C   UNL     1      -7.950  14.841  68.004  1.00  0.00    -0.138 A  
HETATM    4  C   UNL     1      -7.336  13.468  68.063  1.00  0.00    -0.133 C  
HETATM    5  C   UNL     1      -9.157  15.057  67.303  1.00  0.00    -0.201 A  
HETATM    6  C   UNL     1      -7.805  17.236  68.420  1.00  0.00    -0.254 A  
HETATM    7  C   UNL     1      -9.542  16.377  67.013  1.00  0.00    -0.244 A  
HETATM    8  C   UNL     1      -8.868  17.461  67.551  1.00  0.00    -0.224 A  
ENDROOT
BRANCH   5   9
HETATM    9  N   UNL     1     -10.001  13.961  66.953  1.00  0.00    -0.258 NA 
HETATM   10  H   UNL     1     -10.138  13.772  65.960  1.00  0.00     0.000 HD 
BRANCH   9  11
HETATM   11  C   UNL     1     -10.667  13.112  67.882  1.00  0.00    -0.235 A  
HETATM   12  C   UNL     1     -11.147  13.634  69.096  1.00  0.00    -0.275 A  
HETATM   13  C   UNL     1     -11.967  12.892  69.945  1.00  0.00    -0.377 A  
HETATM   14  C   UNL     1     -12.285  11.579  69.617  1.00  0.00    -0.296 A  
HETATM   15  C   UNL     1     -11.716  10.995  68.486  1.00  0.00    -0.348 A  
HETATM   16  C   UNL     1     -10.871  11.739  67.647  1.00  0.00    -0.263 A  
HETATM   17  C   UNL     1     -10.222  11.022  66.530  1.00  0.00    -0.234 C  
HETATM   18  O   UNL     1     -10.760  10.142  65.884  1.00  0.00    -0.040 OA 
HETATM   19  O   UNL     1      -8.934  11.403  66.351  1.00  0.00    -0.182 OA 
ENDBRANCH   9  11
ENDBRANCH   5   9
TORSDOF 2
ENDMDL
MODEL      216
REMARK 921   NORMALIZED FREE ENERGY PREDICTED BY IDOCK:   -3.37 KCAL/MOL
REMARK 922        TOTAL FREE ENERGY PREDICTED BY IDOCK:   -4.41 KCAL/MOL
REMARK 923 INTER-LIGAND FREE ENERGY PREDICTED BY IDOCK:   -4.17 KCAL/MOL
REMARK 924 INTRA-LIGAND FREE ENERGY PREDICTED BY IDOCK:   -0.24 KCAL/MOL
REMARK 927      BINDING AFFINITY PREDICTED BY RF-SCORE:    0.00 PKD
ROOT
HETATM    1  C   UNL     1      -8.909   6.790  74.432  1.00  0.00    -0.204 C  
HETATM    2  C   UNL     1      -9.630   7.607  73.394  1.00  0.00    -0.346 A  
HETATM    3  C   UNL     1      -8.964   8.401  72.434  1.00  0.00    -0.309 A  
HETATM    4  C   UNL     1      -7.494   8.702  72.563  1.00  0.00    -0.007 C  
HETATM    5  C   UNL     1      -9.699   8.883  71.329  1.00  0.00    -0.289 A  
HETATM    6  C   UNL     1     -11.029   7.531  73.384  1.00  0.00    -0.259 A  
HETATM    7  C   UNL     1     -11.102   8.847  71.385  1.00  0.00    -0.376 A  
HETATM    8  C   UNL     1     -11.768   8.192  72.408  1.00  0.00    -0.461 A  
ENDROOT
BRANCH   5   9
HETATM    9  N   UNL     1      -9.031   9.336  70.152  1.00  0.00    -0.194 NA 
HETATM   10  H   UNL     1      -8.040   9.563  70.232  1.00  0.00     0.000 HD 
BRANCH   9  11
HETATM   11  C   UNL     1      -9.641   9.496  68.875  1.00  0.00    -0.156 A  
HETATM   12  C   UNL     1     -10.508  10.577  68.638  1.00  0.00    -0.211 A  
HETATM   13  C   UNL     1     -10.974  10.882  67.360  1.00  0.00    -0.353 A  
HETATM   14  C   UNL     1     -10.621  10.071  66.289  1.00  0.00    -0.115 A  
HETATM   15  C   UNL     1      -9.870   8.918  66.517  1.00  0.00    -0.344 A  
HETATM   16  C   UNL     1      -9.423   8.602  67.810  1.00  0.00    -0.165 A  
HETATM   17  C   UNL     1      -8.727   7.311  67.990  1.00  0.00    -0.127 C  
HETATM   18  O   UNL     1      -7.966   6.830  67.171  1.00  0.00    -0.113 OA 
HETATM   19  O   UNL     1      -9.084   6.688  69.138  1.00  0.00    -0.137 OA 
ENDBRANCH   9  11
ENDBRANCH   5   9
TORSDOF 2
ENDMDL
MODEL      217
REMARK 921   NORMALIZED FREE ENERGY PREDICTED BY IDOCK:   -3.35 KCAL/MOL
REMARK 922        TOTAL FREE ENERGY PREDICTED BY IDOCK:   -4.39 KCAL/MOL
REMARK 923 INTER-LIGAND FREE ENERGY PREDICTED BY IDOCK:   -3.77 KCAL/MOL
REMARK 924 INTRA-LIGAND FREE ENERGY PREDICTED BY IDOCK:   -0.62 KCAL/MOL
REMARK 927      BINDING AFFINITY PREDICTED BY RF-SCORE:    0.00 PKD
ROOT
HETATM    1  C   UNL     1      -5.824   7.653  73.621  1.00  0.00    -0.056 C  
HETATM    2  C   UNL     1      -6.819   6.967  72.723  1.00  0.00    -0.070 A  
HETATM    3  C   UNL     1      -8.197   7.277  72.716  1.00  0.00    -0.125 A  
HETATM    4  C   UNL     1      -8.807   8.120  73.804  1.00  0.00    -0.265 C  
HETATM    5  C   UNL     1      -8.990   6.805  71.646  1.00  0.00    -0.136 A  
HETATM    6  C   UNL     1      -6.319   5.999  71.841  1.00  0.00    -0.046 A  
HETATM    7  C   UNL     1      -8.475   5.790  70.822  1.00  0.00    -0.125 A  
HETATM    8  C   UNL     1      -7.157   5.375  70.924  1.00  0.00    -0.064 A  
ENDROOT
BRANCH   5   9
HETATM    9  N   UNL     1     -10.259   7.393  71.366  1.00  0.00    -0.188 NA 
HETATM   10  H   UNL     1     -11.091   6.865  71.631  1.00  0.00     0.000 HD 
BRANCH   9  11
HETATM   11  C   UNL     1     -10.456   8.661  70.747  1.00  0.00    -0.204 A  
HETATM   12  C   UNL     1      -9.411   9.261  70.023  1.00  0.00    -0.232 A  
HETATM   13  C   UNL     1      -9.613  10.400  69.244  1.00  0.00    -0.226 A  
HETATM   14  C   UNL     1     -10.866  10.999  69.217  1.00  0.00    -0.285 A  
HETATM   15  C   UNL     1     -11.885  10.501  70.028  1.00  0.00    -0.388 A  
HETATM   16  C   UNL     1     -11.671   9.368  70.829  1.00  0.00    -0.349 A  
HETATM   17  C   UNL     1     -12.761   8.965  71.741  1.00  0.00    -0.364 C  
HETATM   18  O   UNL     1     -13.943   9.044  71.462  1.00  0.00    -0.373 OA 
HETATM   19  O   UNL     1     -12.301   8.564  72.950  1.00  0.00    -0.275 OA 
ENDBRANCH   9  11
ENDBRANCH   5   9
TORSDOF 2
ENDMDL
MODEL      218
REMARK 921   NORMALIZED FREE ENERGY PREDICTED BY IDOCK:   -3.34 KCAL/MOL
REMARK 922        TOTAL FREE ENERGY PREDICTED BY IDOCK:   -4.38 KCAL/MOL
REMARK 923 INTER-LIGAND FREE ENERGY PREDICTED BY IDOCK:   -3.71 KCAL/MOL
REMARK 924 INTRA-LIGAND FREE ENERGY PREDICTED BY IDOCK:   -0.67 KCAL/MOL
REMARK 927      BINDING AFFINITY PREDICTED BY RF-SCORE:    0.00 PKD
ROOT
HETATM    1  C   UNL     1     -11.830   9.974  71.127  1.00  0.00    -0.481 C  
HETATM    2  C   UNL     1     -11.495   8.538  70.825  1.00  0.00    -0.281 A  
HETATM    3  C   UNL     1     -10.806   8.133  69.661  1.00  0.00    -0.162 A  
HETATM    4  C   UNL     1     -10.606   9.082  68.509  1.00  0.00    -0.196 C  
HETATM    5  C   UNL     1     -10.277   6.824  69.610  1.00  0.00    -0.187 A  
HETATM    6  C   UNL     1     -11.870   7.583  71.780  1.00  0.00    -0.327 A  
HETATM    7  C   UNL     1     -10.727   5.878  70.547  1.00  0.00    -0.363 A  
HETATM    8  C   UNL     1     -11.528   6.244  71.616  1.00  0.00    -0.351 A  
ENDROOT
BRANCH   5   9
HETATM    9  N   UNL     1      -9.259   6.486  68.669  1.00  0.00    -0.128 NA 
HETATM   10  H   UNL     1      -8.377   6.995  68.728  1.00  0.00     0.000 HD 
BRANCH   9  11
HETATM   11  C   UNL     1      -9.379   5.493  67.655  1.00  0.00    -0.112 A  
HETATM   12  C   UNL     1     -10.500   5.483  66.808  1.00  0.00    -0.355 A  
HETATM   13  C   UNL     1     -10.569   4.656  65.687  1.00  0.00    -0.241 A  
HETATM   14  C   UNL     1      -9.529   3.776  65.418  1.00  0.00    -0.168 A  
HETATM   15  C   UNL     1      -8.466   3.672  66.315  1.00  0.00    -0.111 A  
HETATM   16  C   UNL     1      -8.412   4.489  67.455  1.00  0.00    -0.103 A  
HETATM   17  C   UNL     1      -7.313   4.247  68.412  1.00  0.00    -0.060 C  
HETATM   18  O   UNL     1      -6.183   3.938  68.084  1.00  0.00    -0.031 OA 
HETATM   19  O   UNL     1      -7.720   4.338  69.701  1.00  0.00    -0.053 OA 
ENDBRANCH   9  11
ENDBRANCH   5   9
TORSDOF 2
ENDMDL
MODEL      219
REMARK 921   NORMALIZED FREE ENERGY PREDICTED BY IDOCK:   -3.34 KCAL/MOL
REMARK 922        TOTAL FREE ENERGY PREDICTED BY IDOCK:   -4.37 KCAL/MOL
REMARK 923 INTER-LIGAND FREE ENERGY PREDICTED BY IDOCK:   -3.87 KCAL/MOL
REMARK 924 INTRA-LIGAND FREE ENERGY PREDICTED BY IDOCK:   -0.50 KCAL/MOL
REMARK 927      BINDING AFFINITY PREDICTED BY RF-SCORE:    0.00 PKD
ROOT
HETATM    1  C   UNL     1      -7.637   5.781  72.163  1.00  0.00    -0.101 C  
HETATM    2  C   UNL     1      -8.648   6.244  71.148  1.00  0.00    -0.125 A  
HETATM    3  C   UNL     1      -8.589   7.507  70.519  1.00  0.00    -0.138 A  
HETATM    4  C   UNL     1      -7.667   8.584  71.028  1.00  0.00    -0.104 C  
HETATM    5  C   UNL     1      -9.391   7.731  69.378  1.00  0.00    -0.152 A  
HETATM    6  C   UNL     1      -9.668   5.344  70.809  1.00  0.00    -0.239 A  
HETATM    7  C   UNL     1     -10.443   6.840  69.108  1.00  0.00    -0.240 A  
HETATM    8  C   UNL     1     -10.595   5.663  69.823  1.00  0.00    -0.400 A  
ENDROOT
BRANCH   5   9
HETATM    9  N   UNL     1      -9.098   8.802  68.481  1.00  0.00    -0.138 NA 
HETATM   10  H   UNL     1      -8.146   8.868  68.122  1.00  0.00     0.000 HD 
BRANCH   9  11
HETATM   11  C   UNL     1     -10.033   9.785  68.048  1.00  0.00    -0.158 A  
HETATM   12  C   UNL     1     -11.062  10.207  68.908  1.00  0.00    -0.251 A  
HETATM   13  C   UNL     1     -11.878  11.296  68.603  1.00  0.00    -0.369 A  
HETATM   14  C   UNL     1     -11.714  11.959  67.394  1.00  0.00    -0.326 A  
HETATM   15  C   UNL     1     -10.789  11.480  66.466  1.00  0.00    -0.335 A  
HETATM   16  C   UNL     1      -9.986  10.369  66.767  1.00  0.00    -0.256 A  
HETATM   17  C   UNL     1      -9.109   9.855  65.696  1.00  0.00    -0.178 C  
HETATM   18  O   UNL     1      -8.531  10.564  64.893  1.00  0.00    -0.176 OA 
HETATM   19  O   UNL     1      -9.074   8.501  65.661  1.00  0.00    -0.187 OA 
ENDBRANCH   9  11
ENDBRANCH   5   9
TORSDOF 2
ENDMDL
MODEL      220
REMARK 921   NORMALIZED FREE ENERGY PREDICTED BY IDOCK:   -3.33 KCAL/MOL
REMARK 922        TOTAL FREE ENERGY PREDICTED BY IDOCK:   -4.37 KCAL/MOL
REMARK 923 INTER-LIGAND FREE ENERGY PREDICTED BY IDOCK:   -4.08 KCAL/MOL
REMARK 924 INTRA-LIGAND FREE ENERGY PREDICTED BY IDOCK:   -0.28 KCAL/MOL
REMARK 927      BINDING AFFINITY PREDICTED BY RF-SCORE:    0.00 PKD
ROOT
HETATM    1  C   UNL     1      -7.084   8.390  65.251  1.00  0.00    -0.075 C  
HETATM    2  C   UNL     1      -8.212   8.731  66.189  1.00  0.00    -0.117 A  
HETATM    3  C   UNL     1      -8.150   9.794  67.117  1.00  0.00    -0.116 A  
HETATM    4  C   UNL     1      -6.845  10.481  67.423  1.00  0.00    -0.076 C  
HETATM    5  C   UNL     1      -9.347  10.223  67.732  1.00  0.00    -0.144 A  
HETATM    6  C   UNL     1      -9.377   7.959  66.090  1.00  0.00    -0.188 A  
HETATM    7  C   UNL     1     -10.476   9.390  67.664  1.00  0.00    -0.328 A  
HETATM    8  C   UNL     1     -10.493   8.259  66.865  1.00  0.00    -0.365 A  
ENDROOT
BRANCH   5   9
HETATM    9  N   UNL     1      -9.427  11.505  68.353  1.00  0.00    -0.192 NA 
HETATM   10  H   UNL     1      -9.579  11.531  69.361  1.00  0.00     0.000 HD 
BRANCH   9  11
HETATM   11  C   UNL     1      -9.312  12.752  67.674  1.00  0.00    -0.191 A  
HETATM   12  C   UNL     1      -8.140  13.518  67.801  1.00  0.00    -0.177 A  
HETATM   13  C   UNL     1      -7.905  14.642  67.010  1.00  0.00    -0.056 A  
HETATM   14  C   UNL     1      -8.872  15.059  66.104  1.00  0.00    -0.047 A  
HETATM   15  C   UNL     1     -10.098  14.395  66.052  1.00  0.00    -0.338 A  
HETATM   16  C   UNL     1     -10.339  13.277  66.867  1.00  0.00    -0.255 A  
HETATM   17  C   UNL     1     -11.696  12.694  66.834  1.00  0.00    -0.383 C  
HETATM   18  O   UNL     1     -12.377  12.615  65.829  1.00  0.00    -0.594 OA 
HETATM   19  O   UNL     1     -12.128  12.322  68.063  1.00  0.00    -0.439 OA 
ENDBRANCH   9  11
ENDBRANCH   5   9
TORSDOF 2
ENDMDL
MODEL      221
REMARK 921   NORMALIZED FREE ENERGY PREDICTED BY IDOCK:   -3.33 KCAL/MOL
REMARK 922        TOTAL FREE ENERGY PREDICTED BY IDOCK:   -4.36 KCAL/MOL
REMARK 923 INTER-LIGAND FREE ENERGY PREDICTED BY IDOCK:   -3.70 KCAL/MOL
REMARK 924 INTRA-LIGAND FREE ENERGY PREDICTED BY IDOCK:   -0.66 KCAL/MOL
REMARK 927      BINDING AFFINITY PREDICTED BY RF-SCORE:    0.00 PKD
ROOT
HETATM    1  C   UNL     1      -9.044   1.811  65.153  1.00  0.00    -0.112 C  
HETATM    2  C   UNL     1      -8.584   3.221  65.409  1.00  0.00    -0.112 A  
HETATM    3  C   UNL     1      -9.435   4.343  65.301  1.00  0.00    -0.172 A  
HETATM    4  C   UNL     1     -10.789   4.230  64.651  1.00  0.00    -0.097 C  
HETATM    5  C   UNL     1      -9.004   5.573  65.845  1.00  0.00    -0.154 A  
HETATM    6  C   UNL     1      -7.250   3.394  65.802  1.00  0.00    -0.067 A  
HETATM    7  C   UNL     1      -7.644   5.727  66.167  1.00  0.00    -0.090 A  
HETATM    8  C   UNL     1      -6.767   4.656  66.133  1.00  0.00    -0.050 A  
ENDROOT
BRANCH   5   9
HETATM    9  N   UNL     1      -9.938   6.614  66.123  1.00  0.00    -0.410 NA 
HETATM   10  H   UNL     1     -10.337   7.113  65.328  1.00  0.00     0.000 HD 
BRANCH   9  11
HETATM   11  C   UNL     1     -10.358   7.011  67.426  1.00  0.00    -0.244 A  
HETATM   12  C   UNL     1     -11.010   6.093  68.267  1.00  0.00    -0.397 A  
HETATM   13  C   UNL     1     -11.265   6.374  69.608  1.00  0.00    -0.483 A  
HETATM   14  C   UNL     1     -10.917   7.615  70.127  1.00  0.00    -0.255 A  
HETATM   15  C   UNL     1     -10.389   8.591  69.283  1.00  0.00    -0.227 A  
HETATM   16  C   UNL     1     -10.155   8.311  67.927  1.00  0.00    -0.252 A  
HETATM   17  C   UNL     1      -9.698   9.427  67.073  1.00  0.00    -0.178 C  
HETATM   18  O   UNL     1      -8.929  10.294  67.444  1.00  0.00    -0.134 OA 
HETATM   19  O   UNL     1     -10.284   9.417  65.852  1.00  0.00    -0.259 OA 
ENDBRANCH   9  11
ENDBRANCH   5   9
TORSDOF 2
ENDMDL
MODEL      222
REMARK 921   NORMALIZED FREE ENERGY PREDICTED BY IDOCK:   -3.30 KCAL/MOL
REMARK 922        TOTAL FREE ENERGY PREDICTED BY IDOCK:   -4.33 KCAL/MOL
REMARK 923 INTER-LIGAND FREE ENERGY PREDICTED BY IDOCK:   -3.65 KCAL/MOL
REMARK 924 INTRA-LIGAND FREE ENERGY PREDICTED BY IDOCK:   -0.68 KCAL/MOL
REMARK 927      BINDING AFFINITY PREDICTED BY RF-SCORE:    0.00 PKD
ROOT
HETATM    1  C   UNL     1      -7.612   6.756  65.134  1.00  0.00    -0.098 C  
HETATM    2  C   UNL     1      -8.707   6.682  66.165  1.00  0.00    -0.154 A  
HETATM    3  C   UNL     1      -8.589   7.234  67.460  1.00  0.00    -0.122 A  
HETATM    4  C   UNL     1      -7.255   7.691  67.989  1.00  0.00    -0.097 C  
HETATM    5  C   UNL     1      -9.757   7.381  68.240  1.00  0.00    -0.152 A  
HETATM    6  C   UNL     1      -9.901   6.055  65.782  1.00  0.00     0.265 A  
HETATM    7  C   UNL     1     -10.916   6.686  67.856  1.00  0.00    -0.342 A  
HETATM    8  C   UNL     1     -10.989   6.014  66.647  1.00  0.00    -0.229 A  
ENDROOT
BRANCH   5   9
HETATM    9  N   UNL     1      -9.780   8.268  69.357  1.00  0.00    -0.175 NA 
HETATM   10  H   UNL     1      -9.321   7.958  70.214  1.00  0.00     0.000 HD 
BRANCH   9  11
HETATM   11  C   UNL     1     -10.393   9.554  69.370  1.00  0.00    -0.214 A  
HETATM   12  C   UNL     1      -9.854  10.600  68.600  1.00  0.00    -0.183 A  
HETATM   13  C   UNL     1     -10.523  11.811  68.430  1.00  0.00    -0.231 A  
HETATM   14  C   UNL     1     -11.734  12.023  69.078  1.00  0.00    -0.382 A  
HETATM   15  C   UNL     1     -12.226  11.054  69.951  1.00  0.00    -0.408 A  
HETATM   16  C   UNL     1     -11.537   9.844  70.138  1.00  0.00    -0.281 A  
HETATM   17  C   UNL     1     -12.062   8.915  71.158  1.00  0.00    -0.277 C  
HETATM   18  O   UNL     1     -13.247   8.740  71.372  1.00  0.00    -0.316 OA 
HETATM   19  O   UNL     1     -11.076   8.329  71.880  1.00  0.00    -0.254 OA 
ENDBRANCH   9  11
ENDBRANCH   5   9
TORSDOF 2
ENDMDL
MODEL      223
REMARK 921   NORMALIZED FREE ENERGY PREDICTED BY IDOCK:   -3.29 KCAL/MOL
REMARK 922        TOTAL FREE ENERGY PREDICTED BY IDOCK:   -4.32 KCAL/MOL
REMARK 923 INTER-LIGAND FREE ENERGY PREDICTED BY IDOCK:   -3.60 KCAL/MOL
REMARK 924 INTRA-LIGAND FREE ENERGY PREDICTED BY IDOCK:   -0.71 KCAL/MOL
REMARK 927      BINDING AFFINITY PREDICTED BY RF-SCORE:    0.00 PKD
ROOT
HETATM    1  C   UNL     1     -11.692   5.027  73.192  1.00  0.00    -0.211 C  
HETATM    2  C   UNL     1     -10.528   5.900  72.802  1.00  0.00    -0.239 A  
HETATM    3  C   UNL     1      -9.727   5.658  71.664  1.00  0.00    -0.196 A  
HETATM    4  C   UNL     1      -9.811   4.352  70.920  1.00  0.00    -0.266 C  
HETATM    5  C   UNL     1      -8.865   6.683  71.216  1.00  0.00    -0.133 A  
HETATM    6  C   UNL     1     -10.273   7.017  73.609  1.00  0.00    -0.396 A  
HETATM    7  C   UNL     1      -8.584   7.755  72.081  1.00  0.00    -0.166 A  
HETATM    8  C   UNL     1      -9.267   7.917  73.275  1.00  0.00    -0.346 A  
ENDROOT
BRANCH   5   9
HETATM    9  N   UNL     1      -8.341   6.665  69.889  1.00  0.00    -0.130 NA 
HETATM   10  H   UNL     1      -7.470   6.158  69.734  1.00  0.00     0.000 HD 
BRANCH   9  11
HETATM   11  C   UNL     1      -8.941   7.300  68.763  1.00  0.00    -0.129 A  
HETATM   12  C   UNL     1      -9.981   6.661  68.065  1.00  0.00    -0.157 A  
HETATM   13  C   UNL     1     -10.723   7.319  67.085  1.00  0.00    -0.413 A  
HETATM   14  C   UNL     1     -10.401   8.626  66.742  1.00  0.00    -0.336 A  
HETATM   15  C   UNL     1      -9.292   9.238  67.325  1.00  0.00    -0.161 A  
HETATM   16  C   UNL     1      -8.533   8.564  68.295  1.00  0.00    -0.135 A  
HETATM   17  C   UNL     1      -7.312   9.233  68.787  1.00  0.00    -0.075 C  
HETATM   18  O   UNL     1      -7.221  10.433  68.967  1.00  0.00    -0.073 OA 
HETATM   19  O   UNL     1      -6.279   8.371  68.949  1.00  0.00    -0.043 OA 
ENDBRANCH   9  11
ENDBRANCH   5   9
TORSDOF 2
ENDMDL
MODEL      224
REMARK 921   NORMALIZED FREE ENERGY PREDICTED BY IDOCK:   -3.28 KCAL/MOL
REMARK 922        TOTAL FREE ENERGY PREDICTED BY IDOCK:   -4.31 KCAL/MOL
REMARK 923 INTER-LIGAND FREE ENERGY PREDICTED BY IDOCK:   -3.64 KCAL/MOL
REMARK 924 INTRA-LIGAND FREE ENERGY PREDICTED BY IDOCK:   -0.67 KCAL/MOL
REMARK 927      BINDING AFFINITY PREDICTED BY RF-SCORE:    0.00 PKD
ROOT
HETATM    1  C   UNL     1     -10.250   9.755  66.098  1.00  0.00    -0.278 C  
HETATM    2  C   UNL     1      -9.486   9.156  67.249  1.00  0.00    -0.187 A  
HETATM    3  C   UNL     1      -9.699   9.527  68.595  1.00  0.00    -0.163 A  
HETATM    4  C   UNL     1     -10.509  10.747  68.944  1.00  0.00    -0.228 C  
HETATM    5  C   UNL     1      -9.163   8.708  69.614  1.00  0.00    -0.157 A  
HETATM    6  C   UNL     1      -8.547   8.162  66.941  1.00  0.00    -0.126 A  
HETATM    7  C   UNL     1      -8.177   7.766  69.273  1.00  0.00    -0.129 A  
HETATM    8  C   UNL     1      -7.857   7.502  67.952  1.00  0.00    -0.117 A  
ENDROOT
BRANCH   5   9
HETATM    9  N   UNL     1      -9.657   8.790  70.949  1.00  0.00    -0.201 NA 
HETATM   10  H   UNL     1      -9.560   9.682  71.433  1.00  0.00     0.000 HD 
BRANCH   9  11
HETATM   11  C   UNL     1     -10.278   7.722  71.659  1.00  0.00    -0.186 A  
HETATM   12  C   UNL     1     -11.631   7.415  71.430  1.00  0.00    -0.303 A  
HETATM   13  C   UNL     1     -12.225   6.268  71.954  1.00  0.00    -0.256 A  
HETATM   14  C   UNL     1     -11.484   5.422  72.770  1.00  0.00    -0.333 A  
HETATM   15  C   UNL     1     -10.180   5.771  73.120  1.00  0.00    -0.212 A  
HETATM   16  C   UNL     1      -9.593   6.940  72.609  1.00  0.00    -0.163 A  
HETATM   17  C   UNL     1      -8.250   7.299  73.109  1.00  0.00    -0.106 C  
HETATM   18  O   UNL     1      -7.379   6.487  73.359  1.00  0.00    -0.085 OA 
HETATM   19  O   UNL     1      -8.118   8.630  73.327  1.00  0.00    -0.408 OA 
ENDBRANCH   9  11
ENDBRANCH   5   9
TORSDOF 2
ENDMDL
MODEL      225
REMARK 921   NORMALIZED FREE ENERGY PREDICTED BY IDOCK:   -3.28 KCAL/MOL
REMARK 922        TOTAL FREE ENERGY PREDICTED BY IDOCK:   -4.31 KCAL/MOL
REMARK 923 INTER-LIGAND FREE ENERGY PREDICTED BY IDOCK:   -3.75 KCAL/MOL
REMARK 924 INTRA-LIGAND FREE ENERGY PREDICTED BY IDOCK:   -0.56 KCAL/MOL
REMARK 927      BINDING AFFINITY PREDICTED BY RF-SCORE:    0.00 PKD
ROOT
HETATM    1  C   UNL     1     -12.756  13.339  65.387  1.00  0.00    -0.460 C  
HETATM    2  C   UNL     1     -11.502  12.568  65.702  1.00  0.00    -0.400 A  
HETATM    3  C   UNL     1     -10.609  12.933  66.733  1.00  0.00    -0.268 A  
HETATM    4  C   UNL     1     -10.708  14.277  67.404  1.00  0.00    -0.282 C  
HETATM    5  C   UNL     1      -9.637  11.996  67.148  1.00  0.00    -0.192 A  
HETATM    6  C   UNL     1     -11.253  11.419  64.939  1.00  0.00    -0.180 A  
HETATM    7  C   UNL     1      -9.372  10.890  66.322  1.00  0.00    -0.203 A  
HETATM    8  C   UNL     1     -10.159  10.607  65.218  1.00  0.00    -0.363 A  
ENDROOT
BRANCH   5   9
HETATM    9  N   UNL     1      -8.984  12.133  68.409  1.00  0.00    -0.279 NA 
HETATM   10  H   UNL     1      -9.498  11.837  69.239  1.00  0.00     0.000 HD 
BRANCH   9  11
HETATM   11  C   UNL     1      -7.671  12.651  68.599  1.00  0.00    -0.066 A  
HETATM   12  C   UNL     1      -7.286  13.845  67.964  1.00  0.00    -0.141 A  
HETATM   13  C   UNL     1      -6.087  14.488  68.269  1.00  0.00    -0.118 A  
HETATM   14  C   UNL     1      -5.215  13.915  69.187  1.00  0.00    -0.077 A  
HETATM   15  C   UNL     1      -5.511  12.667  69.732  1.00  0.00    -0.092 A  
HETATM   16  C   UNL     1      -6.709  12.011  69.404  1.00  0.00    -0.070 A  
HETATM   17  C   UNL     1      -6.903  10.647  69.936  1.00  0.00    -0.149 C  
HETATM   18  O   UNL     1      -6.538  10.290  71.040  1.00  0.00    -0.337 OA 
HETATM   19  O   UNL     1      -7.471   9.815  69.029  1.00  0.00    -0.074 OA 
ENDBRANCH   9  11
ENDBRANCH   5   9
TORSDOF 2
ENDMDL
MODEL      226
REMARK 921   NORMALIZED FREE ENERGY PREDICTED BY IDOCK:   -3.23 KCAL/MOL
REMARK 922        TOTAL FREE ENERGY PREDICTED BY IDOCK:   -4.25 KCAL/MOL
REMARK 923 INTER-LIGAND FREE ENERGY PREDICTED BY IDOCK:   -3.85 KCAL/MOL
REMARK 924 INTRA-LIGAND FREE ENERGY PREDICTED BY IDOCK:   -0.40 KCAL/MOL
REMARK 927      BINDING AFFINITY PREDICTED BY RF-SCORE:    0.00 PKD
ROOT
HETATM    1  C   UNL     1     -11.249   9.613  71.028  1.00  0.00    -0.445 C  
HETATM    2  C   UNL     1     -11.156   8.679  69.851  1.00  0.00    -0.119 A  
HETATM    3  C   UNL     1     -11.074   9.126  68.514  1.00  0.00     0.117 A  
HETATM    4  C   UNL     1     -11.353  10.562  68.158  1.00  0.00    -0.324 C  
HETATM    5  C   UNL     1     -10.690   8.203  67.516  1.00  0.00    -0.156 A  
HETATM    6  C   UNL     1     -11.121   7.306  70.130  1.00  0.00    -0.281 A  
HETATM    7  C   UNL     1     -10.728   6.831  67.817  1.00  0.00    -0.334 A  
HETATM    8  C   UNL     1     -10.957   6.379  69.106  1.00  0.00    -0.416 A  
ENDROOT
BRANCH   5   9
HETATM    9  N   UNL     1     -10.210   8.656  66.251  1.00  0.00    -0.408 NA 
HETATM   10  H   UNL     1     -10.881   9.101  65.625  1.00  0.00     0.000 HD 
BRANCH   9  11
HETATM   11  C   UNL     1      -8.866   8.535  65.795  1.00  0.00    -0.190 A  
HETATM   12  C   UNL     1      -7.900   7.910  66.603  1.00  0.00    -0.102 A  
HETATM   13  C   UNL     1      -6.628   7.599  66.125  1.00  0.00    -0.049 A  
HETATM   14  C   UNL     1      -6.275   7.959  64.830  1.00  0.00    -0.045 A  
HETATM   15  C   UNL     1      -7.167   8.697  64.053  1.00  0.00    -0.092 A  
HETATM   16  C   UNL     1      -8.439   9.028  64.547  1.00  0.00    -0.191 A  
HETATM   17  C   UNL     1      -9.286   9.902  63.709  1.00  0.00    -0.243 C  
HETATM   18  O   UNL     1      -9.328   9.843  62.494  1.00  0.00    -0.291 OA 
HETATM   19  O   UNL     1      -9.958  10.824  64.439  1.00  0.00    -0.284 OA 
ENDBRANCH   9  11
ENDBRANCH   5   9
TORSDOF 2
ENDMDL
MODEL      227
REMARK 921   NORMALIZED FREE ENERGY PREDICTED BY IDOCK:   -3.22 KCAL/MOL
REMARK 922        TOTAL FREE ENERGY PREDICTED BY IDOCK:   -4.24 KCAL/MOL
REMARK 923 INTER-LIGAND FREE ENERGY PREDICTED BY IDOCK:   -3.69 KCAL/MOL
REMARK 924 INTRA-LIGAND FREE ENERGY PREDICTED BY IDOCK:   -0.55 KCAL/MOL
REMARK 927      BINDING AFFINITY PREDICTED BY RF-SCORE:    0.00 PKD
ROOT
HETATM    1  C   UNL     1      -8.395  18.051  66.448  1.00  0.00    -0.275 C  
HETATM    2  C   UNL     1      -9.097  16.720  66.501  1.00  0.00    -0.302 A  
HETATM    3  C   UNL     1      -8.742  15.695  67.405  1.00  0.00    -0.194 A  
HETATM    4  C   UNL     1      -7.457  15.761  68.188  1.00  0.00    -0.129 C  
HETATM    5  C   UNL     1      -9.636  14.616  67.587  1.00  0.00    -0.212 A  
HETATM    6  C   UNL     1     -10.170  16.531  65.620  1.00  0.00    -0.316 A  
HETATM    7  C   UNL     1     -10.662  14.424  66.645  1.00  0.00    -0.292 A  
HETATM    8  C   UNL     1     -10.922  15.361  65.659  1.00  0.00    -0.330 A  
ENDROOT
BRANCH   5   9
HETATM    9  N   UNL     1      -9.541  13.778  68.737  1.00  0.00    -0.401 NA 
HETATM   10  H   UNL     1      -8.690  13.839  69.295  1.00  0.00     0.000 HD 
BRANCH   9  11
HETATM   11  C   UNL     1     -10.544  12.861  69.167  1.00  0.00     0.049 A  
HETATM   12  C   UNL     1     -11.468  13.241  70.157  1.00  0.00    -0.038 A  
HETATM   13  C   UNL     1     -12.576  12.455  70.470  1.00  0.00    -0.169 A  
HETATM   14  C   UNL     1     -12.755  11.235  69.831  1.00  0.00    -0.033 A  
HETATM   15  C   UNL     1     -11.784  10.774  68.942  1.00  0.00    -0.338 A  
HETATM   16  C   UNL     1     -10.658  11.558  68.646  1.00  0.00    -0.236 A  
HETATM   17  C   UNL     1      -9.622  10.958  67.781  1.00  0.00    -0.164 C  
HETATM   18  O   UNL     1      -9.864  10.230  66.837  1.00  0.00    -0.182 OA 
HETATM   19  O   UNL     1      -8.367  11.253  68.197  1.00  0.00    -0.129 OA 
ENDBRANCH   9  11
ENDBRANCH   5   9
TORSDOF 2
ENDMDL
MODEL      228
REMARK 921   NORMALIZED FREE ENERGY PREDICTED BY IDOCK:   -3.21 KCAL/MOL
REMARK 922        TOTAL FREE ENERGY PREDICTED BY IDOCK:   -4.23 KCAL/MOL
REMARK 923 INTER-LIGAND FREE ENERGY PREDICTED BY IDOCK:   -4.01 KCAL/MOL
REMARK 924 INTRA-LIGAND FREE ENERGY PREDICTED BY IDOCK:   -0.22 KCAL/MOL
REMARK 927      BINDING AFFINITY PREDICTED BY RF-SCORE:    0.00 PKD
ROOT
HETATM    1  C   UNL     1     -11.136   7.919  72.840  1.00  0.00    -0.442 C  
HETATM    2  C   UNL     1     -11.048   7.776  71.344  1.00  0.00    -0.268 A  
HETATM    3  C   UNL     1     -11.221   8.857  70.452  1.00  0.00    -0.259 A  
HETATM    4  C   UNL     1     -11.781  10.172  70.928  1.00  0.00    -0.468 C  
HETATM    5  C   UNL     1     -10.827   8.693  69.106  1.00  0.00    -0.039 A  
HETATM    6  C   UNL     1     -10.748   6.502  70.843  1.00  0.00    -0.289 A  
HETATM    7  C   UNL     1     -10.596   7.392  68.626  1.00  0.00    -0.182 A  
HETATM    8  C   UNL     1     -10.571   6.301  69.478  1.00  0.00    -0.331 A  
ENDROOT
BRANCH   5   9
HETATM    9  N   UNL     1     -10.604   9.826  68.269  1.00  0.00    -0.220 NA 
HETATM   10  H   UNL     1     -11.194  10.644  68.418  1.00  0.00     0.000 HD 
BRANCH   9  11
HETATM   11  C   UNL     1      -9.620   9.903  67.241  1.00  0.00    -0.160 A  
HETATM   12  C   UNL     1      -9.756   9.129  66.075  1.00  0.00    -0.358 A  
HETATM   13  C   UNL     1      -8.928   9.312  64.968  1.00  0.00    -0.245 A  
HETATM   14  C   UNL     1      -7.902  10.247  65.026  1.00  0.00    -0.133 A  
HETATM   15  C   UNL     1      -7.662  10.934  66.215  1.00  0.00    -0.147 A  
HETATM   16  C   UNL     1      -8.484  10.730  67.336  1.00  0.00    -0.119 A  
HETATM   17  C   UNL     1      -8.103  11.411  68.590  1.00  0.00    -0.141 C  
HETATM   18  O   UNL     1      -7.629  12.531  68.637  1.00  0.00    -0.119 OA 
HETATM   19  O   UNL     1      -8.275  10.624  69.678  1.00  0.00    -0.092 OA 
ENDBRANCH   9  11
ENDBRANCH   5   9
TORSDOF 2
ENDMDL
MODEL      229
REMARK 921   NORMALIZED FREE ENERGY PREDICTED BY IDOCK:   -3.21 KCAL/MOL
REMARK 922        TOTAL FREE ENERGY PREDICTED BY IDOCK:   -4.23 KCAL/MOL
REMARK 923 INTER-LIGAND FREE ENERGY PREDICTED BY IDOCK:   -4.35 KCAL/MOL
REMARK 924 INTRA-LIGAND FREE ENERGY PREDICTED BY IDOCK:    0.12 KCAL/MOL
REMARK 927      BINDING AFFINITY PREDICTED BY RF-SCORE:    0.00 PKD
ROOT
HETATM    1  C   UNL     1      -8.549   8.315  65.398  1.00  0.00    -0.176 C  
HETATM    2  C   UNL     1      -9.075   8.758  66.738  1.00  0.00    -0.180 A  
HETATM    3  C   UNL     1      -9.733   9.990  66.941  1.00  0.00    -0.237 A  
HETATM    4  C   UNL     1      -9.707  11.066  65.888  1.00  0.00    -0.267 C  
HETATM    5  C   UNL     1     -10.448  10.183  68.144  1.00  0.00    -0.206 A  
HETATM    6  C   UNL     1      -8.915   7.868  67.809  1.00  0.00    -0.128 A  
HETATM    7  C   UNL     1     -10.212   9.306  69.216  1.00  0.00    -0.211 A  
HETATM    8  C   UNL     1      -9.442   8.166  69.062  1.00  0.00    -0.155 A  
ENDROOT
BRANCH   5   9
HETATM    9  N   UNL     1     -11.437  11.206  68.247  1.00  0.00    -0.338 NA 
HETATM   10  H   UNL     1     -12.386  10.975  67.950  1.00  0.00     0.000 HD 
BRANCH   9  11
HETATM   11  C   UNL     1     -11.203  12.525  68.732  1.00  0.00    -0.273 A  
HETATM   12  C   UNL     1     -10.364  13.399  68.020  1.00  0.00    -0.242 A  
HETATM   13  C   UNL     1     -10.258  14.750  68.349  1.00  0.00    -0.224 A  
HETATM   14  C   UNL     1     -10.956  15.247  69.442  1.00  0.00    -0.271 A  
HETATM   15  C   UNL     1     -11.692  14.375  70.244  1.00  0.00    -0.355 A  
HETATM   16  C   UNL     1     -11.777  13.011  69.923  1.00  0.00    -0.326 A  
HETATM   17  C   UNL     1     -12.484  12.132  70.877  1.00  0.00    -0.279 C  
HETATM   18  O   UNL     1     -13.477  12.463  71.497  1.00  0.00    -0.172 OA 
HETATM   19  O   UNL     1     -11.862  10.939  71.039  1.00  0.00    -0.310 OA 
ENDBRANCH   9  11
ENDBRANCH   5   9
TORSDOF 2
ENDMDL
MODEL      230
REMARK 921   NORMALIZED FREE ENERGY PREDICTED BY IDOCK:   -3.19 KCAL/MOL
REMARK 922        TOTAL FREE ENERGY PREDICTED BY IDOCK:   -4.21 KCAL/MOL
REMARK 923 INTER-LIGAND FREE ENERGY PREDICTED BY IDOCK:   -4.17 KCAL/MOL
REMARK 924 INTRA-LIGAND FREE ENERGY PREDICTED BY IDOCK:   -0.04 KCAL/MOL
REMARK 927      BINDING AFFINITY PREDICTED BY RF-SCORE:    0.00 PKD
ROOT
HETATM    1  C   UNL     1      -9.681   9.985  65.086  1.00  0.00    -0.380 C  
HETATM    2  C   UNL     1      -9.853   9.053  66.256  1.00  0.00    -0.361 A  
HETATM    3  C   UNL     1      -9.871   9.493  67.598  1.00  0.00    -0.206 A  
HETATM    4  C   UNL     1      -9.441  10.889  67.962  1.00  0.00    -0.167 C  
HETATM    5  C   UNL     1     -10.334   8.603  68.593  1.00  0.00    -0.193 A  
HETATM    6  C   UNL     1     -10.032   7.694  65.966  1.00  0.00     0.315 A  
HETATM    7  C   UNL     1     -10.439   7.237  68.280  1.00  0.00    -0.239 A  
HETATM    8  C   UNL     1     -10.276   6.778  66.984  1.00  0.00    -0.304 A  
ENDROOT
BRANCH   5   9
HETATM    9  N   UNL     1     -10.747   9.090  69.869  1.00  0.00    -0.227 NA 
HETATM   10  H   UNL     1     -10.162   9.795  70.316  1.00  0.00     0.000 HD 
BRANCH   9  11
HETATM   11  C   UNL     1     -11.915   8.667  70.567  1.00  0.00     0.051 A  
HETATM   12  C   UNL     1     -12.255   7.304  70.611  1.00  0.00    -0.186 A  
HETATM   13  C   UNL     1     -13.272   6.824  71.435  1.00  0.00    -0.177 A  
HETATM   14  C   UNL     1     -14.013   7.716  72.200  1.00  0.00    -0.202 A  
HETATM   15  C   UNL     1     -13.784   9.085  72.076  1.00  0.00    -0.516 A  
HETATM   16  C   UNL     1     -12.774   9.566  71.227  1.00  0.00    -0.416 A  
HETATM   17  C   UNL     1     -12.663  11.030  71.066  1.00  0.00    -0.386 C  
HETATM   18  O   UNL     1     -12.847  11.828  71.966  1.00  0.00    -0.322 OA 
HETATM   19  O   UNL     1     -12.404  11.391  69.786  1.00  0.00    -0.259 OA 
ENDBRANCH   9  11
ENDBRANCH   5   9
TORSDOF 2
ENDMDL
MODEL      231
REMARK 921   NORMALIZED FREE ENERGY PREDICTED BY IDOCK:   -3.09 KCAL/MOL
REMARK 922        TOTAL FREE ENERGY PREDICTED BY IDOCK:   -4.10 KCAL/MOL
REMARK 923 INTER-LIGAND FREE ENERGY PREDICTED BY IDOCK:   -3.38 KCAL/MOL
REMARK 924 INTRA-LIGAND FREE ENERGY PREDICTED BY IDOCK:   -0.71 KCAL/MOL
REMARK 927      BINDING AFFINITY PREDICTED BY RF-SCORE:    0.00 PKD
ROOT
HETATM    1  C   UNL     1      -9.340   6.373  74.329  1.00  0.00    -0.205 C  
HETATM    2  C   UNL     1      -9.674   7.303  73.193  1.00  0.00    -0.254 A  
HETATM    3  C   UNL     1      -8.744   7.671  72.196  1.00  0.00    -0.154 A  
HETATM    4  C   UNL     1      -7.277   7.376  72.358  1.00  0.00    -0.072 C  
HETATM    5  C   UNL     1      -9.224   8.293  71.022  1.00  0.00    -0.158 A  
HETATM    6  C   UNL     1     -10.988   7.786  73.132  1.00  0.00    -0.372 A  
HETATM    7  C   UNL     1     -10.527   8.821  71.024  1.00  0.00    -0.293 A  
HETATM    8  C   UNL     1     -11.401   8.587  72.072  1.00  0.00    -0.425 A  
ENDROOT
BRANCH   5   9
HETATM    9  N   UNL     1      -8.428   8.328  69.839  1.00  0.00    -0.125 NA 
HETATM   10  H   UNL     1      -7.651   8.988  69.815  1.00  0.00     0.000 HD 
BRANCH   9  11
HETATM   11  C   UNL     1      -8.634   7.513  68.689  1.00  0.00    -0.129 A  
HETATM   12  C   UNL     1      -8.162   6.189  68.671  1.00  0.00    -0.108 A  
HETATM   13  C   UNL     1      -8.505   5.299  67.653  1.00  0.00    -0.105 A  
HETATM   14  C   UNL     1      -9.291   5.736  66.595  1.00  0.00    -0.155 A  
HETATM   15  C   UNL     1      -9.663   7.078  66.522  1.00  0.00    -0.189 A  
HETATM   16  C   UNL     1      -9.297   7.976  67.537  1.00  0.00    -0.171 A  
HETATM   17  C   UNL     1      -9.634   9.400  67.336  1.00  0.00    -0.145 C  
HETATM   18  O   UNL     1     -10.658   9.787  66.806  1.00  0.00    -0.206 OA 
HETATM   19  O   UNL     1      -8.642  10.228  67.744  1.00  0.00    -0.118 OA 
ENDBRANCH   9  11
ENDBRANCH   5   9
TORSDOF 2
ENDMDL
MODEL      232
REMARK 921   NORMALIZED FREE ENERGY PREDICTED BY IDOCK:   -3.09 KCAL/MOL
REMARK 922        TOTAL FREE ENERGY PREDICTED BY IDOCK:   -4.09 KCAL/MOL
REMARK 923 INTER-LIGAND FREE ENERGY PREDICTED BY IDOCK:   -3.48 KCAL/MOL
REMARK 924 INTRA-LIGAND FREE ENERGY PREDICTED BY IDOCK:   -0.61 KCAL/MOL
REMARK 927      BINDING AFFINITY PREDICTED BY RF-SCORE:    0.00 PKD
ROOT
HETATM    1  C   UNL     1      -9.890  10.161  69.071  1.00  0.00    -0.211 C  
HETATM    2  C   UNL     1     -10.483   8.783  69.205  1.00  0.00    -0.228 A  
HETATM    3  C   UNL     1     -10.383   7.797  68.199  1.00  0.00    -0.248 A  
HETATM    4  C   UNL     1      -9.916   8.150  66.812  1.00  0.00    -0.349 C  
HETATM    5  C   UNL     1     -10.699   6.461  68.529  1.00  0.00    -0.288 A  
HETATM    6  C   UNL     1     -11.133   8.484  70.411  1.00  0.00    -0.246 A  
HETATM    7  C   UNL     1     -11.407   6.210  69.717  1.00  0.00    -0.452 A  
HETATM    8  C   UNL     1     -11.639   7.210  70.646  1.00  0.00    -0.354 A  
ENDROOT
BRANCH   5   9
HETATM    9  N   UNL     1     -10.253   5.383  67.709  1.00  0.00    -0.184 NA 
HETATM   10  H   UNL     1     -10.859   5.093  66.941  1.00  0.00     0.000 HD 
BRANCH   9  11
HETATM   11  C   UNL     1      -9.025   4.679  67.878  1.00  0.00    -0.114 A  
HETATM   12  C   UNL     1      -8.198   4.959  68.980  1.00  0.00    -0.082 A  
HETATM   13  C   UNL     1      -7.092   4.170  69.290  1.00  0.00    -0.050 A  
HETATM   14  C   UNL     1      -6.755   3.105  68.464  1.00  0.00    -0.044 A  
HETATM   15  C   UNL     1      -7.480   2.886  67.293  1.00  0.00    -0.065 A  
HETATM   16  C   UNL     1      -8.580   3.698  66.972  1.00  0.00    -0.113 A  
HETATM   17  C   UNL     1      -9.230   3.473  65.665  1.00  0.00    -0.158 C  
HETATM   18  O   UNL     1      -9.378   2.376  65.159  1.00  0.00    -0.137 OA 
HETATM   19  O   UNL     1      -9.581   4.632  65.057  1.00  0.00    -0.160 OA 
ENDBRANCH   9  11
ENDBRANCH   5   9
TORSDOF 2
ENDMDL
MODEL      233
REMARK 921   NORMALIZED FREE ENERGY PREDICTED BY IDOCK:   -3.08 KCAL/MOL
REMARK 922        TOTAL FREE ENERGY PREDICTED BY IDOCK:   -4.08 KCAL/MOL
REMARK 923 INTER-LIGAND FREE ENERGY PREDICTED BY IDOCK:   -4.90 KCAL/MOL
REMARK 924 INTRA-LIGAND FREE ENERGY PREDICTED BY IDOCK:    0.82 KCAL/MOL
REMARK 927      BINDING AFFINITY PREDICTED BY RF-SCORE:    0.00 PKD
ROOT
HETATM    1  C   UNL     1     -10.853  14.336  64.927  1.00  0.00    -0.429 C  
HETATM    2  C   UNL     1     -10.762  13.880  66.359  1.00  0.00    -0.281 A  
HETATM    3  C   UNL     1      -9.679  14.204  67.206  1.00  0.00    -0.236 A  
HETATM    4  C   UNL     1      -8.410  14.794  66.650  1.00  0.00    -0.004 C  
HETATM    5  C   UNL     1      -9.821  13.993  68.595  1.00  0.00    -0.191 A  
HETATM    6  C   UNL     1     -11.833  13.125  66.857  1.00  0.00    -0.444 A  
HETATM    7  C   UNL     1     -10.872  13.178  69.049  1.00  0.00    -0.202 A  
HETATM    8  C   UNL     1     -11.863  12.732  68.190  1.00  0.00    -0.372 A  
ENDROOT
BRANCH   5   9
HETATM    9  N   UNL     1      -8.957  14.646  69.523  1.00  0.00    -0.405 NA 
HETATM   10  H   UNL     1      -8.792  14.185  70.418  1.00  0.00     0.000 HD 
BRANCH   9  11
HETATM   11  C   UNL     1      -8.306  15.894  69.298  1.00  0.00    -0.238 A  
HETATM   12  C   UNL     1      -6.918  16.008  69.486  1.00  0.00    -0.191 A  
HETATM   13  C   UNL     1      -6.213  17.146  69.096  1.00  0.00    -0.212 A  
HETATM   14  C   UNL     1      -6.898  18.226  68.554  1.00  0.00    -0.255 A  
HETATM   15  C   UNL     1      -8.290  18.190  68.478  1.00  0.00    -0.314 A  
HETATM   16  C   UNL     1      -8.999  17.051  68.893  1.00  0.00    -0.210 A  
HETATM   17  C   UNL     1     -10.474  17.128  68.884  1.00  0.00    -0.346 C  
HETATM   18  O   UNL     1     -11.117  17.716  68.034  1.00  0.00    -0.219 OA 
HETATM   19  O   UNL     1     -11.029  16.533  69.966  1.00  0.00    -0.350 OA 
ENDBRANCH   9  11
ENDBRANCH   5   9
TORSDOF 2
ENDMDL
MODEL      234
REMARK 921   NORMALIZED FREE ENERGY PREDICTED BY IDOCK:   -3.07 KCAL/MOL
REMARK 922        TOTAL FREE ENERGY PREDICTED BY IDOCK:   -4.07 KCAL/MOL
REMARK 923 INTER-LIGAND FREE ENERGY PREDICTED BY IDOCK:   -4.39 KCAL/MOL
REMARK 924 INTRA-LIGAND FREE ENERGY PREDICTED BY IDOCK:    0.32 KCAL/MOL
REMARK 927      BINDING AFFINITY PREDICTED BY RF-SCORE:    0.00 PKD
ROOT
HETATM    1  C   UNL     1     -10.052   5.923  67.019  1.00  0.00    -0.221 C  
HETATM    2  C   UNL     1     -10.314   7.306  67.554  1.00  0.00    -0.310 A  
HETATM    3  C   UNL     1     -10.761   7.554  68.870  1.00  0.00    -0.135 A  
HETATM    4  C   UNL     1     -11.273   6.435  69.739  1.00  0.00    -0.484 C  
HETATM    5  C   UNL     1     -10.690   8.873  69.370  1.00  0.00    -0.181 A  
HETATM    6  C   UNL     1     -10.063   8.380  66.690  1.00  0.00    -0.358 A  
HETATM    7  C   UNL     1     -10.499   9.929  68.463  1.00  0.00    -0.232 A  
HETATM    8  C   UNL     1     -10.204   9.692  67.130  1.00  0.00    -0.305 A  
ENDROOT
BRANCH   5   9
HETATM    9  N   UNL     1     -10.743   9.123  70.774  1.00  0.00    -0.241 NA 
HETATM   10  H   UNL     1     -11.260   9.945  71.086  1.00  0.00     0.000 HD 
BRANCH   9  11
HETATM   11  C   UNL     1     -10.130   8.314  71.774  1.00  0.00    -0.224 A  
HETATM   12  C   UNL     1     -10.895   7.815  72.843  1.00  0.00    -0.453 A  
HETATM   13  C   UNL     1     -10.388   6.869  73.733  1.00  0.00    -0.409 A  
HETATM   14  C   UNL     1      -9.074   6.439  73.602  1.00  0.00    -0.140 A  
HETATM   15  C   UNL     1      -8.254   7.014  72.632  1.00  0.00    -0.117 A  
HETATM   16  C   UNL     1      -8.762   7.984  71.752  1.00  0.00    -0.178 A  
HETATM   17  C   UNL     1      -7.807   8.625  70.825  1.00  0.00    -0.107 C  
HETATM   18  O   UNL     1      -6.883   8.040  70.290  1.00  0.00    -0.037 OA 
HETATM   19  O   UNL     1      -8.032   9.954  70.689  1.00  0.00    -0.257 OA 
ENDBRANCH   9  11
ENDBRANCH   5   9
TORSDOF 2
ENDMDL
MODEL      235
REMARK 921   NORMALIZED FREE ENERGY PREDICTED BY IDOCK:   -3.06 KCAL/MOL
REMARK 922        TOTAL FREE ENERGY PREDICTED BY IDOCK:   -4.06 KCAL/MOL
REMARK 923 INTER-LIGAND FREE ENERGY PREDICTED BY IDOCK:   -3.98 KCAL/MOL
REMARK 924 INTRA-LIGAND FREE ENERGY PREDICTED BY IDOCK:   -0.08 KCAL/MOL
REMARK 927      BINDING AFFINITY PREDICTED BY RF-SCORE:    0.00 PKD
ROOT
HETATM    1  C   UNL     1      -6.864   5.933  66.331  1.00  0.00    -0.059 C  
HETATM    2  C   UNL     1      -7.834   7.070  66.142  1.00  0.00    -0.102 A  
HETATM    3  C   UNL     1      -9.123   7.089  66.718  1.00  0.00    -0.162 A  
HETATM    4  C   UNL     1      -9.718   5.848  67.329  1.00  0.00    -0.137 C  
HETATM    5  C   UNL     1      -9.835   8.309  66.738  1.00  0.00    -0.263 A  
HETATM    6  C   UNL     1      -7.395   8.161  65.380  1.00  0.00    -0.069 A  
HETATM    7  C   UNL     1      -9.399   9.358  65.910  1.00  0.00    -0.290 A  
HETATM    8  C   UNL     1      -8.199   9.285  65.223  1.00  0.00    -0.136 A  
ENDROOT
BRANCH   5   9
HETATM    9  N   UNL     1     -10.935   8.496  67.627  1.00  0.00    -0.481 NA 
HETATM   10  H   UNL     1     -11.647   7.766  67.655  1.00  0.00     0.000 HD 
BRANCH   9  11
HETATM   11  C   UNL     1     -11.116   9.623  68.479  1.00  0.00    -0.041 A  
HETATM   12  C   UNL     1     -10.933  10.923  67.977  1.00  0.00    -0.317 A  
HETATM   13  C   UNL     1     -11.283  12.054  68.713  1.00  0.00    -0.316 A  
HETATM   14  C   UNL     1     -11.779  11.907  70.002  1.00  0.00    -0.366 A  
HETATM   15  C   UNL     1     -11.847  10.637  70.573  1.00  0.00    -0.453 A  
HETATM   16  C   UNL     1     -11.472   9.502  69.836  1.00  0.00    -0.100 A  
HETATM   17  C   UNL     1     -11.469   8.205  70.542  1.00  0.00    -0.178 C  
HETATM   18  O   UNL     1     -12.291   7.887  71.381  1.00  0.00    -0.307 OA 
HETATM   19  O   UNL     1     -10.407   7.435  70.204  1.00  0.00    -0.206 OA 
ENDBRANCH   9  11
ENDBRANCH   5   9
TORSDOF 2
ENDMDL
MODEL      236
REMARK 921   NORMALIZED FREE ENERGY PREDICTED BY IDOCK:   -3.05 KCAL/MOL
REMARK 922        TOTAL FREE ENERGY PREDICTED BY IDOCK:   -4.05 KCAL/MOL
REMARK 923 INTER-LIGAND FREE ENERGY PREDICTED BY IDOCK:   -5.17 KCAL/MOL
REMARK 924 INTRA-LIGAND FREE ENERGY PREDICTED BY IDOCK:    1.12 KCAL/MOL
REMARK 927      BINDING AFFINITY PREDICTED BY RF-SCORE:    0.00 PKD
ROOT
HETATM    1  C   UNL     1     -13.659  15.089  72.696  1.00  0.00    -0.566 C  
HETATM    2  C   UNL     1     -12.852  14.775  71.464  1.00  0.00    -0.406 A  
HETATM    3  C   UNL     1     -12.529  13.459  71.066  1.00  0.00    -0.437 A  
HETATM    4  C   UNL     1     -12.733  12.295  71.999  1.00  0.00    -0.112 C  
HETATM    5  C   UNL     1     -12.038  13.251  69.758  1.00  0.00    -0.290 A  
HETATM    6  C   UNL     1     -12.443  15.861  70.678  1.00  0.00    -0.274 A  
HETATM    7  C   UNL     1     -11.579  14.359  69.026  1.00  0.00    -0.330 A  
HETATM    8  C   UNL     1     -11.763  15.653  69.483  1.00  0.00    -0.382 A  
ENDROOT
BRANCH   5   9
HETATM    9  N   UNL     1     -12.069  11.953  69.167  1.00  0.00    -0.251 NA 
HETATM   10  H   UNL     1     -12.751  11.789  68.426  1.00  0.00     0.000 HD 
BRANCH   9  11
HETATM   11  C   UNL     1     -11.222  10.867  69.531  1.00  0.00    -0.277 A  
HETATM   12  C   UNL     1     -11.435  10.182  70.740  1.00  0.00    -0.442 A  
HETATM   13  C   UNL     1     -10.759   9.001  71.047  1.00  0.00    -0.339 A  
HETATM   14  C   UNL     1      -9.808   8.506  70.165  1.00  0.00    -0.184 A  
HETATM   15  C   UNL     1      -9.482   9.235  69.022  1.00  0.00    -0.155 A  
HETATM   16  C   UNL     1     -10.149  10.436  68.728  1.00  0.00    -0.198 A  
HETATM   17  C   UNL     1      -9.676  11.206  67.559  1.00  0.00    -0.176 C  
HETATM   18  O   UNL     1      -9.285  10.698  66.525  1.00  0.00    -0.161 OA 
HETATM   19  O   UNL     1      -9.658  12.540  67.793  1.00  0.00    -0.191 OA 
ENDBRANCH   9  11
ENDBRANCH   5   9
TORSDOF 2
ENDMDL
MODEL      237
REMARK 921   NORMALIZED FREE ENERGY PREDICTED BY IDOCK:   -3.03 KCAL/MOL
REMARK 922        TOTAL FREE ENERGY PREDICTED BY IDOCK:   -4.03 KCAL/MOL
REMARK 923 INTER-LIGAND FREE ENERGY PREDICTED BY IDOCK:   -3.38 KCAL/MOL
REMARK 924 INTRA-LIGAND FREE ENERGY PREDICTED BY IDOCK:   -0.65 KCAL/MOL
REMARK 927      BINDING AFFINITY PREDICTED BY RF-SCORE:    0.00 PKD
ROOT
HETATM    1  C   UNL     1      -9.399   3.744  74.228  1.00  0.00    -0.112 C  
HETATM    2  C   UNL     1     -10.037   4.728  73.284  1.00  0.00    -0.196 A  
HETATM    3  C   UNL     1      -9.308   5.454  72.316  1.00  0.00    -0.158 A  
HETATM    4  C   UNL     1      -7.803   5.498  72.350  1.00  0.00    -0.103 C  
HETATM    5  C   UNL     1     -10.020   6.115  71.291  1.00  0.00    -0.182 A  
HETATM    6  C   UNL     1     -11.426   4.887  73.373  1.00  0.00    -0.306 A  
HETATM    7  C   UNL     1     -11.403   6.310  71.448  1.00  0.00    -0.353 A  
HETATM    8  C   UNL     1     -12.103   5.717  72.486  1.00  0.00    -0.084 A  
ENDROOT
BRANCH   5   9
HETATM    9  N   UNL     1      -9.362   6.519  70.091  1.00  0.00    -0.158 NA 
HETATM   10  H   UNL     1      -8.710   7.300  70.152  1.00  0.00     0.000 HD 
BRANCH   9  11
HETATM   11  C   UNL     1      -9.546   5.914  68.814  1.00  0.00    -0.128 A  
HETATM   12  C   UNL     1      -9.399   4.524  68.664  1.00  0.00    -0.199 A  
HETATM   13  C   UNL     1      -9.754   3.868  67.486  1.00  0.00    -0.164 A  
HETATM   14  C   UNL     1     -10.218   4.605  66.403  1.00  0.00    -0.293 A  
HETATM   15  C   UNL     1     -10.250   5.997  66.480  1.00  0.00    -0.200 A  
HETATM   16  C   UNL     1      -9.869   6.655  67.661  1.00  0.00    -0.150 A  
HETATM   17  C   UNL     1      -9.826   8.132  67.630  1.00  0.00    -0.169 C  
HETATM   18  O   UNL     1     -10.623   8.822  67.023  1.00  0.00    -0.282 OA 
HETATM   19  O   UNL     1      -8.757   8.631  68.297  1.00  0.00    -0.140 OA 
ENDBRANCH   9  11
ENDBRANCH   5   9
TORSDOF 2
ENDMDL
MODEL      238
REMARK 921   NORMALIZED FREE ENERGY PREDICTED BY IDOCK:   -3.01 KCAL/MOL
REMARK 922        TOTAL FREE ENERGY PREDICTED BY IDOCK:   -4.01 KCAL/MOL
REMARK 923 INTER-LIGAND FREE ENERGY PREDICTED BY IDOCK:   -3.40 KCAL/MOL
REMARK 924 INTRA-LIGAND FREE ENERGY PREDICTED BY IDOCK:   -0.61 KCAL/MOL
REMARK 927      BINDING AFFINITY PREDICTED BY RF-SCORE:    0.00 PKD
ROOT
HETATM    1  C   UNL     1      -9.265   8.226  72.919  1.00  0.00    -0.329 C  
HETATM    2  C   UNL     1     -10.039   7.796  71.702  1.00  0.00    -0.224 A  
HETATM    3  C   UNL     1      -9.921   8.432  70.446  1.00  0.00    -0.199 A  
HETATM    4  C   UNL     1      -9.219   9.757  70.311  1.00  0.00    -0.225 C  
HETATM    5  C   UNL     1     -10.447   7.782  69.308  1.00  0.00    -0.217 A  
HETATM    6  C   UNL     1     -10.888   6.690  71.845  1.00  0.00    -0.267 A  
HETATM    7  C   UNL     1     -11.344   6.716  69.495  1.00  0.00    -0.358 A  
HETATM    8  C   UNL     1     -11.579   6.180  70.750  1.00  0.00    -0.257 A  
ENDROOT
BRANCH   5   9
HETATM    9  N   UNL     1     -10.027   8.155  67.997  1.00  0.00    -0.176 NA 
HETATM   10  H   UNL     1     -10.618   8.807  67.481  1.00  0.00     0.000 HD 
BRANCH   9  11
HETATM   11  C   UNL     1      -8.846   7.687  67.351  1.00  0.00    -0.124 A  
HETATM   12  C   UNL     1      -8.072   6.675  67.945  1.00  0.00    -0.113 A  
HETATM   13  C   UNL     1      -7.023   6.055  67.267  1.00  0.00    -0.069 A  
HETATM   14  C   UNL     1      -6.690   6.477  65.986  1.00  0.00    -0.049 A  
HETATM   15  C   UNL     1      -7.356   7.566  65.425  1.00  0.00    -0.071 A  
HETATM   16  C   UNL     1      -8.396   8.203  66.121  1.00  0.00    -0.126 A  
HETATM   17  C   UNL     1      -8.980   9.414  65.509  1.00  0.00    -0.204 C  
HETATM   18  O   UNL     1      -9.150   9.556  64.313  1.00  0.00    -0.233 OA 
HETATM   19  O   UNL     1      -9.240  10.380  66.423  1.00  0.00    -0.157 OA 
ENDBRANCH   9  11
ENDBRANCH   5   9
TORSDOF 2
ENDMDL
MODEL      239
REMARK 921   NORMALIZED FREE ENERGY PREDICTED BY IDOCK:   -3.00 KCAL/MOL
REMARK 922        TOTAL FREE ENERGY PREDICTED BY IDOCK:   -4.00 KCAL/MOL
REMARK 923 INTER-LIGAND FREE ENERGY PREDICTED BY IDOCK:   -3.45 KCAL/MOL
REMARK 924 INTRA-LIGAND FREE ENERGY PREDICTED BY IDOCK:   -0.55 KCAL/MOL
REMARK 927      BINDING AFFINITY PREDICTED BY RF-SCORE:    0.00 PKD
ROOT
HETATM    1  C   UNL     1     -11.241  12.698  68.673  1.00  0.00    -0.323 C  
HETATM    2  C   UNL     1     -11.054  11.213  68.517  1.00  0.00    -0.298 A  
HETATM    3  C   UNL     1     -10.851  10.586  67.268  1.00  0.00    -0.338 A  
HETATM    4  C   UNL     1     -11.088  11.329  65.980  1.00  0.00    -0.181 C  
HETATM    5  C   UNL     1     -10.390   9.251  67.249  1.00  0.00    -0.265 A  
HETATM    6  C   UNL     1     -11.054  10.445  69.690  1.00  0.00    -0.328 A  
HETATM    7  C   UNL     1     -10.465   8.495  68.432  1.00  0.00    -0.215 A  
HETATM    8  C   UNL     1     -10.808   9.077  69.641  1.00  0.00    -0.196 A  
ENDROOT
BRANCH   5   9
HETATM    9  N   UNL     1      -9.798   8.701  66.073  1.00  0.00    -0.459 NA 
HETATM   10  H   UNL     1     -10.415   8.499  65.287  1.00  0.00     0.000 HD 
BRANCH   9  11
HETATM   11  C   UNL     1      -8.412   8.414  65.912  1.00  0.00    -0.148 A  
HETATM   12  C   UNL     1      -7.570   9.339  65.270  1.00  0.00    -0.099 A  
HETATM   13  C   UNL     1      -6.184   9.190  65.259  1.00  0.00    -0.064 A  
HETATM   14  C   UNL     1      -5.609   8.072  65.851  1.00  0.00    -0.036 A  
HETATM   15  C   UNL     1      -6.428   7.074  66.378  1.00  0.00    -0.051 A  
HETATM   16  C   UNL     1      -7.825   7.218  66.367  1.00  0.00    -0.106 A  
HETATM   17  C   UNL     1      -8.628   6.074  66.845  1.00  0.00    -0.108 C  
HETATM   18  O   UNL     1      -8.304   5.358  67.774  1.00  0.00    -0.100 OA 
HETATM   19  O   UNL     1      -9.732   5.866  66.088  1.00  0.00    -0.137 OA 
ENDBRANCH   9  11
ENDBRANCH   5   9
TORSDOF 2
ENDMDL
MODEL      240
REMARK 921   NORMALIZED FREE ENERGY PREDICTED BY IDOCK:   -2.95 KCAL/MOL
REMARK 922        TOTAL FREE ENERGY PREDICTED BY IDOCK:   -3.94 KCAL/MOL
REMARK 923 INTER-LIGAND FREE ENERGY PREDICTED BY IDOCK:   -4.26 KCAL/MOL
REMARK 924 INTRA-LIGAND FREE ENERGY PREDICTED BY IDOCK:    0.33 KCAL/MOL
REMARK 927      BINDING AFFINITY PREDICTED BY RF-SCORE:    0.00 PKD
ROOT
HETATM    1  C   UNL     1      -6.932   6.433  65.951  1.00  0.00    -0.061 C  
HETATM    2  C   UNL     1      -7.714   6.633  67.222  1.00  0.00    -0.104 A  
HETATM    3  C   UNL     1      -8.434   7.814  67.509  1.00  0.00    -0.120 A  
HETATM    4  C   UNL     1      -8.240   9.060  66.686  1.00  0.00    -0.118 C  
HETATM    5  C   UNL     1      -9.369   7.794  68.567  1.00  0.00    -0.147 A  
HETATM    6  C   UNL     1      -7.736   5.567  68.131  1.00  0.00    -0.085 A  
HETATM    7  C   UNL     1      -9.316   6.739  69.494  1.00  0.00    -0.146 A  
HETATM    8  C   UNL     1      -8.498   5.640  69.292  1.00  0.00    -0.106 A  
ENDROOT
BRANCH   5   9
HETATM    9  N   UNL     1     -10.389   8.788  68.657  1.00  0.00    -0.207 NA 
HETATM   10  H   UNL     1     -10.510   9.411  67.859  1.00  0.00     0.000 HD 
BRANCH   9  11
HETATM   11  C   UNL     1     -11.250   8.979  69.776  1.00  0.00    -0.027 A  
HETATM   12  C   UNL     1     -11.565   7.896  70.616  1.00  0.00    -0.215 A  
HETATM   13  C   UNL     1     -12.242   8.071  71.822  1.00  0.00    -0.352 A  
HETATM   14  C   UNL     1     -12.670   9.340  72.191  1.00  0.00    -0.465 A  
HETATM   15  C   UNL     1     -12.487  10.410  71.315  1.00  0.00    -0.521 A  
HETATM   16  C   UNL     1     -11.825  10.225  70.091  1.00  0.00    -0.343 A  
HETATM   17  C   UNL     1     -11.764  11.379  69.171  1.00  0.00    -0.342 C  
HETATM   18  O   UNL     1     -11.622  12.531  69.536  1.00  0.00    -0.284 OA 
HETATM   19  O   UNL     1     -11.956  11.021  67.879  1.00  0.00    -0.620 OA 
ENDBRANCH   9  11
ENDBRANCH   5   9
TORSDOF 2
ENDMDL
MODEL      241
REMARK 921   NORMALIZED FREE ENERGY PREDICTED BY IDOCK:   -2.91 KCAL/MOL
REMARK 922        TOTAL FREE ENERGY PREDICTED BY IDOCK:   -3.90 KCAL/MOL
REMARK 923 INTER-LIGAND FREE ENERGY PREDICTED BY IDOCK:   -3.35 KCAL/MOL
REMARK 924 INTRA-LIGAND FREE ENERGY PREDICTED BY IDOCK:   -0.55 KCAL/MOL
REMARK 927      BINDING AFFINITY PREDICTED BY RF-SCORE:    0.00 PKD
ROOT
HETATM    1  C   UNL     1     -11.946   9.963  70.988  1.00  0.00    -0.456 C  
HETATM    2  C   UNL     1     -11.664   8.484  70.995  1.00  0.00    -0.310 A  
HETATM    3  C   UNL     1     -10.737   7.869  70.125  1.00  0.00    -0.244 A  
HETATM    4  C   UNL     1     -10.173   8.611  68.943  1.00  0.00    -0.221 C  
HETATM    5  C   UNL     1     -10.322   6.548  70.406  1.00  0.00    -0.198 A  
HETATM    6  C   UNL     1     -12.348   7.711  71.944  1.00  0.00    -0.337 A  
HETATM    7  C   UNL     1     -11.072   5.785  71.317  1.00  0.00    -0.267 A  
HETATM    8  C   UNL     1     -12.087   6.351  72.071  1.00  0.00    -0.353 A  
ENDROOT
BRANCH   5   9
HETATM    9  N   UNL     1      -9.130   6.021  69.827  1.00  0.00    -0.139 NA 
HETATM   10  H   UNL     1      -8.805   6.440  68.955  1.00  0.00     0.000 HD 
BRANCH   9  11
HETATM   11  C   UNL     1      -8.356   4.956  70.372  1.00  0.00    -0.092 A  
HETATM   12  C   UNL     1      -7.592   5.162  71.534  1.00  0.00    -0.101 A  
HETATM   13  C   UNL     1      -6.977   4.108  72.208  1.00  0.00    -0.050 A  
HETATM   14  C   UNL     1      -7.071   2.819  71.698  1.00  0.00    -0.032 A  
HETATM   15  C   UNL     1      -7.711   2.607  70.477  1.00  0.00    -0.043 A  
HETATM   16  C   UNL     1      -8.309   3.675  69.789  1.00  0.00    -0.078 A  
HETATM   17  C   UNL     1      -8.872   3.391  68.453  1.00  0.00    -0.119 C  
HETATM   18  O   UNL     1      -9.441   2.355  68.163  1.00  0.00    -0.208 OA 
HETATM   19  O   UNL     1      -8.623   4.384  67.566  1.00  0.00    -0.103 OA 
ENDBRANCH   9  11
ENDBRANCH   5   9
TORSDOF 2
ENDMDL
MODEL      242
REMARK 921   NORMALIZED FREE ENERGY PREDICTED BY IDOCK:   -2.91 KCAL/MOL
REMARK 922        TOTAL FREE ENERGY PREDICTED BY IDOCK:   -3.89 KCAL/MOL
REMARK 923 INTER-LIGAND FREE ENERGY PREDICTED BY IDOCK:   -3.49 KCAL/MOL
REMARK 924 INTRA-LIGAND FREE ENERGY PREDICTED BY IDOCK:   -0.40 KCAL/MOL
REMARK 927      BINDING AFFINITY PREDICTED BY RF-SCORE:    0.00 PKD
ROOT
HETATM    1  C   UNL     1     -11.998  14.953  69.433  1.00  0.00    -0.336 C  
HETATM    2  C   UNL     1     -10.884  14.026  69.028  1.00  0.00    -0.268 A  
HETATM    3  C   UNL     1     -10.992  12.619  69.076  1.00  0.00    -0.240 A  
HETATM    4  C   UNL     1     -12.133  11.954  69.800  1.00  0.00    -0.321 C  
HETATM    5  C   UNL     1     -10.023  11.843  68.401  1.00  0.00    -0.203 A  
HETATM    6  C   UNL     1      -9.704  14.618  68.555  1.00  0.00    -0.225 A  
HETATM    7  C   UNL     1      -8.827  12.461  67.999  1.00  0.00    -0.187 A  
HETATM    8  C   UNL     1      -8.656  13.832  68.086  1.00  0.00    -0.175 A  
ENDROOT
BRANCH   5   9
HETATM    9  N   UNL     1     -10.281  10.478  68.077  1.00  0.00    -0.160 NA 
HETATM   10  H   UNL     1     -10.859  10.290  67.257  1.00  0.00     0.000 HD 
BRANCH   9  11
HETATM   11  C   UNL     1      -9.793   9.357  68.808  1.00  0.00    -0.163 A  
HETATM   12  C   UNL     1     -10.050   9.247  70.185  1.00  0.00    -0.249 A  
HETATM   13  C   UNL     1      -9.762   8.085  70.899  1.00  0.00    -0.183 A  
HETATM   14  C   UNL     1      -9.154   7.016  70.252  1.00  0.00    -0.156 A  
HETATM   15  C   UNL     1      -8.768   7.146  68.919  1.00  0.00    -0.128 A  
HETATM   16  C   UNL     1      -9.040   8.328  68.210  1.00  0.00    -0.135 A  
HETATM   17  C   UNL     1      -8.506   8.433  66.837  1.00  0.00    -0.117 C  
HETATM   18  O   UNL     1      -8.448   7.500  66.058  1.00  0.00    -0.134 OA 
HETATM   19  O   UNL     1      -8.022   9.669  66.564  1.00  0.00    -0.110 OA 
ENDBRANCH   9  11
ENDBRANCH   5   9
TORSDOF 2
ENDMDL
MODEL      243
REMARK 921   NORMALIZED FREE ENERGY PREDICTED BY IDOCK:   -2.89 KCAL/MOL
REMARK 922        TOTAL FREE ENERGY PREDICTED BY IDOCK:   -3.87 KCAL/MOL
REMARK 923 INTER-LIGAND FREE ENERGY PREDICTED BY IDOCK:   -3.97 KCAL/MOL
REMARK 924 INTRA-LIGAND FREE ENERGY PREDICTED BY IDOCK:    0.10 KCAL/MOL
REMARK 927      BINDING AFFINITY PREDICTED BY RF-SCORE:    0.00 PKD
ROOT
HETATM    1  C   UNL     1     -13.260  11.758  63.518  1.00  0.00     0.131 C  
HETATM    2  C   UNL     1     -11.970  12.080  64.222  1.00  0.00    -0.424 A  
HETATM    3  C   UNL     1     -11.634  13.379  64.665  1.00  0.00    -0.386 A  
HETATM    4  C   UNL     1     -12.423  14.580  64.214  1.00  0.00    -0.293 C  
HETATM    5  C   UNL     1     -10.559  13.527  65.569  1.00  0.00    -0.296 A  
HETATM    6  C   UNL     1     -11.093  11.014  64.464  1.00  0.00    -0.034 A  
HETATM    7  C   UNL     1      -9.665  12.455  65.735  1.00  0.00    -0.210 A  
HETATM    8  C   UNL     1      -9.916  11.212  65.178  1.00  0.00    -0.323 A  
ENDROOT
BRANCH   5   9
HETATM    9  N   UNL     1     -10.420  14.715  66.346  1.00  0.00    -0.288 NA 
HETATM   10  H   UNL     1     -11.142  15.429  66.248  1.00  0.00     0.000 HD 
BRANCH   9  11
HETATM   11  C   UNL     1      -9.350  14.982  67.249  1.00  0.00    -0.202 A  
HETATM   12  C   UNL     1      -8.857  13.961  68.079  1.00  0.00    -0.184 A  
HETATM   13  C   UNL     1      -7.696  14.121  68.834  1.00  0.00    -0.091 A  
HETATM   14  C   UNL     1      -7.027  15.338  68.814  1.00  0.00    -0.111 A  
HETATM   15  C   UNL     1      -7.566  16.409  68.103  1.00  0.00    -0.157 A  
HETATM   16  C   UNL     1      -8.749  16.251  67.363  1.00  0.00    -0.196 A  
HETATM   17  C   UNL     1      -9.317  17.456  66.725  1.00  0.00    -0.268 C  
HETATM   18  O   UNL     1      -8.646  18.341  66.227  1.00  0.00    -0.393 OA 
HETATM   19  O   UNL     1     -10.668  17.501  66.817  1.00  0.00    -0.244 OA 
ENDBRANCH   9  11
ENDBRANCH   5   9
TORSDOF 2
ENDMDL
MODEL      244
REMARK 921   NORMALIZED FREE ENERGY PREDICTED BY IDOCK:   -2.88 KCAL/MOL
REMARK 922        TOTAL FREE ENERGY PREDICTED BY IDOCK:   -3.86 KCAL/MOL
REMARK 923 INTER-LIGAND FREE ENERGY PREDICTED BY IDOCK:   -3.56 KCAL/MOL
REMARK 924 INTRA-LIGAND FREE ENERGY PREDICTED BY IDOCK:   -0.30 KCAL/MOL
REMARK 927      BINDING AFFINITY PREDICTED BY RF-SCORE:    0.00 PKD
ROOT
HETATM    1  C   UNL     1     -11.162  15.580  68.744  1.00  0.00    -0.316 C  
HETATM    2  C   UNL     1     -11.002  14.225  68.108  1.00  0.00    -0.259 A  
HETATM    3  C   UNL     1      -9.884  13.866  67.323  1.00  0.00    -0.244 A  
HETATM    4  C   UNL     1      -8.910  14.908  66.840  1.00  0.00    -0.284 C  
HETATM    5  C   UNL     1      -9.678  12.501  67.025  1.00  0.00    -0.213 A  
HETATM    6  C   UNL     1     -12.013  13.285  68.350  1.00  0.00    -0.336 A  
HETATM    7  C   UNL     1     -10.739  11.600  67.223  1.00  0.00    -0.281 A  
HETATM    8  C   UNL     1     -11.904  11.986  67.865  1.00  0.00    -0.320 A  
ENDROOT
BRANCH   5   9
HETATM    9  N   UNL     1      -8.401  12.034  66.595  1.00  0.00    -0.338 NA 
HETATM   10  H   UNL     1      -7.643  12.715  66.547  1.00  0.00     0.000 HD 
BRANCH   9  11
HETATM   11  C   UNL     1      -8.101  10.691  66.228  1.00  0.00    -0.151 A  
HETATM   12  C   UNL     1      -8.739  10.104  65.120  1.00  0.00    -0.189 A  
HETATM   13  C   UNL     1      -8.342   8.869  64.610  1.00  0.00    -0.179 A  
HETATM   14  C   UNL     1      -7.322   8.164  65.236  1.00  0.00    -0.073 A  
HETATM   15  C   UNL     1      -6.762   8.661  66.413  1.00  0.00    -0.070 A  
HETATM   16  C   UNL     1      -7.182   9.894  66.937  1.00  0.00    -0.090 A  
HETATM   17  C   UNL     1      -6.622  10.303  68.241  1.00  0.00    -0.057 C  
HETATM   18  O   UNL     1      -5.474  10.089  68.584  1.00  0.00    -0.039 OA 
HETATM   19  O   UNL     1      -7.548  10.881  69.043  1.00  0.00    -0.117 OA 
ENDBRANCH   9  11
ENDBRANCH   5   9
TORSDOF 2
ENDMDL
MODEL      245
REMARK 921   NORMALIZED FREE ENERGY PREDICTED BY IDOCK:   -2.86 KCAL/MOL
REMARK 922        TOTAL FREE ENERGY PREDICTED BY IDOCK:   -3.84 KCAL/MOL
REMARK 923 INTER-LIGAND FREE ENERGY PREDICTED BY IDOCK:   -3.17 KCAL/MOL
REMARK 924 INTRA-LIGAND FREE ENERGY PREDICTED BY IDOCK:   -0.67 KCAL/MOL
REMARK 927      BINDING AFFINITY PREDICTED BY RF-SCORE:    0.00 PKD
ROOT
HETATM    1  C   UNL     1     -10.745  17.588  67.977  1.00  0.00    -0.342 C  
HETATM    2  C   UNL     1     -10.432  16.121  67.841  1.00  0.00    -0.290 A  
HETATM    3  C   UNL     1      -9.189  15.635  67.380  1.00  0.00    -0.205 A  
HETATM    4  C   UNL     1      -8.191  16.555  66.729  1.00  0.00    -0.279 C  
HETATM    5  C   UNL     1      -8.886  14.269  67.570  1.00  0.00    -0.199 A  
HETATM    6  C   UNL     1     -11.432  15.219  68.229  1.00  0.00    -0.359 A  
HETATM    7  C   UNL     1      -9.929  13.386  67.897  1.00  0.00    -0.236 A  
HETATM    8  C   UNL     1     -11.197  13.849  68.209  1.00  0.00    -0.298 A  
ENDROOT
BRANCH   5   9
HETATM    9  N   UNL     1      -7.539  13.805  67.498  1.00  0.00    -0.190 NA 
HETATM   10  H   UNL     1      -7.054  13.907  66.606  1.00  0.00     0.000 HD 
BRANCH   9  11
HETATM   11  C   UNL     1      -6.818  13.211  68.574  1.00  0.00    -0.099 A  
HETATM   12  C   UNL     1      -6.390  14.001  69.656  1.00  0.00    -0.130 A  
HETATM   13  C   UNL     1      -5.855  13.437  70.813  1.00  0.00    -0.148 A  
HETATM   14  C   UNL     1      -5.686  12.060  70.891  1.00  0.00    -0.009 A  
HETATM   15  C   UNL     1      -5.979  11.266  69.782  1.00  0.00    -0.103 A  
HETATM   16  C   UNL     1      -6.496  11.841  68.610  1.00  0.00    -0.060 A  
HETATM   17  C   UNL     1      -6.680  10.954  67.443  1.00  0.00    -0.078 C  
HETATM   18  O   UNL     1      -7.049   9.797  67.522  1.00  0.00    -0.086 OA 
HETATM   19  O   UNL     1      -6.323  11.550  66.280  1.00  0.00    -0.064 OA 
ENDBRANCH   9  11
ENDBRANCH   5   9
TORSDOF 2
ENDMDL
MODEL      246
REMARK 921   NORMALIZED FREE ENERGY PREDICTED BY IDOCK:   -2.83 KCAL/MOL
REMARK 922        TOTAL FREE ENERGY PREDICTED BY IDOCK:   -3.81 KCAL/MOL
REMARK 923 INTER-LIGAND FREE ENERGY PREDICTED BY IDOCK:   -3.23 KCAL/MOL
REMARK 924 INTRA-LIGAND FREE ENERGY PREDICTED BY IDOCK:   -0.58 KCAL/MOL
REMARK 927      BINDING AFFINITY PREDICTED BY RF-SCORE:    0.00 PKD
ROOT
HETATM    1  C   UNL     1      -9.924   5.079  65.904  1.00  0.00    -0.189 C  
HETATM    2  C   UNL     1      -9.705   6.369  66.648  1.00  0.00    -0.197 A  
HETATM    3  C   UNL     1      -9.015   7.472  66.098  1.00  0.00    -0.188 A  
HETATM    4  C   UNL     1      -8.211   7.330  64.833  1.00  0.00    -0.075 C  
HETATM    5  C   UNL     1      -9.120   8.724  66.743  1.00  0.00    -0.146 A  
HETATM    6  C   UNL     1     -10.250   6.461  67.936  1.00  0.00    -0.200 A  
HETATM    7  C   UNL     1      -9.614   8.766  68.058  1.00  0.00    -0.160 A  
HETATM    8  C   UNL     1     -10.161   7.646  68.660  1.00  0.00    -0.214 A  
ENDROOT
BRANCH   5   9
HETATM    9  N   UNL     1      -8.794   9.929  66.051  1.00  0.00    -0.142 NA 
HETATM   10  H   UNL     1      -8.175   9.855  65.244  1.00  0.00     0.000 HD 
BRANCH   9  11
HETATM   11  C   UNL     1      -9.267  11.227  66.400  1.00  0.00    -0.192 A  
HETATM   12  C   UNL     1     -10.579  11.611  66.071  1.00  0.00    -0.303 A  
HETATM   13  C   UNL     1     -11.146  12.789  66.556  1.00  0.00    -0.321 A  
HETATM   14  C   UNL     1     -10.385  13.642  67.346  1.00  0.00    -0.244 A  
HETATM   15  C   UNL     1      -9.041  13.350  67.579  1.00  0.00    -0.215 A  
HETATM   16  C   UNL     1      -8.468  12.174  67.068  1.00  0.00    -0.183 A  
HETATM   17  C   UNL     1      -7.016  11.987  67.264  1.00  0.00    -0.146 C  
HETATM   18  O   UNL     1      -6.417  12.324  68.269  1.00  0.00    -0.051 OA 
HETATM   19  O   UNL     1      -6.410  11.462  66.172  1.00  0.00    -0.061 OA 
ENDBRANCH   9  11
ENDBRANCH   5   9
TORSDOF 2
ENDMDL
MODEL      247
REMARK 921   NORMALIZED FREE ENERGY PREDICTED BY IDOCK:   -2.82 KCAL/MOL
REMARK 922        TOTAL FREE ENERGY PREDICTED BY IDOCK:   -3.79 KCAL/MOL
REMARK 923 INTER-LIGAND FREE ENERGY PREDICTED BY IDOCK:   -3.62 KCAL/MOL
REMARK 924 INTRA-LIGAND FREE ENERGY PREDICTED BY IDOCK:   -0.17 KCAL/MOL
REMARK 927      BINDING AFFINITY PREDICTED BY RF-SCORE:    0.00 PKD
ROOT
HETATM    1  C   UNL     1     -10.423  18.351  66.425  1.00  0.00    -0.412 C  
HETATM    2  C   UNL     1     -10.067  16.897  66.268  1.00  0.00    -0.335 A  
HETATM    3  C   UNL     1      -8.750  16.405  66.403  1.00  0.00    -0.355 A  
HETATM    4  C   UNL     1      -7.572  17.342  66.438  1.00  0.00    -0.349 C  
HETATM    5  C   UNL     1      -8.561  15.011  66.538  1.00  0.00    -0.144 A  
HETATM    6  C   UNL     1     -11.119  16.009  66.006  1.00  0.00     0.016 A  
HETATM    7  C   UNL     1      -9.622  14.151  66.205  1.00  0.00    -0.295 A  
HETATM    8  C   UNL     1     -10.887  14.640  65.926  1.00  0.00    -0.312 A  
ENDROOT
BRANCH   5   9
HETATM    9  N   UNL     1      -7.341  14.490  67.064  1.00  0.00    -0.333 NA 
HETATM   10  H   UNL     1      -6.490  15.026  66.898  1.00  0.00     0.000 HD 
BRANCH   9  11
HETATM   11  C   UNL     1      -7.221  13.278  67.803  1.00  0.00    -0.151 A  
HETATM   12  C   UNL     1      -7.567  12.052  67.207  1.00  0.00    -0.157 A  
HETATM   13  C   UNL     1      -7.286  10.831  67.819  1.00  0.00    -0.093 A  
HETATM   14  C   UNL     1      -6.695  10.812  69.076  1.00  0.00    -0.070 A  
HETATM   15  C   UNL     1      -6.463  12.014  69.745  1.00  0.00    -0.066 A  
HETATM   16  C   UNL     1      -6.768  13.241  69.135  1.00  0.00    -0.092 A  
HETATM   17  C   UNL     1      -6.595  14.463  69.946  1.00  0.00    -0.133 C  
HETATM   18  O   UNL     1      -5.692  14.625  70.747  1.00  0.00    -0.148 OA 
HETATM   19  O   UNL     1      -7.593  15.358  69.752  1.00  0.00    -0.192 OA 
ENDBRANCH   9  11
ENDBRANCH   5   9
TORSDOF 2
ENDMDL
MODEL      248
REMARK 921   NORMALIZED FREE ENERGY PREDICTED BY IDOCK:   -2.77 KCAL/MOL
REMARK 922        TOTAL FREE ENERGY PREDICTED BY IDOCK:   -3.73 KCAL/MOL
REMARK 923 INTER-LIGAND FREE ENERGY PREDICTED BY IDOCK:   -3.50 KCAL/MOL
REMARK 924 INTRA-LIGAND FREE ENERGY PREDICTED BY IDOCK:   -0.23 KCAL/MOL
REMARK 927      BINDING AFFINITY PREDICTED BY RF-SCORE:    0.00 PKD
ROOT
HETATM    1  C   UNL     1     -10.379  10.581  69.394  1.00  0.00    -0.258 C  
HETATM    2  C   UNL     1     -10.580   9.155  68.954  1.00  0.00    -0.214 A  
HETATM    3  C   UNL     1     -10.485   8.742  67.607  1.00  0.00    -0.310 A  
HETATM    4  C   UNL     1     -10.451   9.748  66.487  1.00  0.00    -0.212 C  
HETATM    5  C   UNL     1     -10.389   7.360  67.330  1.00  0.00    -0.270 A  
HETATM    6  C   UNL     1     -10.842   8.211  69.956  1.00  0.00    -0.233 A  
HETATM    7  C   UNL     1     -10.722   6.445  68.344  1.00  0.00    -0.349 A  
HETATM    8  C   UNL     1     -10.962   6.861  69.643  1.00  0.00    -0.298 A  
ENDROOT
BRANCH   5   9
HETATM    9  N   UNL     1      -9.903   6.902  66.070  1.00  0.00    -0.387 NA 
HETATM   10  H   UNL     1     -10.006   7.526  65.270  1.00  0.00     0.000 HD 
BRANCH   9  11
HETATM   11  C   UNL     1      -9.282   5.639  65.842  1.00  0.00    -0.132 A  
HETATM   12  C   UNL     1     -10.059   4.468  65.812  1.00  0.00    -0.274 A  
HETATM   13  C   UNL     1      -9.530   3.243  65.405  1.00  0.00    -0.119 A  
HETATM   14  C   UNL     1      -8.186   3.155  65.066  1.00  0.00    -0.094 A  
HETATM   15  C   UNL     1      -7.363   4.272  65.213  1.00  0.00    -0.072 A  
HETATM   16  C   UNL     1      -7.895   5.497  65.646  1.00  0.00    -0.101 A  
HETATM   17  C   UNL     1      -6.945   6.604  65.880  1.00  0.00    -0.061 C  
HETATM   18  O   UNL     1      -5.962   6.811  65.194  1.00  0.00    -0.033 OA 
HETATM   19  O   UNL     1      -7.252   7.322  66.988  1.00  0.00    -0.086 OA 
ENDBRANCH   9  11
ENDBRANCH   5   9
TORSDOF 2
ENDMDL
MODEL      249
REMARK 921   NORMALIZED FREE ENERGY PREDICTED BY IDOCK:   -2.75 KCAL/MOL
REMARK 922        TOTAL FREE ENERGY PREDICTED BY IDOCK:   -3.71 KCAL/MOL
REMARK 923 INTER-LIGAND FREE ENERGY PREDICTED BY IDOCK:   -3.08 KCAL/MOL
REMARK 924 INTRA-LIGAND FREE ENERGY PREDICTED BY IDOCK:   -0.63 KCAL/MOL
REMARK 927      BINDING AFFINITY PREDICTED BY RF-SCORE:    0.00 PKD
ROOT
HETATM    1  C   UNL     1     -10.812   9.476  71.359  1.00  0.00    -0.382 C  
HETATM    2  C   UNL     1     -10.799   7.971  71.403  1.00  0.00    -0.271 A  
HETATM    3  C   UNL     1      -9.982   7.179  70.567  1.00  0.00    -0.191 A  
HETATM    4  C   UNL     1      -9.274   7.780  69.382  1.00  0.00    -0.149 C  
HETATM    5  C   UNL     1      -9.815   5.813  70.883  1.00  0.00    -0.179 A  
HETATM    6  C   UNL     1     -11.627   7.356  72.353  1.00  0.00    -0.327 A  
HETATM    7  C   UNL     1     -10.706   5.218  71.793  1.00  0.00    -0.240 A  
HETATM    8  C   UNL     1     -11.616   5.974  72.513  1.00  0.00    -0.315 A  
ENDROOT
BRANCH   5   9
HETATM    9  N   UNL     1      -8.726   5.067  70.341  1.00  0.00    -0.106 NA 
HETATM   10  H   UNL     1      -7.799   5.237  70.732  1.00  0.00     0.000 HD 
BRANCH   9  11
HETATM   11  C   UNL     1      -8.833   4.105  69.296  1.00  0.00    -0.095 A  
HETATM   12  C   UNL     1      -9.553   4.409  68.128  1.00  0.00    -0.200 A  
HETATM   13  C   UNL     1      -9.524   3.580  67.008  1.00  0.00    -0.207 A  
HETATM   14  C   UNL     1      -8.809   2.390  67.053  1.00  0.00    -0.151 A  
HETATM   15  C   UNL     1      -8.194   2.000  68.242  1.00  0.00    -0.072 A  
HETATM   16  C   UNL     1      -8.245   2.828  69.376  1.00  0.00    -0.071 A  
HETATM   17  C   UNL     1      -7.664   2.300  70.627  1.00  0.00    -0.039 C  
HETATM   18  O   UNL     1      -6.660   1.614  70.674  1.00  0.00    -0.023 OA 
HETATM   19  O   UNL     1      -8.414   2.605  71.714  1.00  0.00    -0.062 OA 
ENDBRANCH   9  11
ENDBRANCH   5   9
TORSDOF 2
ENDMDL
MODEL      250
REMARK 921   NORMALIZED FREE ENERGY PREDICTED BY IDOCK:   -2.72 KCAL/MOL
REMARK 922        TOTAL FREE ENERGY PREDICTED BY IDOCK:   -3.68 KCAL/MOL
REMARK 923 INTER-LIGAND FREE ENERGY PREDICTED BY IDOCK:   -3.04 KCAL/MOL
REMARK 924 INTRA-LIGAND FREE ENERGY PREDICTED BY IDOCK:   -0.64 KCAL/MOL
REMARK 927      BINDING AFFINITY PREDICTED BY RF-SCORE:    0.00 PKD
ROOT
HETATM    1  C   UNL     1      -8.525   5.041  72.136  1.00  0.00    -0.125 C  
HETATM    2  C   UNL     1      -8.693   6.459  71.658  1.00  0.00    -0.133 A  
HETATM    3  C   UNL     1      -8.403   6.870  70.338  1.00  0.00    -0.130 A  
HETATM    4  C   UNL     1      -7.642   5.974  69.397  1.00  0.00    -0.097 C  
HETATM    5  C   UNL     1      -8.872   8.130  69.905  1.00  0.00    -0.139 A  
HETATM    6  C   UNL     1      -9.193   7.386  72.582  1.00  0.00    -0.185 A  
HETATM    7  C   UNL     1      -9.306   9.055  70.870  1.00  0.00    -0.326 A  
HETATM    8  C   UNL     1      -9.453   8.698  72.200  1.00  0.00    -0.373 A  
ENDROOT
BRANCH   5   9
HETATM    9  N   UNL     1      -8.965   8.434  68.515  1.00  0.00    -0.136 NA 
HETATM   10  H   UNL     1      -9.716   7.991  67.985  1.00  0.00     0.000 HD 
BRANCH   9  11
HETATM   11  C   UNL     1      -8.090   9.308  67.807  1.00  0.00    -0.104 A  
HETATM   12  C   UNL     1      -6.766   9.486  68.245  1.00  0.00    -0.058 A  
HETATM   13  C   UNL     1      -5.824  10.175  67.482  1.00  0.00    -0.049 A  
HETATM   14  C   UNL     1      -6.206  10.753  66.278  1.00  0.00    -0.130 A  
HETATM   15  C   UNL     1      -7.543  10.706  65.885  1.00  0.00    -0.138 A  
HETATM   16  C   UNL     1      -8.493  10.030  66.668  1.00  0.00    -0.126 A  
HETATM   17  C   UNL     1      -9.906  10.114  66.243  1.00  0.00    -0.229 C  
HETATM   18  O   UNL     1     -10.266  10.113  65.081  1.00  0.00    -0.306 OA 
HETATM   19  O   UNL     1     -10.752  10.265  67.290  1.00  0.00    -0.257 OA 
ENDBRANCH   9  11
ENDBRANCH   5   9
TORSDOF 2
ENDMDL
MODEL      251
REMARK 921   NORMALIZED FREE ENERGY PREDICTED BY IDOCK:   -2.70 KCAL/MOL
REMARK 922        TOTAL FREE ENERGY PREDICTED BY IDOCK:   -3.66 KCAL/MOL
REMARK 923 INTER-LIGAND FREE ENERGY PREDICTED BY IDOCK:   -3.22 KCAL/MOL
REMARK 924 INTRA-LIGAND FREE ENERGY PREDICTED BY IDOCK:   -0.44 KCAL/MOL
REMARK 927      BINDING AFFINITY PREDICTED BY RF-SCORE:    0.00 PKD
ROOT
HETATM    1  C   UNL     1     -11.073  19.557  66.748  1.00  0.00    -0.224 C  
HETATM    2  C   UNL     1      -9.699  19.156  67.214  1.00  0.00    -0.386 A  
HETATM    3  C   UNL     1      -9.316  17.813  67.426  1.00  0.00    -0.252 A  
HETATM    4  C   UNL     1     -10.342  16.712  67.467  1.00  0.00    -0.294 C  
HETATM    5  C   UNL     1      -7.942  17.517  67.566  1.00  0.00    -0.200 A  
HETATM    6  C   UNL     1      -8.767  20.185  67.408  1.00  0.00    -0.425 A  
HETATM    7  C   UNL     1      -7.048  18.571  67.823  1.00  0.00    -0.222 A  
HETATM    8  C   UNL     1      -7.454  19.894  67.761  1.00  0.00    -0.326 A  
ENDROOT
BRANCH   5   9
HETATM    9  N   UNL     1      -7.462  16.186  67.387  1.00  0.00    -0.152 NA 
HETATM   10  H   UNL     1      -7.562  15.770  66.461  1.00  0.00     0.000 HD 
BRANCH   9  11
HETATM   11  C   UNL     1      -6.852  15.392  68.401  1.00  0.00    -0.115 A  
HETATM   12  C   UNL     1      -5.680  15.837  69.035  1.00  0.00    -0.105 A  
HETATM   13  C   UNL     1      -5.158  15.193  70.156  1.00  0.00    -0.105 A  
HETATM   14  C   UNL     1      -5.776  14.046  70.638  1.00  0.00    -0.177 A  
HETATM   15  C   UNL     1      -6.863  13.508  69.950  1.00  0.00     0.246 A  
HETATM   16  C   UNL     1      -7.371  14.147  68.807  1.00  0.00    -0.128 A  
HETATM   17  C   UNL     1      -8.452  13.462  68.070  1.00  0.00    -0.173 C  
HETATM   18  O   UNL     1      -9.342  12.827  68.606  1.00  0.00    -0.116 OA 
HETATM   19  O   UNL     1      -8.305  13.559  66.727  1.00  0.00    -0.061 OA 
ENDBRANCH   9  11
ENDBRANCH   5   9
TORSDOF 2
ENDMDL
MODEL      252
REMARK 921   NORMALIZED FREE ENERGY PREDICTED BY IDOCK:   -2.68 KCAL/MOL
REMARK 922        TOTAL FREE ENERGY PREDICTED BY IDOCK:   -3.64 KCAL/MOL
REMARK 923 INTER-LIGAND FREE ENERGY PREDICTED BY IDOCK:   -4.76 KCAL/MOL
REMARK 924 INTRA-LIGAND FREE ENERGY PREDICTED BY IDOCK:    1.12 KCAL/MOL
REMARK 927      BINDING AFFINITY PREDICTED BY RF-SCORE:    0.00 PKD
ROOT
HETATM    1  C   UNL     1     -12.561  10.591  71.420  1.00  0.00    -0.539 C  
HETATM    2  C   UNL     1     -12.262  11.870  70.684  1.00  0.00    -0.424 A  
HETATM    3  C   UNL     1     -12.002  11.921  69.297  1.00  0.00    -0.342 A  
HETATM    4  C   UNL     1     -11.733  10.665  68.512  1.00  0.00    -0.200 C  
HETATM    5  C   UNL     1     -12.032  13.177  68.651  1.00  0.00    -0.284 A  
HETATM    6  C   UNL     1     -12.280  13.054  71.434  1.00  0.00     0.083 A  
HETATM    7  C   UNL     1     -11.985  14.341  69.436  1.00  0.00    -0.381 A  
HETATM    8  C   UNL     1     -12.092  14.286  70.816  1.00  0.00    -0.418 A  
ENDROOT
BRANCH   5   9
HETATM    9  N   UNL     1     -12.173  13.263  67.234  1.00  0.00    -0.275 NA 
HETATM   10  H   UNL     1     -12.794  12.592  66.781  1.00  0.00     0.000 HD 
BRANCH   9  11
HETATM   11  C   UNL     1     -11.515  14.214  66.402  1.00  0.00    -0.354 A  
HETATM   12  C   UNL     1     -12.170  14.735  65.272  1.00  0.00    -0.158 A  
HETATM   13  C   UNL     1     -11.645  15.801  64.543  1.00  0.00    -0.247 A  
HETATM   14  C   UNL     1     -10.415  16.339  64.901  1.00  0.00    -0.016 A  
HETATM   15  C   UNL     1      -9.683  15.755  65.935  1.00  0.00    -0.389 A  
HETATM   16  C   UNL     1     -10.205  14.666  66.652  1.00  0.00    -0.275 A  
HETATM   17  C   UNL     1      -9.328  14.034  67.659  1.00  0.00    -0.203 C  
HETATM   18  O   UNL     1      -8.555  14.651  68.368  1.00  0.00    -0.156 OA 
HETATM   19  O   UNL     1      -9.429  12.683  67.657  1.00  0.00    -0.179 OA 
ENDBRANCH   9  11
ENDBRANCH   5   9
TORSDOF 2
ENDMDL
MODEL      253
REMARK 921   NORMALIZED FREE ENERGY PREDICTED BY IDOCK:   -2.67 KCAL/MOL
REMARK 922        TOTAL FREE ENERGY PREDICTED BY IDOCK:   -3.63 KCAL/MOL
REMARK 923 INTER-LIGAND FREE ENERGY PREDICTED BY IDOCK:   -3.19 KCAL/MOL
REMARK 924 INTRA-LIGAND FREE ENERGY PREDICTED BY IDOCK:   -0.44 KCAL/MOL
REMARK 927      BINDING AFFINITY PREDICTED BY RF-SCORE:    0.00 PKD
ROOT
HETATM    1  C   UNL     1      -9.864   2.278  63.952  1.00  0.00    -0.139 C  
HETATM    2  C   UNL     1      -9.012   2.863  65.046  1.00  0.00    -0.136 A  
HETATM    3  C   UNL     1      -9.484   3.835  65.957  1.00  0.00    -0.178 A  
HETATM    4  C   UNL     1     -10.785   4.554  65.719  1.00  0.00    -0.130 C  
HETATM    5  C   UNL     1      -8.722   4.098  67.117  1.00  0.00    -0.110 A  
HETATM    6  C   UNL     1      -7.703   2.378  65.161  1.00  0.00    -0.077 A  
HETATM    7  C   UNL     1      -7.392   3.648  67.167  1.00  0.00    -0.064 A  
HETATM    8  C   UNL     1      -6.876   2.809  66.194  1.00  0.00    -0.048 A  
ENDROOT
BRANCH   5   9
HETATM    9  N   UNL     1      -9.311   4.749  68.242  1.00  0.00    -0.128 NA 
HETATM   10  H   UNL     1      -9.546   5.736  68.144  1.00  0.00     0.000 HD 
BRANCH   9  11
HETATM   11  C   UNL     1      -9.596   4.126  69.491  1.00  0.00    -0.204 A  
HETATM   12  C   UNL     1      -9.390   2.745  69.654  1.00  0.00    -0.198 A  
HETATM   13  C   UNL     1      -9.470   2.129  70.902  1.00  0.00    -0.209 A  
HETATM   14  C   UNL     1      -9.816   2.882  72.017  1.00  0.00    -0.242 A  
HETATM   15  C   UNL     1     -10.155   4.226  71.863  1.00  0.00    -0.237 A  
HETATM   16  C   UNL     1     -10.095   4.837  70.600  1.00  0.00    -0.288 A  
HETATM   17  C   UNL     1     -10.571   6.231  70.497  1.00  0.00    -0.249 C  
HETATM   18  O   UNL     1     -10.401   7.072  71.359  1.00  0.00    -0.198 OA 
HETATM   19  O   UNL     1     -11.282   6.452  69.365  1.00  0.00    -0.359 OA 
ENDBRANCH   9  11
ENDBRANCH   5   9
TORSDOF 2
ENDMDL
MODEL      254
REMARK 921   NORMALIZED FREE ENERGY PREDICTED BY IDOCK:   -2.66 KCAL/MOL
REMARK 922        TOTAL FREE ENERGY PREDICTED BY IDOCK:   -3.62 KCAL/MOL
REMARK 923 INTER-LIGAND FREE ENERGY PREDICTED BY IDOCK:   -3.14 KCAL/MOL
REMARK 924 INTRA-LIGAND FREE ENERGY PREDICTED BY IDOCK:   -0.48 KCAL/MOL
REMARK 927      BINDING AFFINITY PREDICTED BY RF-SCORE:    0.00 PKD
ROOT
HETATM    1  C   UNL     1     -10.078   9.562  68.847  1.00  0.00    -0.199 C  
HETATM    2  C   UNL     1     -10.245   8.128  68.417  1.00  0.00    -0.240 A  
HETATM    3  C   UNL     1      -9.884   7.658  67.135  1.00  0.00    -0.265 A  
HETATM    4  C   UNL     1      -9.567   8.617  66.019  1.00  0.00    -0.265 C  
HETATM    5  C   UNL     1      -9.794   6.264  66.928  1.00  0.00    -0.156 A  
HETATM    6  C   UNL     1     -10.756   7.235  69.368  1.00  0.00    -0.236 A  
HETATM    7  C   UNL     1     -10.376   5.403  67.875  1.00  0.00    -0.222 A  
HETATM    8  C   UNL     1     -10.868   5.879  69.078  1.00  0.00    -0.383 A  
ENDROOT
BRANCH   5   9
HETATM    9  N   UNL     1      -9.071   5.738  65.816  1.00  0.00    -0.255 NA 
HETATM   10  H   UNL     1      -8.286   6.285  65.464  1.00  0.00     0.000 HD 
BRANCH   9  11
HETATM   11  C   UNL     1      -9.361   4.507  65.159  1.00  0.00    -0.159 A  
HETATM   12  C   UNL     1     -10.604   4.321  64.528  1.00  0.00    -0.110 A  
HETATM   13  C   UNL     1     -10.859   3.218  63.715  1.00  0.00    -0.161 A  
HETATM   14  C   UNL     1      -9.884   2.241  63.558  1.00  0.00    -0.127 A  
HETATM   15  C   UNL     1      -8.693   2.334  64.277  1.00  0.00    -0.098 A  
HETATM   16  C   UNL     1      -8.449   3.436  65.114  1.00  0.00    -0.099 A  
HETATM   17  C   UNL     1      -7.215   3.412  65.925  1.00  0.00    -0.067 C  
HETATM   18  O   UNL     1      -6.154   2.960  65.534  1.00  0.00    -0.022 OA 
HETATM   19  O   UNL     1      -7.411   3.885  67.179  1.00  0.00    -0.071 OA 
ENDBRANCH   9  11
ENDBRANCH   5   9
TORSDOF 2
ENDMDL
MODEL      255
REMARK 921   NORMALIZED FREE ENERGY PREDICTED BY IDOCK:   -2.66 KCAL/MOL
REMARK 922        TOTAL FREE ENERGY PREDICTED BY IDOCK:   -3.61 KCAL/MOL
REMARK 923 INTER-LIGAND FREE ENERGY PREDICTED BY IDOCK:   -4.69 KCAL/MOL
REMARK 924 INTRA-LIGAND FREE ENERGY PREDICTED BY IDOCK:    1.08 KCAL/MOL
REMARK 927      BINDING AFFINITY PREDICTED BY RF-SCORE:    0.00 PKD
ROOT
HETATM    1  C   UNL     1      -6.039  12.957  67.962  1.00  0.00    -0.107 C  
HETATM    2  C   UNL     1      -7.135  13.926  67.605  1.00  0.00    -0.190 A  
HETATM    3  C   UNL     1      -6.895  15.279  67.278  1.00  0.00    -0.108 A  
HETATM    4  C   UNL     1      -5.553  15.912  67.536  1.00  0.00    -0.125 C  
HETATM    5  C   UNL     1      -7.932  16.021  66.672  1.00  0.00    -0.256 A  
HETATM    6  C   UNL     1      -8.443  13.423  67.574  1.00  0.00    -0.192 A  
HETATM    7  C   UNL     1      -9.241  15.511  66.718  1.00  0.00    -0.272 A  
HETATM    8  C   UNL     1      -9.503  14.232  67.178  1.00  0.00    -0.229 A  
ENDROOT
BRANCH   5   9
HETATM    9  N   UNL     1      -7.649  17.230  65.971  1.00  0.00    -0.444 NA 
HETATM   10  H   UNL     1      -7.643  17.193  64.951  1.00  0.00     0.000 HD 
BRANCH   9  11
HETATM   11  C   UNL     1      -7.372  18.487  66.583  1.00  0.00    -0.224 A  
HETATM   12  C   UNL     1      -6.098  18.744  67.119  1.00  0.00    -0.172 A  
HETATM   13  C   UNL     1      -5.725  20.016  67.552  1.00  0.00    -0.197 A  
HETATM   14  C   UNL     1      -6.646  21.055  67.507  1.00  0.00    -0.438 A  
HETATM   15  C   UNL     1      -7.956  20.796  67.104  1.00  0.00    -0.258 A  
HETATM   16  C   UNL     1      -8.335  19.509  66.690  1.00  0.00    -0.340 A  
HETATM   17  C   UNL     1      -9.762  19.288  66.381  1.00  0.00    -0.374 C  
HETATM   18  O   UNL     1     -10.474  20.111  65.837  1.00  0.00    -0.426 OA 
HETATM   19  O   UNL     1     -10.210  18.092  66.833  1.00  0.00    -0.337 OA 
ENDBRANCH   9  11
ENDBRANCH   5   9
TORSDOF 2
ENDMDL
MODEL      256
REMARK 921   NORMALIZED FREE ENERGY PREDICTED BY IDOCK:   -2.60 KCAL/MOL
REMARK 922        TOTAL FREE ENERGY PREDICTED BY IDOCK:   -3.55 KCAL/MOL
REMARK 923 INTER-LIGAND FREE ENERGY PREDICTED BY IDOCK:   -2.98 KCAL/MOL
REMARK 924 INTRA-LIGAND FREE ENERGY PREDICTED BY IDOCK:   -0.57 KCAL/MOL
REMARK 927      BINDING AFFINITY PREDICTED BY RF-SCORE:    0.00 PKD
ROOT
HETATM    1  C   UNL     1      -6.665  15.241  68.508  1.00  0.00    -0.112 C  
HETATM    2  C   UNL     1      -7.358  13.933  68.232  1.00  0.00    -0.117 A  
HETATM    3  C   UNL     1      -7.046  12.735  68.912  1.00  0.00    -0.067 A  
HETATM    4  C   UNL     1      -5.809  12.626  69.762  1.00  0.00    -0.121 C  
HETATM    5  C   UNL     1      -7.940  11.646  68.804  1.00  0.00    -0.086 A  
HETATM    6  C   UNL     1      -8.377  13.944  67.270  1.00  0.00    -0.199 A  
HETATM    7  C   UNL     1      -8.908  11.667  67.786  1.00  0.00    -0.159 A  
HETATM    8  C   UNL     1      -9.120  12.796  67.012  1.00  0.00    -0.220 A  
ENDROOT
BRANCH   5   9
HETATM    9  N   UNL     1      -7.903  10.578  69.749  1.00  0.00    -0.348 NA 
HETATM   10  H   UNL     1      -7.147  10.582  70.434  1.00  0.00     0.000 HD 
BRANCH   9  11
HETATM   11  C   UNL     1      -8.840   9.507  69.811  1.00  0.00    -0.199 A  
HETATM   12  C   UNL     1      -9.957   9.595  70.661  1.00  0.00    -0.299 A  
HETATM   13  C   UNL     1     -10.995   8.665  70.613  1.00  0.00    -0.274 A  
HETATM   14  C   UNL     1     -10.910   7.586  69.742  1.00  0.00    -0.234 A  
HETATM   15  C   UNL     1      -9.754   7.403  68.983  1.00  0.00    -0.160 A  
HETATM   16  C   UNL     1      -8.701   8.330  69.051  1.00  0.00    -0.143 A  
HETATM   17  C   UNL     1      -7.469   8.012  68.302  1.00  0.00    -0.100 C  
HETATM   18  O   UNL     1      -7.457   7.468  67.214  1.00  0.00    -0.095 OA 
HETATM   19  O   UNL     1      -6.348   8.330  68.993  1.00  0.00    -0.042 OA 
ENDBRANCH   9  11
ENDBRANCH   5   9
TORSDOF 2
ENDMDL
MODEL      257
REMARK 921   NORMALIZED FREE ENERGY PREDICTED BY IDOCK:   -2.60 KCAL/MOL
REMARK 922        TOTAL FREE ENERGY PREDICTED BY IDOCK:   -3.54 KCAL/MOL
REMARK 923 INTER-LIGAND FREE ENERGY PREDICTED BY IDOCK:   -2.98 KCAL/MOL
REMARK 924 INTRA-LIGAND FREE ENERGY PREDICTED BY IDOCK:   -0.56 KCAL/MOL
REMARK 927      BINDING AFFINITY PREDICTED BY RF-SCORE:    0.00 PKD
ROOT
HETATM    1  C   UNL     1      -8.218   4.835  72.064  1.00  0.00    -0.110 C  
HETATM    2  C   UNL     1      -8.449   6.303  71.821  1.00  0.00    -0.129 A  
HETATM    3  C   UNL     1      -7.804   7.028  70.796  1.00  0.00    -0.096 A  
HETATM    4  C   UNL     1      -6.632   6.443  70.052  1.00  0.00    -0.048 C  
HETATM    5  C   UNL     1      -8.301   8.306  70.456  1.00  0.00    -0.124 A  
HETATM    6  C   UNL     1      -9.378   6.947  72.650  1.00  0.00    -0.155 A  
HETATM    7  C   UNL     1      -9.183   8.944  71.345  1.00  0.00    -0.328 A  
HETATM    8  C   UNL     1      -9.708   8.282  72.443  1.00  0.00    -0.373 A  
ENDROOT
BRANCH   5   9
HETATM    9  N   UNL     1      -7.969   8.908  69.206  1.00  0.00    -0.102 NA 
HETATM   10  H   UNL     1      -7.057   8.687  68.805  1.00  0.00     0.000 HD 
BRANCH   9  11
HETATM   11  C   UNL     1      -8.811   9.794  68.475  1.00  0.00    -0.121 A  
HETATM   12  C   UNL     1     -10.002   9.319  67.898  1.00  0.00    -0.228 A  
HETATM   13  C   UNL     1     -10.947  10.181  67.342  1.00  0.00    -0.295 A  
HETATM   14  C   UNL     1     -10.691  11.546  67.303  1.00  0.00    -0.286 A  
HETATM   15  C   UNL     1      -9.461  12.030  67.748  1.00  0.00    -0.190 A  
HETATM   16  C   UNL     1      -8.503  11.155  68.286  1.00  0.00    -0.145 A  
HETATM   17  C   UNL     1      -7.185  11.724  68.636  1.00  0.00    -0.112 C  
HETATM   18  O   UNL     1      -7.029  12.834  69.110  1.00  0.00    -0.090 OA 
HETATM   19  O   UNL     1      -6.163  10.900  68.304  1.00  0.00    -0.049 OA 
ENDBRANCH   9  11
ENDBRANCH   5   9
TORSDOF 2
ENDMDL
MODEL      258
REMARK 921   NORMALIZED FREE ENERGY PREDICTED BY IDOCK:   -2.58 KCAL/MOL
REMARK 922        TOTAL FREE ENERGY PREDICTED BY IDOCK:   -3.52 KCAL/MOL
REMARK 923 INTER-LIGAND FREE ENERGY PREDICTED BY IDOCK:   -2.89 KCAL/MOL
REMARK 924 INTRA-LIGAND FREE ENERGY PREDICTED BY IDOCK:   -0.64 KCAL/MOL
REMARK 927      BINDING AFFINITY PREDICTED BY RF-SCORE:    0.00 PKD
ROOT
HETATM    1  C   UNL     1      -9.288  14.405  68.184  1.00  0.00    -0.203 C  
HETATM    2  C   UNL     1      -9.616  13.053  67.609  1.00  0.00    -0.206 A  
HETATM    3  C   UNL     1      -8.712  11.968  67.620  1.00  0.00    -0.166 A  
HETATM    4  C   UNL     1      -7.259  12.173  67.959  1.00  0.00    -0.099 C  
HETATM    5  C   UNL     1      -9.205  10.675  67.338  1.00  0.00    -0.143 A  
HETATM    6  C   UNL     1     -10.899  12.884  67.071  1.00  0.00    -0.282 A  
HETATM    7  C   UNL     1     -10.471  10.552  66.740  1.00  0.00    -0.302 A  
HETATM    8  C   UNL     1     -11.309  11.644  66.591  1.00  0.00    -0.338 A  
ENDROOT
BRANCH   5   9
HETATM    9  N   UNL     1      -8.463   9.515  67.711  1.00  0.00    -0.119 NA 
HETATM   10  H   UNL     1      -7.890   9.072  66.993  1.00  0.00     0.000 HD 
BRANCH   9  11
HETATM   11  C   UNL     1      -8.460   8.927  69.009  1.00  0.00    -0.133 A  
HETATM   12  C   UNL     1      -9.447   9.282  69.945  1.00  0.00    -0.214 A  
HETATM   13  C   UNL     1      -9.599   8.598  71.151  1.00  0.00    -0.281 A  
HETATM   14  C   UNL     1      -8.723   7.569  71.471  1.00  0.00    -0.124 A  
HETATM   15  C   UNL     1      -7.655   7.284  70.621  1.00  0.00    -0.091 A  
HETATM   16  C   UNL     1      -7.492   7.991  69.418  1.00  0.00    -0.096 A  
HETATM   17  C   UNL     1      -6.279   7.708  68.624  1.00  0.00    -0.035 C  
HETATM   18  O   UNL     1      -5.783   6.602  68.512  1.00  0.00    -0.015 OA 
HETATM   19  O   UNL     1      -5.737   8.830  68.092  1.00  0.00    -0.038 OA 
ENDBRANCH   9  11
ENDBRANCH   5   9
TORSDOF 2
ENDMDL
MODEL      259
REMARK 921   NORMALIZED FREE ENERGY PREDICTED BY IDOCK:   -2.56 KCAL/MOL
REMARK 922        TOTAL FREE ENERGY PREDICTED BY IDOCK:   -3.51 KCAL/MOL
REMARK 923 INTER-LIGAND FREE ENERGY PREDICTED BY IDOCK:   -3.71 KCAL/MOL
REMARK 924 INTRA-LIGAND FREE ENERGY PREDICTED BY IDOCK:    0.20 KCAL/MOL
REMARK 927      BINDING AFFINITY PREDICTED BY RF-SCORE:    0.00 PKD
ROOT
HETATM    1  C   UNL     1      -9.771  19.559  68.388  1.00  0.00    -0.498 C  
HETATM    2  C   UNL     1      -9.353  18.234  67.806  1.00  0.00    -0.276 A  
HETATM    3  C   UNL     1      -9.610  16.997  68.437  1.00  0.00    -0.277 A  
HETATM    4  C   UNL     1     -10.074  16.939  69.869  1.00  0.00     0.301 C  
HETATM    5  C   UNL     1      -9.455  15.811  67.686  1.00  0.00    -0.218 A  
HETATM    6  C   UNL     1      -8.707  18.261  66.563  1.00  0.00    -0.290 A  
HETATM    7  C   UNL     1      -8.746  15.869  66.474  1.00  0.00    -0.350 A  
HETATM    8  C   UNL     1      -8.360  17.078  65.919  1.00  0.00    -0.016 A  
ENDROOT
BRANCH   5   9
HETATM    9  N   UNL     1     -10.062  14.593  68.115  1.00  0.00    -0.220 NA 
HETATM   10  H   UNL     1     -10.568  14.606  69.000  1.00  0.00     0.000 HD 
BRANCH   9  11
HETATM   11  C   UNL     1     -10.015  13.360  67.402  1.00  0.00    -0.230 A  
HETATM   12  C   UNL     1     -11.207  12.739  66.990  1.00  0.00    -0.336 A  
HETATM   13  C   UNL     1     -11.207  11.640  66.131  1.00  0.00    -0.314 A  
HETATM   14  C   UNL     1      -9.999  11.103  65.705  1.00  0.00    -0.297 A  
HETATM   15  C   UNL     1      -8.802  11.618  66.202  1.00  0.00    -0.139 A  
HETATM   16  C   UNL     1      -8.807  12.709  67.086  1.00  0.00    -0.204 A  
HETATM   17  C   UNL     1      -7.510  13.128  67.654  1.00  0.00    -0.164 C  
HETATM   18  O   UNL     1      -6.462  13.116  67.035  1.00  0.00    -0.145 OA 
HETATM   19  O   UNL     1      -7.603  13.462  68.964  1.00  0.00    -0.035 OA 
ENDBRANCH   9  11
ENDBRANCH   5   9
TORSDOF 2
ENDMDL
MODEL      260
REMARK 921   NORMALIZED FREE ENERGY PREDICTED BY IDOCK:   -2.53 KCAL/MOL
REMARK 922        TOTAL FREE ENERGY PREDICTED BY IDOCK:   -3.47 KCAL/MOL
REMARK 923 INTER-LIGAND FREE ENERGY PREDICTED BY IDOCK:   -3.27 KCAL/MOL
REMARK 924 INTRA-LIGAND FREE ENERGY PREDICTED BY IDOCK:   -0.21 KCAL/MOL
REMARK 927      BINDING AFFINITY PREDICTED BY RF-SCORE:    0.00 PKD
ROOT
HETATM    1  C   UNL     1      -9.496  12.783  68.263  1.00  0.00    -0.203 C  
HETATM    2  C   UNL     1      -9.366  11.319  67.935  1.00  0.00    -0.161 A  
HETATM    3  C   UNL     1      -8.498  10.446  68.627  1.00  0.00    -0.129 A  
HETATM    4  C   UNL     1      -7.440  10.980  69.556  1.00  0.00    -0.031 C  
HETATM    5  C   UNL     1      -8.664   9.054  68.456  1.00  0.00    -0.133 A  
HETATM    6  C   UNL     1     -10.182  10.822  66.910  1.00  0.00    -0.274 A  
HETATM    7  C   UNL     1      -9.438   8.595  67.377  1.00  0.00    -0.187 A  
HETATM    8  C   UNL     1     -10.181   9.466  66.598  1.00  0.00    -0.319 A  
ENDROOT
BRANCH   5   9
HETATM    9  N   UNL     1      -8.111   8.134  69.395  1.00  0.00    -0.115 NA 
HETATM   10  H   UNL     1      -7.185   8.342  69.769  1.00  0.00     0.000 HD 
BRANCH   9  11
HETATM   11  C   UNL     1      -8.751   6.946  69.853  1.00  0.00    -0.142 A  
HETATM   12  C   UNL     1      -9.023   5.901  68.953  1.00  0.00    -0.118 A  
HETATM   13  C   UNL     1      -9.470   4.653  69.386  1.00  0.00    -0.239 A  
HETATM   14  C   UNL     1      -9.707   4.441  70.738  1.00  0.00    -0.271 A  
HETATM   15  C   UNL     1      -9.572   5.499  71.636  1.00  0.00    -0.187 A  
HETATM   16  C   UNL     1      -9.144   6.761  71.192  1.00  0.00    -0.151 A  
HETATM   17  C   UNL     1      -9.128   7.858  72.181  1.00  0.00    -0.150 C  
HETATM   18  O   UNL     1      -8.818   7.715  73.349  1.00  0.00    -0.169 OA 
HETATM   19  O   UNL     1      -9.566   9.029  71.659  1.00  0.00    -0.288 OA 
ENDBRANCH   9  11
ENDBRANCH   5   9
TORSDOF 2
ENDMDL
MODEL      261
REMARK 921   NORMALIZED FREE ENERGY PREDICTED BY IDOCK:   -2.52 KCAL/MOL
REMARK 922        TOTAL FREE ENERGY PREDICTED BY IDOCK:   -3.46 KCAL/MOL
REMARK 923 INTER-LIGAND FREE ENERGY PREDICTED BY IDOCK:   -3.49 KCAL/MOL
REMARK 924 INTRA-LIGAND FREE ENERGY PREDICTED BY IDOCK:    0.02 KCAL/MOL
REMARK 927      BINDING AFFINITY PREDICTED BY RF-SCORE:    0.00 PKD
ROOT
HETATM    1  C   UNL     1     -11.885  15.836  68.916  1.00  0.00    -0.354 C  
HETATM    2  C   UNL     1     -11.028  15.483  67.730  1.00  0.00    -0.317 A  
HETATM    3  C   UNL     1     -10.101  14.418  67.736  1.00  0.00    -0.226 A  
HETATM    4  C   UNL     1      -9.709  13.739  69.021  1.00  0.00     0.135 C  
HETATM    5  C   UNL     1      -9.570  13.977  66.503  1.00  0.00    -0.293 A  
HETATM    6  C   UNL     1     -11.203  16.248  66.568  1.00  0.00     0.267 A  
HETATM    7  C   UNL     1      -9.712  14.803  65.374  1.00  0.00    -0.193 A  
HETATM    8  C   UNL     1     -10.507  15.937  65.404  1.00  0.00    -0.429 A  
ENDROOT
BRANCH   5   9
HETATM    9  N   UNL     1      -8.961  12.693  66.390  1.00  0.00    -0.417 NA 
HETATM   10  H   UNL     1      -8.281  12.430  67.103  1.00  0.00     0.000 HD 
BRANCH   9  11
HETATM   11  C   UNL     1      -9.228  11.747  65.358  1.00  0.00    -0.013 A  
HETATM   12  C   UNL     1      -9.983  12.126  64.234  1.00  0.00    -0.262 A  
HETATM   13  C   UNL     1     -10.107  11.300  63.117  1.00  0.00    -0.385 A  
HETATM   14  C   UNL     1      -9.517  10.043  63.125  1.00  0.00    -0.229 A  
HETATM   15  C   UNL     1      -8.875   9.590  64.277  1.00  0.00    -0.247 A  
HETATM   16  C   UNL     1      -8.772  10.416  65.408  1.00  0.00    -0.193 A  
HETATM   17  C   UNL     1      -8.174   9.830  66.625  1.00  0.00    -0.120 C  
HETATM   18  O   UNL     1      -7.245   9.044  66.614  1.00  0.00    -0.083 OA 
HETATM   19  O   UNL     1      -8.822  10.209  67.753  1.00  0.00    -0.125 OA 
ENDBRANCH   9  11
ENDBRANCH   5   9
TORSDOF 2
ENDMDL
MODEL      262
REMARK 921   NORMALIZED FREE ENERGY PREDICTED BY IDOCK:   -2.51 KCAL/MOL
REMARK 922        TOTAL FREE ENERGY PREDICTED BY IDOCK:   -3.45 KCAL/MOL
REMARK 923 INTER-LIGAND FREE ENERGY PREDICTED BY IDOCK:   -2.88 KCAL/MOL
REMARK 924 INTRA-LIGAND FREE ENERGY PREDICTED BY IDOCK:   -0.57 KCAL/MOL
REMARK 927      BINDING AFFINITY PREDICTED BY RF-SCORE:    0.00 PKD
ROOT
HETATM    1  C   UNL     1      -9.900  15.252  68.690  1.00  0.00    -0.211 C  
HETATM    2  C   UNL     1      -9.904  14.312  67.514  1.00  0.00    -0.231 A  
HETATM    3  C   UNL     1      -9.449  12.977  67.589  1.00  0.00    -0.201 A  
HETATM    4  C   UNL     1      -8.670  12.490  68.782  1.00  0.00     0.158 C  
HETATM    5  C   UNL     1      -9.768  12.094  66.534  1.00  0.00    -0.223 A  
HETATM    6  C   UNL     1     -10.420  14.804  66.307  1.00  0.00    -0.300 A  
HETATM    7  C   UNL     1     -10.223  12.633  65.318  1.00  0.00    -0.302 A  
HETATM    8  C   UNL     1     -10.533  13.977  65.195  1.00  0.00    -0.415 A  
ENDROOT
BRANCH   5   9
HETATM    9  N   UNL     1      -9.693  10.681  66.718  1.00  0.00    -0.180 NA 
HETATM   10  H   UNL     1     -10.529  10.207  67.060  1.00  0.00     0.000 HD 
BRANCH   9  11
HETATM   11  C   UNL     1      -8.542   9.882  66.463  1.00  0.00    -0.124 A  
HETATM   12  C   UNL     1      -7.917   9.929  65.204  1.00  0.00    -0.139 A  
HETATM   13  C   UNL     1      -6.686   9.317  64.969  1.00  0.00    -0.078 A  
HETATM   14  C   UNL     1      -6.075   8.593  65.985  1.00  0.00    -0.048 A  
HETATM   15  C   UNL     1      -6.734   8.421  67.202  1.00  0.00    -0.063 A  
HETATM   16  C   UNL     1      -7.985   9.020  67.426  1.00  0.00    -0.100 A  
HETATM   17  C   UNL     1      -8.670   8.704  68.696  1.00  0.00    -0.138 C  
HETATM   18  O   UNL     1      -8.096   8.559  69.759  1.00  0.00    -0.110 OA 
HETATM   19  O   UNL     1     -10.003   8.523  68.533  1.00  0.00    -0.173 OA 
ENDBRANCH   9  11
ENDBRANCH   5   9
TORSDOF 2
ENDMDL
MODEL      263
REMARK 921   NORMALIZED FREE ENERGY PREDICTED BY IDOCK:   -2.38 KCAL/MOL
REMARK 922        TOTAL FREE ENERGY PREDICTED BY IDOCK:   -3.30 KCAL/MOL
REMARK 923 INTER-LIGAND FREE ENERGY PREDICTED BY IDOCK:   -2.72 KCAL/MOL
REMARK 924 INTRA-LIGAND FREE ENERGY PREDICTED BY IDOCK:   -0.58 KCAL/MOL
REMARK 927      BINDING AFFINITY PREDICTED BY RF-SCORE:    0.00 PKD
ROOT
HETATM    1  C   UNL     1      -7.951   4.094  72.978  1.00  0.00    -0.089 C  
HETATM    2  C   UNL     1      -8.197   5.562  72.754  1.00  0.00    -0.109 A  
HETATM    3  C   UNL     1      -7.652   6.281  71.667  1.00  0.00    -0.095 A  
HETATM    4  C   UNL     1      -6.562   5.688  70.814  1.00  0.00    -0.044 C  
HETATM    5  C   UNL     1      -8.174   7.560  71.374  1.00  0.00    -0.106 A  
HETATM    6  C   UNL     1      -9.037   6.213  73.668  1.00  0.00    -0.129 A  
HETATM    7  C   UNL     1      -8.961   8.206  72.343  1.00  0.00    -0.265 A  
HETATM    8  C   UNL     1      -9.379   7.549  73.489  1.00  0.00    -0.316 A  
ENDROOT
BRANCH   5   9
HETATM    9  N   UNL     1      -7.963   8.157  70.096  1.00  0.00    -0.105 NA 
HETATM   10  H   UNL     1      -7.144   8.755  69.985  1.00  0.00     0.000 HD 
BRANCH   9  11
HETATM   11  C   UNL     1      -8.807   7.983  68.961  1.00  0.00    -0.145 A  
HETATM   12  C   UNL     1      -8.451   7.073  67.950  1.00  0.00    -0.124 A  
HETATM   13  C   UNL     1      -9.331   6.729  66.925  1.00  0.00    -0.176 A  
HETATM   14  C   UNL     1     -10.579   7.336  66.859  1.00  0.00    -0.375 A  
HETATM   15  C   UNL     1     -10.906   8.338  67.771  1.00  0.00    -0.061 A  
HETATM   16  C   UNL     1     -10.008   8.698  68.789  1.00  0.00    -0.194 A  
HETATM   17  C   UNL     1     -10.380   9.839  69.650  1.00  0.00    -0.238 C  
HETATM   18  O   UNL     1     -11.517  10.072  70.015  1.00  0.00    -0.251 OA 
HETATM   19  O   UNL     1      -9.324  10.640  69.930  1.00  0.00     0.102 OA 
ENDBRANCH   9  11
ENDBRANCH   5   9
TORSDOF 2
ENDMDL
MODEL      264
REMARK 921   NORMALIZED FREE ENERGY PREDICTED BY IDOCK:   -2.35 KCAL/MOL
REMARK 922        TOTAL FREE ENERGY PREDICTED BY IDOCK:   -3.27 KCAL/MOL
REMARK 923 INTER-LIGAND FREE ENERGY PREDICTED BY IDOCK:   -3.62 KCAL/MOL
REMARK 924 INTRA-LIGAND FREE ENERGY PREDICTED BY IDOCK:    0.34 KCAL/MOL
REMARK 927      BINDING AFFINITY PREDICTED BY RF-SCORE:    0.00 PKD
ROOT
HETATM    1  C   UNL     1      -8.129   4.669  65.241  1.00  0.00    -0.104 C  
HETATM    2  C   UNL     1      -8.434   6.130  65.042  1.00  0.00    -0.071 A  
HETATM    3  C   UNL     1      -9.218   6.886  65.942  1.00  0.00     0.004 A  
HETATM    4  C   UNL     1     -10.031   6.212  67.016  1.00  0.00    -0.200 C  
HETATM    5  C   UNL     1      -9.198   8.294  65.836  1.00  0.00    -0.123 A  
HETATM    6  C   UNL     1      -7.874   6.750  63.917  1.00  0.00    -0.106 A  
HETATM    7  C   UNL     1      -8.685   8.875  64.664  1.00  0.00    -0.138 A  
HETATM    8  C   UNL     1      -8.042   8.114  63.703  1.00  0.00    -0.115 A  
ENDROOT
BRANCH   5   9
HETATM    9  N   UNL     1      -9.630   9.112  66.923  1.00  0.00    -0.165 NA 
HETATM   10  H   UNL     1      -9.593   8.708  67.859  1.00  0.00     0.000 HD 
BRANCH   9  11
HETATM   11  C   UNL     1     -10.108  10.448  66.802  1.00  0.00    -0.214 A  
HETATM   12  C   UNL     1      -9.849  11.187  65.634  1.00  0.00    -0.280 A  
HETATM   13  C   UNL     1     -10.455  12.419  65.392  1.00  0.00    -0.306 A  
HETATM   14  C   UNL     1     -11.299  12.968  66.348  1.00  0.00    -0.355 A  
HETATM   15  C   UNL     1     -11.470  12.320  67.570  1.00  0.00    -0.414 A  
HETATM   16  C   UNL     1     -10.840  11.090  67.820  1.00  0.00    -0.297 A  
HETATM   17  C   UNL     1     -10.980  10.518  69.174  1.00  0.00    -0.240 C  
HETATM   18  O   UNL     1     -11.996  10.593  69.841  1.00  0.00    -0.288 OA 
HETATM   19  O   UNL     1      -9.829   9.961  69.622  1.00  0.00    -0.206 OA 
ENDBRANCH   9  11
ENDBRANCH   5   9
TORSDOF 2
ENDMDL
MODEL      265
REMARK 921   NORMALIZED FREE ENERGY PREDICTED BY IDOCK:   -2.23 KCAL/MOL
REMARK 922        TOTAL FREE ENERGY PREDICTED BY IDOCK:   -3.13 KCAL/MOL
REMARK 923 INTER-LIGAND FREE ENERGY PREDICTED BY IDOCK:   -3.74 KCAL/MOL
REMARK 924 INTRA-LIGAND FREE ENERGY PREDICTED BY IDOCK:    0.61 KCAL/MOL
REMARK 927      BINDING AFFINITY PREDICTED BY RF-SCORE:    0.00 PKD
ROOT
HETATM    1  C   UNL     1     -11.131  17.471  65.328  1.00  0.00     0.403 C  
HETATM    2  C   UNL     1     -10.985  15.999  65.044  1.00  0.00    -0.393 A  
HETATM    3  C   UNL     1      -9.877  15.236  65.473  1.00  0.00    -0.362 A  
HETATM    4  C   UNL     1      -8.635  15.902  66.003  1.00  0.00    -0.130 C  
HETATM    5  C   UNL     1      -9.969  13.827  65.426  1.00  0.00    -0.229 A  
HETATM    6  C   UNL     1     -12.030  15.379  64.346  1.00  0.00    -0.235 A  
HETATM    7  C   UNL     1     -10.995  13.244  64.662  1.00  0.00    -0.384 A  
HETATM    8  C   UNL     1     -12.010  14.008  64.112  1.00  0.00    -0.439 A  
ENDROOT
BRANCH   5   9
HETATM    9  N   UNL     1      -9.081  13.013  66.190  1.00  0.00    -0.457 NA 
HETATM   10  H   UNL     1      -8.115  13.328  66.281  1.00  0.00     0.000 HD 
BRANCH   9  11
HETATM   11  C   UNL     1      -9.439  11.795  66.837  1.00  0.00    -0.193 A  
HETATM   12  C   UNL     1      -9.080  10.562  66.265  1.00  0.00    -0.184 A  
HETATM   13  C   UNL     1      -9.237   9.358  66.951  1.00  0.00    -0.173 A  
HETATM   14  C   UNL     1      -9.812   9.359  68.215  1.00  0.00    -0.180 A  
HETATM   15  C   UNL     1     -10.297  10.551  68.751  1.00  0.00    -0.208 A  
HETATM   16  C   UNL     1     -10.158  11.758  68.047  1.00  0.00    -0.198 A  
HETATM   17  C   UNL     1     -10.792  12.960  68.628  1.00  0.00    -0.258 C  
HETATM   18  O   UNL     1     -10.838  13.192  69.821  1.00  0.00     0.161 OA 
HETATM   19  O   UNL     1     -11.378  13.740  67.688  1.00  0.00    -0.279 OA 
ENDBRANCH   9  11
ENDBRANCH   5   9
TORSDOF 2
ENDMDL
MODEL      266
REMARK 921   NORMALIZED FREE ENERGY PREDICTED BY IDOCK:   -2.21 KCAL/MOL
REMARK 922        TOTAL FREE ENERGY PREDICTED BY IDOCK:   -3.11 KCAL/MOL
REMARK 923 INTER-LIGAND FREE ENERGY PREDICTED BY IDOCK:   -2.94 KCAL/MOL
REMARK 924 INTRA-LIGAND FREE ENERGY PREDICTED BY IDOCK:   -0.17 KCAL/MOL
REMARK 927      BINDING AFFINITY PREDICTED BY RF-SCORE:    0.00 PKD
ROOT
HETATM    1  C   UNL     1      -9.096   7.472  73.468  1.00  0.00    -0.286 C  
HETATM    2  C   UNL     1      -9.942   7.214  72.249  1.00  0.00    -0.193 A  
HETATM    3  C   UNL     1      -9.751   7.882  71.020  1.00  0.00    -0.178 A  
HETATM    4  C   UNL     1      -8.868   9.097  70.927  1.00  0.00    -0.292 C  
HETATM    5  C   UNL     1     -10.383   7.366  69.866  1.00  0.00    -0.218 A  
HETATM    6  C   UNL     1     -10.940   6.236  72.363  1.00  0.00    -0.291 A  
HETATM    7  C   UNL     1     -11.422   6.433  70.026  1.00  0.00    -0.496 A  
HETATM    8  C   UNL     1     -11.713   5.881  71.263  1.00  0.00     0.034 A  
ENDROOT
BRANCH   5   9
HETATM    9  N   UNL     1      -9.932   7.733  68.564  1.00  0.00    -0.176 NA 
HETATM   10  H   UNL     1     -10.612   8.157  67.933  1.00  0.00     0.000 HD 
BRANCH   9  11
HETATM   11  C   UNL     1      -8.605   7.555  68.076  1.00  0.00    -0.122 A  
HETATM   12  C   UNL     1      -7.751   8.663  67.937  1.00  0.00    -0.102 A  
HETATM   13  C   UNL     1      -6.394   8.516  67.649  1.00  0.00    -0.053 A  
HETATM   14  C   UNL     1      -5.871   7.247  67.440  1.00  0.00    -0.030 A  
HETATM   15  C   UNL     1      -6.722   6.142  67.441  1.00  0.00    -0.061 A  
HETATM   16  C   UNL     1      -8.092   6.297  67.708  1.00  0.00    -0.114 A  
HETATM   17  C   UNL     1      -8.947   5.098  67.586  1.00  0.00    -0.109 C  
HETATM   18  O   UNL     1      -8.597   3.979  67.911  1.00  0.00    -0.093 OA 
HETATM   19  O   UNL     1     -10.140   5.372  67.006  1.00  0.00    -0.161 OA 
ENDBRANCH   9  11
ENDBRANCH   5   9
TORSDOF 2
ENDMDL
MODEL      267
REMARK 921   NORMALIZED FREE ENERGY PREDICTED BY IDOCK:   -2.19 KCAL/MOL
REMARK 922        TOTAL FREE ENERGY PREDICTED BY IDOCK:   -3.09 KCAL/MOL
REMARK 923 INTER-LIGAND FREE ENERGY PREDICTED BY IDOCK:   -2.57 KCAL/MOL
REMARK 924 INTRA-LIGAND FREE ENERGY PREDICTED BY IDOCK:   -0.53 KCAL/MOL
REMARK 927      BINDING AFFINITY PREDICTED BY RF-SCORE:    0.00 PKD
ROOT
HETATM    1  C   UNL     1      -9.119  12.607  67.886  1.00  0.00    -0.200 C  
HETATM    2  C   UNL     1      -8.300  11.357  68.069  1.00  0.00    -0.143 A  
HETATM    3  C   UNL     1      -8.829  10.057  67.910  1.00  0.00    -0.125 A  
HETATM    4  C   UNL     1     -10.314   9.830  67.819  1.00  0.00    -0.274 C  
HETATM    5  C   UNL     1      -7.931   8.971  67.804  1.00  0.00    -0.101 A  
HETATM    6  C   UNL     1      -6.944  11.524  68.381  1.00  0.00    -0.077 A  
HETATM    7  C   UNL     1      -6.592   9.164  68.187  1.00  0.00    -0.060 A  
HETATM    8  C   UNL     1      -6.101  10.423  68.489  1.00  0.00    -0.043 A  
ENDROOT
BRANCH   5   9
HETATM    9  N   UNL     1      -8.357   7.724  67.257  1.00  0.00    -0.118 NA 
HETATM   10  H   UNL     1      -8.417   7.652  66.242  1.00  0.00     0.000 HD 
BRANCH   9  11
HETATM   11  C   UNL     1      -8.706   6.573  68.020  1.00  0.00    -0.116 A  
HETATM   12  C   UNL     1      -8.643   6.612  69.424  1.00  0.00    -0.135 A  
HETATM   13  C   UNL     1      -9.153   5.582  70.214  1.00  0.00    -0.163 A  
HETATM   14  C   UNL     1      -9.695   4.456  69.607  1.00  0.00    -0.289 A  
HETATM   15  C   UNL     1      -9.651   4.333  68.219  1.00  0.00    -0.197 A  
HETATM   16  C   UNL     1      -9.114   5.363  67.428  1.00  0.00    -0.111 A  
HETATM   17  C   UNL     1      -9.003   5.115  65.976  1.00  0.00    -0.140 C  
HETATM   18  O   UNL     1      -9.826   4.496  65.328  1.00  0.00    -0.181 OA 
HETATM   19  O   UNL     1      -7.846   5.592  65.458  1.00  0.00    -0.093 OA 
ENDBRANCH   9  11
ENDBRANCH   5   9
TORSDOF 2
ENDMDL
MODEL      268
REMARK 921   NORMALIZED FREE ENERGY PREDICTED BY IDOCK:   -2.17 KCAL/MOL
REMARK 922        TOTAL FREE ENERGY PREDICTED BY IDOCK:   -3.07 KCAL/MOL
REMARK 923 INTER-LIGAND FREE ENERGY PREDICTED BY IDOCK:   -2.43 KCAL/MOL
REMARK 924 INTRA-LIGAND FREE ENERGY PREDICTED BY IDOCK:   -0.64 KCAL/MOL
REMARK 927      BINDING AFFINITY PREDICTED BY RF-SCORE:    0.00 PKD
ROOT
HETATM    1  C   UNL     1      -8.767   3.658  71.795  1.00  0.00    -0.125 C  
HETATM    2  C   UNL     1      -9.237   4.834  70.980  1.00  0.00    -0.194 A  
HETATM    3  C   UNL     1      -8.362   5.813  70.460  1.00  0.00    -0.119 A  
HETATM    4  C   UNL     1      -6.931   5.897  70.921  1.00  0.00    -0.067 C  
HETATM    5  C   UNL     1      -8.848   6.695  69.470  1.00  0.00    -0.139 A  
HETATM    6  C   UNL     1     -10.611   4.917  70.715  1.00  0.00    -0.072 A  
HETATM    7  C   UNL     1     -10.237   6.795  69.279  1.00  0.00    -0.197 A  
HETATM    8  C   UNL     1     -11.116   5.928  69.905  1.00  0.00    -0.417 A  
ENDROOT
BRANCH   5   9
HETATM    9  N   UNL     1      -7.947   7.422  68.636  1.00  0.00    -0.122 NA 
HETATM   10  H   UNL     1      -7.270   6.884  68.094  1.00  0.00     0.000 HD 
BRANCH   9  11
HETATM   11  C   UNL     1      -7.919   8.840  68.500  1.00  0.00    -0.112 A  
HETATM   12  C   UNL     1      -7.845   9.656  69.642  1.00  0.00    -0.129 A  
HETATM   13  C   UNL     1      -7.623  11.030  69.553  1.00  0.00    -0.001 A  
HETATM   14  C   UNL     1      -7.524  11.629  68.304  1.00  0.00    -0.097 A  
HETATM   15  C   UNL     1      -7.726  10.865  67.155  1.00  0.00    -0.123 A  
HETATM   16  C   UNL     1      -7.972   9.485  67.250  1.00  0.00    -0.106 A  
HETATM   17  C   UNL     1      -8.282   8.764  65.999  1.00  0.00    -0.118 C  
HETATM   18  O   UNL     1      -7.759   9.007  64.927  1.00  0.00    -0.104 OA 
HETATM   19  O   UNL     1      -9.266   7.848  66.161  1.00  0.00    -0.187 OA 
ENDBRANCH   9  11
ENDBRANCH   5   9
TORSDOF 2
ENDMDL
MODEL      269
REMARK 921   NORMALIZED FREE ENERGY PREDICTED BY IDOCK:   -2.08 KCAL/MOL
REMARK 922        TOTAL FREE ENERGY PREDICTED BY IDOCK:   -2.96 KCAL/MOL
REMARK 923 INTER-LIGAND FREE ENERGY PREDICTED BY IDOCK:   -2.23 KCAL/MOL
REMARK 924 INTRA-LIGAND FREE ENERGY PREDICTED BY IDOCK:   -0.73 KCAL/MOL
REMARK 927      BINDING AFFINITY PREDICTED BY RF-SCORE:    0.00 PKD
ROOT
HETATM    1  C   UNL     1      -8.558   2.940  71.479  1.00  0.00    -0.099 C  
HETATM    2  C   UNL     1      -7.920   4.291  71.291  1.00  0.00    -0.077 A  
HETATM    3  C   UNL     1      -7.540   4.796  70.028  1.00  0.00    -0.055 A  
HETATM    4  C   UNL     1      -7.493   3.903  68.817  1.00  0.00    -0.054 C  
HETATM    5  C   UNL     1      -7.235   6.171  69.916  1.00  0.00    -0.074 A  
HETATM    6  C   UNL     1      -7.736   5.073  72.439  1.00  0.00    -0.096 A  
HETATM    7  C   UNL     1      -6.995   6.907  71.089  1.00  0.00    -0.069 A  
HETATM    8  C   UNL     1      -7.227   6.364  72.342  1.00  0.00    -0.083 A  
ENDROOT
BRANCH   5   9
HETATM    9  N   UNL     1      -7.234   6.815  68.642  1.00  0.00    -0.082 NA 
HETATM   10  H   UNL     1      -6.394   6.726  68.071  1.00  0.00     0.000 HD 
BRANCH   9  11
HETATM   11  C   UNL     1      -8.315   7.572  68.107  1.00  0.00    -0.125 A  
HETATM   12  C   UNL     1      -9.340   6.929  67.391  1.00  0.00    -0.144 A  
HETATM   13  C   UNL     1     -10.507   7.593  67.017  1.00  0.00    -0.419 A  
HETATM   14  C   UNL     1     -10.651   8.944  67.308  1.00  0.00    -0.304 A  
HETATM   15  C   UNL     1      -9.596   9.637  67.900  1.00  0.00    -0.159 A  
HETATM   16  C   UNL     1      -8.413   8.969  68.255  1.00  0.00    -0.129 A  
HETATM   17  C   UNL     1      -7.301   9.789  68.777  1.00  0.00    -0.074 C  
HETATM   18  O   UNL     1      -7.452  10.754  69.504  1.00  0.00    -0.142 OA 
HETATM   19  O   UNL     1      -6.097   9.391  68.301  1.00  0.00    -0.048 OA 
ENDBRANCH   9  11
ENDBRANCH   5   9
TORSDOF 2
ENDMDL
MODEL      270
REMARK 921   NORMALIZED FREE ENERGY PREDICTED BY IDOCK:   -2.00 KCAL/MOL
REMARK 922        TOTAL FREE ENERGY PREDICTED BY IDOCK:   -2.87 KCAL/MOL
REMARK 923 INTER-LIGAND FREE ENERGY PREDICTED BY IDOCK:   -2.47 KCAL/MOL
REMARK 924 INTRA-LIGAND FREE ENERGY PREDICTED BY IDOCK:   -0.40 KCAL/MOL
REMARK 927      BINDING AFFINITY PREDICTED BY RF-SCORE:    0.00 PKD
ROOT
HETATM    1  C   UNL     1      -5.139  10.111  67.543  1.00  0.00    -0.037 C  
HETATM    2  C   UNL     1      -6.547  10.374  67.079  1.00  0.00    -0.075 A  
HETATM    3  C   UNL     1      -7.195  11.618  67.245  1.00  0.00    -0.137 A  
HETATM    4  C   UNL     1      -6.620  12.678  68.146  1.00  0.00    -0.081 C  
HETATM    5  C   UNL     1      -8.383  11.861  66.521  1.00  0.00    -0.062 A  
HETATM    6  C   UNL     1      -7.209   9.325  66.428  1.00  0.00    -0.088 A  
HETATM    7  C   UNL     1      -9.051  10.772  65.935  1.00  0.00    -0.208 A  
HETATM    8  C   UNL     1      -8.482   9.510  65.899  1.00  0.00    -0.133 A  
ENDROOT
BRANCH   5   9
HETATM    9  N   UNL     1      -8.861  13.192  66.331  1.00  0.00    -0.440 NA 
HETATM   10  H   UNL     1      -8.254  13.843  65.833  1.00  0.00     0.000 HD 
BRANCH   9  11
HETATM   11  C   UNL     1     -10.120  13.682  66.784  1.00  0.00    -0.269 A  
HETATM   12  C   UNL     1     -11.310  13.072  66.351  1.00  0.00    -0.355 A  
HETATM   13  C   UNL     1     -12.547  13.390  66.912  1.00  0.00     0.109 A  
HETATM   14  C   UNL     1     -12.625  14.374  67.889  1.00  0.00     0.508 A  
HETATM   15  C   UNL     1     -11.479  15.086  68.243  1.00  0.00    -0.349 A  
HETATM   16  C   UNL     1     -10.239  14.779  67.659  1.00  0.00    -0.232 A  
HETATM   17  C   UNL     1      -9.094  15.646  68.002  1.00  0.00    -0.183 C  
HETATM   18  O   UNL     1      -8.912  16.125  69.106  1.00  0.00    -0.242 OA 
HETATM   19  O   UNL     1      -8.305  15.908  66.932  1.00  0.00    -0.198 OA 
ENDBRANCH   9  11
ENDBRANCH   5   9
TORSDOF 2
ENDMDL
MODEL      271
REMARK 921   NORMALIZED FREE ENERGY PREDICTED BY IDOCK:   -1.99 KCAL/MOL
REMARK 922        TOTAL FREE ENERGY PREDICTED BY IDOCK:   -2.86 KCAL/MOL
REMARK 923 INTER-LIGAND FREE ENERGY PREDICTED BY IDOCK:   -2.18 KCAL/MOL
REMARK 924 INTRA-LIGAND FREE ENERGY PREDICTED BY IDOCK:   -0.68 KCAL/MOL
REMARK 927      BINDING AFFINITY PREDICTED BY RF-SCORE:    0.00 PKD
ROOT
HETATM    1  C   UNL     1      -6.318   6.982  64.425  1.00  0.00    -0.036 C  
HETATM    2  C   UNL     1      -7.302   7.393  65.488  1.00  0.00    -0.074 A  
HETATM    3  C   UNL     1      -8.110   6.473  66.191  1.00  0.00    -0.118 A  
HETATM    4  C   UNL     1      -8.242   5.046  65.728  1.00  0.00    -0.115 C  
HETATM    5  C   UNL     1      -8.770   6.910  67.361  1.00  0.00    -0.119 A  
HETATM    6  C   UNL     1      -7.374   8.759  65.794  1.00  0.00    -0.085 A  
HETATM    7  C   UNL     1      -8.876   8.291  67.599  1.00  0.00    -0.137 A  
HETATM    8  C   UNL     1      -8.199   9.213  66.818  1.00  0.00    -0.119 A  
ENDROOT
BRANCH   5   9
HETATM    9  N   UNL     1      -9.262   5.969  68.314  1.00  0.00    -0.118 NA 
HETATM   10  H   UNL     1     -10.168   5.539  68.126  1.00  0.00     0.000 HD 
BRANCH   9  11
HETATM   11  C   UNL     1      -8.586   5.583  69.507  1.00  0.00    -0.105 A  
HETATM   12  C   UNL     1      -7.407   4.820  69.433  1.00  0.00    -0.052 A  
HETATM   13  C   UNL     1      -6.612   4.584  70.554  1.00  0.00    -0.035 A  
HETATM   14  C   UNL     1      -7.012   5.065  71.794  1.00  0.00    -0.057 A  
HETATM   15  C   UNL     1      -8.243   5.710  71.918  1.00  0.00    -0.119 A  
HETATM   16  C   UNL     1      -9.052   5.926  70.790  1.00  0.00    -0.163 A  
HETATM   17  C   UNL     1     -10.386   6.518  71.016  1.00  0.00    -0.206 C  
HETATM   18  O   UNL     1     -10.616   7.376  71.848  1.00  0.00    -0.201 OA 
HETATM   19  O   UNL     1     -11.341   5.948  70.243  1.00  0.00    -0.322 OA 
ENDBRANCH   9  11
ENDBRANCH   5   9
TORSDOF 2
ENDMDL
MODEL      272
REMARK 921   NORMALIZED FREE ENERGY PREDICTED BY IDOCK:   -1.96 KCAL/MOL
REMARK 922        TOTAL FREE ENERGY PREDICTED BY IDOCK:   -2.83 KCAL/MOL
REMARK 923 INTER-LIGAND FREE ENERGY PREDICTED BY IDOCK:   -2.36 KCAL/MOL
REMARK 924 INTRA-LIGAND FREE ENERGY PREDICTED BY IDOCK:   -0.47 KCAL/MOL
REMARK 927      BINDING AFFINITY PREDICTED BY RF-SCORE:    0.00 PKD
ROOT
HETATM    1  C   UNL     1     -10.445  10.897  64.243  1.00  0.00    -0.405 C  
HETATM    2  C   UNL     1      -9.444  10.782  65.361  1.00  0.00    -0.258 A  
HETATM    3  C   UNL     1      -9.790  10.380  66.670  1.00  0.00    -0.251 A  
HETATM    4  C   UNL     1     -11.230  10.308  67.104  1.00  0.00    -0.022 C  
HETATM    5  C   UNL     1      -8.755  10.013  67.559  1.00  0.00    -0.125 A  
HETATM    6  C   UNL     1      -8.107  11.063  65.049  1.00  0.00     0.245 A  
HETATM    7  C   UNL     1      -7.434  10.370  67.239  1.00  0.00    -0.094 A  
HETATM    8  C   UNL     1      -7.108  10.904  66.004  1.00  0.00    -0.067 A  
ENDROOT
BRANCH   5   9
HETATM    9  N   UNL     1      -9.036   9.239  68.724  1.00  0.00    -0.135 NA 
HETATM   10  H   UNL     1      -9.007   9.718  69.625  1.00  0.00     0.000 HD 
BRANCH   9  11
HETATM   11  C   UNL     1      -9.355   7.851  68.728  1.00  0.00    -0.146 A  
HETATM   12  C   UNL     1     -10.696   7.436  68.813  1.00  0.00    -0.145 A  
HETATM   13  C   UNL     1     -11.068   6.105  68.628  1.00  0.00    -0.378 A  
HETATM   14  C   UNL     1     -10.091   5.144  68.404  1.00  0.00    -0.205 A  
HETATM   15  C   UNL     1      -8.745   5.507  68.446  1.00  0.00    -0.105 A  
HETATM   16  C   UNL     1      -8.373   6.844  68.656  1.00  0.00    -0.121 A  
HETATM   17  C   UNL     1      -6.931   7.134  68.794  1.00  0.00    -0.082 C  
HETATM   18  O   UNL     1      -6.061   6.569  68.159  1.00  0.00    -0.025 OA 
HETATM   19  O   UNL     1      -6.679   8.050  69.760  1.00  0.00    -0.039 OA 
ENDBRANCH   9  11
ENDBRANCH   5   9
TORSDOF 2
ENDMDL
MODEL      273
REMARK 921   NORMALIZED FREE ENERGY PREDICTED BY IDOCK:   -1.95 KCAL/MOL
REMARK 922        TOTAL FREE ENERGY PREDICTED BY IDOCK:   -2.82 KCAL/MOL
REMARK 923 INTER-LIGAND FREE ENERGY PREDICTED BY IDOCK:   -2.14 KCAL/MOL
REMARK 924 INTRA-LIGAND FREE ENERGY PREDICTED BY IDOCK:   -0.69 KCAL/MOL
REMARK 927      BINDING AFFINITY PREDICTED BY RF-SCORE:    0.00 PKD
ROOT
HETATM    1  C   UNL     1      -6.948   7.034  71.213  1.00  0.00    -0.061 C  
HETATM    2  C   UNL     1      -7.843   7.068  70.003  1.00  0.00    -0.113 A  
HETATM    3  C   UNL     1      -7.542   6.394  68.799  1.00  0.00    -0.093 A  
HETATM    4  C   UNL     1      -6.170   5.824  68.552  1.00  0.00    -0.029 C  
HETATM    5  C   UNL     1      -8.566   6.236  67.839  1.00  0.00    -0.115 A  
HETATM    6  C   UNL     1      -9.040   7.787  70.118  1.00  0.00    -0.153 A  
HETATM    7  C   UNL     1      -9.726   7.022  67.955  1.00  0.00    -0.140 A  
HETATM    8  C   UNL     1      -9.960   7.804  69.074  1.00  0.00    -0.182 A  
ENDROOT
BRANCH   5   9
HETATM    9  N   UNL     1      -8.456   5.252  66.812  1.00  0.00    -0.108 NA 
HETATM   10  H   UNL     1      -8.511   4.273  67.090  1.00  0.00     0.000 HD 
BRANCH   9  11
HETATM   11  C   UNL     1      -8.275   5.533  65.427  1.00  0.00    -0.133 A  
HETATM   12  C   UNL     1      -7.400   6.557  65.023  1.00  0.00    -0.078 A  
HETATM   13  C   UNL     1      -7.046   6.740  63.687  1.00  0.00    -0.060 A  
HETATM   14  C   UNL     1      -7.608   5.926  62.711  1.00  0.00    -0.078 A  
HETATM   15  C   UNL     1      -8.577   4.990  63.068  1.00  0.00    -0.109 A  
HETATM   16  C   UNL     1      -8.948   4.825  64.413  1.00  0.00    -0.117 A  
HETATM   17  C   UNL     1     -10.057   3.892  64.701  1.00  0.00    -0.213 C  
HETATM   18  O   UNL     1     -10.240   2.849  64.102  1.00  0.00    -0.145 OA 
HETATM   19  O   UNL     1     -10.890   4.361  65.661  1.00  0.00    -0.208 OA 
ENDBRANCH   9  11
ENDBRANCH   5   9
TORSDOF 2
ENDMDL
MODEL      274
REMARK 921   NORMALIZED FREE ENERGY PREDICTED BY IDOCK:   -1.91 KCAL/MOL
REMARK 922        TOTAL FREE ENERGY PREDICTED BY IDOCK:   -2.78 KCAL/MOL
REMARK 923 INTER-LIGAND FREE ENERGY PREDICTED BY IDOCK:   -2.23 KCAL/MOL
REMARK 924 INTRA-LIGAND FREE ENERGY PREDICTED BY IDOCK:   -0.55 KCAL/MOL
REMARK 927      BINDING AFFINITY PREDICTED BY RF-SCORE:    0.00 PKD
ROOT
HETATM    1  C   UNL     1      -7.775   7.660  70.394  1.00  0.00    -0.090 C  
HETATM    2  C   UNL     1      -8.548   6.369  70.363  1.00  0.00    -0.142 A  
HETATM    3  C   UNL     1      -8.968   5.748  69.165  1.00  0.00    -0.120 A  
HETATM    4  C   UNL     1      -8.912   6.482  67.851  1.00  0.00    -0.115 C  
HETATM    5  C   UNL     1      -9.413   4.409  69.219  1.00  0.00    -0.179 A  
HETATM    6  C   UNL     1      -8.821   5.760  71.595  1.00  0.00    -0.138 A  
HETATM    7  C   UNL     1      -9.737   3.856  70.470  1.00  0.00    -0.247 A  
HETATM    8  C   UNL     1      -9.461   4.526  71.650  1.00  0.00    -0.210 A  
ENDROOT
BRANCH   5   9
HETATM    9  N   UNL     1      -9.470   3.613  68.037  1.00  0.00    -0.179 NA 
HETATM   10  H   UNL     1     -10.393   3.384  67.668  1.00  0.00     0.000 HD 
BRANCH   9  11
HETATM   11  C   UNL     1      -8.338   3.112  67.332  1.00  0.00    -0.084 A  
HETATM   12  C   UNL     1      -7.139   2.850  68.018  1.00  0.00    -0.049 A  
HETATM   13  C   UNL     1      -6.074   2.184  67.413  1.00  0.00    -0.024 A  
HETATM   14  C   UNL     1      -6.168   1.810  66.078  1.00  0.00    -0.023 A  
HETATM   15  C   UNL     1      -7.292   2.174  65.338  1.00  0.00    -0.062 A  
HETATM   16  C   UNL     1      -8.353   2.865  65.945  1.00  0.00    -0.092 A  
HETATM   17  C   UNL     1      -9.460   3.311  65.074  1.00  0.00    -0.145 C  
HETATM   18  O   UNL     1      -9.885   2.666  64.134  1.00  0.00    -0.150 OA 
HETATM   19  O   UNL     1      -9.903   4.550  65.395  1.00  0.00    -0.183 OA 
ENDBRANCH   9  11
ENDBRANCH   5   9
TORSDOF 2
ENDMDL
MODEL      275
REMARK 921   NORMALIZED FREE ENERGY PREDICTED BY IDOCK:   -1.89 KCAL/MOL
REMARK 922        TOTAL FREE ENERGY PREDICTED BY IDOCK:   -2.75 KCAL/MOL
REMARK 923 INTER-LIGAND FREE ENERGY PREDICTED BY IDOCK:   -3.27 KCAL/MOL
REMARK 924 INTRA-LIGAND FREE ENERGY PREDICTED BY IDOCK:    0.52 KCAL/MOL
REMARK 927      BINDING AFFINITY PREDICTED BY RF-SCORE:    0.00 PKD
ROOT
HETATM    1  C   UNL     1     -11.042  15.369  70.273  1.00  0.00    -0.331 C  
HETATM    2  C   UNL     1     -10.521  15.556  68.873  1.00  0.00    -0.223 A  
HETATM    3  C   UNL     1      -9.641  14.647  68.248  1.00  0.00    -0.208 A  
HETATM    4  C   UNL     1      -8.945  13.572  69.040  1.00  0.00     0.364 C  
HETATM    5  C   UNL     1      -9.449  14.744  66.851  1.00  0.00    -0.240 A  
HETATM    6  C   UNL     1     -10.974  16.682  68.171  1.00  0.00    -0.327 A  
HETATM    7  C   UNL     1      -9.861  15.916  66.195  1.00  0.00    -0.343 A  
HETATM    8  C   UNL     1     -10.604  16.887  66.846  1.00  0.00    -0.214 A  
ENDROOT
BRANCH   5   9
HETATM    9  N   UNL     1      -8.909  13.650  66.112  1.00  0.00    -0.338 NA 
HETATM   10  H   UNL     1      -8.352  13.869  65.287  1.00  0.00     0.000 HD 
BRANCH   9  11
HETATM   11  C   UNL     1      -9.088  12.274  66.438  1.00  0.00    -0.158 A  
HETATM   12  C   UNL     1     -10.382  11.754  66.617  1.00  0.00    -0.251 A  
HETATM   13  C   UNL     1     -10.615  10.386  66.746  1.00  0.00    -0.270 A  
HETATM   14  C   UNL     1      -9.541   9.504  66.752  1.00  0.00    -0.229 A  
HETATM   15  C   UNL     1      -8.240  10.004  66.710  1.00  0.00    -0.121 A  
HETATM   16  C   UNL     1      -8.009  11.385  66.603  1.00  0.00    -0.148 A  
HETATM   17  C   UNL     1      -6.607  11.846  66.673  1.00  0.00     0.078 C  
HETATM   18  O   UNL     1      -5.669  11.242  66.187  1.00  0.00    -0.145 OA 
HETATM   19  O   UNL     1      -6.471  12.981  67.399  1.00  0.00    -0.166 OA 
ENDBRANCH   9  11
ENDBRANCH   5   9
TORSDOF 2
ENDMDL
MODEL      276
REMARK 921   NORMALIZED FREE ENERGY PREDICTED BY IDOCK:   -1.64 KCAL/MOL
REMARK 922        TOTAL FREE ENERGY PREDICTED BY IDOCK:   -2.47 KCAL/MOL
REMARK 923 INTER-LIGAND FREE ENERGY PREDICTED BY IDOCK:   -1.80 KCAL/MOL
REMARK 924 INTRA-LIGAND FREE ENERGY PREDICTED BY IDOCK:   -0.68 KCAL/MOL
REMARK 927      BINDING AFFINITY PREDICTED BY RF-SCORE:    0.00 PKD
ROOT
HETATM    1  C   UNL     1      -6.756   5.480  72.011  1.00  0.00    -0.059 C  
HETATM    2  C   UNL     1      -7.540   5.747  70.753  1.00  0.00    -0.092 A  
HETATM    3  C   UNL     1      -6.965   6.293  69.585  1.00  0.00    -0.071 A  
HETATM    4  C   UNL     1      -5.589   6.905  69.611  1.00  0.00    -0.015 C  
HETATM    5  C   UNL     1      -7.695   6.226  68.378  1.00  0.00    -0.104 A  
HETATM    6  C   UNL     1      -8.897   5.396  70.763  1.00  0.00    -0.145 A  
HETATM    7  C   UNL     1      -9.068   5.933  68.436  1.00  0.00    -0.115 A  
HETATM    8  C   UNL     1      -9.673   5.536  69.617  1.00  0.00    -0.230 A  
ENDROOT
BRANCH   5   9
HETATM    9  N   UNL     1      -7.040   6.387  67.120  1.00  0.00    -0.071 NA 
HETATM   10  H   UNL     1      -6.406   5.646  66.822  1.00  0.00     0.000 HD 
BRANCH   9  11
HETATM   11  C   UNL     1      -7.203   7.503  66.250  1.00  0.00    -0.074 A  
HETATM   12  C   UNL     1      -7.109   8.811  66.755  1.00  0.00    -0.081 A  
HETATM   13  C   UNL     1      -7.070   9.924  65.917  1.00  0.00    -0.107 A  
HETATM   14  C   UNL     1      -7.179   9.753  64.542  1.00  0.00    -0.128 A  
HETATM   15  C   UNL     1      -7.405   8.478  64.024  1.00  0.00    -0.104 A  
HETATM   16  C   UNL     1      -7.467   7.362  64.874  1.00  0.00    -0.087 A  
HETATM   17  C   UNL     1      -7.817   6.063  64.264  1.00  0.00    -0.113 C  
HETATM   18  O   UNL     1      -7.445   5.709  63.161  1.00  0.00    -0.054 OA 
HETATM   19  O   UNL     1      -8.657   5.337  65.040  1.00  0.00    -0.146 OA 
ENDBRANCH   9  11
ENDBRANCH   5   9
TORSDOF 2
ENDMDL
MODEL      277
REMARK 921   NORMALIZED FREE ENERGY PREDICTED BY IDOCK:   -1.62 KCAL/MOL
REMARK 922        TOTAL FREE ENERGY PREDICTED BY IDOCK:   -2.46 KCAL/MOL
REMARK 923 INTER-LIGAND FREE ENERGY PREDICTED BY IDOCK:   -1.84 KCAL/MOL
REMARK 924 INTRA-LIGAND FREE ENERGY PREDICTED BY IDOCK:   -0.61 KCAL/MOL
REMARK 927      BINDING AFFINITY PREDICTED BY RF-SCORE:    0.00 PKD
ROOT
HETATM    1  C   UNL     1     -10.051   4.145  65.018  1.00  0.00    -0.220 C  
HETATM    2  C   UNL     1      -9.294   5.438  65.174  1.00  0.00     0.105 A  
HETATM    3  C   UNL     1      -9.535   6.353  66.222  1.00  0.00    -0.133 A  
HETATM    4  C   UNL     1     -10.756   6.228  67.095  1.00  0.00    -0.432 C  
HETATM    5  C   UNL     1      -8.588   7.374  66.458  1.00  0.00    -0.132 A  
HETATM    6  C   UNL     1      -8.288   5.703  64.235  1.00  0.00    -0.081 A  
HETATM    7  C   UNL     1      -7.634   7.651  65.464  1.00  0.00    -0.092 A  
HETATM    8  C   UNL     1      -7.490   6.836  64.353  1.00  0.00    -0.100 A  
ENDROOT
BRANCH   5   9
HETATM    9  N   UNL     1      -8.558   8.065  67.706  1.00  0.00    -0.128 NA 
HETATM   10  H   UNL     1      -9.169   8.876  67.809  1.00  0.00     0.000 HD 
BRANCH   9  11
HETATM   11  C   UNL     1      -7.742   7.711  68.818  1.00  0.00    -0.118 A  
HETATM   12  C   UNL     1      -7.727   6.386  69.288  1.00  0.00    -0.101 A  
HETATM   13  C   UNL     1      -6.807   5.954  70.243  1.00  0.00    -0.053 A  
HETATM   14  C   UNL     1      -5.910   6.861  70.792  1.00  0.00    -0.027 A  
HETATM   15  C   UNL     1      -5.991   8.208  70.441  1.00  0.00    -0.028 A  
HETATM   16  C   UNL     1      -6.934   8.644  69.496  1.00  0.00    -0.048 A  
HETATM   17  C   UNL     1      -7.032  10.098  69.257  1.00  0.00    -0.068 C  
HETATM   18  O   UNL     1      -6.075  10.851  69.249  1.00  0.00    -0.042 OA 
HETATM   19  O   UNL     1      -8.313  10.514  69.117  1.00  0.00    -0.144 OA 
ENDBRANCH   9  11
ENDBRANCH   5   9
TORSDOF 2
ENDMDL
MODEL      278
REMARK 921   NORMALIZED FREE ENERGY PREDICTED BY IDOCK:   -1.62 KCAL/MOL
REMARK 922        TOTAL FREE ENERGY PREDICTED BY IDOCK:   -2.45 KCAL/MOL
REMARK 923 INTER-LIGAND FREE ENERGY PREDICTED BY IDOCK:   -2.30 KCAL/MOL
REMARK 924 INTRA-LIGAND FREE ENERGY PREDICTED BY IDOCK:   -0.15 KCAL/MOL
REMARK 927      BINDING AFFINITY PREDICTED BY RF-SCORE:    0.00 PKD
ROOT
HETATM    1  C   UNL     1      -8.385   3.901  64.608  1.00  0.00    -0.097 C  
HETATM    2  C   UNL     1      -8.128   5.369  64.816  1.00  0.00    -0.123 A  
HETATM    3  C   UNL     1      -8.664   6.102  65.898  1.00  0.00    -0.158 A  
HETATM    4  C   UNL     1      -9.755   5.524  66.761  1.00  0.00    -0.168 C  
HETATM    5  C   UNL     1      -8.132   7.380  66.177  1.00  0.00    -0.117 A  
HETATM    6  C   UNL     1      -7.288   6.006  63.893  1.00  0.00    -0.066 A  
HETATM    7  C   UNL     1      -7.346   8.012  65.199  1.00  0.00    -0.074 A  
HETATM    8  C   UNL     1      -6.936   7.342  64.058  1.00  0.00    -0.057 A  
ENDROOT
BRANCH   5   9
HETATM    9  N   UNL     1      -8.335   7.991  67.451  1.00  0.00    -0.122 NA 
HETATM   10  H   UNL     1      -8.668   7.397  68.210  1.00  0.00     0.000 HD 
BRANCH   9  11
HETATM   11  C   UNL     1      -8.107   9.366  67.745  1.00  0.00    -0.107 A  
HETATM   12  C   UNL     1      -6.831   9.925  67.558  1.00  0.00    -0.081 A  
HETATM   13  C   UNL     1      -6.607  11.299  67.647  1.00  0.00    -0.072 A  
HETATM   14  C   UNL     1      -7.657  12.144  67.982  1.00  0.00    -0.123 A  
HETATM   15  C   UNL     1      -8.902  11.604  68.301  1.00  0.00    -0.167 A  
HETATM   16  C   UNL     1      -9.117  10.217  68.233  1.00  0.00    -0.139 A  
HETATM   17  C   UNL     1     -10.427   9.710  68.689  1.00  0.00    -0.210 C  
HETATM   18  O   UNL     1     -11.481  10.291  68.506  1.00  0.00    -0.214 OA 
HETATM   19  O   UNL     1     -10.318   8.561  69.397  1.00  0.00    -0.208 OA 
ENDBRANCH   9  11
ENDBRANCH   5   9
TORSDOF 2
ENDMDL
MODEL      279
REMARK 921   NORMALIZED FREE ENERGY PREDICTED BY IDOCK:   -1.57 KCAL/MOL
REMARK 922        TOTAL FREE ENERGY PREDICTED BY IDOCK:   -2.40 KCAL/MOL
REMARK 923 INTER-LIGAND FREE ENERGY PREDICTED BY IDOCK:   -1.98 KCAL/MOL
REMARK 924 INTRA-LIGAND FREE ENERGY PREDICTED BY IDOCK:   -0.42 KCAL/MOL
REMARK 927      BINDING AFFINITY PREDICTED BY RF-SCORE:    0.00 PKD
ROOT
HETATM    1  C   UNL     1      -9.588   1.764  63.969  1.00  0.00    -0.131 C  
HETATM    2  C   UNL     1      -8.821   2.858  64.663  1.00  0.00    -0.112 A  
HETATM    3  C   UNL     1      -9.443   3.949  65.309  1.00  0.00    -0.170 A  
HETATM    4  C   UNL     1     -10.906   4.238  65.105  1.00  0.00    -0.075 C  
HETATM    5  C   UNL     1      -8.669   4.750  66.178  1.00  0.00    -0.116 A  
HETATM    6  C   UNL     1      -7.424   2.743  64.680  1.00  0.00    -0.074 A  
HETATM    7  C   UNL     1      -7.268   4.650  66.119  1.00  0.00    -0.076 A  
HETATM    8  C   UNL     1      -6.645   3.668  65.367  1.00  0.00    -0.037 A  
ENDROOT
BRANCH   5   9
HETATM    9  N   UNL     1      -9.296   5.594  67.142  1.00  0.00    -0.114 NA 
HETATM   10  H   UNL     1     -10.259   5.878  66.963  1.00  0.00     0.000 HD 
BRANCH   9  11
HETATM   11  C   UNL     1      -8.682   6.070  68.336  1.00  0.00    -0.113 A  
HETATM   12  C   UNL     1      -8.206   5.160  69.296  1.00  0.00    -0.084 A  
HETATM   13  C   UNL     1      -7.432   5.570  70.381  1.00  0.00    -0.079 A  
HETATM   14  C   UNL     1      -7.161   6.921  70.558  1.00  0.00    -0.067 A  
HETATM   15  C   UNL     1      -7.730   7.857  69.696  1.00  0.00    -0.103 A  
HETATM   16  C   UNL     1      -8.528   7.441  68.618  1.00  0.00    -0.129 A  
HETATM   17  C   UNL     1      -9.184   8.493  67.814  1.00  0.00    -0.135 C  
HETATM   18  O   UNL     1      -8.668   9.562  67.545  1.00  0.00    -0.125 OA 
HETATM   19  O   UNL     1     -10.451   8.164  67.467  1.00  0.00    -0.244 OA 
ENDBRANCH   9  11
ENDBRANCH   5   9
TORSDOF 2
ENDMDL
MODEL      280
REMARK 921   NORMALIZED FREE ENERGY PREDICTED BY IDOCK:   -1.40 KCAL/MOL
REMARK 922        TOTAL FREE ENERGY PREDICTED BY IDOCK:   -2.20 KCAL/MOL
REMARK 923 INTER-LIGAND FREE ENERGY PREDICTED BY IDOCK:   -1.66 KCAL/MOL
REMARK 924 INTRA-LIGAND FREE ENERGY PREDICTED BY IDOCK:   -0.55 KCAL/MOL
REMARK 927      BINDING AFFINITY PREDICTED BY RF-SCORE:    0.00 PKD
ROOT
HETATM    1  C   UNL     1     -10.421   2.452  62.921  1.00  0.00    -0.146 C  
HETATM    2  C   UNL     1      -9.243   3.220  63.457  1.00  0.00    -0.096 A  
HETATM    3  C   UNL     1      -9.314   4.045  64.602  1.00  0.00    -0.161 A  
HETATM    4  C   UNL     1     -10.642   4.429  65.199  1.00  0.00    -0.166 C  
HETATM    5  C   UNL     1      -8.109   4.478  65.198  1.00  0.00    -0.103 A  
HETATM    6  C   UNL     1      -8.023   3.065  62.785  1.00  0.00    -0.072 A  
HETATM    7  C   UNL     1      -6.915   4.362  64.465  1.00  0.00    -0.046 A  
HETATM    8  C   UNL     1      -6.869   3.677  63.262  1.00  0.00    -0.043 A  
ENDROOT
BRANCH   5   9
HETATM    9  N   UNL     1      -8.092   4.961  66.540  1.00  0.00    -0.107 NA 
HETATM   10  H   UNL     1      -8.325   5.943  66.689  1.00  0.00     0.000 HD 
BRANCH   9  11
HETATM   11  C   UNL     1      -7.777   4.179  67.688  1.00  0.00    -0.079 A  
HETATM   12  C   UNL     1      -7.092   2.959  67.543  1.00  0.00    -0.053 A  
HETATM   13  C   UNL     1      -6.596   2.258  68.642  1.00  0.00    -0.029 A  
HETATM   14  C   UNL     1      -6.823   2.742  69.924  1.00  0.00    -0.034 A  
HETATM   15  C   UNL     1      -7.611   3.878  70.102  1.00  0.00    -0.048 A  
HETATM   16  C   UNL     1      -8.129   4.568  68.994  1.00  0.00    -0.073 A  
HETATM   17  C   UNL     1      -9.042   5.697  69.264  1.00  0.00    -0.113 C  
HETATM   18  O   UNL     1      -8.909   6.471  70.194  1.00  0.00    -0.142 OA 
HETATM   19  O   UNL     1     -10.087   5.735  68.402  1.00  0.00    -0.146 OA 
ENDBRANCH   9  11
ENDBRANCH   5   9
TORSDOF 2
ENDMDL
MODEL      281
REMARK 921   NORMALIZED FREE ENERGY PREDICTED BY IDOCK:   -0.43 KCAL/MOL
REMARK 922        TOTAL FREE ENERGY PREDICTED BY IDOCK:   -1.12 KCAL/MOL
REMARK 923 INTER-LIGAND FREE ENERGY PREDICTED BY IDOCK:   -0.55 KCAL/MOL
REMARK 924 INTRA-LIGAND FREE ENERGY PREDICTED BY IDOCK:   -0.57 KCAL/MOL
REMARK 927      BINDING AFFINITY PREDICTED BY RF-SCORE:    0.00 PKD
ROOT
HETATM    1  C   UNL     1      -7.713  13.420  69.826  1.00  0.00     1.123 C  
HETATM    2  C   UNL     1      -7.838  12.185  68.973  1.00  0.00     0.167 A  
HETATM    3  C   UNL     1      -7.433  10.903  69.405  1.00  0.00    -0.105 A  
HETATM    4  C   UNL     1      -6.593  10.731  70.643  1.00  0.00     0.229 C  
HETATM    5  C   UNL     1      -7.862   9.776  68.669  1.00  0.00    -0.081 A  
HETATM    6  C   UNL     1      -8.417  12.343  67.707  1.00  0.00    -0.169 A  
HETATM    7  C   UNL     1      -8.378   9.972  67.377  1.00  0.00    -0.118 A  
HETATM    8  C   UNL     1      -8.641  11.241  66.888  1.00  0.00    -0.150 A  
ENDROOT
BRANCH   5   9
HETATM    9  N   UNL     1      -7.832   8.473  69.249  1.00  0.00    -0.097 NA 
HETATM   10  H   UNL     1      -7.093   7.839  68.943  1.00  0.00     0.000 HD 
BRANCH   9  11
HETATM   11  C   UNL     1      -8.753   7.988  70.221  1.00  0.00    -0.134 A  
HETATM   12  C   UNL     1      -9.915   8.721  70.518  1.00  0.00    -0.227 A  
HETATM   13  C   UNL     1     -10.933   8.198  71.315  1.00  0.00    -0.281 A  
HETATM   14  C   UNL     1     -10.783   6.939  71.881  1.00  0.00    -0.245 A  
HETATM   15  C   UNL     1      -9.585   6.246  71.711  1.00  0.00    -0.165 A  
HETATM   16  C   UNL     1      -8.553   6.786  70.927  1.00  0.00    -0.137 A  
HETATM   17  C   UNL     1      -7.276   6.045  70.882  1.00  0.00    -0.074 C  
HETATM   18  O   UNL     1      -7.195   4.831  70.872  1.00  0.00    -0.052 OA 
HETATM   19  O   UNL     1      -6.200   6.867  70.924  1.00  0.00    -0.035 OA 
ENDBRANCH   9  11
ENDBRANCH   5   9
TORSDOF 2
ENDMDL
MODEL      282
REMARK 921   NORMALIZED FREE ENERGY PREDICTED BY IDOCK:    0.80 KCAL/MOL
REMARK 922        TOTAL FREE ENERGY PREDICTED BY IDOCK:    0.24 KCAL/MOL
REMARK 923 INTER-LIGAND FREE ENERGY PREDICTED BY IDOCK:   -1.39 KCAL/MOL
REMARK 924 INTRA-LIGAND FREE ENERGY PREDICTED BY IDOCK:    1.64 KCAL/MOL
REMARK 927      BINDING AFFINITY PREDICTED BY RF-SCORE:    0.00 PKD
ROOT
HETATM    1  C   UNL     1      -7.312   8.190  70.379  1.00  0.00    -0.062 C  
HETATM    2  C   UNL     1      -7.273   6.840  69.714  1.00  0.00    -0.077 A  
HETATM    3  C   UNL     1      -7.135   6.669  68.319  1.00  0.00    -0.083 A  
HETATM    4  C   UNL     1      -7.297   7.831  67.376  1.00  0.00    -0.092 C  
HETATM    5  C   UNL     1      -6.807   5.386  67.826  1.00  0.00    -0.060 A  
HETATM    6  C   UNL     1      -7.348   5.717  70.549  1.00  0.00    -0.079 A  
HETATM    7  C   UNL     1      -6.957   4.278  68.677  1.00  0.00    -0.051 A  
HETATM    8  C   UNL     1      -7.240   4.434  70.023  1.00  0.00    -0.046 A  
ENDROOT
BRANCH   5   9
HETATM    9  N   UNL     1      -6.274   5.226  66.512  1.00  0.00    -0.034 NA 
HETATM   10  H   UNL     1      -5.612   4.464  66.363  1.00  0.00     0.000 HD 
BRANCH   9  11
HETATM   11  C   UNL     1      -6.593   6.048  65.393  1.00  0.00    -0.043 A  
HETATM   12  C   UNL     1      -5.809   7.178  65.101  1.00  0.00    -0.037 A  
HETATM   13  C   UNL     1      -5.964   7.896  63.917  1.00  0.00    -0.057 A  
HETATM   14  C   UNL     1      -6.954   7.527  63.014  1.00  0.00    -0.068 A  
HETATM   15  C   UNL     1      -7.831   6.493  63.339  1.00  0.00    -0.106 A  
HETATM   16  C   UNL     1      -7.686   5.786  64.544  1.00  0.00    -0.095 A  
HETATM   17  C   UNL     1      -8.716   4.778  64.868  1.00  0.00    -0.148 C  
HETATM   18  O   UNL     1      -9.246   4.060  64.041  1.00  0.00    -0.135 OA 
HETATM   19  O   UNL     1      -9.057   4.790  66.179  1.00  0.00    -0.121 OA 
ENDBRANCH   9  11
ENDBRANCH   5   9
TORSDOF 2
ENDMDL
MODEL      283
REMARK 921   NORMALIZED FREE ENERGY PREDICTED BY IDOCK:    1.70 KCAL/MOL
REMARK 922        TOTAL FREE ENERGY PREDICTED BY IDOCK:    1.26 KCAL/MOL
REMARK 923 INTER-LIGAND FREE ENERGY PREDICTED BY IDOCK:    1.11 KCAL/MOL
REMARK 924 INTRA-LIGAND FREE ENERGY PREDICTED BY IDOCK:    0.15 KCAL/MOL
REMARK 927      BINDING AFFINITY PREDICTED BY RF-SCORE:    0.00 PKD
ROOT
HETATM    1  C   UNL     1      -6.286  12.249  68.499  1.00  0.00    -0.057 C  
HETATM    2  C   UNL     1      -7.075  13.507  68.250  1.00  0.00    -0.110 A  
HETATM    3  C   UNL     1      -7.326  14.472  69.250  1.00  0.00    -0.126 A  
HETATM    4  C   UNL     1      -7.059  14.173  70.701  1.00  0.00     0.887 C  
HETATM    5  C   UNL     1      -7.805  15.741  68.858  1.00  0.00    -0.190 A  
HETATM    6  C   UNL     1      -7.543  13.717  66.946  1.00  0.00     0.445 A  
HETATM    7  C   UNL     1      -8.325  15.895  67.561  1.00  0.00    -0.180 A  
HETATM    8  C   UNL     1      -8.212  14.890  66.614  1.00  0.00     0.037 A  
ENDROOT
BRANCH   5   9
HETATM    9  N   UNL     1      -7.704  16.861  69.736  1.00  0.00     0.542 NA 
HETATM   10  H   UNL     1      -7.760  16.680  70.738  1.00  0.00     0.000 HD 
BRANCH   9  11
HETATM   11  C   UNL     1      -7.531  18.213  69.322  1.00  0.00     0.025 A  
HETATM   12  C   UNL     1      -8.151  18.676  68.148  1.00  0.00    -0.318 A  
HETATM   13  C   UNL     1      -8.169  20.028  67.807  1.00  0.00    -0.330 A  
HETATM   14  C   UNL     1      -7.514  20.948  68.616  1.00  0.00     0.714 A  
HETATM   15  C   UNL     1      -6.781  20.500  69.714  1.00  0.00     0.175 A  
HETATM   16  C   UNL     1      -6.746  19.135  70.041  1.00  0.00     0.045 A  
HETATM   17  C   UNL     1      -5.863  18.725  71.151  1.00  0.00     0.193 C  
HETATM   18  O   UNL     1      -5.688  19.385  72.159  1.00  0.00    -0.385 OA 
HETATM   19  O   UNL     1      -5.212  17.565  70.893  1.00  0.00    -0.259 OA 
ENDBRANCH   9  11
ENDBRANCH   5   9
TORSDOF 2
ENDMDL
MODEL      284
REMARK 921   NORMALIZED FREE ENERGY PREDICTED BY IDOCK:    3.92 KCAL/MOL
REMARK 922        TOTAL FREE ENERGY PREDICTED BY IDOCK:    3.73 KCAL/MOL
REMARK 923 INTER-LIGAND FREE ENERGY PREDICTED BY IDOCK:    2.84 KCAL/MOL
REMARK 924 INTRA-LIGAND FREE ENERGY PREDICTED BY IDOCK:    0.89 KCAL/MOL
REMARK 927      BINDING AFFINITY PREDICTED BY RF-SCORE:    0.00 PKD
ROOT
HETATM    1  C   UNL     1     -11.338  15.269  72.233  1.00  0.00    -0.393 C  
HETATM    2  C   UNL     1     -10.733  15.674  70.915  1.00  0.00    -0.101 A  
HETATM    3  C   UNL     1      -9.871  14.839  70.172  1.00  0.00     0.438 A  
HETATM    4  C   UNL     1      -9.277  13.598  70.782  1.00  0.00     5.844 C  
HETATM    5  C   UNL     1      -9.600  15.176  68.827  1.00  0.00    -0.219 A  
HETATM    6  C   UNL     1     -11.087  16.934  70.413  1.00  0.00     0.336 A  
HETATM    7  C   UNL     1      -9.913  16.471  68.379  1.00  0.00    -0.250 A  
HETATM    8  C   UNL     1     -10.636  17.352  69.166  1.00  0.00    -0.161 A  
ENDROOT
BRANCH   5   9
HETATM    9  N   UNL     1      -9.081  14.202  67.923  1.00  0.00    -0.182 NA 
HETATM   10  H   UNL     1      -8.131  13.866  68.087  1.00  0.00     0.000 HD 
BRANCH   9  11
HETATM   11  C   UNL     1      -9.785  13.660  66.809  1.00  0.00    -0.275 A  
HETATM   12  C   UNL     1      -9.959  14.428  65.644  1.00  0.00    -0.365 A  
HETATM   13  C   UNL     1     -10.469  13.878  64.469  1.00  0.00    -0.334 A  
HETATM   14  C   UNL     1     -10.869  12.548  64.450  1.00  0.00    -0.375 A  
HETATM   15  C   UNL     1     -10.831  11.801  65.627  1.00  0.00    -0.342 A  
HETATM   16  C   UNL     1     -10.338  12.365  66.815  1.00  0.00    -0.239 A  
HETATM   17  C   UNL     1     -10.429  11.549  68.043  1.00  0.00    -0.189 C  
HETATM   18  O   UNL     1     -10.263  10.343  68.070  1.00  0.00    -0.158 OA 
HETATM   19  O   UNL     1     -10.787  12.281  69.125  1.00  0.00    -0.194 OA 
ENDBRANCH   9  11
ENDBRANCH   5   9
TORSDOF 2
ENDMDL
MODEL      285
REMARK 921   NORMALIZED FREE ENERGY PREDICTED BY IDOCK:    6.80 KCAL/MOL
REMARK 922        TOTAL FREE ENERGY PREDICTED BY IDOCK:    6.95 KCAL/MOL
REMARK 923 INTER-LIGAND FREE ENERGY PREDICTED BY IDOCK:    6.73 KCAL/MOL
REMARK 924 INTRA-LIGAND FREE ENERGY PREDICTED BY IDOCK:    0.22 KCAL/MOL
REMARK 927      BINDING AFFINITY PREDICTED BY RF-SCORE:    0.00 PKD
ROOT
HETATM    1  C   UNL     1      -7.264  13.418  71.754  1.00  0.00     5.534 C  
HETATM    2  C   UNL     1      -6.451  12.845  70.623  1.00  0.00     0.757 A  
HETATM    3  C   UNL     1      -6.305  11.458  70.402  1.00  0.00     0.046 A  
HETATM    4  C   UNL     1      -6.725  10.458  71.446  1.00  0.00     1.091 C  
HETATM    5  C   UNL     1      -5.785  11.024  69.162  1.00  0.00    -0.040 A  
HETATM    6  C   UNL     1      -5.848  13.758  69.747  1.00  0.00    -0.115 A  
HETATM    7  C   UNL     1      -5.131  11.958  68.341  1.00  0.00    -0.046 A  
HETATM    8  C   UNL     1      -5.145  13.312  68.632  1.00  0.00    -0.071 A  
ENDROOT
BRANCH   5   9
HETATM    9  N   UNL     1      -5.976   9.680  68.723  1.00  0.00    -0.042 NA 
HETATM   10  H   UNL     1      -6.212   8.983  69.430  1.00  0.00     0.000 HD 
BRANCH   9  11
HETATM   11  C   UNL     1      -5.864   9.236  67.374  1.00  0.00    -0.046 A  
HETATM   12  C   UNL     1      -5.912  10.165  66.320  1.00  0.00    -0.070 A  
HETATM   13  C   UNL     1      -5.616   9.804  65.006  1.00  0.00    -0.066 A  
HETATM   14  C   UNL     1      -5.316   8.480  64.709  1.00  0.00    -0.039 A  
HETATM   15  C   UNL     1      -5.391   7.515  65.712  1.00  0.00    -0.028 A  
HETATM   16  C   UNL     1      -5.712   7.879  67.030  1.00  0.00    -0.037 A  
HETATM   17  C   UNL     1      -5.878   6.789  68.014  1.00  0.00    -0.024 C  
HETATM   18  O   UNL     1      -5.199   5.779  68.028  1.00  0.00    -0.004 OA 
HETATM   19  O   UNL     1      -6.916   7.007  68.856  1.00  0.00    -0.073 OA 
ENDBRANCH   9  11
ENDBRANCH   5   9
TORSDOF 2
ENDMDL
MODEL      286
REMARK 921   NORMALIZED FREE ENERGY PREDICTED BY IDOCK:    6.86 KCAL/MOL
REMARK 922        TOTAL FREE ENERGY PREDICTED BY IDOCK:    7.02 KCAL/MOL
REMARK 923 INTER-LIGAND FREE ENERGY PREDICTED BY IDOCK:    6.22 KCAL/MOL
REMARK 924 INTRA-LIGAND FREE ENERGY PREDICTED BY IDOCK:    0.80 KCAL/MOL
REMARK 927      BINDING AFFINITY PREDICTED BY RF-SCORE:    0.00 PKD
ROOT
HETATM    1  C   UNL     1      -7.264  13.418  71.754  1.00  0.00     5.534 C  
HETATM    2  C   UNL     1      -6.451  12.845  70.623  1.00  0.00     0.757 A  
HETATM    3  C   UNL     1      -6.305  11.458  70.402  1.00  0.00     0.046 A  
HETATM    4  C   UNL     1      -6.725  10.458  71.446  1.00  0.00     1.091 C  
HETATM    5  C   UNL     1      -5.785  11.024  69.162  1.00  0.00    -0.040 A  
HETATM    6  C   UNL     1      -5.848  13.758  69.747  1.00  0.00    -0.115 A  
HETATM    7  C   UNL     1      -5.131  11.958  68.341  1.00  0.00    -0.046 A  
HETATM    8  C   UNL     1      -5.145  13.312  68.632  1.00  0.00    -0.071 A  
ENDROOT
BRANCH   5   9
HETATM    9  N   UNL     1      -5.976   9.680  68.723  1.00  0.00    -0.042 NA 
HETATM   10  H   UNL     1      -5.145   9.144  68.474  1.00  0.00     0.000 HD 
BRANCH   9  11
HETATM   11  C   UNL     1      -7.238   9.029  68.606  1.00  0.00    -0.072 A  
HETATM   12  C   UNL     1      -8.365   9.552  69.264  1.00  0.00    -0.129 A  
HETATM   13  C   UNL     1      -9.649   9.064  69.027  1.00  0.00    -0.160 A  
HETATM   14  C   UNL     1      -9.828   7.996  68.157  1.00  0.00    -0.195 A  
HETATM   15  C   UNL     1      -8.715   7.374  67.593  1.00  0.00    -0.125 A  
HETATM   16  C   UNL     1      -7.421   7.854  67.853  1.00  0.00    -0.104 A  
HETATM   17  C   UNL     1      -6.288   7.078  67.308  1.00  0.00    -0.052 C  
HETATM   18  O   UNL     1      -6.302   6.526  66.224  1.00  0.00    -0.039 OA 
HETATM   19  O   UNL     1      -5.254   6.991  68.180  1.00  0.00    -0.017 OA 
ENDBRANCH   9  11
ENDBRANCH   5   9
TORSDOF 2
ENDMDL
MODEL      287
REMARK 921   NORMALIZED FREE ENERGY PREDICTED BY IDOCK:    8.71 KCAL/MOL
REMARK 922        TOTAL FREE ENERGY PREDICTED BY IDOCK:    9.09 KCAL/MOL
REMARK 923 INTER-LIGAND FREE ENERGY PREDICTED BY IDOCK:    7.47 KCAL/MOL
REMARK 924 INTRA-LIGAND FREE ENERGY PREDICTED BY IDOCK:    1.62 KCAL/MOL
REMARK 927      BINDING AFFINITY PREDICTED BY RF-SCORE:    0.00 PKD
ROOT
HETATM    1  C   UNL     1      -8.936  12.025  68.575  1.00  0.00    -0.098 C  
HETATM    2  C   UNL     1      -9.820  12.531  67.467  1.00  0.00    -0.198 A  
HETATM    3  C   UNL     1     -10.614  13.694  67.581  1.00  0.00    -0.245 A  
HETATM    4  C   UNL     1     -10.841  14.349  68.918  1.00  0.00    -0.266 C  
HETATM    5  C   UNL     1     -11.167  14.252  66.408  1.00  0.00    -0.337 A  
HETATM    6  C   UNL     1      -9.810  11.811  66.265  1.00  0.00    -0.245 A  
HETATM    7  C   UNL     1     -11.195  13.472  65.239  1.00  0.00    -0.304 A  
HETATM    8  C   UNL     1     -10.538  12.255  65.166  1.00  0.00    -0.320 A  
ENDROOT
BRANCH   5   9
HETATM    9  N   UNL     1     -11.628  15.602  66.391  1.00  0.00     0.174 NA 
HETATM   10  H   UNL     1     -12.629  15.759  66.514  1.00  0.00     0.000 HD 
BRANCH   9  11
HETATM   11  C   UNL     1     -10.800  16.748  66.216  1.00  0.00     0.005 A  
HETATM   12  C   UNL     1     -10.020  16.883  65.054  1.00  0.00     0.986 A  
HETATM   13  C   UNL     1      -9.348  18.067  64.751  1.00  0.00     4.458 A  
HETATM   14  C   UNL     1      -9.399  19.132  65.642  1.00  0.00     0.520 A  
HETATM   15  C   UNL     1     -10.056  18.978  66.862  1.00  0.00    -0.437 A  
HETATM   16  C   UNL     1     -10.712  17.777  67.173  1.00  0.00    -0.222 A  
HETATM   17  C   UNL     1     -11.292  17.651  68.526  1.00  0.00     0.767 C  
HETATM   18  O   UNL     1     -11.824  18.567  69.125  1.00  0.00     3.553 OA 
HETATM   19  O   UNL     1     -11.104  16.418  69.056  1.00  0.00    -0.318 OA 
ENDBRANCH   9  11
ENDBRANCH   5   9
TORSDOF 2
ENDMDL
