MODEL        1
REMARK 921   NORMALIZED FREE ENERGY PREDICTED BY IDOCK:   -7.83 KCAL/MOL
REMARK 922        TOTAL FREE ENERGY PREDICTED BY IDOCK:   -9.49 KCAL/MOL
REMARK 923 INTER-LIGAND FREE ENERGY PREDICTED BY IDOCK:   -8.75 KCAL/MOL
REMARK 924 INTRA-LIGAND FREE ENERGY PREDICTED BY IDOCK:   -0.74 KCAL/MOL
REMARK 927      BINDING AFFINITY PREDICTED BY RF-SCORE:    0.00 PKD
ROOT
HETATM    1  O   UNL     1     -11.518  17.380  68.434  1.00  0.00     0.068 OA 
HETATM    2  C   UNL     1     -10.647  16.232  68.466  1.00  0.00    -0.294 C  
HETATM    3  H   UNL     1     -12.407  17.082  68.277  1.00  0.00     0.000 HD 
ENDROOT
BRANCH   2   4
HETATM    4  C   UNL     1      -9.178  16.726  68.724  1.00  0.00    -0.260 C  
HETATM    5  H   UNL     1      -8.041  18.447  68.572  1.00  0.00     0.000 HD 
HETATM    6  N   UNL     1      -8.848  18.033  68.107  1.00  0.00    -0.266 NA 
HETATM    7  C   UNL     1      -8.094  15.699  68.346  1.00  0.00    -0.137 C  
HETATM    8  C   UNL     1      -7.849  15.624  66.838  1.00  0.00    -0.258 C  
HETATM    9  C   UNL     1      -8.633  17.997  66.664  1.00  0.00    -0.263 C  
HETATM   10  C   UNL     1      -7.533  17.007  66.289  1.00  0.00    -0.318 C  
ENDBRANCH   2   4
BRANCH   2  11
HETATM   11  C   UNL     1     -11.198  15.288  69.540  1.00  0.00    -0.289 A  
HETATM   12  C   UNL     1     -12.473  15.610  73.129  1.00  0.00    -0.476 C  
HETATM   13  C   UNL     1     -11.948  13.128  70.403  1.00  0.00    -0.266 A  
HETATM   14  F   UNL     1     -13.796  15.462  73.426  1.00  0.00    -0.443 F  
HETATM   15  F   UNL     1     -11.788  15.043  74.165  1.00  0.00    -0.602 F  
HETATM   16  C   UNL     1     -12.090  15.025  71.776  1.00  0.00    -0.361 A  
HETATM   17  F   UNL     1     -12.228  16.951  73.229  1.00  0.00    -0.455 F  
HETATM   18  C   UNL     1     -11.552  15.835  70.787  1.00  0.00    -0.429 A  
HETATM   19  C   UNL     1     -11.374  13.885  69.347  1.00  0.00    -0.311 A  
HETATM   20  N   UNL     1     -12.288  13.696  71.567  1.00  0.00    -0.235 NA 
HETATM   21  C   UNL     1     -11.002  13.200  68.167  1.00  0.00    -0.275 A  
HETATM   22  C   UNL     1     -11.123  11.822  68.043  1.00  0.00    -0.297 A  
HETATM   23  C   UNL     1     -11.705  11.104  69.070  1.00  0.00    -0.408 A  
HETATM   24  C   UNL     1     -12.155  11.758  70.232  1.00  0.00    -0.426 A  
HETATM   25  C   UNL     1     -12.873  10.918  71.259  1.00  0.00    -0.433 C  
HETATM   26  F   UNL     1     -13.898  10.216  70.684  1.00  0.00    -0.303 F  
HETATM   27  F   UNL     1     -13.439  11.561  72.314  1.00  0.00    -0.580 F  
HETATM   28  F   UNL     1     -12.057   9.965  71.799  1.00  0.00    -0.430 F  
ENDBRANCH   2  11
TORSDOF 2
ENDMDL
MODEL        2
REMARK 921   NORMALIZED FREE ENERGY PREDICTED BY IDOCK:   -7.81 KCAL/MOL
REMARK 922        TOTAL FREE ENERGY PREDICTED BY IDOCK:   -9.47 KCAL/MOL
REMARK 923 INTER-LIGAND FREE ENERGY PREDICTED BY IDOCK:   -8.78 KCAL/MOL
REMARK 924 INTRA-LIGAND FREE ENERGY PREDICTED BY IDOCK:   -0.69 KCAL/MOL
REMARK 927      BINDING AFFINITY PREDICTED BY RF-SCORE:    0.00 PKD
ROOT
HETATM    1  O   UNL     1      -9.446  10.963  67.545  1.00  0.00    -0.154 OA 
HETATM    2  C   UNL     1     -10.502  11.919  67.320  1.00  0.00    -0.222 C  
HETATM    3  H   UNL     1      -8.906  11.272  68.263  1.00  0.00     0.000 HD 
ENDROOT
BRANCH   2   4
HETATM    4  C   UNL     1     -11.395  11.408  66.132  1.00  0.00    -0.043 C  
HETATM    5  H   UNL     1     -11.335  10.029  64.592  1.00  0.00     0.000 HD 
HETATM    6  N   UNL     1     -10.675  10.596  65.123  1.00  0.00    -0.119 NA 
HETATM    7  C   UNL     1     -12.185  12.520  65.417  1.00  0.00    -0.475 C  
HETATM    8  C   UNL     1     -11.318  13.346  64.466  1.00  0.00    -0.391 C  
HETATM    9  C   UNL     1      -9.819  11.354  64.217  1.00  0.00    -0.261 C  
HETATM   10  C   UNL     1     -10.607  12.433  63.478  1.00  0.00    -0.451 C  
ENDBRANCH   2   4
BRANCH   2  11
HETATM   11  C   UNL     1     -11.245  12.080  68.651  1.00  0.00    -0.309 A  
HETATM   12  C   UNL     1     -12.641   9.757  71.347  1.00  0.00    -0.386 C  
HETATM   13  C   UNL     1     -12.232  13.358  70.485  1.00  0.00    -0.352 A  
HETATM   14  F   UNL     1     -12.057   9.670  72.577  1.00  0.00    -0.253 F  
HETATM   15  F   UNL     1     -13.986   9.668  71.562  1.00  0.00    -0.345 F  
HETATM   16  C   UNL     1     -12.246  11.013  70.581  1.00  0.00    -0.385 A  
HETATM   17  F   UNL     1     -12.303   8.601  70.703  1.00  0.00    -0.201 F  
HETATM   18  C   UNL     1     -11.605  10.916  69.355  1.00  0.00    -0.387 A  
HETATM   19  C   UNL     1     -11.593  13.342  69.217  1.00  0.00    -0.370 A  
HETATM   20  N   UNL     1     -12.538  12.224  71.128  1.00  0.00    -0.326 NA 
HETATM   21  C   UNL     1     -11.345  14.583  68.585  1.00  0.00    -0.300 A  
HETATM   22  C   UNL     1     -11.761  15.789  69.135  1.00  0.00    -0.398 A  
HETATM   23  C   UNL     1     -12.360  15.788  70.380  1.00  0.00    -0.367 A  
HETATM   24  C   UNL     1     -12.560  14.580  71.075  1.00  0.00    -0.410 A  
HETATM   25  C   UNL     1     -13.123  14.675  72.471  1.00  0.00    -0.414 C  
HETATM   26  F   UNL     1     -12.391  15.544  73.234  1.00  0.00    -0.417 F  
HETATM   27  F   UNL     1     -13.183  13.533  73.205  1.00  0.00    -0.505 F  
HETATM   28  F   UNL     1     -14.389  15.187  72.476  1.00  0.00    -0.537 F  
ENDBRANCH   2  11
TORSDOF 2
ENDMDL
MODEL        3
REMARK 921   NORMALIZED FREE ENERGY PREDICTED BY IDOCK:   -7.70 KCAL/MOL
REMARK 922        TOTAL FREE ENERGY PREDICTED BY IDOCK:   -9.34 KCAL/MOL
REMARK 923 INTER-LIGAND FREE ENERGY PREDICTED BY IDOCK:   -8.51 KCAL/MOL
REMARK 924 INTRA-LIGAND FREE ENERGY PREDICTED BY IDOCK:   -0.83 KCAL/MOL
REMARK 927      BINDING AFFINITY PREDICTED BY RF-SCORE:    0.00 PKD
ROOT
HETATM    1  O   UNL     1     -11.803  11.748  66.571  1.00  0.00    -0.550 OA 
HETATM    2  C   UNL     1     -11.478  11.407  67.934  1.00  0.00    -0.291 C  
HETATM    3  H   UNL     1     -12.648  12.182  66.561  1.00  0.00     0.000 HD 
ENDROOT
BRANCH   2   4
HETATM    4  C   UNL     1     -10.080  10.690  67.950  1.00  0.00    -0.168 C  
HETATM    5  H   UNL     1      -8.922   9.459  66.757  1.00  0.00     0.000 HD 
HETATM    6  N   UNL     1      -9.913   9.637  66.920  1.00  0.00    -0.198 NA 
HETATM    7  C   UNL     1      -9.681  10.121  69.325  1.00  0.00    -0.238 C  
HETATM    8  C   UNL     1     -10.403   8.814  69.656  1.00  0.00    -0.213 C  
HETATM    9  C   UNL     1     -10.611   8.386  67.197  1.00  0.00    -0.256 C  
HETATM   10  C   UNL     1     -10.190   7.800  68.542  1.00  0.00    -0.227 C  
ENDBRANCH   2   4
BRANCH   2  11
HETATM   11  C   UNL     1     -11.536  12.707  68.743  1.00  0.00    -0.349 A  
HETATM   12  C   UNL     1     -10.368  16.317  68.278  1.00  0.00    -0.272 C  
HETATM   13  C   UNL     1     -12.189  14.093  70.646  1.00  0.00    -0.362 A  
HETATM   14  F   UNL     1     -11.259  17.326  68.061  1.00  0.00    -0.345 F  
HETATM   15  F   UNL     1      -9.392  16.842  69.075  1.00  0.00    -0.250 F  
HETATM   16  C   UNL     1     -11.006  15.067  68.869  1.00  0.00    -0.252 A  
HETATM   17  F   UNL     1      -9.767  16.100  67.070  1.00  0.00    -0.220 F  
HETATM   18  C   UNL     1     -10.946  13.860  68.190  1.00  0.00    -0.267 A  
HETATM   19  C   UNL     1     -12.153  12.817  70.024  1.00  0.00    -0.355 A  
HETATM   20  N   UNL     1     -11.632  15.167  70.073  1.00  0.00    -0.272 NA 
HETATM   21  C   UNL     1     -12.726  11.726  70.717  1.00  0.00    -0.256 A  
HETATM   22  C   UNL     1     -13.256  11.857  71.995  1.00  0.00    -0.461 A  
HETATM   23  C   UNL     1     -13.305  13.110  72.575  1.00  0.00    -0.525 A  
HETATM   24  C   UNL     1     -12.810  14.235  71.889  1.00  0.00    -0.429 A  
HETATM   25  C   UNL     1     -12.996  15.579  72.547  1.00  0.00    -0.428 C  
HETATM   26  F   UNL     1     -14.306  15.774  72.895  1.00  0.00    -0.611 F  
HETATM   27  F   UNL     1     -12.656  16.683  71.832  1.00  0.00    -0.235 F  
HETATM   28  F   UNL     1     -12.306  15.671  73.722  1.00  0.00    -0.482 F  
ENDBRANCH   2  11
TORSDOF 2
ENDMDL
MODEL        4
REMARK 921   NORMALIZED FREE ENERGY PREDICTED BY IDOCK:   -7.65 KCAL/MOL
REMARK 922        TOTAL FREE ENERGY PREDICTED BY IDOCK:   -9.28 KCAL/MOL
REMARK 923 INTER-LIGAND FREE ENERGY PREDICTED BY IDOCK:   -9.33 KCAL/MOL
REMARK 924 INTRA-LIGAND FREE ENERGY PREDICTED BY IDOCK:    0.05 KCAL/MOL
REMARK 927      BINDING AFFINITY PREDICTED BY RF-SCORE:    0.00 PKD
ROOT
HETATM    1  O   UNL     1     -13.842   9.270  70.824  1.00  0.00    -0.577 OA 
HETATM    2  C   UNL     1     -12.567   9.761  71.285  1.00  0.00    -0.365 C  
HETATM    3  H   UNL     1     -14.519   9.875  71.104  1.00  0.00     0.000 HD 
ENDROOT
BRANCH   2   4
HETATM    4  C   UNL     1     -11.448   8.759  70.822  1.00  0.00    -0.270 C  
HETATM    5  H   UNL     1     -11.262   6.874  69.991  1.00  0.00     0.000 HD 
HETATM    6  N   UNL     1     -11.917   7.372  70.594  1.00  0.00    -0.227 NA 
HETATM    7  C   UNL     1     -10.211   8.732  71.738  1.00  0.00    -0.408 C  
HETATM    8  C   UNL     1     -10.445   7.941  73.026  1.00  0.00    -0.410 C  
HETATM    9  C   UNL     1     -12.173   6.600  71.805  1.00  0.00    -0.353 C  
HETATM   10  C   UNL     1     -10.937   6.539  72.699  1.00  0.00    -0.287 C  
ENDBRANCH   2   4
BRANCH   2  11
HETATM   11  C   UNL     1     -12.415  11.183  70.734  1.00  0.00    -0.479 A  
HETATM   12  C   UNL     1     -13.076  14.731  71.994  1.00  0.00    -0.337 C  
HETATM   13  C   UNL     1     -11.756  12.843  69.067  1.00  0.00    -0.327 A  
HETATM   14  F   UNL     1     -12.049  15.575  72.300  1.00  0.00    -0.362 F  
HETATM   15  F   UNL     1     -14.042  15.506  71.420  1.00  0.00    -0.539 F  
HETATM   16  C   UNL     1     -12.652  13.563  71.112  1.00  0.00    -0.355 A  
HETATM   17  F   UNL     1     -13.594  14.342  73.197  1.00  0.00    -0.537 F  
HETATM   18  C   UNL     1     -12.806  12.258  71.554  1.00  0.00    -0.384 A  
HETATM   19  C   UNL     1     -11.899  11.480  69.438  1.00  0.00    -0.417 A  
HETATM   20  N   UNL     1     -12.123  13.834  69.889  1.00  0.00    -0.337 NA 
HETATM   21  C   UNL     1     -11.529  10.495  68.493  1.00  0.00    -0.284 A  
HETATM   22  C   UNL     1     -11.097  10.821  67.214  1.00  0.00    -0.339 A  
HETATM   23  C   UNL     1     -10.941  12.153  66.878  1.00  0.00    -0.317 A  
HETATM   24  C   UNL     1     -11.230  13.164  67.814  1.00  0.00    -0.308 A  
HETATM   25  C   UNL     1     -10.933  14.584  67.404  1.00  0.00    -0.303 C  
HETATM   26  F   UNL     1      -9.643  14.705  66.961  1.00  0.00    -0.215 F  
HETATM   27  F   UNL     1     -11.069  15.553  68.348  1.00  0.00    -0.258 F  
HETATM   28  F   UNL     1     -11.703  14.983  66.349  1.00  0.00    -0.339 F  
ENDBRANCH   2  11
TORSDOF 2
ENDMDL
MODEL        5
REMARK 921   NORMALIZED FREE ENERGY PREDICTED BY IDOCK:   -7.64 KCAL/MOL
REMARK 922        TOTAL FREE ENERGY PREDICTED BY IDOCK:   -9.27 KCAL/MOL
REMARK 923 INTER-LIGAND FREE ENERGY PREDICTED BY IDOCK:   -8.65 KCAL/MOL
REMARK 924 INTRA-LIGAND FREE ENERGY PREDICTED BY IDOCK:   -0.62 KCAL/MOL
REMARK 927      BINDING AFFINITY PREDICTED BY RF-SCORE:    0.00 PKD
ROOT
HETATM    1  O   UNL     1     -12.196  15.084  67.041  1.00  0.00    -0.278 OA 
HETATM    2  C   UNL     1     -11.052  14.836  67.883  1.00  0.00    -0.293 C  
HETATM    3  H   UNL     1     -12.616  14.254  66.848  1.00  0.00     0.000 HD 
ENDROOT
BRANCH   2   4
HETATM    4  C   UNL     1     -10.358  16.208  68.202  1.00  0.00    -0.269 C  
HETATM    5  H   UNL     1     -10.156  18.101  67.393  1.00  0.00     0.000 HD 
HETATM    6  N   UNL     1     -10.292  17.148  67.057  1.00  0.00    -0.315 NA 
HETATM    7  C   UNL     1      -8.957  16.074  68.828  1.00  0.00    -0.226 C  
HETATM    8  C   UNL     1      -7.881  15.719  67.800  1.00  0.00    -0.155 C  
HETATM    9  C   UNL     1      -9.291  16.821  66.048  1.00  0.00    -0.210 C  
HETATM   10  C   UNL     1      -7.895  16.724  66.658  1.00  0.00    -0.307 C  
ENDBRANCH   2   4
BRANCH   2  11
HETATM   11  C   UNL     1     -11.565  14.081  69.115  1.00  0.00    -0.356 A  
HETATM   12  C   UNL     1     -13.041  15.005  72.518  1.00  0.00    -0.388 C  
HETATM   13  C   UNL     1     -12.149  12.080  70.391  1.00  0.00    -0.321 A  
HETATM   14  F   UNL     1     -14.358  14.785  72.801  1.00  0.00    -0.439 F  
HETATM   15  F   UNL     1     -12.359  14.737  73.670  1.00  0.00    -0.504 F  
HETATM   16  C   UNL     1     -12.538  14.195  71.330  1.00  0.00    -0.363 A  
HETATM   17  F   UNL     1     -12.930  16.355  72.340  1.00  0.00    -0.446 F  
HETATM   18  C   UNL     1     -12.031  14.835  70.209  1.00  0.00    -0.367 A  
HETATM   19  C   UNL     1     -11.597  12.659  69.217  1.00  0.00    -0.376 A  
HETATM   20  N   UNL     1     -12.599  12.838  71.399  1.00  0.00    -0.274 NA 
HETATM   21  C   UNL     1     -11.103  11.787  68.219  1.00  0.00    -0.291 A  
HETATM   22  C   UNL     1     -11.087  10.408  68.383  1.00  0.00    -0.322 A  
HETATM   23  C   UNL     1     -11.649   9.861  69.521  1.00  0.00    -0.056 A  
HETATM   24  C   UNL     1     -12.217  10.691  70.507  1.00  0.00    -0.449 A  
HETATM   25  C   UNL     1     -12.902  10.012  71.665  1.00  0.00    -0.440 C  
HETATM   26  F   UNL     1     -13.826   9.104  71.221  1.00  0.00    -0.409 F  
HETATM   27  F   UNL     1     -13.579  10.796  72.544  1.00  0.00    -0.405 F  
HETATM   28  F   UNL     1     -12.028   9.280  72.417  1.00  0.00    -0.395 F  
ENDBRANCH   2  11
TORSDOF 2
ENDMDL
MODEL        6
REMARK 921   NORMALIZED FREE ENERGY PREDICTED BY IDOCK:   -7.63 KCAL/MOL
REMARK 922        TOTAL FREE ENERGY PREDICTED BY IDOCK:   -9.26 KCAL/MOL
REMARK 923 INTER-LIGAND FREE ENERGY PREDICTED BY IDOCK:   -8.41 KCAL/MOL
REMARK 924 INTRA-LIGAND FREE ENERGY PREDICTED BY IDOCK:   -0.86 KCAL/MOL
REMARK 927      BINDING AFFINITY PREDICTED BY RF-SCORE:    0.00 PKD
ROOT
HETATM    1  O   UNL     1     -10.042  12.010  67.998  1.00  0.00    -0.186 OA 
HETATM    2  C   UNL     1     -10.524  13.024  67.093  1.00  0.00    -0.243 C  
HETATM    3  H   UNL     1      -9.241  12.322  68.402  1.00  0.00     0.000 HD 
ENDROOT
BRANCH   2   4
HETATM    4  C   UNL     1     -11.849  12.509  66.424  1.00  0.00    -0.381 C  
HETATM    5  H   UNL     1     -12.537  10.905  65.313  1.00  0.00     0.000 HD 
HETATM    6  N   UNL     1     -11.660  11.409  65.448  1.00  0.00    -0.015 NA 
HETATM    7  C   UNL     1     -12.700  13.619  65.778  1.00  0.00    -0.470 C  
HETATM    8  C   UNL     1     -12.147  14.080  64.429  1.00  0.00    -0.486 C  
HETATM    9  C   UNL     1     -11.111  11.815  64.159  1.00  0.00    -0.374 C  
HETATM   10  C   UNL     1     -11.973  12.889  63.498  1.00  0.00    -0.629 C  
ENDBRANCH   2   4
BRANCH   2  11
HETATM   11  C   UNL     1     -10.684  14.309  67.913  1.00  0.00    -0.244 A  
HETATM   12  C   UNL     1     -12.186  15.276  71.292  1.00  0.00    -0.347 C  
HETATM   13  C   UNL     1     -10.366  16.690  68.366  1.00  0.00    -0.299 A  
HETATM   14  F   UNL     1     -11.392  15.629  72.344  1.00  0.00    -0.483 F  
HETATM   15  F   UNL     1     -13.284  16.084  71.362  1.00  0.00    -0.524 F  
HETATM   16  C   UNL     1     -11.475  15.357  69.948  1.00  0.00    -0.312 A  
HETATM   17  F   UNL     1     -12.643  14.023  71.589  1.00  0.00    -0.368 F  
HETATM   18  C   UNL     1     -11.339  14.227  69.155  1.00  0.00    -0.312 A  
HETATM   19  C   UNL     1     -10.205  15.585  67.489  1.00  0.00    -0.254 A  
HETATM   20  N   UNL     1     -10.980  16.560  69.549  1.00  0.00    -0.315 NA 
HETATM   21  C   UNL     1      -9.586  15.817  66.239  1.00  0.00    -0.343 A  
HETATM   22  C   UNL     1      -9.196  17.086  65.830  1.00  0.00    -0.076 A  
HETATM   23  C   UNL     1      -9.338  18.146  66.706  1.00  0.00    -0.286 A  
HETATM   24  C   UNL     1      -9.884  17.944  67.988  1.00  0.00    -0.320 A  
HETATM   25  C   UNL     1      -9.908  19.130  68.919  1.00  0.00    -0.424 C  
HETATM   26  F   UNL     1      -8.665  19.697  69.018  1.00  0.00    -0.386 F  
HETATM   27  F   UNL     1     -10.296  18.915  70.203  1.00  0.00     0.163 F  
HETATM   28  F   UNL     1     -10.711  20.131  68.451  1.00  0.00    -0.492 F  
ENDBRANCH   2  11
TORSDOF 2
ENDMDL
MODEL        7
REMARK 921   NORMALIZED FREE ENERGY PREDICTED BY IDOCK:   -7.63 KCAL/MOL
REMARK 922        TOTAL FREE ENERGY PREDICTED BY IDOCK:   -9.26 KCAL/MOL
REMARK 923 INTER-LIGAND FREE ENERGY PREDICTED BY IDOCK:   -8.60 KCAL/MOL
REMARK 924 INTRA-LIGAND FREE ENERGY PREDICTED BY IDOCK:   -0.66 KCAL/MOL
REMARK 927      BINDING AFFINITY PREDICTED BY RF-SCORE:    0.00 PKD
ROOT
HETATM    1  O   UNL     1     -11.667  15.183  64.503  1.00  0.00    -0.517 OA 
HETATM    2  C   UNL     1     -11.296  14.228  65.518  1.00  0.00    -0.325 C  
HETATM    3  H   UNL     1     -12.461  15.626  64.780  1.00  0.00     0.000 HD 
ENDROOT
BRANCH   2   4
HETATM    4  C   UNL     1      -9.984  13.496  65.060  1.00  0.00    -0.166 C  
HETATM    5  H   UNL     1      -9.148  12.671  63.358  1.00  0.00     0.000 HD 
HETATM    6  N   UNL     1     -10.080  12.822  63.743  1.00  0.00    -0.335 NA 
HETATM    7  C   UNL     1      -9.424  12.503  66.097  1.00  0.00    -0.184 C  
HETATM    8  C   UNL     1     -10.198  11.185  66.133  1.00  0.00    -0.293 C  
HETATM    9  C   UNL     1     -10.834  11.574  63.742  1.00  0.00    -0.416 C  
HETATM   10  C   UNL     1     -10.259  10.573  64.741  1.00  0.00    -0.373 C  
ENDBRANCH   2   4
BRANCH   2  11
HETATM   11  C   UNL     1     -11.164  15.007  66.832  1.00  0.00    -0.323 A  
HETATM   12  C   UNL     1      -9.963  18.478  67.891  1.00  0.00    -0.346 C  
HETATM   13  C   UNL     1     -11.426  15.329  69.240  1.00  0.00    -0.320 A  
HETATM   14  F   UNL     1     -10.841  19.430  68.320  1.00  0.00    -0.413 F  
HETATM   15  F   UNL     1      -8.845  18.624  68.660  1.00  0.00    -0.323 F  
HETATM   16  C   UNL     1     -10.534  17.067  67.939  1.00  0.00    -0.354 A  
HETATM   17  F   UNL     1      -9.590  18.869  66.636  1.00  0.00    -0.289 F  
HETATM   18  C   UNL     1     -10.638  16.311  66.781  1.00  0.00    -0.257 A  
HETATM   19  C   UNL     1     -11.545  14.486  68.104  1.00  0.00    -0.359 A  
HETATM   20  N   UNL     1     -10.937  16.572  69.140  1.00  0.00    -0.316 NA 
HETATM   21  C   UNL     1     -12.029  13.172  68.303  1.00  0.00    -0.328 A  
HETATM   22  C   UNL     1     -12.324  12.675  69.567  1.00  0.00    -0.002 A  
HETATM   23  C   UNL     1     -12.225  13.517  70.658  1.00  0.00    -0.434 A  
HETATM   24  C   UNL     1     -11.816  14.855  70.494  1.00  0.00    -0.358 A  
HETATM   25  C   UNL     1     -11.835  15.734  71.718  1.00  0.00    -0.467 C  
HETATM   26  F   UNL     1     -13.056  15.685  72.335  1.00  0.00    -0.395 F  
HETATM   27  F   UNL     1     -11.584  17.059  71.546  1.00  0.00    -0.264 F  
HETATM   28  F   UNL     1     -10.948  15.309  72.666  1.00  0.00    -0.438 F  
ENDBRANCH   2  11
TORSDOF 2
ENDMDL
MODEL        8
REMARK 921   NORMALIZED FREE ENERGY PREDICTED BY IDOCK:   -7.57 KCAL/MOL
REMARK 922        TOTAL FREE ENERGY PREDICTED BY IDOCK:   -9.20 KCAL/MOL
REMARK 923 INTER-LIGAND FREE ENERGY PREDICTED BY IDOCK:   -9.02 KCAL/MOL
REMARK 924 INTRA-LIGAND FREE ENERGY PREDICTED BY IDOCK:   -0.18 KCAL/MOL
REMARK 927      BINDING AFFINITY PREDICTED BY RF-SCORE:    0.00 PKD
ROOT
HETATM    1  O   UNL     1      -9.938   9.556  70.904  1.00  0.00    -0.284 OA 
HETATM    2  C   UNL     1     -11.366   9.594  70.708  1.00  0.00    -0.340 C  
HETATM    3  H   UNL     1      -9.514   9.764  70.080  1.00  0.00     0.000 HD 
ENDROOT
BRANCH   2   4
HETATM    4  C   UNL     1     -12.068   9.249  72.070  1.00  0.00    -0.336 C  
HETATM    5  H   UNL     1     -11.979   7.838  73.580  1.00  0.00     0.000 HD 
HETATM    6  N   UNL     1     -11.795   7.884  72.578  1.00  0.00    -0.354 NA 
HETATM    7  C   UNL     1     -13.588   9.496  72.075  1.00  0.00    -0.492 C  
HETATM    8  C   UNL     1     -14.368   8.401  71.347  1.00  0.00    -0.425 C  
HETATM    9  C   UNL     1     -12.506   6.814  71.886  1.00  0.00    -0.312 C  
HETATM   10  C   UNL     1     -14.017   7.036  71.921  1.00  0.00    -0.288 C  
ENDBRANCH   2   4
BRANCH   2  11
HETATM   11  C   UNL     1     -11.700  10.984  70.154  1.00  0.00    -0.442 A  
HETATM   12  C   UNL     1     -13.016  14.287  71.559  1.00  0.00    -0.340 C  
HETATM   13  C   UNL     1     -11.830  12.690  68.410  1.00  0.00    -0.301 A  
HETATM   14  F   UNL     1     -12.208  15.380  71.669  1.00  0.00    -0.313 F  
HETATM   15  F   UNL     1     -14.242  14.761  71.192  1.00  0.00    -0.456 F  
HETATM   16  C   UNL     1     -12.477  13.234  70.598  1.00  0.00    -0.298 A  
HETATM   17  F   UNL     1     -13.176  13.825  72.835  1.00  0.00    -0.560 F  
HETATM   18  C   UNL     1     -12.196  11.953  71.047  1.00  0.00    -0.275 A  
HETATM   19  C   UNL     1     -11.537  11.352  68.786  1.00  0.00    -0.378 A  
HETATM   20  N   UNL     1     -12.281  13.584  69.299  1.00  0.00    -0.272 NA 
HETATM   21  C   UNL     1     -11.108  10.459  67.776  1.00  0.00    -0.365 A  
HETATM   22  C   UNL     1     -11.029  10.835  66.441  1.00  0.00    -0.108 A  
HETATM   23  C   UNL     1     -11.294  12.147  66.096  1.00  0.00    -0.414 A  
HETATM   24  C   UNL     1     -11.654  13.086  67.082  1.00  0.00    -0.411 A  
HETATM   25  C   UNL     1     -11.824  14.517  66.639  1.00  0.00    -0.366 C  
HETATM   26  F   UNL     1     -10.720  14.950  65.955  1.00  0.00    -0.286 F  
HETATM   27  F   UNL     1     -12.027  15.454  67.602  1.00  0.00    -0.295 F  
HETATM   28  F   UNL     1     -12.858  14.659  65.758  1.00  0.00    -0.310 F  
ENDBRANCH   2  11
TORSDOF 2
ENDMDL
MODEL        9
REMARK 921   NORMALIZED FREE ENERGY PREDICTED BY IDOCK:   -7.50 KCAL/MOL
REMARK 922        TOTAL FREE ENERGY PREDICTED BY IDOCK:   -9.12 KCAL/MOL
REMARK 923 INTER-LIGAND FREE ENERGY PREDICTED BY IDOCK:   -8.26 KCAL/MOL
REMARK 924 INTRA-LIGAND FREE ENERGY PREDICTED BY IDOCK:   -0.86 KCAL/MOL
REMARK 927      BINDING AFFINITY PREDICTED BY RF-SCORE:    0.00 PKD
ROOT
HETATM    1  O   UNL     1     -11.005   9.210  67.705  1.00  0.00    -0.484 OA 
HETATM    2  C   UNL     1     -10.903   9.521  69.109  1.00  0.00    -0.173 C  
HETATM    3  H   UNL     1     -11.821   9.567  67.374  1.00  0.00     0.000 HD 
ENDROOT
BRANCH   2   4
HETATM    4  C   UNL     1      -9.554   8.930  69.655  1.00  0.00    -0.169 C  
HETATM    5  H   UNL     1      -8.364   7.251  69.443  1.00  0.00     0.000 HD 
HETATM    6  N   UNL     1      -9.354   7.488  69.379  1.00  0.00    -0.152 NA 
HETATM    7  C   UNL     1      -9.311   9.197  71.153  1.00  0.00    -0.313 C  
HETATM    8  C   UNL     1     -10.131   8.277  72.059  1.00  0.00    -0.331 C  
HETATM    9  C   UNL     1     -10.142   6.585  70.212  1.00  0.00    -0.179 C  
HETATM   10  C   UNL     1      -9.876   6.821  71.697  1.00  0.00    -0.173 C  
ENDBRANCH   2   4
BRANCH   2  11
HETATM   11  C   UNL     1     -11.028  11.043  69.236  1.00  0.00    -0.305 A  
HETATM   12  C   UNL     1      -9.627  14.103  67.423  1.00  0.00    -0.229 C  
HETATM   13  C   UNL     1     -11.915  13.111  70.189  1.00  0.00    -0.310 A  
HETATM   14  F   UNL     1     -10.422  14.884  66.635  1.00  0.00    -0.272 F  
HETATM   15  F   UNL     1      -8.769  14.956  68.055  1.00  0.00    -0.152 F  
HETATM   16  C   UNL     1     -10.413  13.228  68.391  1.00  0.00    -0.253 A  
HETATM   17  F   UNL     1      -8.849  13.389  66.555  1.00  0.00    -0.211 F  
HETATM   18  C   UNL     1     -10.302  11.847  68.337  1.00  0.00    -0.216 A  
HETATM   19  C   UNL     1     -11.840  11.693  70.212  1.00  0.00    -0.414 A  
HETATM   20  N   UNL     1     -11.220  13.834  69.302  1.00  0.00    -0.255 NA 
HETATM   21  C   UNL     1     -12.570  11.008  71.211  1.00  0.00    -0.517 A  
HETATM   22  C   UNL     1     -13.294  11.678  72.189  1.00  0.00    -0.310 A  
HETATM   23  C   UNL     1     -13.376  13.056  72.138  1.00  0.00    -0.622 A  
HETATM   24  C   UNL     1     -12.722  13.773  71.117  1.00  0.00    -0.438 A  
HETATM   25  C   UNL     1     -12.947  15.263  71.071  1.00  0.00    -0.462 C  
HETATM   26  F   UNL     1     -14.285  15.554  71.071  1.00  0.00    -0.532 F  
HETATM   27  F   UNL     1     -12.443  15.943  70.008  1.00  0.00    -0.381 F  
HETATM   28  F   UNL     1     -12.454  15.888  72.181  1.00  0.00    -0.401 F  
ENDBRANCH   2  11
TORSDOF 2
ENDMDL
MODEL       10
REMARK 921   NORMALIZED FREE ENERGY PREDICTED BY IDOCK:   -7.43 KCAL/MOL
REMARK 922        TOTAL FREE ENERGY PREDICTED BY IDOCK:   -9.04 KCAL/MOL
REMARK 923 INTER-LIGAND FREE ENERGY PREDICTED BY IDOCK:   -8.75 KCAL/MOL
REMARK 924 INTRA-LIGAND FREE ENERGY PREDICTED BY IDOCK:   -0.29 KCAL/MOL
REMARK 927      BINDING AFFINITY PREDICTED BY RF-SCORE:    0.00 PKD
ROOT
HETATM    1  O   UNL     1      -8.725  12.946  67.625  1.00  0.00    -0.162 OA 
HETATM    2  C   UNL     1     -10.078  13.401  67.417  1.00  0.00    -0.237 C  
HETATM    3  H   UNL     1      -8.413  13.292  68.452  1.00  0.00     0.000 HD 
ENDROOT
BRANCH   2   4
HETATM    4  C   UNL     1     -10.594  12.829  66.048  1.00  0.00    -0.268 C  
HETATM    5  H   UNL     1     -10.157  12.932  64.029  1.00  0.00     0.000 HD 
HETATM    6  N   UNL     1     -10.074  13.530  64.850  1.00  0.00    -0.300 NA 
HETATM    7  C   UNL     1     -12.127  12.725  65.948  1.00  0.00    -0.485 C  
HETATM    8  C   UNL     1     -12.796  14.075  65.685  1.00  0.00    -0.442 C  
HETATM    9  C   UNL     1     -10.676  14.833  64.587  1.00  0.00    -0.254 C  
HETATM   10  C   UNL     1     -12.193  14.728  64.450  1.00  0.00    -0.447 C  
ENDBRANCH   2   4
BRANCH   2  11
HETATM   11  C   UNL     1     -10.888  12.954  68.639  1.00  0.00    -0.288 A  
HETATM   12  C   UNL     1     -13.032  14.642  71.316  1.00  0.00    -0.339 C  
HETATM   13  C   UNL     1     -11.840  11.304  70.170  1.00  0.00    -0.364 A  
HETATM   14  F   UNL     1     -14.387  14.491  71.335  1.00  0.00    -0.457 F  
HETATM   15  F   UNL     1     -12.636  14.651  72.622  1.00  0.00    -0.374 F  
HETATM   16  C   UNL     1     -12.320  13.579  70.490  1.00  0.00    -0.342 A  
HETATM   17  F   UNL     1     -12.815  15.914  70.866  1.00  0.00    -0.482 F  
HETATM   18  C   UNL     1     -11.545  13.940  69.397  1.00  0.00    -0.350 A  
HETATM   19  C   UNL     1     -11.014  11.594  69.052  1.00  0.00    -0.283 A  
HETATM   20  N   UNL     1     -12.463  12.275  70.850  1.00  0.00    -0.342 NA 
HETATM   21  C   UNL     1     -10.357  10.515  68.417  1.00  0.00    -0.199 A  
HETATM   22  C   UNL     1     -10.447   9.211  68.890  1.00  0.00    -0.239 A  
HETATM   23  C   UNL     1     -11.275   8.944  69.964  1.00  0.00    -0.120 A  
HETATM   24  C   UNL     1     -12.003   9.980  70.580  1.00  0.00    -0.401 A  
HETATM   25  C   UNL     1     -12.961   9.588  71.676  1.00  0.00    -0.396 C  
HETATM   26  F   UNL     1     -13.809   8.600  71.253  1.00  0.00    -0.371 F  
HETATM   27  F   UNL     1     -13.775  10.555  72.177  1.00  0.00    -0.425 F  
HETATM   28  F   UNL     1     -12.314   9.053  72.754  1.00  0.00    -0.380 F  
ENDBRANCH   2  11
TORSDOF 2
ENDMDL
MODEL       11
REMARK 921   NORMALIZED FREE ENERGY PREDICTED BY IDOCK:   -7.37 KCAL/MOL
REMARK 922        TOTAL FREE ENERGY PREDICTED BY IDOCK:   -8.97 KCAL/MOL
REMARK 923 INTER-LIGAND FREE ENERGY PREDICTED BY IDOCK:   -8.70 KCAL/MOL
REMARK 924 INTRA-LIGAND FREE ENERGY PREDICTED BY IDOCK:   -0.28 KCAL/MOL
REMARK 927      BINDING AFFINITY PREDICTED BY RF-SCORE:    0.00 PKD
ROOT
HETATM    1  O   UNL     1     -12.184  12.242  66.043  1.00  0.00    -0.646 OA 
HETATM    2  C   UNL     1     -11.492  12.080  67.298  1.00  0.00    -0.335 C  
HETATM    3  H   UNL     1     -13.033  12.634  66.213  1.00  0.00     0.000 HD 
ENDROOT
BRANCH   2   4
HETATM    4  C   UNL     1     -10.089  11.432  67.015  1.00  0.00    -0.208 C  
HETATM    5  H   UNL     1      -9.266   9.824  66.007  1.00  0.00     0.000 HD 
HETATM    6  N   UNL     1     -10.143  10.053  66.476  1.00  0.00    -0.225 NA 
HETATM    7  C   UNL     1      -9.127  11.468  68.218  1.00  0.00    -0.185 C  
HETATM    8  C   UNL     1      -9.454  10.407  69.269  1.00  0.00    -0.214 C  
HETATM    9  C   UNL     1     -10.477   9.021  67.451  1.00  0.00    -0.269 C  
HETATM   10  C   UNL     1      -9.502   9.029  68.627  1.00  0.00    -0.149 C  
ENDBRANCH   2   4
BRANCH   2  11
HETATM   11  C   UNL     1     -11.433  13.465  67.953  1.00  0.00    -0.350 A  
HETATM   12  C   UNL     1     -12.294  14.958  71.364  1.00  0.00    -0.335 C  
HETATM   13  C   UNL     1     -10.896  15.847  68.028  1.00  0.00    -0.317 A  
HETATM   14  F   UNL     1     -11.317  15.369  72.223  1.00  0.00    -0.476 F  
HETATM   15  F   UNL     1     -13.312  15.858  71.494  1.00  0.00    -0.527 F  
HETATM   16  C   UNL     1     -11.810  14.815  69.927  1.00  0.00    -0.316 A  
HETATM   17  F   UNL     1     -12.774  13.794  71.893  1.00  0.00    -0.388 F  
HETATM   18  C   UNL     1     -11.879  13.590  69.282  1.00  0.00    -0.392 A  
HETATM   19  C   UNL     1     -10.952  14.634  67.293  1.00  0.00    -0.317 A  
HETATM   20  N   UNL     1     -11.313  15.915  69.299  1.00  0.00    -0.332 NA 
HETATM   21  C   UNL     1     -10.533  14.659  65.942  1.00  0.00    -0.325 A  
HETATM   22  C   UNL     1     -10.136  15.832  65.312  1.00  0.00    -0.257 A  
HETATM   23  C   UNL     1     -10.065  16.999  66.049  1.00  0.00    -0.318 A  
HETATM   24  C   UNL     1     -10.404  17.002  67.416  1.00  0.00    -0.319 A  
HETATM   25  C   UNL     1     -10.199  18.290  68.172  1.00  0.00    -0.387 C  
HETATM   26  F   UNL     1      -8.924  18.758  68.000  1.00  0.00    -0.287 F  
HETATM   27  F   UNL     1     -10.383  18.266  69.518  1.00  0.00    -0.303 F  
HETATM   28  F   UNL     1     -11.004  19.290  67.705  1.00  0.00    -0.521 F  
ENDBRANCH   2  11
TORSDOF 2
ENDMDL
MODEL       12
REMARK 921   NORMALIZED FREE ENERGY PREDICTED BY IDOCK:   -7.24 KCAL/MOL
REMARK 922        TOTAL FREE ENERGY PREDICTED BY IDOCK:   -8.83 KCAL/MOL
REMARK 923 INTER-LIGAND FREE ENERGY PREDICTED BY IDOCK:   -9.02 KCAL/MOL
REMARK 924 INTRA-LIGAND FREE ENERGY PREDICTED BY IDOCK:    0.19 KCAL/MOL
REMARK 927      BINDING AFFINITY PREDICTED BY RF-SCORE:    0.00 PKD
ROOT
HETATM    1  O   UNL     1      -9.391  17.143  68.586  1.00  0.00    -0.259 OA 
HETATM    2  C   UNL     1     -10.559  16.989  67.755  1.00  0.00    -0.350 C  
HETATM    3  H   UNL     1      -9.571  16.758  69.436  1.00  0.00     0.000 HD 
ENDROOT
BRANCH   2   4
HETATM    4  C   UNL     1     -10.262  17.625  66.350  1.00  0.00    -0.364 C  
HETATM    5  H   UNL     1      -8.773  17.657  64.915  1.00  0.00     0.000 HD 
HETATM    6  N   UNL     1      -8.843  17.551  65.927  1.00  0.00    -0.529 NA 
HETATM    7  C   UNL     1     -10.761  19.075  66.198  1.00  0.00    -0.405 C  
HETATM    8  C   UNL     1      -9.855  20.089  66.897  1.00  0.00    -0.571 C  
HETATM    9  C   UNL     1      -7.950  18.491  66.595  1.00  0.00    -0.261 C  
HETATM   10  C   UNL     1      -8.421  19.933  66.414  1.00  0.00    -0.379 C  
ENDBRANCH   2   4
BRANCH   2  11
HETATM   11  C   UNL     1     -10.883  15.491  67.719  1.00  0.00    -0.309 A  
HETATM   12  C   UNL     1     -10.769  12.690  65.121  1.00  0.00    -0.292 C  
HETATM   13  C   UNL     1     -11.562  13.358  68.699  1.00  0.00    -0.327 A  
HETATM   14  F   UNL     1      -9.840  11.693  65.196  1.00  0.00    -0.246 F  
HETATM   15  F   UNL     1     -11.918  12.100  64.681  1.00  0.00    -0.404 F  
HETATM   16  C   UNL     1     -10.954  13.440  66.434  1.00  0.00    -0.289 A  
HETATM   17  F   UNL     1     -10.358  13.490  64.093  1.00  0.00    -0.439 F  
HETATM   18  C   UNL     1     -10.708  14.803  66.504  1.00  0.00    -0.319 A  
HETATM   19  C   UNL     1     -11.352  14.754  68.847  1.00  0.00    -0.302 A  
HETATM   20  N   UNL     1     -11.363  12.741  67.526  1.00  0.00    -0.292 NA 
HETATM   21  C   UNL     1     -11.628  15.335  70.107  1.00  0.00    -0.328 A  
HETATM   22  C   UNL     1     -12.151  14.598  71.163  1.00  0.00    -0.403 A  
HETATM   23  C   UNL     1     -12.327  13.236  71.008  1.00  0.00    -0.379 A  
HETATM   24  C   UNL     1     -11.996  12.607  69.793  1.00  0.00    -0.365 A  
HETATM   25  C   UNL     1     -12.118  11.105  69.741  1.00  0.00    -0.344 C  
HETATM   26  F   UNL     1     -11.436  10.524  70.776  1.00  0.00    -0.362 F  
HETATM   27  F   UNL     1     -11.664  10.474  68.627  1.00  0.00    -0.324 F  
HETATM   28  F   UNL     1     -13.410  10.692  69.901  1.00  0.00    -0.176 F  
ENDBRANCH   2  11
TORSDOF 2
ENDMDL
MODEL       13
REMARK 921   NORMALIZED FREE ENERGY PREDICTED BY IDOCK:   -7.22 KCAL/MOL
REMARK 922        TOTAL FREE ENERGY PREDICTED BY IDOCK:   -8.80 KCAL/MOL
REMARK 923 INTER-LIGAND FREE ENERGY PREDICTED BY IDOCK:   -8.34 KCAL/MOL
REMARK 924 INTRA-LIGAND FREE ENERGY PREDICTED BY IDOCK:   -0.45 KCAL/MOL
REMARK 927      BINDING AFFINITY PREDICTED BY RF-SCORE:    0.00 PKD
ROOT
HETATM    1  O   UNL     1     -10.384  14.584  69.996  1.00  0.00    -0.426 OA 
HETATM    2  C   UNL     1     -11.435  13.619  70.205  1.00  0.00    -0.041 C  
HETATM    3  H   UNL     1      -9.559  14.121  69.914  1.00  0.00     0.000 HD 
ENDROOT
BRANCH   2   4
HETATM    4  C   UNL     1     -12.799  14.386  70.341  1.00  0.00    -0.245 C  
HETATM    5  H   UNL     1     -13.528  16.322  70.348  1.00  0.00     0.000 HD 
HETATM    6  N   UNL     1     -12.667  15.839  70.604  1.00  0.00    -0.412 NA 
HETATM    7  C   UNL     1     -13.766  13.771  71.370  1.00  0.00    -0.197 C  
HETATM    8  C   UNL     1     -13.385  14.105  72.813  1.00  0.00    -0.618 C  
HETATM    9  C   UNL     1     -12.281  16.187  71.967  1.00  0.00    -0.453 C  
HETATM   10  C   UNL     1     -13.258  15.611  72.988  1.00  0.00    -0.664 C  
ENDBRANCH   2   4
BRANCH   2  11
HETATM   11  C   UNL     1     -11.372  12.636  69.031  1.00  0.00    -0.345 A  
HETATM   12  C   UNL     1     -11.877  12.799  65.245  1.00  0.00    -0.403 C  
HETATM   13  C   UNL     1     -10.967  10.459  67.997  1.00  0.00    -0.291 A  
HETATM   14  F   UNL     1     -10.824  12.683  64.386  1.00  0.00    -0.302 F  
HETATM   15  F   UNL     1     -12.920  12.149  64.652  1.00  0.00    -0.515 F  
HETATM   16  C   UNL     1     -11.573  12.279  66.644  1.00  0.00    -0.375 A  
HETATM   17  F   UNL     1     -12.219  14.122  65.222  1.00  0.00    -0.364 F  
HETATM   18  C   UNL     1     -11.652  13.123  67.741  1.00  0.00    -0.379 A  
HETATM   19  C   UNL     1     -11.046  11.254  69.171  1.00  0.00    -0.312 A  
HETATM   20  N   UNL     1     -11.223  10.972  66.786  1.00  0.00    -0.288 NA 
HETATM   21  C   UNL     1     -10.805  10.625  70.414  1.00  0.00    -0.061 A  
HETATM   22  C   UNL     1     -10.559   9.261  70.517  1.00  0.00    -0.309 A  
HETATM   23  C   UNL     1     -10.462   8.507  69.363  1.00  0.00    -0.223 A  
HETATM   24  C   UNL     1     -10.624   9.110  68.101  1.00  0.00    -0.235 A  
HETATM   25  C   UNL     1     -10.399   8.240  66.890  1.00  0.00    -0.320 C  
HETATM   26  F   UNL     1      -9.185   7.610  66.961  1.00  0.00    -0.124 F  
HETATM   27  F   UNL     1     -10.409   8.842  65.672  1.00  0.00    -0.086 F  
HETATM   28  F   UNL     1     -11.313   7.228  66.812  1.00  0.00    -0.356 F  
ENDBRANCH   2  11
TORSDOF 2
ENDMDL
MODEL       14
REMARK 921   NORMALIZED FREE ENERGY PREDICTED BY IDOCK:   -7.19 KCAL/MOL
REMARK 922        TOTAL FREE ENERGY PREDICTED BY IDOCK:   -8.78 KCAL/MOL
REMARK 923 INTER-LIGAND FREE ENERGY PREDICTED BY IDOCK:   -8.62 KCAL/MOL
REMARK 924 INTRA-LIGAND FREE ENERGY PREDICTED BY IDOCK:   -0.16 KCAL/MOL
REMARK 927      BINDING AFFINITY PREDICTED BY RF-SCORE:    0.00 PKD
ROOT
HETATM    1  O   UNL     1     -12.715  14.580  69.106  1.00  0.00    -0.537 OA 
HETATM    2  C   UNL     1     -11.896  14.911  67.966  1.00  0.00    -0.268 C  
HETATM    3  H   UNL     1     -13.511  14.164  68.796  1.00  0.00     0.000 HD 
ENDROOT
BRANCH   2   4
HETATM    4  C   UNL     1     -10.580  15.600  68.478  1.00  0.00    -0.256 C  
HETATM    5  H   UNL     1      -9.969  17.345  69.405  1.00  0.00     0.000 HD 
HETATM    6  N   UNL     1     -10.716  17.045  68.779  1.00  0.00    -0.335 NA 
HETATM    7  C   UNL     1      -9.360  15.385  67.562  1.00  0.00    -0.204 C  
HETATM    8  C   UNL     1      -9.392  16.273  66.318  1.00  0.00    -0.360 C  
HETATM    9  C   UNL     1     -10.773  17.915  67.609  1.00  0.00    -0.331 C  
HETATM   10  C   UNL     1      -9.547  17.733  66.718  1.00  0.00    -0.301 C  
ENDBRANCH   2   4
BRANCH   2  11
HETATM   11  C   UNL     1     -11.671  13.609  67.189  1.00  0.00    -0.418 A  
HETATM   12  C   UNL     1     -11.805  12.502  63.533  1.00  0.00    -0.534 C  
HETATM   13  C   UNL     1     -11.063  11.253  66.963  1.00  0.00    -0.293 A  
HETATM   14  F   UNL     1     -10.668  12.196  62.845  1.00  0.00    -0.368 F  
HETATM   15  F   UNL     1     -12.753  11.616  63.107  1.00  0.00    -0.696 F  
HETATM   16  C   UNL     1     -11.617  12.486  65.044  1.00  0.00    -0.349 A  
HETATM   17  F   UNL     1     -12.205  13.716  63.049  1.00  0.00    -0.543 F  
HETATM   18  C   UNL     1     -11.845  13.631  65.793  1.00  0.00    -0.397 A  
HETATM   19  C   UNL     1     -11.296  12.376  67.800  1.00  0.00    -0.356 A  
HETATM   20  N   UNL     1     -11.221  11.326  65.635  1.00  0.00    -0.087 NA 
HETATM   21  C   UNL     1     -11.149  12.202  69.196  1.00  0.00    -0.263 A  
HETATM   22  C   UNL     1     -10.850  10.968  69.761  1.00  0.00    -0.205 A  
HETATM   23  C   UNL     1     -10.604   9.892  68.930  1.00  0.00    -0.239 A  
HETATM   24  C   UNL     1     -10.669  10.040  67.531  1.00  0.00    -0.339 A  
HETATM   25  C   UNL     1     -10.283   8.846  66.695  1.00  0.00    -0.268 C  
HETATM   26  F   UNL     1      -9.054   8.369  67.063  1.00  0.00    -0.136 F  
HETATM   27  F   UNL     1     -10.201   9.020  65.350  1.00  0.00    -0.146 F  
HETATM   28  F   UNL     1     -11.136   7.796  66.882  1.00  0.00    -0.390 F  
ENDBRANCH   2  11
TORSDOF 2
ENDMDL
MODEL       15
REMARK 921   NORMALIZED FREE ENERGY PREDICTED BY IDOCK:   -7.17 KCAL/MOL
REMARK 922        TOTAL FREE ENERGY PREDICTED BY IDOCK:   -8.75 KCAL/MOL
REMARK 923 INTER-LIGAND FREE ENERGY PREDICTED BY IDOCK:   -7.95 KCAL/MOL
REMARK 924 INTRA-LIGAND FREE ENERGY PREDICTED BY IDOCK:   -0.81 KCAL/MOL
REMARK 927      BINDING AFFINITY PREDICTED BY RF-SCORE:    0.00 PKD
ROOT
HETATM    1  O   UNL     1     -12.772  14.243  66.825  1.00  0.00    -0.510 OA 
HETATM    2  C   UNL     1     -11.382  13.887  66.971  1.00  0.00    -0.326 C  
HETATM    3  H   UNL     1     -13.205  13.568  66.315  1.00  0.00     0.000 HD 
ENDROOT
BRANCH   2   4
HETATM    4  C   UNL     1     -10.666  15.003  67.813  1.00  0.00    -0.278 C  
HETATM    5  H   UNL     1     -10.468  17.061  67.864  1.00  0.00     0.000 HD 
HETATM    6  N   UNL     1     -10.623  16.335  67.165  1.00  0.00    -0.310 NA 
HETATM    7  C   UNL     1      -9.249  14.623  68.284  1.00  0.00    -0.198 C  
HETATM    8  C   UNL     1      -8.206  14.734  67.171  1.00  0.00    -0.239 C  
HETATM    9  C   UNL     1      -9.654  16.464  66.082  1.00  0.00    -0.325 C  
HETATM   10  C   UNL     1      -8.242  16.125  66.554  1.00  0.00    -0.343 C  
ENDBRANCH   2   4
BRANCH   2  11
HETATM   11  C   UNL     1     -11.346  12.491  67.603  1.00  0.00    -0.362 A  
HETATM   12  C   UNL     1     -12.586  10.879  70.839  1.00  0.00    -0.397 C  
HETATM   13  C   UNL     1     -10.835  10.102  67.645  1.00  0.00    -0.290 A  
HETATM   14  F   UNL     1     -13.629   9.999  70.836  1.00  0.00    -0.435 F  
HETATM   15  F   UNL     1     -11.702  10.412  71.769  1.00  0.00    -0.341 F  
HETATM   16  C   UNL     1     -11.956  11.069  69.466  1.00  0.00    -0.342 A  
HETATM   17  F   UNL     1     -13.089  12.033  71.370  1.00  0.00    -0.453 F  
HETATM   18  C   UNL     1     -11.932  12.321  68.871  1.00  0.00    -0.300 A  
HETATM   19  C   UNL     1     -10.753  11.354  66.979  1.00  0.00    -0.304 A  
HETATM   20  N   UNL     1     -11.421   9.984  68.844  1.00  0.00    -0.074 NA 
HETATM   21  C   UNL     1     -10.078  11.400  65.737  1.00  0.00    -0.289 A  
HETATM   22  C   UNL     1      -9.451  10.285  65.194  1.00  0.00    -0.309 A  
HETATM   23  C   UNL     1      -9.561   9.070  65.843  1.00  0.00    -0.317 A  
HETATM   24  C   UNL     1     -10.286   8.967  67.046  1.00  0.00    -0.345 A  
HETATM   25  C   UNL     1     -10.446   7.588  67.634  1.00  0.00    -0.250 C  
HETATM   26  F   UNL     1     -10.946   6.716  66.705  1.00  0.00    -0.378 F  
HETATM   27  F   UNL     1     -11.264   7.454  68.712  1.00  0.00    -0.098 F  
HETATM   28  F   UNL     1      -9.248   7.050  68.009  1.00  0.00    -0.131 F  
ENDBRANCH   2  11
TORSDOF 2
ENDMDL
MODEL       16
REMARK 921   NORMALIZED FREE ENERGY PREDICTED BY IDOCK:   -7.17 KCAL/MOL
REMARK 922        TOTAL FREE ENERGY PREDICTED BY IDOCK:   -8.75 KCAL/MOL
REMARK 923 INTER-LIGAND FREE ENERGY PREDICTED BY IDOCK:   -8.05 KCAL/MOL
REMARK 924 INTRA-LIGAND FREE ENERGY PREDICTED BY IDOCK:   -0.70 KCAL/MOL
REMARK 927      BINDING AFFINITY PREDICTED BY RF-SCORE:    0.00 PKD
ROOT
HETATM    1  O   UNL     1     -12.181  12.019  66.124  1.00  0.00    -0.552 OA 
HETATM    2  C   UNL     1     -11.155  11.857  67.123  1.00  0.00    -0.293 C  
HETATM    3  H   UNL     1     -13.027  12.035  66.557  1.00  0.00     0.000 HD 
ENDROOT
BRANCH   2   4
HETATM    4  C   UNL     1      -9.758  11.831  66.406  1.00  0.00    -0.214 C  
HETATM    5  H   UNL     1      -8.915  11.241  64.611  1.00  0.00     0.000 HD 
HETATM    6  N   UNL     1      -9.696  10.963  65.205  1.00  0.00    -0.242 NA 
HETATM    7  C   UNL     1      -8.579  11.491  67.337  1.00  0.00    -0.145 C  
HETATM    8  C   UNL     1      -8.490   9.998  67.658  1.00  0.00    -0.114 C  
HETATM    9  C   UNL     1      -9.634   9.532  65.480  1.00  0.00    -0.279 C  
HETATM   10  C   UNL     1      -8.445   9.186  66.373  1.00  0.00    -0.129 C  
ENDBRANCH   2   4
BRANCH   2  11
HETATM   11  C   UNL     1     -11.332  12.999  68.130  1.00  0.00    -0.329 A  
HETATM   12  C   UNL     1     -10.641  16.757  68.211  1.00  0.00    -0.352 C  
HETATM   13  C   UNL     1     -12.056  13.979  70.248  1.00  0.00    -0.355 A  
HETATM   14  F   UNL     1     -11.659  17.664  68.183  1.00  0.00     0.072 F  
HETATM   15  F   UNL     1      -9.698  17.275  69.052  1.00  0.00    -0.263 F  
HETATM   16  C   UNL     1     -11.091  15.359  68.614  1.00  0.00    -0.289 A  
HETATM   17  F   UNL     1     -10.078  16.808  66.966  1.00  0.00    -0.250 F  
HETATM   18  C   UNL     1     -10.916  14.289  67.750  1.00  0.00    -0.275 A  
HETATM   19  C   UNL     1     -11.894  12.829  69.430  1.00  0.00    -0.359 A  
HETATM   20  N   UNL     1     -11.663  15.191  69.836  1.00  0.00    -0.292 NA 
HETATM   21  C   UNL     1     -12.294  11.580  69.957  1.00  0.00    -0.287 A  
HETATM   22  C   UNL     1     -12.772  11.443  71.255  1.00  0.00    -0.498 A  
HETATM   23  C   UNL     1     -12.945  12.575  72.029  1.00  0.00    -0.379 A  
HETATM   24  C   UNL     1     -12.627  13.847  71.515  1.00  0.00    -0.419 A  
HETATM   25  C   UNL     1     -12.944  15.038  72.384  1.00  0.00    -0.357 C  
HETATM   26  F   UNL     1     -14.249  15.007  72.797  1.00  0.00    -0.490 F  
HETATM   27  F   UNL     1     -12.778  16.273  71.843  1.00  0.00    -0.495 F  
HETATM   28  F   UNL     1     -12.213  15.036  73.538  1.00  0.00    -0.464 F  
ENDBRANCH   2  11
TORSDOF 2
ENDMDL
MODEL       17
REMARK 921   NORMALIZED FREE ENERGY PREDICTED BY IDOCK:   -7.16 KCAL/MOL
REMARK 922        TOTAL FREE ENERGY PREDICTED BY IDOCK:   -8.74 KCAL/MOL
REMARK 923 INTER-LIGAND FREE ENERGY PREDICTED BY IDOCK:   -7.96 KCAL/MOL
REMARK 924 INTRA-LIGAND FREE ENERGY PREDICTED BY IDOCK:   -0.78 KCAL/MOL
REMARK 927      BINDING AFFINITY PREDICTED BY RF-SCORE:    0.00 PKD
ROOT
HETATM    1  O   UNL     1      -8.553  12.535  66.687  1.00  0.00    -0.356 OA 
HETATM    2  C   UNL     1      -9.995  12.563  66.711  1.00  0.00    -0.228 C  
HETATM    3  H   UNL     1      -8.237  12.492  67.582  1.00  0.00     0.000 HD 
ENDROOT
BRANCH   2   4
HETATM    4  C   UNL     1     -10.518  12.635  65.231  1.00  0.00    -0.289 C  
HETATM    5  H   UNL     1     -10.159  13.673  63.478  1.00  0.00     0.000 HD 
HETATM    6  N   UNL     1     -10.088  13.839  64.482  1.00  0.00    -0.263 NA 
HETATM    7  C   UNL     1     -12.044  12.472  65.095  1.00  0.00    -0.503 C  
HETATM    8  C   UNL     1     -12.811  13.740  65.473  1.00  0.00    -0.464 C  
HETATM    9  C   UNL     1     -10.785  15.070  64.839  1.00  0.00    -0.397 C  
HETATM   10  C   UNL     1     -12.296  14.924  64.669  1.00  0.00    -0.290 C  
ENDBRANCH   2   4
BRANCH   2  11
HETATM   11  C   UNL     1     -10.449  11.321  67.486  1.00  0.00    -0.234 A  
HETATM   12  C   UNL     1     -10.181   7.532  67.059  1.00  0.00    -0.298 C  
HETATM   13  C   UNL     1     -11.477  10.151  69.369  1.00  0.00    -0.142 A  
HETATM   14  F   UNL     1      -9.375   6.785  67.867  1.00  0.00    -0.119 F  
HETATM   15  F   UNL     1     -11.295   6.775  66.834  1.00  0.00    -0.484 F  
HETATM   16  C   UNL     1     -10.504   8.904  67.635  1.00  0.00    -0.255 A  
HETATM   17  F   UNL     1      -9.535   7.587  65.856  1.00  0.00    -0.170 F  
HETATM   18  C   UNL     1     -10.145  10.055  66.950  1.00  0.00    -0.287 A  
HETATM   19  C   UNL     1     -11.162  11.374  68.721  1.00  0.00    -0.308 A  
HETATM   20  N   UNL     1     -11.150   8.969  68.830  1.00  0.00     0.065 NA 
HETATM   21  C   UNL     1     -11.582  12.576  69.335  1.00  0.00    -0.368 A  
HETATM   22  C   UNL     1     -12.336  12.587  70.502  1.00  0.00    -0.345 A  
HETATM   23  C   UNL     1     -12.613  11.388  71.133  1.00  0.00    -0.490 A  
HETATM   24  C   UNL     1     -12.151  10.173  70.592  1.00  0.00    -0.411 A  
HETATM   25  C   UNL     1     -12.405   8.923  71.395  1.00  0.00    -0.313 C  
HETATM   26  F   UNL     1     -11.957   9.069  72.680  1.00  0.00    -0.367 F  
HETATM   27  F   UNL     1     -11.838   7.768  70.958  1.00  0.00    -0.286 F  
HETATM   28  F   UNL     1     -13.739   8.658  71.518  1.00  0.00    -0.361 F  
ENDBRANCH   2  11
TORSDOF 2
ENDMDL
MODEL       18
REMARK 921   NORMALIZED FREE ENERGY PREDICTED BY IDOCK:   -7.13 KCAL/MOL
REMARK 922        TOTAL FREE ENERGY PREDICTED BY IDOCK:   -8.70 KCAL/MOL
REMARK 923 INTER-LIGAND FREE ENERGY PREDICTED BY IDOCK:   -9.24 KCAL/MOL
REMARK 924 INTRA-LIGAND FREE ENERGY PREDICTED BY IDOCK:    0.54 KCAL/MOL
REMARK 927      BINDING AFFINITY PREDICTED BY RF-SCORE:    0.00 PKD
ROOT
HETATM    1  O   UNL     1     -11.644  10.162  69.148  1.00  0.00    -0.447 OA 
HETATM    2  C   UNL     1     -12.554  10.765  70.089  1.00  0.00    -0.240 C  
HETATM    3  H   UNL     1     -11.755  10.586  68.305  1.00  0.00     0.000 HD 
ENDROOT
BRANCH   2   4
HETATM    4  C   UNL     1     -12.371  10.063  71.483  1.00  0.00    -0.419 C  
HETATM    5  H   UNL     1     -11.074   8.766  72.440  1.00  0.00     0.000 HD 
HETATM    6  N   UNL     1     -11.396   8.946  71.489  1.00  0.00    -0.298 NA 
HETATM    7  C   UNL     1     -13.688   9.589  72.126  1.00  0.00    -0.447 C  
HETATM    8  C   UNL     1     -14.223   8.301  71.498  1.00  0.00    -0.489 C  
HETATM    9  C   UNL     1     -11.870   7.711  70.875  1.00  0.00    -0.250 C  
HETATM   10  C   UNL     1     -13.155   7.217  71.534  1.00  0.00    -0.434 C  
ENDBRANCH   2   4
BRANCH   2  11
HETATM   11  C   UNL     1     -12.256  12.269  70.091  1.00  0.00    -0.302 A  
HETATM   12  C   UNL     1     -12.566  15.155  72.578  1.00  0.00    -0.354 C  
HETATM   13  C   UNL     1     -11.423  14.353  69.125  1.00  0.00    -0.294 A  
HETATM   14  F   UNL     1     -11.462  15.727  73.139  1.00  0.00    -0.483 F  
HETATM   15  F   UNL     1     -13.446  16.175  72.356  1.00  0.00    -0.507 F  
HETATM   16  C   UNL     1     -12.256  14.357  71.319  1.00  0.00    -0.357 A  
HETATM   17  F   UNL     1     -13.129  14.405  73.571  1.00  0.00    -0.580 F  
HETATM   18  C   UNL     1     -12.543  13.001  71.259  1.00  0.00    -0.373 A  
HETATM   19  C   UNL     1     -11.705  12.969  68.978  1.00  0.00    -0.376 A  
HETATM   20  N   UNL     1     -11.694  15.005  70.263  1.00  0.00    -0.274 NA 
HETATM   21  C   UNL     1     -11.429  12.367  67.728  1.00  0.00    -0.383 A  
HETATM   22  C   UNL     1     -10.958  13.096  66.643  1.00  0.00    -0.301 A  
HETATM   23  C   UNL     1     -10.666  14.437  66.811  1.00  0.00    -0.292 A  
HETATM   24  C   UNL     1     -10.859  15.058  68.060  1.00  0.00    -0.270 A  
HETATM   25  C   UNL     1     -10.418  16.494  68.188  1.00  0.00    -0.313 C  
HETATM   26  F   UNL     1      -9.120  16.644  67.780  1.00  0.00    -0.205 F  
HETATM   27  F   UNL     1     -10.463  17.059  69.424  1.00  0.00    -0.297 F  
HETATM   28  F   UNL     1     -11.138  17.323  67.375  1.00  0.00    -0.257 F  
ENDBRANCH   2  11
TORSDOF 2
ENDMDL
MODEL       19
REMARK 921   NORMALIZED FREE ENERGY PREDICTED BY IDOCK:   -7.03 KCAL/MOL
REMARK 922        TOTAL FREE ENERGY PREDICTED BY IDOCK:   -8.59 KCAL/MOL
REMARK 923 INTER-LIGAND FREE ENERGY PREDICTED BY IDOCK:   -8.28 KCAL/MOL
REMARK 924 INTRA-LIGAND FREE ENERGY PREDICTED BY IDOCK:   -0.32 KCAL/MOL
REMARK 927      BINDING AFFINITY PREDICTED BY RF-SCORE:    0.00 PKD
ROOT
HETATM    1  O   UNL     1      -9.526  14.022  68.848  1.00  0.00    -0.373 OA 
HETATM    2  C   UNL     1     -10.485  13.480  67.918  1.00  0.00    -0.250 C  
HETATM    3  H   UNL     1      -9.889  13.965  69.724  1.00  0.00     0.000 HD 
ENDROOT
BRANCH   2   4
HETATM    4  C   UNL     1      -9.886  13.573  66.469  1.00  0.00    -0.291 C  
HETATM    5  H   UNL     1      -8.565  14.733  65.378  1.00  0.00     0.000 HD 
HETATM    6  N   UNL     1      -9.204  14.853  66.164  1.00  0.00    -0.271 NA 
HETATM    7  C   UNL     1     -10.895  13.257  65.349  1.00  0.00    -0.304 C  
HETATM    8  C   UNL     1     -11.855  14.416  65.073  1.00  0.00    -0.400 C  
HETATM    9  C   UNL     1     -10.094  15.983  65.920  1.00  0.00    -0.353 C  
HETATM   10  C   UNL     1     -11.072  15.688  64.785  1.00  0.00    -0.426 C  
ENDBRANCH   2   4
BRANCH   2  11
HETATM   11  C   UNL     1     -10.799  12.054  68.386  1.00  0.00    -0.266 A  
HETATM   12  C   UNL     1     -10.012   8.508  67.197  1.00  0.00    -0.238 C  
HETATM   13  C   UNL     1     -11.733  10.389  69.912  1.00  0.00    -0.264 A  
HETATM   14  F   UNL     1      -9.145   7.708  67.882  1.00  0.00    -0.133 F  
HETATM   15  F   UNL     1     -11.005   7.687  66.746  1.00  0.00    -0.421 F  
HETATM   16  C   UNL     1     -10.537   9.674  68.024  1.00  0.00    -0.243 A  
HETATM   17  F   UNL     1      -9.334   8.899  66.077  1.00  0.00    -0.215 F  
HETATM   18  C   UNL     1     -10.309  10.980  67.619  1.00  0.00    -0.223 A  
HETATM   19  C   UNL     1     -11.559  11.753  69.555  1.00  0.00    -0.398 A  
HETATM   20  N   UNL     1     -11.230   9.400  69.161  1.00  0.00    -0.007 NA 
HETATM   21  C   UNL     1     -12.160  12.734  70.377  1.00  0.00    -0.382 A  
HETATM   22  C   UNL     1     -12.953  12.400  71.468  1.00  0.00    -0.385 A  
HETATM   23  C   UNL     1     -13.091  11.070  71.816  1.00  0.00    -0.554 A  
HETATM   24  C   UNL     1     -12.450  10.066  71.065  1.00  0.00    -0.460 A  
HETATM   25  C   UNL     1     -12.566   8.650  71.571  1.00  0.00    -0.322 C  
HETATM   26  F   UNL     1     -12.191   8.570  72.885  1.00  0.00    -0.446 F  
HETATM   27  F   UNL     1     -11.833   7.694  70.941  1.00  0.00    -0.293 F  
HETATM   28  F   UNL     1     -13.857   8.204  71.548  1.00  0.00    -0.360 F  
ENDBRANCH   2  11
TORSDOF 2
ENDMDL
MODEL       20
REMARK 921   NORMALIZED FREE ENERGY PREDICTED BY IDOCK:   -6.95 KCAL/MOL
REMARK 922        TOTAL FREE ENERGY PREDICTED BY IDOCK:   -8.50 KCAL/MOL
REMARK 923 INTER-LIGAND FREE ENERGY PREDICTED BY IDOCK:   -7.62 KCAL/MOL
REMARK 924 INTRA-LIGAND FREE ENERGY PREDICTED BY IDOCK:   -0.88 KCAL/MOL
REMARK 927      BINDING AFFINITY PREDICTED BY RF-SCORE:    0.00 PKD
ROOT
HETATM    1  O   UNL     1     -11.172  18.817  67.980  1.00  0.00    -0.154 OA 
HETATM    2  C   UNL     1     -10.068  17.893  67.906  1.00  0.00    -0.349 C  
HETATM    3  H   UNL     1     -11.952  18.384  67.652  1.00  0.00     0.000 HD 
ENDROOT
BRANCH   2   4
HETATM    4  C   UNL     1      -8.779  18.608  68.449  1.00  0.00    -0.333 C  
HETATM    5  H   UNL     1      -7.783  20.413  68.274  1.00  0.00     0.000 HD 
HETATM    6  N   UNL     1      -8.386  19.825  67.699  1.00  0.00    -0.310 NA 
HETATM    7  C   UNL     1      -7.556  17.682  68.587  1.00  0.00    -0.276 C  
HETATM    8  C   UNL     1      -6.882  17.388  67.246  1.00  0.00    -0.194 C  
HETATM    9  C   UNL     1      -7.762  19.577  66.404  1.00  0.00    -0.296 C  
HETATM   10  C   UNL     1      -6.527  18.689  66.541  1.00  0.00    -0.215 C  
ENDBRANCH   2   4
BRANCH   2  11
HETATM   11  C   UNL     1     -10.482  16.645  68.694  1.00  0.00    -0.323 A  
HETATM   12  C   UNL     1     -11.904  15.899  72.163  1.00  0.00    -0.517 C  
HETATM   13  C   UNL     1     -10.875  14.251  68.986  1.00  0.00    -0.255 A  
HETATM   14  F   UNL     1     -13.190  15.475  72.324  1.00  0.00    -0.380 F  
HETATM   15  F   UNL     1     -11.165  15.220  73.088  1.00  0.00    -0.464 F  
HETATM   16  C   UNL     1     -11.384  15.720  70.743  1.00  0.00    -0.390 A  
HETATM   17  F   UNL     1     -11.897  17.200  72.583  1.00  0.00    -0.406 F  
HETATM   18  C   UNL     1     -10.964  16.817  70.006  1.00  0.00    -0.014 A  
HETATM   19  C   UNL     1     -10.408  15.318  68.175  1.00  0.00    -0.242 A  
HETATM   20  N   UNL     1     -11.344  14.465  70.222  1.00  0.00    -0.187 NA 
HETATM   21  C   UNL     1      -9.886  15.001  66.899  1.00  0.00    -0.244 A  
HETATM   22  C   UNL     1      -9.764  13.690  66.454  1.00  0.00    -0.300 A  
HETATM   23  C   UNL     1     -10.246  12.666  67.246  1.00  0.00    -0.227 A  
HETATM   24  C   UNL     1     -10.838  12.945  68.493  1.00  0.00    -0.283 A  
HETATM   25  C   UNL     1     -11.432  11.782  69.247  1.00  0.00    -0.306 C  
HETATM   26  F   UNL     1     -12.302  11.081  68.456  1.00  0.00    -0.320 F  
HETATM   27  F   UNL     1     -12.133  12.057  70.379  1.00  0.00    -0.383 F  
HETATM   28  F   UNL     1     -10.481  10.871  69.612  1.00  0.00    -0.251 F  
ENDBRANCH   2  11
TORSDOF 2
ENDMDL
MODEL       21
REMARK 921   NORMALIZED FREE ENERGY PREDICTED BY IDOCK:   -6.89 KCAL/MOL
REMARK 922        TOTAL FREE ENERGY PREDICTED BY IDOCK:   -8.43 KCAL/MOL
REMARK 923 INTER-LIGAND FREE ENERGY PREDICTED BY IDOCK:   -7.96 KCAL/MOL
REMARK 924 INTRA-LIGAND FREE ENERGY PREDICTED BY IDOCK:   -0.47 KCAL/MOL
REMARK 927      BINDING AFFINITY PREDICTED BY RF-SCORE:    0.00 PKD
ROOT
HETATM    1  O   UNL     1     -12.050  15.309  68.298  1.00  0.00    -0.534 OA 
HETATM    2  C   UNL     1     -11.459  15.957  69.442  1.00  0.00    -0.351 C  
HETATM    3  H   UNL     1     -12.064  15.925  67.575  1.00  0.00     0.000 HD 
ENDROOT
BRANCH   2   4
HETATM    4  C   UNL     1     -11.436  14.938  70.638  1.00  0.00    -0.266 C  
HETATM    5  H   UNL     1     -12.419  13.235  71.281  1.00  0.00     0.000 HD 
HETATM    6  N   UNL     1     -12.632  14.067  70.731  1.00  0.00    -0.349 NA 
HETATM    7  C   UNL     1     -11.173  15.585  72.011  1.00  0.00    -0.337 C  
HETATM    8  C   UNL     1     -12.406  16.290  72.579  1.00  0.00    -0.489 C  
HETATM    9  C   UNL     1     -13.831  14.718  71.247  1.00  0.00    -0.390 C  
HETATM   10  C   UNL     1     -13.585  15.329  72.624  1.00  0.00    -0.617 C  
ENDBRANCH   2   4
BRANCH   2  11
HETATM   11  C   UNL     1     -10.078  16.455  69.005  1.00  0.00    -0.262 A  
HETATM   12  C   UNL     1      -6.457  15.296  69.400  1.00  0.00    -0.141 C  
HETATM   13  C   UNL     1      -8.542  17.958  67.840  1.00  0.00    -0.252 A  
HETATM   14  F   UNL     1      -5.753  14.801  68.341  1.00  0.00    -0.082 F  
HETATM   15  F   UNL     1      -5.567  16.026  70.135  1.00  0.00    -0.137 F  
HETATM   16  C   UNL     1      -7.682  16.100  68.985  1.00  0.00    -0.222 A  
HETATM   17  F   UNL     1      -6.757  14.211  70.174  1.00  0.00    -0.140 F  
HETATM   18  C   UNL     1      -8.949  15.707  69.389  1.00  0.00    -0.265 A  
HETATM   19  C   UNL     1      -9.869  17.634  68.229  1.00  0.00    -0.324 A  
HETATM   20  N   UNL     1      -7.500  17.205  68.213  1.00  0.00    -0.208 NA 
HETATM   21  C   UNL     1     -10.908  18.507  67.830  1.00  0.00    -0.289 A  
HETATM   22  C   UNL     1     -10.659  19.684  67.135  1.00  0.00    -0.611 A  
HETATM   23  C   UNL     1      -9.365  19.972  66.744  1.00  0.00    -0.510 A  
HETATM   24  C   UNL     1      -8.312  19.092  67.059  1.00  0.00    -0.294 A  
HETATM   25  C   UNL     1      -6.949  19.426  66.505  1.00  0.00    -0.209 C  
HETATM   26  F   UNL     1      -7.009  19.628  65.153  1.00  0.00    -0.293 F  
HETATM   27  F   UNL     1      -5.959  18.512  66.678  1.00  0.00    -0.156 F  
HETATM   28  F   UNL     1      -6.466  20.598  67.013  1.00  0.00    -0.232 F  
ENDBRANCH   2  11
TORSDOF 2
ENDMDL
MODEL       22
REMARK 921   NORMALIZED FREE ENERGY PREDICTED BY IDOCK:   -6.86 KCAL/MOL
REMARK 922        TOTAL FREE ENERGY PREDICTED BY IDOCK:   -8.40 KCAL/MOL
REMARK 923 INTER-LIGAND FREE ENERGY PREDICTED BY IDOCK:   -8.01 KCAL/MOL
REMARK 924 INTRA-LIGAND FREE ENERGY PREDICTED BY IDOCK:   -0.38 KCAL/MOL
REMARK 927      BINDING AFFINITY PREDICTED BY RF-SCORE:    0.00 PKD
ROOT
HETATM    1  O   UNL     1      -7.960   8.751  66.250  1.00  0.00    -0.103 OA 
HETATM    2  C   UNL     1      -9.315   8.280  66.392  1.00  0.00    -0.213 C  
HETATM    3  H   UNL     1      -7.951   9.462  65.621  1.00  0.00     0.000 HD 
ENDROOT
BRANCH   2   4
HETATM    4  C   UNL     1      -9.330   7.103  67.432  1.00  0.00    -0.127 C  
HETATM    5  H   UNL     1      -8.041   5.717  68.268  1.00  0.00     0.000 HD 
HETATM    6  N   UNL     1      -8.137   6.224  67.388  1.00  0.00    -0.109 NA 
HETATM    7  C   UNL     1     -10.601   6.234  67.381  1.00  0.00    -0.361 C  
HETATM    8  C   UNL     1     -10.601   5.254  66.207  1.00  0.00    -0.308 C  
HETATM    9  C   UNL     1      -8.097   5.294  66.265  1.00  0.00    -0.109 C  
HETATM   10  C   UNL     1      -9.339   4.405  66.232  1.00  0.00    -0.160 C  
ENDBRANCH   2   4
BRANCH   2  11
HETATM   11  C   UNL     1     -10.166   9.491  66.790  1.00  0.00    -0.313 A  
HETATM   12  C   UNL     1     -11.914  10.735  69.954  1.00  0.00    -0.342 C  
HETATM   13  C   UNL     1     -11.248  11.648  66.405  1.00  0.00    -0.287 A  
HETATM   14  F   UNL     1     -11.448  11.818  70.639  1.00  0.00    -0.284 F  
HETATM   15  F   UNL     1     -13.275  10.807  70.015  1.00  0.00    -0.245 F  
HETATM   16  C   UNL     1     -11.389  10.655  68.526  1.00  0.00    -0.284 A  
HETATM   17  F   UNL     1     -11.577   9.652  70.716  1.00  0.00    -0.292 F  
HETATM   18  C   UNL     1     -10.646   9.560  68.111  1.00  0.00    -0.265 A  
HETATM   19  C   UNL     1     -10.499  10.553  65.898  1.00  0.00    -0.224 A  
HETATM   20  N   UNL     1     -11.667  11.680  67.676  1.00  0.00    -0.574 NA 
HETATM   21  C   UNL     1     -10.134  10.577  64.531  1.00  0.00    -0.402 A  
HETATM   22  C   UNL     1     -10.536  11.595  63.676  1.00  0.00    -0.493 A  
HETATM   23  C   UNL     1     -11.244  12.664  64.191  1.00  0.00    -0.437 A  
HETATM   24  C   UNL     1     -11.566  12.714  65.561  1.00  0.00    -0.409 A  
HETATM   25  C   UNL     1     -12.247  13.962  66.061  1.00  0.00    -0.462 C  
HETATM   26  F   UNL     1     -11.544  15.080  65.700  1.00  0.00    -0.346 F  
HETATM   27  F   UNL     1     -12.430  14.085  67.402  1.00  0.00    -0.395 F  
HETATM   28  F   UNL     1     -13.481  14.130  65.501  1.00  0.00    -0.470 F  
ENDBRANCH   2  11
TORSDOF 2
ENDMDL
MODEL       23
REMARK 921   NORMALIZED FREE ENERGY PREDICTED BY IDOCK:   -6.79 KCAL/MOL
REMARK 922        TOTAL FREE ENERGY PREDICTED BY IDOCK:   -8.33 KCAL/MOL
REMARK 923 INTER-LIGAND FREE ENERGY PREDICTED BY IDOCK:   -7.92 KCAL/MOL
REMARK 924 INTRA-LIGAND FREE ENERGY PREDICTED BY IDOCK:   -0.41 KCAL/MOL
REMARK 927      BINDING AFFINITY PREDICTED BY RF-SCORE:    0.00 PKD
ROOT
HETATM    1  O   UNL     1      -7.832  17.084  65.838  1.00  0.00    -0.438 OA 
HETATM    2  C   UNL     1      -8.923  16.784  66.732  1.00  0.00    -0.240 C  
HETATM    3  H   UNL     1      -7.150  16.435  65.965  1.00  0.00     0.000 HD 
ENDROOT
BRANCH   2   4
HETATM    4  C   UNL     1     -10.051  17.857  66.523  1.00  0.00    -0.370 C  
HETATM    5  H   UNL     1     -10.435  19.544  65.388  1.00  0.00     0.000 HD 
HETATM    6  N   UNL     1      -9.623  19.066  65.779  1.00  0.00    -0.358 NA 
HETATM    7  C   UNL     1     -10.760  18.286  67.821  1.00  0.00    -0.358 C  
HETATM    8  C   UNL     1      -9.928  19.261  68.656  1.00  0.00    -0.506 C  
HETATM    9  C   UNL     1      -8.807  20.004  66.543  1.00  0.00    -0.337 C  
HETATM   10  C   UNL     1      -9.522  20.460  67.812  1.00  0.00    -0.424 C  
ENDBRANCH   2   4
BRANCH   2  11
HETATM   11  C   UNL     1      -9.354  15.343  66.439  1.00  0.00    -0.331 A  
HETATM   12  C   UNL     1     -12.032  13.625  64.320  1.00  0.00    -0.445 C  
HETATM   13  C   UNL     1      -9.170  12.911  66.595  1.00  0.00    -0.221 A  
HETATM   14  F   UNL     1     -11.704  12.933  63.191  1.00  0.00    -0.556 F  
HETATM   15  F   UNL     1     -13.045  12.926  64.909  1.00  0.00    -0.490 F  
HETATM   16  C   UNL     1     -10.848  13.852  65.252  1.00  0.00    -0.333 A  
HETATM   17  F   UNL     1     -12.605  14.785  63.878  1.00  0.00    -0.463 F  
HETATM   18  C   UNL     1     -10.446  15.139  65.575  1.00  0.00    -0.400 A  
HETATM   19  C   UNL     1      -8.710  14.195  66.990  1.00  0.00    -0.222 A  
HETATM   20  N   UNL     1     -10.202  12.766  65.754  1.00  0.00    -0.285 NA 
HETATM   21  C   UNL     1      -7.644  14.260  67.917  1.00  0.00    -0.159 A  
HETATM   22  C   UNL     1      -7.089  13.121  68.486  1.00  0.00    -0.105 A  
HETATM   23  C   UNL     1      -7.532  11.879  68.072  1.00  0.00    -0.107 A  
HETATM   24  C   UNL     1      -8.543  11.770  67.098  1.00  0.00    -0.168 A  
HETATM   25  C   UNL     1      -8.895  10.382  66.626  1.00  0.00    -0.134 C  
HETATM   26  F   UNL     1      -7.775   9.705  66.224  1.00  0.00    -0.097 F  
HETATM   27  F   UNL     1      -9.761  10.272  65.585  1.00  0.00    -0.229 F  
HETATM   28  F   UNL     1      -9.421   9.620  67.630  1.00  0.00    -0.139 F  
ENDBRANCH   2  11
TORSDOF 2
ENDMDL
MODEL       24
REMARK 921   NORMALIZED FREE ENERGY PREDICTED BY IDOCK:   -6.78 KCAL/MOL
REMARK 922        TOTAL FREE ENERGY PREDICTED BY IDOCK:   -8.32 KCAL/MOL
REMARK 923 INTER-LIGAND FREE ENERGY PREDICTED BY IDOCK:   -7.95 KCAL/MOL
REMARK 924 INTRA-LIGAND FREE ENERGY PREDICTED BY IDOCK:   -0.37 KCAL/MOL
REMARK 927      BINDING AFFINITY PREDICTED BY RF-SCORE:    0.00 PKD
ROOT
HETATM    1  O   UNL     1     -12.955  10.212  69.984  1.00  0.00    -0.570 OA 
HETATM    2  C   UNL     1     -11.514  10.164  69.990  1.00  0.00    -0.277 C  
HETATM    3  H   UNL     1     -13.227  11.117  69.890  1.00  0.00     0.000 HD 
ENDROOT
BRANCH   2   4
HETATM    4  C   UNL     1     -11.064   8.666  70.146  1.00  0.00    -0.192 C  
HETATM    5  H   UNL     1     -11.856   6.824  70.653  1.00  0.00     0.000 HD 
HETATM    6  N   UNL     1     -12.025   7.805  70.874  1.00  0.00    -0.256 NA 
HETATM    7  C   UNL     1      -9.661   8.492  70.759  1.00  0.00    -0.221 C  
HETATM    8  C   UNL     1      -9.648   8.698  72.275  1.00  0.00    -0.348 C  
HETATM    9  C   UNL     1     -12.053   7.997  72.320  1.00  0.00    -0.341 C  
HETATM   10  C   UNL     1     -10.672   7.787  72.937  1.00  0.00    -0.446 C  
ENDBRANCH   2   4
BRANCH   2  11
HETATM   11  C   UNL     1     -11.043  10.838  68.697  1.00  0.00    -0.312 A  
HETATM   12  C   UNL     1      -9.423   9.725  65.418  1.00  0.00    -0.269 C  
HETATM   13  C   UNL     1     -10.736  12.731  67.182  1.00  0.00    -0.245 A  
HETATM   14  F   UNL     1     -10.122   9.729  64.247  1.00  0.00    -0.243 F  
HETATM   15  F   UNL     1      -8.154  10.114  65.101  1.00  0.00    -0.126 F  
HETATM   16  C   UNL     1     -10.055  10.592  66.500  1.00  0.00    -0.225 A  
HETATM   17  F   UNL     1      -9.317   8.409  65.771  1.00  0.00    -0.240 F  
HETATM   18  C   UNL     1     -10.462  10.031  67.701  1.00  0.00    -0.297 A  
HETATM   19  C   UNL     1     -11.160  12.237  68.444  1.00  0.00    -0.283 A  
HETATM   20  N   UNL     1     -10.207  11.921  66.256  1.00  0.00    -0.211 NA 
HETATM   21  C   UNL     1     -11.666  13.166  69.383  1.00  0.00    -0.386 A  
HETATM   22  C   UNL     1     -11.700  14.532  69.128  1.00  0.00    -0.349 A  
HETATM   23  C   UNL     1     -11.306  14.992  67.886  1.00  0.00    -0.344 A  
HETATM   24  C   UNL     1     -10.863  14.092  66.898  1.00  0.00    -0.290 A  
HETATM   25  C   UNL     1     -10.553  14.663  65.537  1.00  0.00    -0.355 C  
HETATM   26  F   UNL     1     -11.605  15.402  65.067  1.00  0.00    -0.344 F  
HETATM   27  F   UNL     1     -10.266  13.788  64.538  1.00  0.00    -0.433 F  
HETATM   28  F   UNL     1      -9.503  15.537  65.578  1.00  0.00    -0.344 F  
ENDBRANCH   2  11
TORSDOF 2
ENDMDL
MODEL       25
REMARK 921   NORMALIZED FREE ENERGY PREDICTED BY IDOCK:   -6.71 KCAL/MOL
REMARK 922        TOTAL FREE ENERGY PREDICTED BY IDOCK:   -8.24 KCAL/MOL
REMARK 923 INTER-LIGAND FREE ENERGY PREDICTED BY IDOCK:   -7.56 KCAL/MOL
REMARK 924 INTRA-LIGAND FREE ENERGY PREDICTED BY IDOCK:   -0.68 KCAL/MOL
REMARK 927      BINDING AFFINITY PREDICTED BY RF-SCORE:    0.00 PKD
ROOT
HETATM    1  O   UNL     1     -11.042   7.330  67.614  1.00  0.00    -0.514 OA 
HETATM    2  C   UNL     1     -10.883   8.596  68.287  1.00  0.00     0.053 C  
HETATM    3  H   UNL     1     -11.728   7.418  66.962  1.00  0.00     0.000 HD 
ENDROOT
BRANCH   2   4
HETATM    4  C   UNL     1      -9.749   8.451  69.365  1.00  0.00    -0.177 C  
HETATM    5  H   UNL     1      -8.741   6.976  70.407  1.00  0.00     0.000 HD 
HETATM    6  N   UNL     1      -9.664   7.112  69.995  1.00  0.00    -0.171 NA 
HETATM    7  C   UNL     1      -9.787   9.527  70.466  1.00  0.00    -0.331 C  
HETATM    8  C   UNL     1     -10.873   9.268  71.511  1.00  0.00    -0.442 C  
HETATM    9  C   UNL     1     -10.702   6.826  70.979  1.00  0.00    -0.231 C  
HETATM   10  C   UNL     1     -10.718   7.870  72.093  1.00  0.00    -0.316 C  
ENDBRANCH   2   4
BRANCH   2  11
HETATM   11  C   UNL     1     -10.600   9.641  67.203  1.00  0.00    -0.298 A  
HETATM   12  C   UNL     1      -8.794   9.726  63.834  1.00  0.00    -0.233 C  
HETATM   13  C   UNL     1     -10.769  11.850  66.171  1.00  0.00    -0.278 A  
HETATM   14  F   UNL     1      -9.485   9.836  62.664  1.00  0.00    -0.286 F  
HETATM   15  F   UNL     1      -7.657  10.464  63.671  1.00  0.00    -0.148 F  
HETATM   16  C   UNL     1      -9.603  10.147  65.054  1.00  0.00    -0.299 A  
HETATM   17  F   UNL     1      -8.374   8.427  63.885  1.00  0.00    -0.164 F  
HETATM   18  C   UNL     1      -9.853   9.245  66.077  1.00  0.00    -0.363 A  
HETATM   19  C   UNL     1     -11.050  10.993  67.268  1.00  0.00    -0.359 A  
HETATM   20  N   UNL     1     -10.071  11.423  65.111  1.00  0.00    -0.257 NA 
HETATM   21  C   UNL     1     -11.754  11.536  68.368  1.00  0.00    -0.372 A  
HETATM   22  C   UNL     1     -12.115  12.876  68.427  1.00  0.00    -0.169 A  
HETATM   23  C   UNL     1     -11.855  13.690  67.341  1.00  0.00    -0.429 A  
HETATM   24  C   UNL     1     -11.220  13.171  66.196  1.00  0.00    -0.320 A  
HETATM   25  C   UNL     1     -11.068  14.097  65.016  1.00  0.00    -0.370 C  
HETATM   26  F   UNL     1     -12.271  14.657  64.677  1.00  0.00    -0.409 F  
HETATM   27  F   UNL     1     -10.591  13.569  63.859  1.00  0.00    -0.350 F  
HETATM   28  F   UNL     1     -10.258  15.159  65.301  1.00  0.00    -0.325 F  
ENDBRANCH   2  11
TORSDOF 2
ENDMDL
MODEL       26
REMARK 921   NORMALIZED FREE ENERGY PREDICTED BY IDOCK:   -6.68 KCAL/MOL
REMARK 922        TOTAL FREE ENERGY PREDICTED BY IDOCK:   -8.21 KCAL/MOL
REMARK 923 INTER-LIGAND FREE ENERGY PREDICTED BY IDOCK:   -8.06 KCAL/MOL
REMARK 924 INTRA-LIGAND FREE ENERGY PREDICTED BY IDOCK:   -0.14 KCAL/MOL
REMARK 927      BINDING AFFINITY PREDICTED BY RF-SCORE:    0.00 PKD
ROOT
HETATM    1  O   UNL     1     -12.367  15.071  68.260  1.00  0.00    -0.561 OA 
HETATM    2  C   UNL     1     -11.012  14.582  68.312  1.00  0.00    -0.247 C  
HETATM    3  H   UNL     1     -12.841  14.579  67.600  1.00  0.00     0.000 HD 
ENDROOT
BRANCH   2   4
HETATM    4  C   UNL     1     -10.227  15.395  69.403  1.00  0.00    -0.262 C  
HETATM    5  H   UNL     1     -10.397  17.142  70.497  1.00  0.00     0.000 HD 
HETATM    6  N   UNL     1     -10.690  16.791  69.585  1.00  0.00    -0.302 NA 
HETATM    7  C   UNL     1      -8.698  15.389  69.214  1.00  0.00    -0.252 C  
HETATM    8  C   UNL     1      -8.235  16.341  68.110  1.00  0.00    -0.163 C  
HETATM    9  C   UNL     1     -10.284  17.718  68.534  1.00  0.00    -0.382 C  
HETATM   10  C   UNL     1      -8.766  17.743  68.369  1.00  0.00    -0.292 C  
ENDBRANCH   2   4
BRANCH   2  11
HETATM   11  C   UNL     1     -11.095  13.075  68.579  1.00  0.00    -0.298 A  
HETATM   12  C   UNL     1      -9.830   9.885  66.894  1.00  0.00    -0.199 C  
HETATM   13  C   UNL     1     -11.719  11.094  69.867  1.00  0.00    -0.355 A  
HETATM   14  F   UNL     1      -8.832   9.140  67.449  1.00  0.00    -0.117 F  
HETATM   15  F   UNL     1     -10.705   8.993  66.345  1.00  0.00    -0.259 F  
HETATM   16  C   UNL     1     -10.495  10.834  67.883  1.00  0.00    -0.199 A  
HETATM   17  F   UNL     1      -9.256  10.524  65.831  1.00  0.00    -0.173 F  
HETATM   18  C   UNL     1     -10.477  12.203  67.662  1.00  0.00    -0.225 A  
HETATM   19  C   UNL     1     -11.762  12.504  69.703  1.00  0.00    -0.372 A  
HETATM   20  N   UNL     1     -11.101  10.305  68.979  1.00  0.00    -0.233 NA 
HETATM   21  C   UNL     1     -12.473  13.261  70.663  1.00  0.00    -0.373 A  
HETATM   22  C   UNL     1     -13.170  12.665  71.706  1.00  0.00    -0.457 A  
HETATM   23  C   UNL     1     -13.098  11.294  71.865  1.00  0.00    -0.510 A  
HETATM   24  C   UNL     1     -12.341  10.511  70.973  1.00  0.00    -0.503 A  
HETATM   25  C   UNL     1     -12.228   9.038  71.276  1.00  0.00    -0.312 C  
HETATM   26  F   UNL     1     -11.802   8.837  72.562  1.00  0.00    -0.428 F  
HETATM   27  F   UNL     1     -11.384   8.300  70.509  1.00  0.00    -0.264 F  
HETATM   28  F   UNL     1     -13.439   8.409  71.208  1.00  0.00    -0.324 F  
ENDBRANCH   2  11
TORSDOF 2
ENDMDL
MODEL       27
REMARK 921   NORMALIZED FREE ENERGY PREDICTED BY IDOCK:   -6.67 KCAL/MOL
REMARK 922        TOTAL FREE ENERGY PREDICTED BY IDOCK:   -8.20 KCAL/MOL
REMARK 923 INTER-LIGAND FREE ENERGY PREDICTED BY IDOCK:   -8.27 KCAL/MOL
REMARK 924 INTRA-LIGAND FREE ENERGY PREDICTED BY IDOCK:    0.07 KCAL/MOL
REMARK 927      BINDING AFFINITY PREDICTED BY RF-SCORE:    0.00 PKD
ROOT
HETATM    1  O   UNL     1      -9.181  13.366  66.936  1.00  0.00    -0.236 OA 
HETATM    2  C   UNL     1     -10.210  13.575  67.924  1.00  0.00    -0.247 C  
HETATM    3  H   UNL     1      -8.493  12.836  67.323  1.00  0.00     0.000 HD 
ENDROOT
BRANCH   2   4
HETATM    4  C   UNL     1     -11.347  14.451  67.285  1.00  0.00    -0.342 C  
HETATM    5  H   UNL     1     -13.313  14.278  66.666  1.00  0.00     0.000 HD 
HETATM    6  N   UNL     1     -12.492  13.678  66.747  1.00  0.00    -0.286 NA 
HETATM    7  C   UNL     1     -10.852  15.437  66.210  1.00  0.00    -0.301 C  
HETATM    8  C   UNL     1     -10.563  14.758  64.871  1.00  0.00    -0.431 C  
HETATM    9  C   UNL     1     -12.238  12.999  65.481  1.00  0.00    -0.469 C  
HETATM   10  C   UNL     1     -11.783  13.979  64.403  1.00  0.00    -0.415 C  
ENDBRANCH   2   4
BRANCH   2  11
HETATM   11  C   UNL     1     -10.663  12.189  68.394  1.00  0.00    -0.252 A  
HETATM   12  C   UNL     1     -10.123   8.571  67.284  1.00  0.00    -0.251 C  
HETATM   13  C   UNL     1     -11.800  10.631  69.895  1.00  0.00    -0.315 A  
HETATM   14  F   UNL     1      -9.358   7.713  68.018  1.00  0.00    -0.139 F  
HETATM   15  F   UNL     1     -11.161   7.829  66.798  1.00  0.00    -0.365 F  
HETATM   16  C   UNL     1     -10.585   9.790  68.072  1.00  0.00    -0.243 A  
HETATM   17  F   UNL     1      -9.365   8.887  66.192  1.00  0.00    -0.207 F  
HETATM   18  C   UNL     1     -10.231  11.066  67.663  1.00  0.00    -0.211 A  
HETATM   19  C   UNL     1     -11.497  11.970  69.530  1.00  0.00    -0.351 A  
HETATM   20  N   UNL     1     -11.349   9.592  69.180  1.00  0.00    -0.014 NA 
HETATM   21  C   UNL     1     -12.049  13.010  70.313  1.00  0.00    -0.388 A  
HETATM   22  C   UNL     1     -12.915  12.760  71.370  1.00  0.00    -0.359 A  
HETATM   23  C   UNL     1     -13.180  11.452  71.726  1.00  0.00    -0.472 A  
HETATM   24  C   UNL     1     -12.593  10.386  71.018  1.00  0.00    -0.491 A  
HETATM   25  C   UNL     1     -12.849   8.993  71.535  1.00  0.00    -0.336 C  
HETATM   26  F   UNL     1     -12.542   8.903  72.865  1.00  0.00    -0.421 F  
HETATM   27  F   UNL     1     -12.172   7.970  70.950  1.00  0.00    -0.302 F  
HETATM   28  F   UNL     1     -14.171   8.656  71.458  1.00  0.00    -0.424 F  
ENDBRANCH   2  11
TORSDOF 2
ENDMDL
MODEL       28
REMARK 921   NORMALIZED FREE ENERGY PREDICTED BY IDOCK:   -6.65 KCAL/MOL
REMARK 922        TOTAL FREE ENERGY PREDICTED BY IDOCK:   -8.17 KCAL/MOL
REMARK 923 INTER-LIGAND FREE ENERGY PREDICTED BY IDOCK:   -7.41 KCAL/MOL
REMARK 924 INTRA-LIGAND FREE ENERGY PREDICTED BY IDOCK:   -0.76 KCAL/MOL
REMARK 927      BINDING AFFINITY PREDICTED BY RF-SCORE:    0.00 PKD
ROOT
HETATM    1  O   UNL     1     -12.700  10.747  68.739  1.00  0.00    -0.572 OA 
HETATM    2  C   UNL     1     -11.299  11.090  68.737  1.00  0.00    -0.283 C  
HETATM    3  H   UNL     1     -13.205  11.537  68.893  1.00  0.00     0.000 HD 
ENDROOT
BRANCH   2   4
HETATM    4  C   UNL     1     -10.465   9.783  68.483  1.00  0.00    -0.210 C  
HETATM    5  H   UNL     1     -10.303   7.848  69.197  1.00  0.00     0.000 HD 
HETATM    6  N   UNL     1     -10.568   8.765  69.556  1.00  0.00    -0.227 NA 
HETATM    7  C   UNL     1      -8.978  10.038  68.168  1.00  0.00    -0.122 C  
HETATM    8  C   UNL     1      -8.158  10.371  69.415  1.00  0.00    -0.161 C  
HETATM    9  C   UNL     1      -9.815   9.068  70.768  1.00  0.00    -0.243 C  
HETATM   10  C   UNL     1      -8.334   9.284  70.465  1.00  0.00    -0.237 C  
ENDBRANCH   2   4
BRANCH   2  11
HETATM   11  C   UNL     1     -11.112  12.180  67.677  1.00  0.00    -0.320 A  
HETATM   12  C   UNL     1     -11.510  12.462  63.886  1.00  0.00    -0.436 C  
HETATM   13  C   UNL     1     -10.615  14.446  66.908  1.00  0.00    -0.278 A  
HETATM   14  F   UNL     1     -12.524  13.189  63.333  1.00  0.00    -0.523 F  
HETATM   15  F   UNL     1     -10.424  12.661  63.083  1.00  0.00    -0.362 F  
HETATM   16  C   UNL     1     -11.242  12.814  65.343  1.00  0.00    -0.292 A  
HETATM   17  F   UNL     1     -11.860  11.155  63.699  1.00  0.00    -0.308 F  
HETATM   18  C   UNL     1     -11.363  11.850  66.332  1.00  0.00    -0.400 A  
HETATM   19  C   UNL     1     -10.697  13.512  67.975  1.00  0.00    -0.263 A  
HETATM   20  N   UNL     1     -10.883  14.091  65.645  1.00  0.00    -0.288 NA 
HETATM   21  C   UNL     1     -10.354  13.958  69.272  1.00  0.00     0.062 A  
HETATM   22  C   UNL     1      -9.886  15.244  69.513  1.00  0.00    -0.230 A  
HETATM   23  C   UNL     1      -9.835  16.146  68.468  1.00  0.00    -0.226 A  
HETATM   24  C   UNL     1     -10.237  15.763  67.174  1.00  0.00    -0.279 A  
HETATM   25  C   UNL     1     -10.250  16.835  66.114  1.00  0.00    -0.351 C  
HETATM   26  F   UNL     1     -10.969  17.924  66.530  1.00  0.00    -0.235 F  
HETATM   27  F   UNL     1     -10.773  16.515  64.901  1.00  0.00    -0.382 F  
HETATM   28  F   UNL     1      -8.998  17.320  65.862  1.00  0.00    -0.243 F  
ENDBRANCH   2  11
TORSDOF 2
ENDMDL
MODEL       29
REMARK 921   NORMALIZED FREE ENERGY PREDICTED BY IDOCK:   -6.50 KCAL/MOL
REMARK 922        TOTAL FREE ENERGY PREDICTED BY IDOCK:   -8.00 KCAL/MOL
REMARK 923 INTER-LIGAND FREE ENERGY PREDICTED BY IDOCK:   -7.38 KCAL/MOL
REMARK 924 INTRA-LIGAND FREE ENERGY PREDICTED BY IDOCK:   -0.61 KCAL/MOL
REMARK 927      BINDING AFFINITY PREDICTED BY RF-SCORE:    0.00 PKD
ROOT
HETATM    1  O   UNL     1     -11.518   6.826  68.999  1.00  0.00    -0.558 OA 
HETATM    2  C   UNL     1     -11.151   7.941  69.837  1.00  0.00    -0.120 C  
HETATM    3  H   UNL     1     -12.268   7.077  68.473  1.00  0.00     0.000 HD 
ENDROOT
BRANCH   2   4
HETATM    4  C   UNL     1      -9.911   7.526  70.707  1.00  0.00    -0.178 C  
HETATM    5  H   UNL     1      -8.793   5.846  71.165  1.00  0.00     0.000 HD 
HETATM    6  N   UNL     1      -9.755   6.065  70.904  1.00  0.00    -0.172 NA 
HETATM    7  C   UNL     1      -9.838   8.231  72.075  1.00  0.00    -0.327 C  
HETATM    8  C   UNL     1     -10.808   7.640  73.098  1.00  0.00    -0.440 C  
HETATM    9  C   UNL     1     -10.683   5.468  71.857  1.00  0.00    -0.231 C  
HETATM   10  C   UNL     1     -10.587   6.140  73.225  1.00  0.00    -0.278 C  
ENDBRANCH   2   4
BRANCH   2  11
HETATM   11  C   UNL     1     -10.904   9.132  68.905  1.00  0.00    -0.099 A  
HETATM   12  C   UNL     1      -9.326   9.686  65.467  1.00  0.00    -0.248 C  
HETATM   13  C   UNL     1     -11.064  11.476  68.233  1.00  0.00    -0.239 A  
HETATM   14  F   UNL     1     -10.090   9.991  64.379  1.00  0.00    -0.386 F  
HETATM   15  F   UNL     1      -8.178  10.412  65.336  1.00  0.00    -0.139 F  
HETATM   16  C   UNL     1     -10.037   9.936  66.791  1.00  0.00    -0.230 A  
HETATM   17  F   UNL     1      -8.950   8.384  65.291  1.00  0.00    -0.201 F  
HETATM   18  C   UNL     1     -10.249   8.895  67.682  1.00  0.00    -0.296 A  
HETATM   19  C   UNL     1     -11.300  10.469  69.205  1.00  0.00    -0.325 A  
HETATM   20  N   UNL     1     -10.454  11.199  67.073  1.00  0.00    -0.224 NA 
HETATM   21  C   UNL     1     -11.910  10.854  70.422  1.00  0.00    -0.449 A  
HETATM   22  C   UNL     1     -12.218  12.179  70.709  1.00  0.00    -0.367 A  
HETATM   23  C   UNL     1     -12.003  13.142  69.742  1.00  0.00    -0.382 A  
HETATM   24  C   UNL     1     -11.465  12.789  68.489  1.00  0.00    -0.344 A  
HETATM   25  C   UNL     1     -11.360  13.880  67.454  1.00  0.00    -0.326 C  
HETATM   26  F   UNL     1     -12.562  14.515  67.291  1.00  0.00    -0.303 F  
HETATM   27  F   UNL     1     -10.981  13.523  66.199  1.00  0.00    -0.282 F  
HETATM   28  F   UNL     1     -10.495  14.866  67.837  1.00  0.00    -0.240 F  
ENDBRANCH   2  11
TORSDOF 2
ENDMDL
MODEL       30
REMARK 921   NORMALIZED FREE ENERGY PREDICTED BY IDOCK:   -6.48 KCAL/MOL
REMARK 922        TOTAL FREE ENERGY PREDICTED BY IDOCK:   -7.98 KCAL/MOL
REMARK 923 INTER-LIGAND FREE ENERGY PREDICTED BY IDOCK:   -7.74 KCAL/MOL
REMARK 924 INTRA-LIGAND FREE ENERGY PREDICTED BY IDOCK:   -0.24 KCAL/MOL
REMARK 927      BINDING AFFINITY PREDICTED BY RF-SCORE:    0.00 PKD
ROOT
HETATM    1  O   UNL     1     -11.263  12.339  66.331  1.00  0.00    -0.290 OA 
HETATM    2  C   UNL     1     -10.540  11.604  67.339  1.00  0.00    -0.220 C  
HETATM    3  H   UNL     1     -12.167  12.048  66.335  1.00  0.00     0.000 HD 
ENDROOT
BRANCH   2   4
HETATM    4  C   UNL     1      -9.044  12.085  67.333  1.00  0.00    -0.178 C  
HETATM    5  H   UNL     1      -7.371  12.023  66.119  1.00  0.00     0.000 HD 
HETATM    6  N   UNL     1      -8.195  11.450  66.297  1.00  0.00    -0.133 NA 
HETATM    7  C   UNL     1      -8.342  11.975  68.699  1.00  0.00    -0.036 C  
HETATM    8  C   UNL     1      -7.925  10.543  69.037  1.00  0.00    -0.136 C  
HETATM    9  C   UNL     1      -7.802  10.074  66.579  1.00  0.00    -0.112 C  
HETATM   10  C   UNL     1      -7.072   9.967  67.917  1.00  0.00    -0.085 C  
ENDBRANCH   2   4
BRANCH   2  11
HETATM   11  C   UNL     1     -11.275  11.831  68.665  1.00  0.00    -0.312 A  
HETATM   12  C   UNL     1     -12.724   9.640  71.442  1.00  0.00    -0.374 C  
HETATM   13  C   UNL     1     -12.223  13.197  70.456  1.00  0.00    -0.328 A  
HETATM   14  F   UNL     1     -12.139   9.580  72.673  1.00  0.00    -0.205 F  
HETATM   15  F   UNL     1     -14.070   9.593  71.662  1.00  0.00    -0.294 F  
HETATM   16  C   UNL     1     -12.298  10.858  70.633  1.00  0.00    -0.376 A  
HETATM   17  F   UNL     1     -12.417   8.453  70.838  1.00  0.00    -0.269 F  
HETATM   18  C   UNL     1     -11.664  10.701  69.410  1.00  0.00    -0.344 A  
HETATM   19  C   UNL     1     -11.588  13.120  69.188  1.00  0.00    -0.368 A  
HETATM   20  N   UNL     1     -12.557  12.094  71.138  1.00  0.00    -0.330 NA 
HETATM   21  C   UNL     1     -11.310  14.332  68.513  1.00  0.00    -0.309 A  
HETATM   22  C   UNL     1     -11.693  15.567  69.021  1.00  0.00    -0.392 A  
HETATM   23  C   UNL     1     -12.288  15.624  70.267  1.00  0.00    -0.402 A  
HETATM   24  C   UNL     1     -12.517  14.446  71.004  1.00  0.00    -0.425 A  
HETATM   25  C   UNL     1     -13.074  14.605  72.396  1.00  0.00    -0.387 C  
HETATM   26  F   UNL     1     -12.317  15.480  73.127  1.00  0.00    -0.403 F  
HETATM   27  F   UNL     1     -13.162  13.490  73.169  1.00  0.00    -0.505 F  
HETATM   28  F   UNL     1     -14.326  15.150  72.386  1.00  0.00    -0.528 F  
ENDBRANCH   2  11
TORSDOF 2
ENDMDL
MODEL       31
REMARK 921   NORMALIZED FREE ENERGY PREDICTED BY IDOCK:   -6.46 KCAL/MOL
REMARK 922        TOTAL FREE ENERGY PREDICTED BY IDOCK:   -7.95 KCAL/MOL
REMARK 923 INTER-LIGAND FREE ENERGY PREDICTED BY IDOCK:   -8.02 KCAL/MOL
REMARK 924 INTRA-LIGAND FREE ENERGY PREDICTED BY IDOCK:    0.07 KCAL/MOL
REMARK 927      BINDING AFFINITY PREDICTED BY RF-SCORE:    0.00 PKD
ROOT
HETATM    1  O   UNL     1      -9.307  12.839  67.258  1.00  0.00    -0.187 OA 
HETATM    2  C   UNL     1     -10.539  12.818  68.006  1.00  0.00    -0.226 C  
HETATM    3  H   UNL     1      -8.603  12.547  67.825  1.00  0.00     0.000 HD 
ENDROOT
BRANCH   2   4
HETATM    4  C   UNL     1     -11.702  13.301  67.067  1.00  0.00    -0.389 C  
HETATM    5  H   UNL     1     -13.063  12.531  65.713  1.00  0.00     0.000 HD 
HETATM    6  N   UNL     1     -12.123  12.313  66.046  1.00  0.00    -0.630 NA 
HETATM    7  C   UNL     1     -11.436  14.655  66.383  1.00  0.00    -0.348 C  
HETATM    8  C   UNL     1     -10.473  14.542  65.201  1.00  0.00    -0.439 C  
HETATM    9  C   UNL     1     -11.211  12.165  64.917  1.00  0.00    -0.323 C  
HETATM   10  C   UNL     1     -10.974  13.499  64.213  1.00  0.00    -0.355 C  
ENDBRANCH   2   4
BRANCH   2  11
HETATM   11  C   UNL     1     -10.706  11.392  68.543  1.00  0.00    -0.235 A  
HETATM   12  C   UNL     1      -9.509   7.898  67.558  1.00  0.00    -0.145 C  
HETATM   13  C   UNL     1     -11.488   9.714  70.138  1.00  0.00    -0.189 A  
HETATM   14  F   UNL     1      -8.577   7.234  68.300  1.00  0.00    -0.122 F  
HETATM   15  F   UNL     1     -10.397   6.951  67.134  1.00  0.00    -0.217 F  
HETATM   16  C   UNL     1     -10.178   9.040  68.312  1.00  0.00    -0.204 A  
HETATM   17  F   UNL     1      -8.852   8.304  66.431  1.00  0.00    -0.124 F  
HETATM   18  C   UNL     1     -10.084  10.341  67.843  1.00  0.00    -0.200 A  
HETATM   19  C   UNL     1     -11.456  11.068  69.713  1.00  0.00    -0.387 A  
HETATM   20  N   UNL     1     -10.864   8.749  69.450  1.00  0.00    -0.166 NA 
HETATM   21  C   UNL     1     -12.179  12.018  70.471  1.00  0.00    -0.414 A  
HETATM   22  C   UNL     1     -12.956  11.655  71.565  1.00  0.00    -0.463 A  
HETATM   23  C   UNL     1     -12.956  10.337  71.979  1.00  0.00    -0.503 A  
HETATM   24  C   UNL     1     -12.193   9.372  71.294  1.00  0.00    -0.425 A  
HETATM   25  C   UNL     1     -12.165   7.980  71.873  1.00  0.00    -0.319 C  
HETATM   26  F   UNL     1     -11.815   8.009  73.196  1.00  0.00    -0.401 F  
HETATM   27  F   UNL     1     -11.318   7.080  71.307  1.00  0.00    -0.266 F  
HETATM   28  F   UNL     1     -13.399   7.394  71.851  1.00  0.00    -0.343 F  
ENDBRANCH   2  11
TORSDOF 2
ENDMDL
MODEL       32
REMARK 921   NORMALIZED FREE ENERGY PREDICTED BY IDOCK:   -6.44 KCAL/MOL
REMARK 922        TOTAL FREE ENERGY PREDICTED BY IDOCK:   -7.93 KCAL/MOL
REMARK 923 INTER-LIGAND FREE ENERGY PREDICTED BY IDOCK:   -7.30 KCAL/MOL
REMARK 924 INTRA-LIGAND FREE ENERGY PREDICTED BY IDOCK:   -0.63 KCAL/MOL
REMARK 927      BINDING AFFINITY PREDICTED BY RF-SCORE:    0.00 PKD
ROOT
HETATM    1  O   UNL     1     -12.740  12.720  65.945  1.00  0.00    -0.432 OA 
HETATM    2  C   UNL     1     -11.400  12.744  66.478  1.00  0.00    -0.322 C  
HETATM    3  H   UNL     1     -12.876  11.888  65.507  1.00  0.00     0.000 HD 
ENDROOT
BRANCH   2   4
HETATM    4  C   UNL     1     -11.175  14.120  67.203  1.00  0.00    -0.317 C  
HETATM    5  H   UNL     1     -11.551  16.134  66.920  1.00  0.00     0.000 HD 
HETATM    6  N   UNL     1     -11.376  15.311  66.344  1.00  0.00    -0.231 NA 
HETATM    7  C   UNL     1      -9.818  14.237  67.922  1.00  0.00    -0.226 C  
HETATM    8  C   UNL     1      -8.660  14.506  66.961  1.00  0.00    -0.241 C  
HETATM    9  C   UNL     1     -10.298  15.579  65.398  1.00  0.00    -0.394 C  
HETATM   10  C   UNL     1      -8.956  15.733  66.112  1.00  0.00    -0.372 C  
ENDBRANCH   2   4
BRANCH   2  11
HETATM   11  C   UNL     1     -11.262  11.517  67.386  1.00  0.00    -0.367 A  
HETATM   12  C   UNL     1     -12.387  10.527  70.902  1.00  0.00    -0.390 C  
HETATM   13  C   UNL     1     -10.575   9.233  67.917  1.00  0.00    -0.231 A  
HETATM   14  F   UNL     1     -13.361   9.592  71.096  1.00  0.00    -0.378 F  
HETATM   15  F   UNL     1     -11.473  10.330  71.897  1.00  0.00    -0.219 F  
HETATM   16  C   UNL     1     -11.769  10.473  69.511  1.00  0.00    -0.241 A  
HETATM   17  F   UNL     1     -12.975  11.727  71.188  1.00  0.00    -0.429 F  
HETATM   18  C   UNL     1     -11.837  11.572  68.669  1.00  0.00    -0.382 A  
HETATM   19  C   UNL     1     -10.585  10.321  67.004  1.00  0.00    -0.302 A  
HETATM   20  N   UNL     1     -11.153   9.325  69.121  1.00  0.00    -0.057 NA 
HETATM   21  C   UNL     1      -9.912  10.157  65.771  1.00  0.00    -0.339 A  
HETATM   22  C   UNL     1      -9.203   9.003  65.463  1.00  0.00    -0.262 A  
HETATM   23  C   UNL     1      -9.224   7.945  66.352  1.00  0.00    -0.241 A  
HETATM   24  C   UNL     1      -9.942   8.041  67.559  1.00  0.00    -0.253 A  
HETATM   25  C   UNL     1     -10.001   6.807  68.423  1.00  0.00    -0.151 C  
HETATM   26  F   UNL     1     -10.431   5.726  67.701  1.00  0.00    -0.177 F  
HETATM   27  F   UNL     1     -10.809   6.841  69.515  1.00  0.00    -0.228 F  
HETATM   28  F   UNL     1      -8.766   6.448  68.885  1.00  0.00    -0.123 F  
ENDBRANCH   2  11
TORSDOF 2
ENDMDL
MODEL       33
REMARK 921   NORMALIZED FREE ENERGY PREDICTED BY IDOCK:   -6.39 KCAL/MOL
REMARK 922        TOTAL FREE ENERGY PREDICTED BY IDOCK:   -7.88 KCAL/MOL
REMARK 923 INTER-LIGAND FREE ENERGY PREDICTED BY IDOCK:   -7.68 KCAL/MOL
REMARK 924 INTRA-LIGAND FREE ENERGY PREDICTED BY IDOCK:   -0.20 KCAL/MOL
REMARK 927      BINDING AFFINITY PREDICTED BY RF-SCORE:    0.00 PKD
ROOT
HETATM    1  O   UNL     1      -9.005  13.114  67.362  1.00  0.00    -0.182 OA 
HETATM    2  C   UNL     1     -10.391  12.781  67.145  1.00  0.00    -0.233 C  
HETATM    3  H   UNL     1      -8.843  13.141  68.298  1.00  0.00     0.000 HD 
ENDROOT
BRANCH   2   4
HETATM    4  C   UNL     1     -10.658  12.735  65.597  1.00  0.00    -0.275 C  
HETATM    5  H   UNL     1      -9.961  13.592  63.849  1.00  0.00     0.000 HD 
HETATM    6  N   UNL     1     -10.047  13.848  64.832  1.00  0.00    -0.336 NA 
HETATM    7  C   UNL     1     -12.147  12.618  65.220  1.00  0.00    -0.519 C  
HETATM    8  C   UNL     1     -12.898  13.944  65.354  1.00  0.00    -0.466 C  
HETATM    9  C   UNL     1     -10.728  15.132  64.960  1.00  0.00    -0.430 C  
HETATM   10  C   UNL     1     -12.195  15.029  64.550  1.00  0.00    -0.344 C  
ENDBRANCH   2   4
BRANCH   2  11
HETATM   11  C   UNL     1     -10.648  11.458  67.874  1.00  0.00    -0.224 A  
HETATM   12  C   UNL     1     -12.398  10.356  71.089  1.00  0.00    -0.400 C  
HETATM   13  C   UNL     1     -10.566   9.029  68.130  1.00  0.00    -0.171 A  
HETATM   14  F   UNL     1     -13.575   9.667  71.053  1.00  0.00    -0.413 F  
HETATM   15  F   UNL     1     -11.684   9.828  72.125  1.00  0.00    -0.383 F  
HETATM   16  C   UNL     1     -11.640  10.320  69.768  1.00  0.00    -0.227 A  
HETATM   17  F   UNL     1     -12.732  11.619  71.489  1.00  0.00    -0.458 F  
HETATM   18  C   UNL     1     -11.352  11.496  69.092  1.00  0.00    -0.351 A  
HETATM   19  C   UNL     1     -10.216  10.188  67.388  1.00  0.00    -0.267 A  
HETATM   20  N   UNL     1     -11.255   9.113  69.275  1.00  0.00     0.034 NA 
HETATM   21  C   UNL     1      -9.449  10.015  66.213  1.00  0.00    -0.241 A  
HETATM   22  C   UNL     1      -8.986   8.769  65.808  1.00  0.00    -0.253 A  
HETATM   23  C   UNL     1      -9.356   7.649  66.528  1.00  0.00    -0.241 A  
HETATM   24  C   UNL     1     -10.179   7.771  67.664  1.00  0.00    -0.282 A  
HETATM   25  C   UNL     1     -10.623   6.493  68.331  1.00  0.00    -0.246 C  
HETATM   26  F   UNL     1     -11.193   5.642  67.423  1.00  0.00    -0.265 F  
HETATM   27  F   UNL     1     -11.533   6.591  69.336  1.00  0.00    -0.381 F  
HETATM   28  F   UNL     1      -9.570   5.795  68.850  1.00  0.00    -0.125 F  
ENDBRANCH   2  11
TORSDOF 2
ENDMDL
MODEL       34
REMARK 921   NORMALIZED FREE ENERGY PREDICTED BY IDOCK:   -6.39 KCAL/MOL
REMARK 922        TOTAL FREE ENERGY PREDICTED BY IDOCK:   -7.87 KCAL/MOL
REMARK 923 INTER-LIGAND FREE ENERGY PREDICTED BY IDOCK:   -7.58 KCAL/MOL
REMARK 924 INTRA-LIGAND FREE ENERGY PREDICTED BY IDOCK:   -0.30 KCAL/MOL
REMARK 927      BINDING AFFINITY PREDICTED BY RF-SCORE:    0.00 PKD
ROOT
HETATM    1  O   UNL     1     -12.484  14.203  67.371  1.00  0.00    -0.554 OA 
HETATM    2  C   UNL     1     -11.137  13.688  67.392  1.00  0.00    -0.282 C  
HETATM    3  H   UNL     1     -13.029  13.605  66.873  1.00  0.00     0.000 HD 
ENDROOT
BRANCH   2   4
HETATM    4  C   UNL     1     -10.236  14.677  68.216  1.00  0.00    -0.227 C  
HETATM    5  H   UNL     1      -9.902  16.708  68.424  1.00  0.00     0.000 HD 
HETATM    6  N   UNL     1     -10.203  16.064  67.692  1.00  0.00    -0.257 NA 
HETATM    7  C   UNL     1      -8.794  14.182  68.432  1.00  0.00    -0.187 C  
HETATM    8  C   UNL     1      -7.918  14.351  67.190  1.00  0.00    -0.147 C  
HETATM    9  C   UNL     1      -9.394  16.251  66.493  1.00  0.00    -0.271 C  
HETATM   10  C   UNL     1      -7.953  15.796  66.715  1.00  0.00    -0.273 C  
ENDBRANCH   2   4
BRANCH   2  11
HETATM   11  C   UNL     1     -11.214  12.269  67.967  1.00  0.00    -0.321 A  
HETATM   12  C   UNL     1     -10.170   8.765  66.852  1.00  0.00    -0.287 C  
HETATM   13  C   UNL     1     -11.733  10.611  69.684  1.00  0.00    -0.296 A  
HETATM   14  F   UNL     1      -9.131   8.113  67.450  1.00  0.00    -0.130 F  
HETATM   15  F   UNL     1     -11.108   7.811  66.583  1.00  0.00    -0.296 F  
HETATM   16  C   UNL     1     -10.718   9.916  67.687  1.00  0.00    -0.281 A  
HETATM   17  F   UNL     1      -9.696   9.158  65.632  1.00  0.00    -0.318 F  
HETATM   18  C   UNL     1     -10.704  11.211  67.192  1.00  0.00    -0.305 A  
HETATM   19  C   UNL     1     -11.773  11.960  69.242  1.00  0.00    -0.389 A  
HETATM   20  N   UNL     1     -11.219   9.639  68.920  1.00  0.00    -0.051 NA 
HETATM   21  C   UNL     1     -12.374  12.918  70.091  1.00  0.00    -0.249 A  
HETATM   22  C   UNL     1     -12.971  12.567  71.296  1.00  0.00    -0.301 A  
HETATM   23  C   UNL     1     -12.902  11.255  71.722  1.00  0.00    -0.466 A  
HETATM   24  C   UNL     1     -12.249  10.283  70.940  1.00  0.00    -0.465 A  
HETATM   25  C   UNL     1     -12.127   8.899  71.524  1.00  0.00    -0.330 C  
HETATM   26  F   UNL     1     -11.577   8.945  72.777  1.00  0.00    -0.317 F  
HETATM   27  F   UNL     1     -11.374   7.993  70.846  1.00  0.00    -0.259 F  
HETATM   28  F   UNL     1     -13.347   8.310  71.701  1.00  0.00    -0.320 F  
ENDBRANCH   2  11
TORSDOF 2
ENDMDL
MODEL       35
REMARK 921   NORMALIZED FREE ENERGY PREDICTED BY IDOCK:   -6.38 KCAL/MOL
REMARK 922        TOTAL FREE ENERGY PREDICTED BY IDOCK:   -7.87 KCAL/MOL
REMARK 923 INTER-LIGAND FREE ENERGY PREDICTED BY IDOCK:   -7.23 KCAL/MOL
REMARK 924 INTRA-LIGAND FREE ENERGY PREDICTED BY IDOCK:   -0.63 KCAL/MOL
REMARK 927      BINDING AFFINITY PREDICTED BY RF-SCORE:    0.00 PKD
ROOT
HETATM    1  O   UNL     1     -12.726  12.784  65.511  1.00  0.00    -0.595 OA 
HETATM    2  C   UNL     1     -11.589  11.957  65.831  1.00  0.00    -0.224 C  
HETATM    3  H   UNL     1     -13.507  12.376  65.865  1.00  0.00     0.000 HD 
ENDROOT
BRANCH   2   4
HETATM    4  C   UNL     1     -10.298  12.631  65.244  1.00  0.00    -0.289 C  
HETATM    5  H   UNL     1      -9.614  13.462  63.477  1.00  0.00     0.000 HD 
HETATM    6  N   UNL     1     -10.275  12.742  63.766  1.00  0.00    -0.366 NA 
HETATM    7  C   UNL     1      -8.981  11.992  65.724  1.00  0.00     0.096 C  
HETATM    8  C   UNL     1      -8.669  10.675  65.012  1.00  0.00    -0.186 C  
HETATM    9  C   UNL     1     -10.004  11.495  63.058  1.00  0.00    -0.322 C  
HETATM   10  C   UNL     1      -8.681  10.877  63.504  1.00  0.00    -0.046 C  
ENDBRANCH   2   4
BRANCH   2  11
HETATM   11  C   UNL     1     -11.581  11.786  67.354  1.00  0.00    -0.352 A  
HETATM   12  C   UNL     1     -12.411  13.952  70.393  1.00  0.00    -0.363 C  
HETATM   13  C   UNL     1     -11.301  10.529  69.431  1.00  0.00    -0.269 A  
HETATM   14  F   UNL     1     -13.518  13.711  71.152  1.00  0.00    -0.346 F  
HETATM   15  F   UNL     1     -11.432  14.333  71.265  1.00  0.00    -0.284 F  
HETATM   16  C   UNL     1     -12.004  12.765  69.529  1.00  0.00    -0.276 A  
HETATM   17  F   UNL     1     -12.705  15.073  69.671  1.00  0.00    -0.257 F  
HETATM   18  C   UNL     1     -11.961  12.885  68.148  1.00  0.00    -0.306 A  
HETATM   19  C   UNL     1     -11.212  10.577  68.014  1.00  0.00    -0.361 A  
HETATM   20  N   UNL     1     -11.686  11.595  70.144  1.00  0.00    -0.321 NA 
HETATM   21  C   UNL     1     -10.754   9.421  67.341  1.00  0.00    -0.280 A  
HETATM   22  C   UNL     1     -10.336   8.284  68.022  1.00  0.00    -0.268 A  
HETATM   23  C   UNL     1     -10.451   8.246  69.398  1.00  0.00    -0.224 A  
HETATM   24  C   UNL     1     -10.971   9.350  70.102  1.00  0.00    -0.282 A  
HETATM   25  C   UNL     1     -11.161   9.188  71.589  1.00  0.00    -0.377 C  
HETATM   26  F   UNL     1     -11.890   8.064  71.868  1.00  0.00    -0.276 F  
HETATM   27  F   UNL     1     -11.796  10.189  72.254  1.00  0.00    -0.078 F  
HETATM   28  F   UNL     1      -9.974   9.005  72.239  1.00  0.00    -0.379 F  
ENDBRANCH   2  11
TORSDOF 2
ENDMDL
MODEL       36
REMARK 921   NORMALIZED FREE ENERGY PREDICTED BY IDOCK:   -6.35 KCAL/MOL
REMARK 922        TOTAL FREE ENERGY PREDICTED BY IDOCK:   -7.83 KCAL/MOL
REMARK 923 INTER-LIGAND FREE ENERGY PREDICTED BY IDOCK:   -7.19 KCAL/MOL
REMARK 924 INTRA-LIGAND FREE ENERGY PREDICTED BY IDOCK:   -0.64 KCAL/MOL
REMARK 927      BINDING AFFINITY PREDICTED BY RF-SCORE:    0.00 PKD
ROOT
HETATM    1  O   UNL     1     -10.652  17.062  64.986  1.00  0.00    -0.703 OA 
HETATM    2  C   UNL     1      -9.727  17.001  66.090  1.00  0.00    -0.261 C  
HETATM    3  H   UNL     1     -10.307  16.538  64.272  1.00  0.00     0.000 HD 
ENDROOT
BRANCH   2   4
HETATM    4  C   UNL     1     -10.298  17.868  67.269  1.00  0.00    -0.369 C  
HETATM    5  H   UNL     1     -11.631  19.418  67.589  1.00  0.00     0.000 HD 
HETATM    6  N   UNL     1     -11.013  19.095  66.844  1.00  0.00    -0.324 NA 
HETATM    7  C   UNL     1      -9.254  18.236  68.341  1.00  0.00    -0.332 C  
HETATM    8  C   UNL     1      -8.327  19.369  67.900  1.00  0.00    -0.343 C  
HETATM    9  C   UNL     1     -10.155  20.186  66.394  1.00  0.00    -0.445 C  
HETATM   10  C   UNL     1      -9.143  20.578  67.469  1.00  0.00    -0.413 C  
ENDBRANCH   2   4
BRANCH   2  11
HETATM   11  C   UNL     1      -9.535  15.518  66.426  1.00  0.00    -0.320 A  
HETATM   12  C   UNL     1     -11.643  12.335  66.233  1.00  0.00    -0.385 C  
HETATM   13  C   UNL     1      -8.255  13.571  67.163  1.00  0.00    -0.112 A  
HETATM   14  F   UNL     1     -11.372  11.361  65.317  1.00  0.00    -0.304 F  
HETATM   15  F   UNL     1     -12.030  11.686  67.370  1.00  0.00    -0.333 F  
HETATM   16  C   UNL     1     -10.477  13.287  66.463  1.00  0.00    -0.281 A  
HETATM   17  F   UNL     1     -12.770  12.959  65.775  1.00  0.00    -0.482 F  
HETATM   18  C   UNL     1     -10.616  14.643  66.209  1.00  0.00    -0.306 A  
HETATM   19  C   UNL     1      -8.324  14.973  66.945  1.00  0.00    -0.247 A  
HETATM   20  N   UNL     1      -9.304  12.774  66.922  1.00  0.00    -0.228 NA 
HETATM   21  C   UNL     1      -7.186  15.749  67.267  1.00  0.00    -0.254 A  
HETATM   22  C   UNL     1      -6.048  15.193  67.838  1.00  0.00    -0.170 A  
HETATM   23  C   UNL     1      -5.989  13.825  68.020  1.00  0.00    -0.135 A  
HETATM   24  C   UNL     1      -7.073  13.007  67.646  1.00  0.00    -0.156 A  
HETATM   25  C   UNL     1      -6.888  11.517  67.780  1.00  0.00    -0.077 C  
HETATM   26  F   UNL     1      -5.746  11.108  67.145  1.00  0.00    -0.044 F  
HETATM   27  F   UNL     1      -7.867  10.714  67.288  1.00  0.00    -0.105 F  
HETATM   28  F   UNL     1      -6.717  11.139  69.082  1.00  0.00    -0.059 F  
ENDBRANCH   2  11
TORSDOF 2
ENDMDL
MODEL       37
REMARK 921   NORMALIZED FREE ENERGY PREDICTED BY IDOCK:   -6.34 KCAL/MOL
REMARK 922        TOTAL FREE ENERGY PREDICTED BY IDOCK:   -7.83 KCAL/MOL
REMARK 923 INTER-LIGAND FREE ENERGY PREDICTED BY IDOCK:   -7.99 KCAL/MOL
REMARK 924 INTRA-LIGAND FREE ENERGY PREDICTED BY IDOCK:    0.17 KCAL/MOL
REMARK 927      BINDING AFFINITY PREDICTED BY RF-SCORE:    0.00 PKD
ROOT
HETATM    1  O   UNL     1      -9.962  14.181  64.452  1.00  0.00    -0.674 OA 
HETATM    2  C   UNL     1     -10.597  15.314  65.079  1.00  0.00    -0.418 C  
HETATM    3  H   UNL     1      -9.177  14.480  64.009  1.00  0.00     0.000 HD 
ENDROOT
BRANCH   2   4
HETATM    4  C   UNL     1     -11.896  14.819  65.810  1.00  0.00    -0.202 C  
HETATM    5  H   UNL     1     -12.667  14.658  67.723  1.00  0.00     0.000 HD 
HETATM    6  N   UNL     1     -11.751  14.643  67.275  1.00  0.00    -0.392 NA 
HETATM    7  C   UNL     1     -12.510  13.542  65.206  1.00  0.00    -0.525 C  
HETATM    8  C   UNL     1     -11.752  12.275  65.603  1.00  0.00    -0.440 C  
HETATM    9  C   UNL     1     -11.010  13.455  67.684  1.00  0.00    -0.259 C  
HETATM   10  C   UNL     1     -11.638  12.184  67.118  1.00  0.00    -0.405 C  
ENDBRANCH   2   4
BRANCH   2  11
HETATM   11  C   UNL     1      -9.552  15.953  66.000  1.00  0.00    -0.385 A  
HETATM   12  C   UNL     1      -6.365  14.824  67.784  1.00  0.00    -0.153 C  
HETATM   13  C   UNL     1      -8.528  17.804  67.223  1.00  0.00    -0.231 A  
HETATM   14  F   UNL     1      -5.137  15.258  67.379  1.00  0.00    -0.079 F  
HETATM   15  F   UNL     1      -6.313  14.763  69.146  1.00  0.00    -0.095 F  
HETATM   16  C   UNL     1      -7.508  15.691  67.273  1.00  0.00    -0.222 A  
HETATM   17  F   UNL     1      -6.443  13.524  67.369  1.00  0.00    -0.164 F  
HETATM   18  C   UNL     1      -8.497  15.147  66.467  1.00  0.00    -0.149 A  
HETATM   19  C   UNL     1      -9.587  17.318  66.412  1.00  0.00    -0.290 A  
HETATM   20  N   UNL     1      -7.532  17.004  67.627  1.00  0.00    -0.161 NA 
HETATM   21  C   UNL     1     -10.622  18.217  66.066  1.00  0.00    -0.318 A  
HETATM   22  C   UNL     1     -10.659  19.522  66.544  1.00  0.00    -0.579 A  
HETATM   23  C   UNL     1      -9.608  19.985  67.313  1.00  0.00    -0.527 A  
HETATM   24  C   UNL     1      -8.523  19.142  67.619  1.00  0.00    -0.323 A  
HETATM   25  C   UNL     1      -7.369  19.755  68.373  1.00  0.00    -0.313 C  
HETATM   26  F   UNL     1      -6.926  20.890  67.747  1.00  0.00    -0.328 F  
HETATM   27  F   UNL     1      -6.256  18.995  68.546  1.00  0.00    -0.213 F  
HETATM   28  F   UNL     1      -7.737  20.167  69.622  1.00  0.00    -0.145 F  
ENDBRANCH   2  11
TORSDOF 2
ENDMDL
MODEL       38
REMARK 921   NORMALIZED FREE ENERGY PREDICTED BY IDOCK:   -6.34 KCAL/MOL
REMARK 922        TOTAL FREE ENERGY PREDICTED BY IDOCK:   -7.82 KCAL/MOL
REMARK 923 INTER-LIGAND FREE ENERGY PREDICTED BY IDOCK:   -7.64 KCAL/MOL
REMARK 924 INTRA-LIGAND FREE ENERGY PREDICTED BY IDOCK:   -0.18 KCAL/MOL
REMARK 927      BINDING AFFINITY PREDICTED BY RF-SCORE:    0.00 PKD
ROOT
HETATM    1  O   UNL     1      -9.816  15.512  69.437  1.00  0.00    -0.247 OA 
HETATM    2  C   UNL     1     -10.680  14.398  69.737  1.00  0.00     0.011 C  
HETATM    3  H   UNL     1      -8.945  15.180  69.253  1.00  0.00     0.000 HD 
ENDROOT
BRANCH   2   4
HETATM    4  C   UNL     1     -12.120  14.948  70.041  1.00  0.00    -0.338 C  
HETATM    5  H   UNL     1     -13.034  16.599  70.889  1.00  0.00     0.000 HD 
HETATM    6  N   UNL     1     -12.160  16.084  70.993  1.00  0.00    -0.388 NA 
HETATM    7  C   UNL     1     -13.122  13.870  70.496  1.00  0.00    -0.056 C  
HETATM    8  C   UNL     1     -12.925  13.458  71.956  1.00  0.00    -0.409 C  
HETATM    9  C   UNL     1     -11.951  15.724  72.391  1.00  0.00    -0.498 C  
HETATM   10  C   UNL     1     -12.966  14.683  72.857  1.00  0.00    -0.592 C  
ENDBRANCH   2   4
BRANCH   2  11
HETATM   11  C   UNL     1     -10.603  13.442  68.541  1.00  0.00    -0.264 A  
HETATM   12  C   UNL     1     -10.104   9.689  68.016  1.00  0.00    -0.178 C  
HETATM   13  C   UNL     1     -10.707  12.866  66.169  1.00  0.00    -0.272 A  
HETATM   14  F   UNL     1     -11.128   8.892  67.594  1.00  0.00    -0.250 F  
HETATM   15  F   UNL     1      -8.980   9.214  67.406  1.00  0.00    -0.118 F  
HETATM   16  C   UNL     1     -10.344  11.169  67.748  1.00  0.00    -0.187 A  
HETATM   17  F   UNL     1      -9.943   9.398  69.342  1.00  0.00    -0.163 F  
HETATM   18  C   UNL     1     -10.384  12.076  68.796  1.00  0.00    -0.181 A  
HETATM   19  C   UNL     1     -10.741  13.859  67.184  1.00  0.00    -0.282 A  
HETATM   20  N   UNL     1     -10.515  11.573  66.461  1.00  0.00    -0.235 NA 
HETATM   21  C   UNL     1     -10.903  15.207  66.787  1.00  0.00    -0.322 A  
HETATM   22  C   UNL     1     -10.964  15.582  65.451  1.00  0.00    -0.365 A  
HETATM   23  C   UNL     1     -10.953  14.602  64.477  1.00  0.00    -0.247 A  
HETATM   24  C   UNL     1     -10.866  13.242  64.834  1.00  0.00    -0.358 A  
HETATM   25  C   UNL     1     -10.965  12.232  63.719  1.00  0.00    -0.435 C  
HETATM   26  F   UNL     1     -12.084  12.452  62.960  1.00  0.00    -0.500 F  
HETATM   27  F   UNL     1     -11.030  10.919  64.063  1.00  0.00    -0.438 F  
HETATM   28  F   UNL     1      -9.923  12.335  62.842  1.00  0.00    -0.327 F  
ENDBRANCH   2  11
TORSDOF 2
ENDMDL
MODEL       39
REMARK 921   NORMALIZED FREE ENERGY PREDICTED BY IDOCK:   -6.30 KCAL/MOL
REMARK 922        TOTAL FREE ENERGY PREDICTED BY IDOCK:   -7.78 KCAL/MOL
REMARK 923 INTER-LIGAND FREE ENERGY PREDICTED BY IDOCK:   -6.89 KCAL/MOL
REMARK 924 INTRA-LIGAND FREE ENERGY PREDICTED BY IDOCK:   -0.89 KCAL/MOL
REMARK 927      BINDING AFFINITY PREDICTED BY RF-SCORE:    0.00 PKD
ROOT
HETATM    1  O   UNL     1     -11.403   5.207  65.693  1.00  0.00    -0.818 OA 
HETATM    2  C   UNL     1     -10.349   5.010  66.657  1.00  0.00    -0.270 C  
HETATM    3  H   UNL     1     -12.222   5.328  66.159  1.00  0.00     0.000 HD 
ENDROOT
BRANCH   2   4
HETATM    4  C   UNL     1      -8.996   4.810  65.885  1.00  0.00    -0.130 C  
HETATM    5  H   UNL     1      -8.207   3.672  64.349  1.00  0.00     0.000 HD 
HETATM    6  N   UNL     1      -8.929   3.579  65.062  1.00  0.00    -0.127 NA 
HETATM    7  C   UNL     1      -7.744   4.889  66.780  1.00  0.00    -0.092 C  
HETATM    8  C   UNL     1      -7.517   3.615  67.594  1.00  0.00    -0.066 C  
HETATM    9  C   UNL     1      -8.738   2.343  65.815  1.00  0.00    -0.121 C  
HETATM   10  C   UNL     1      -7.478   2.404  66.674  1.00  0.00    -0.069 C  
ENDBRANCH   2   4
BRANCH   2  11
HETATM   11  C   UNL     1     -10.374   6.222  67.594  1.00  0.00    -0.243 A  
HETATM   12  C   UNL     1     -10.529  10.022  67.211  1.00  0.00    -0.254 C  
HETATM   13  C   UNL     1     -10.437   7.323  69.775  1.00  0.00    -0.227 A  
HETATM   14  F   UNL     1     -11.651  10.722  67.545  1.00  0.00    -0.375 F  
HETATM   15  F   UNL     1      -9.473  10.804  67.583  1.00  0.00    -0.150 F  
HETATM   16  C   UNL     1     -10.481   8.630  67.827  1.00  0.00    -0.224 A  
HETATM   17  F   UNL     1     -10.503  10.011  65.845  1.00  0.00    -0.306 F  
HETATM   18  C   UNL     1     -10.420   7.506  67.019  1.00  0.00    -0.409 A  
HETATM   19  C   UNL     1     -10.353   6.125  69.017  1.00  0.00    -0.263 A  
HETATM   20  N   UNL     1     -10.500   8.522  69.183  1.00  0.00    -0.217 NA 
HETATM   21  C   UNL     1     -10.246   4.903  69.721  1.00  0.00    -0.284 A  
HETATM   22  C   UNL     1     -10.157   4.852  71.106  1.00  0.00    -0.277 A  
HETATM   23  C   UNL     1     -10.265   6.025  71.829  1.00  0.00    -0.242 A  
HETATM   24  C   UNL     1     -10.445   7.256  71.170  1.00  0.00    -0.221 A  
HETATM   25  C   UNL     1     -10.658   8.473  72.034  1.00  0.00    -0.338 C  
HETATM   26  F   UNL     1     -11.671   8.263  72.930  1.00  0.00    -0.457 F  
HETATM   27  F   UNL     1     -10.979   9.638  71.412  1.00  0.00    -0.387 F  
HETATM   28  F   UNL     1      -9.564   8.751  72.802  1.00  0.00    -0.324 F  
ENDBRANCH   2  11
TORSDOF 2
ENDMDL
MODEL       40
REMARK 921   NORMALIZED FREE ENERGY PREDICTED BY IDOCK:   -6.21 KCAL/MOL
REMARK 922        TOTAL FREE ENERGY PREDICTED BY IDOCK:   -7.67 KCAL/MOL
REMARK 923 INTER-LIGAND FREE ENERGY PREDICTED BY IDOCK:   -6.87 KCAL/MOL
REMARK 924 INTRA-LIGAND FREE ENERGY PREDICTED BY IDOCK:   -0.81 KCAL/MOL
REMARK 927      BINDING AFFINITY PREDICTED BY RF-SCORE:    0.00 PKD
ROOT
HETATM    1  O   UNL     1      -7.278  15.058  67.481  1.00  0.00    -0.174 OA 
HETATM    2  C   UNL     1      -8.498  15.806  67.657  1.00  0.00    -0.160 C  
HETATM    3  H   UNL     1      -7.044  14.661  68.312  1.00  0.00     0.000 HD 
ENDROOT
BRANCH   2   4
HETATM    4  C   UNL     1      -8.885  16.463  66.284  1.00  0.00    -0.332 C  
HETATM    5  H   UNL     1      -8.077  17.714  64.848  1.00  0.00     0.000 HD 
HETATM    6  N   UNL     1      -7.994  17.567  65.854  1.00  0.00    -0.552 NA 
HETATM    7  C   UNL     1     -10.350  16.934  66.202  1.00  0.00    -0.327 C  
HETATM    8  C   UNL     1     -10.592  18.247  66.947  1.00  0.00    -0.356 C  
HETATM    9  C   UNL     1      -8.185  18.827  66.564  1.00  0.00    -0.291 C  
HETATM   10  C   UNL     1      -9.627  19.316  66.454  1.00  0.00    -0.425 C  
ENDBRANCH   2   4
BRANCH   2  11
HETATM   11  C   UNL     1      -9.541  14.829  68.211  1.00  0.00    -0.215 A  
HETATM   12  C   UNL     1     -10.613  11.227  67.514  1.00  0.00    -0.218 C  
HETATM   13  C   UNL     1     -11.319  14.132  69.735  1.00  0.00    -0.204 A  
HETATM   14  F   UNL     1     -10.343  10.225  68.399  1.00  0.00    -0.166 F  
HETATM   15  F   UNL     1     -11.848  10.954  67.001  1.00  0.00    -0.116 F  
HETATM   16  C   UNL     1     -10.522  12.616  68.131  1.00  0.00    -0.231 A  
HETATM   17  F   UNL     1      -9.744  11.036  66.477  1.00  0.00    -0.201 F  
HETATM   18  C   UNL     1      -9.619  13.546  67.638  1.00  0.00    -0.222 A  
HETATM   19  C   UNL     1     -10.437  15.145  69.275  1.00  0.00    -0.261 A  
HETATM   20  N   UNL     1     -11.344  12.917  69.171  1.00  0.00    -0.273 NA 
HETATM   21  C   UNL     1     -10.505  16.414  69.895  1.00  0.00    -0.201 A  
HETATM   22  C   UNL     1     -11.440  16.706  70.881  1.00  0.00     0.135 A  
HETATM   23  C   UNL     1     -12.274  15.702  71.334  1.00  0.00    -0.477 A  
HETATM   24  C   UNL     1     -12.189  14.405  70.792  1.00  0.00    -0.413 A  
HETATM   25  C   UNL     1     -13.061  13.343  71.413  1.00  0.00    -0.291 C  
HETATM   26  F   UNL     1     -12.888  13.302  72.771  1.00  0.00    -0.379 F  
HETATM   27  F   UNL     1     -12.882  12.061  71.000  1.00  0.00    -0.413 F  
HETATM   28  F   UNL     1     -14.390  13.607  71.239  1.00  0.00    -0.104 F  
ENDBRANCH   2  11
TORSDOF 2
ENDMDL
MODEL       41
REMARK 921   NORMALIZED FREE ENERGY PREDICTED BY IDOCK:   -6.11 KCAL/MOL
REMARK 922        TOTAL FREE ENERGY PREDICTED BY IDOCK:   -7.57 KCAL/MOL
REMARK 923 INTER-LIGAND FREE ENERGY PREDICTED BY IDOCK:   -6.77 KCAL/MOL
REMARK 924 INTRA-LIGAND FREE ENERGY PREDICTED BY IDOCK:   -0.80 KCAL/MOL
REMARK 927      BINDING AFFINITY PREDICTED BY RF-SCORE:    0.00 PKD
ROOT
HETATM    1  O   UNL     1     -10.894  16.211  69.690  1.00  0.00    -0.289 OA 
HETATM    2  C   UNL     1     -10.435  16.593  68.378  1.00  0.00    -0.323 C  
HETATM    3  H   UNL     1     -11.552  15.532  69.595  1.00  0.00     0.000 HD 
ENDROOT
BRANCH   2   4
HETATM    4  C   UNL     1      -9.348  17.716  68.534  1.00  0.00    -0.291 C  
HETATM    5  H   UNL     1      -9.096  19.553  69.450  1.00  0.00     0.000 HD 
HETATM    6  N   UNL     1      -9.861  19.004  69.059  1.00  0.00    -0.387 NA 
HETATM    7  C   UNL     1      -8.528  17.980  67.257  1.00  0.00    -0.237 C  
HETATM    8  C   UNL     1      -9.293  18.806  66.223  1.00  0.00    -0.271 C  
HETATM    9  C   UNL     1     -10.617  19.803  68.101  1.00  0.00    -0.254 C  
HETATM   10  C   UNL     1      -9.793  20.099  66.850  1.00  0.00    -0.593 C  
ENDBRANCH   2   4
BRANCH   2  11
HETATM   11  C   UNL     1      -9.936  15.315  67.694  1.00  0.00    -0.222 A  
HETATM   12  C   UNL     1      -7.246  12.682  68.359  1.00  0.00    -0.111 C  
HETATM   13  C   UNL     1      -9.979  13.566  65.988  1.00  0.00    -0.299 A  
HETATM   14  F   UNL     1      -7.576  11.417  68.746  1.00  0.00    -0.105 F  
HETATM   15  F   UNL     1      -6.175  12.553  67.522  1.00  0.00    -0.093 F  
HETATM   16  C   UNL     1      -8.406  13.439  67.724  1.00  0.00    -0.178 A  
HETATM   17  F   UNL     1      -6.754  13.287  69.481  1.00  0.00    -0.111 F  
HETATM   18  C   UNL     1      -8.866  14.619  68.287  1.00  0.00    -0.176 A  
HETATM   19  C   UNL     1     -10.495  14.790  66.491  1.00  0.00    -0.291 A  
HETATM   20  N   UNL     1      -8.972  12.928  66.598  1.00  0.00    -0.182 NA 
HETATM   21  C   UNL     1     -11.529  15.422  65.762  1.00  0.00    -0.022 A  
HETATM   22  C   UNL     1     -12.000  14.917  64.556  1.00  0.00    -0.420 A  
HETATM   23  C   UNL     1     -11.504  13.713  64.094  1.00  0.00    -0.359 A  
HETATM   24  C   UNL     1     -10.524  13.015  64.827  1.00  0.00    -0.382 A  
HETATM   25  C   UNL     1     -10.113  11.660  64.308  1.00  0.00    -0.287 C  
HETATM   26  F   UNL     1     -11.208  10.864  64.103  1.00  0.00    -0.351 F  
HETATM   27  F   UNL     1      -9.280  10.916  65.082  1.00  0.00    -0.199 F  
HETATM   28  F   UNL     1      -9.509  11.744  63.085  1.00  0.00    -0.339 F  
ENDBRANCH   2  11
TORSDOF 2
ENDMDL
MODEL       42
REMARK 921   NORMALIZED FREE ENERGY PREDICTED BY IDOCK:   -6.07 KCAL/MOL
REMARK 922        TOTAL FREE ENERGY PREDICTED BY IDOCK:   -7.52 KCAL/MOL
REMARK 923 INTER-LIGAND FREE ENERGY PREDICTED BY IDOCK:   -6.65 KCAL/MOL
REMARK 924 INTRA-LIGAND FREE ENERGY PREDICTED BY IDOCK:   -0.87 KCAL/MOL
REMARK 927      BINDING AFFINITY PREDICTED BY RF-SCORE:    0.00 PKD
ROOT
HETATM    1  O   UNL     1      -8.280   8.719  72.708  1.00  0.00    -0.407 OA 
HETATM    2  C   UNL     1      -8.422   8.385  71.312  1.00  0.00    -0.149 C  
HETATM    3  H   UNL     1      -8.115   9.652  72.780  1.00  0.00     0.000 HD 
ENDROOT
BRANCH   2   4
HETATM    4  C   UNL     1      -8.695   6.843  71.192  1.00  0.00    -0.135 C  
HETATM    5  H   UNL     1      -7.842   5.041  71.742  1.00  0.00     0.000 HD 
HETATM    6  N   UNL     1      -7.530   5.983  71.508  1.00  0.00    -0.092 NA 
HETATM    7  C   UNL     1      -9.290   6.413  69.838  1.00  0.00    -0.156 C  
HETATM    8  C   UNL     1      -8.244   6.358  68.723  1.00  0.00    -0.121 C  
HETATM    9  C   UNL     1      -6.503   5.930  70.473  1.00  0.00    -0.036 C  
HETATM   10  C   UNL     1      -7.081   5.468  69.137  1.00  0.00    -0.064 C  
ENDBRANCH   2   4
BRANCH   2  11
HETATM   11  C   UNL     1      -9.540   9.274  70.756  1.00  0.00    -0.341 A  
HETATM   12  C   UNL     1     -13.131  10.152  71.730  1.00  0.00    -0.463 C  
HETATM   13  C   UNL     1     -10.499  10.899  69.203  1.00  0.00    -0.221 A  
HETATM   14  F   UNL     1     -13.451  11.388  72.211  1.00  0.00    -0.572 F  
HETATM   15  F   UNL     1     -14.179   9.771  70.944  1.00  0.00    -0.224 F  
HETATM   16  C   UNL     1     -11.797  10.119  70.995  1.00  0.00    -0.383 A  
HETATM   17  F   UNL     1     -13.173   9.321  72.814  1.00  0.00    -0.479 F  
HETATM   18  C   UNL     1     -10.769   9.302  71.441  1.00  0.00    -0.432 A  
HETATM   19  C   UNL     1      -9.406  10.076  69.584  1.00  0.00    -0.242 A  
HETATM   20  N   UNL     1     -11.643  10.908  69.898  1.00  0.00    -0.301 NA 
HETATM   21  C   UNL     1      -8.250  10.092  68.770  1.00  0.00    -0.113 A  
HETATM   22  C   UNL     1      -8.182  10.832  67.596  1.00  0.00    -0.115 A  
HETATM   23  C   UNL     1      -9.244  11.647  67.253  1.00  0.00    -0.170 A  
HETATM   24  C   UNL     1     -10.386  11.714  68.075  1.00  0.00    -0.208 A  
HETATM   25  C   UNL     1     -11.454  12.704  67.686  1.00  0.00    -0.334 C  
HETATM   26  F   UNL     1     -10.922  13.953  67.513  1.00  0.00    -0.262 F  
HETATM   27  F   UNL     1     -12.490  12.883  68.547  1.00  0.00    -0.191 F  
HETATM   28  F   UNL     1     -12.021  12.397  66.482  1.00  0.00    -0.436 F  
ENDBRANCH   2  11
TORSDOF 2
ENDMDL
MODEL       43
REMARK 921   NORMALIZED FREE ENERGY PREDICTED BY IDOCK:   -6.07 KCAL/MOL
REMARK 922        TOTAL FREE ENERGY PREDICTED BY IDOCK:   -7.52 KCAL/MOL
REMARK 923 INTER-LIGAND FREE ENERGY PREDICTED BY IDOCK:   -7.67 KCAL/MOL
REMARK 924 INTRA-LIGAND FREE ENERGY PREDICTED BY IDOCK:    0.15 KCAL/MOL
REMARK 927      BINDING AFFINITY PREDICTED BY RF-SCORE:    0.00 PKD
ROOT
HETATM    1  O   UNL     1     -10.694  17.019  64.896  1.00  0.00    -0.728 OA 
HETATM    2  C   UNL     1      -9.829  17.086  66.047  1.00  0.00    -0.241 C  
HETATM    3  H   UNL     1     -10.248  16.539  64.209  1.00  0.00     0.000 HD 
ENDROOT
BRANCH   2   4
HETATM    4  C   UNL     1     -10.568  17.880  67.183  1.00  0.00    -0.307 C  
HETATM    5  H   UNL     1     -11.742  19.566  67.425  1.00  0.00     0.000 HD 
HETATM    6  N   UNL     1     -11.001  19.246  66.802  1.00  0.00    -0.329 NA 
HETATM    7  C   UNL     1      -9.790  17.948  68.511  1.00  0.00    -0.367 C  
HETATM    8  C   UNL     1      -8.652  18.969  68.479  1.00  0.00    -0.393 C  
HETATM    9  C   UNL     1      -9.932  20.237  66.739  1.00  0.00    -0.450 C  
HETATM   10  C   UNL     1      -9.183  20.334  68.065  1.00  0.00    -0.259 C  
ENDBRANCH   2   4
BRANCH   2  11
HETATM   11  C   UNL     1      -9.465  15.643  66.413  1.00  0.00    -0.321 A  
HETATM   12  C   UNL     1      -6.458  13.840  67.935  1.00  0.00    -0.161 C  
HETATM   13  C   UNL     1      -9.908  13.252  66.661  1.00  0.00    -0.276 A  
HETATM   14  F   UNL     1      -6.508  13.324  69.197  1.00  0.00    -0.085 F  
HETATM   15  F   UNL     1      -5.728  12.956  67.195  1.00  0.00    -0.125 F  
HETATM   16  C   UNL     1      -7.835  14.113  67.342  1.00  0.00    -0.177 A  
HETATM   17  F   UNL     1      -5.678  14.957  68.032  1.00  0.00    -0.105 F  
HETATM   18  C   UNL     1      -8.193  15.397  66.962  1.00  0.00    -0.270 A  
HETATM   19  C   UNL     1     -10.343  14.533  66.229  1.00  0.00    -0.300 A  
HETATM   20  N   UNL     1      -8.695  13.070  67.197  1.00  0.00    -0.203 NA 
HETATM   21  C   UNL     1     -11.621  14.632  65.632  1.00  0.00    -0.328 A  
HETATM   22  C   UNL     1     -12.420  13.518  65.404  1.00  0.00    -0.540 A  
HETATM   23  C   UNL     1     -11.992  12.283  65.853  1.00  0.00    -0.358 A  
HETATM   24  C   UNL     1     -10.757  12.153  66.517  1.00  0.00    -0.290 A  
HETATM   25  C   UNL     1     -10.412  10.792  67.066  1.00  0.00    -0.247 C  
HETATM   26  F   UNL     1     -11.425  10.313  67.853  1.00  0.00    -0.363 F  
HETATM   27  F   UNL     1      -9.295  10.687  67.833  1.00  0.00    -0.143 F  
HETATM   28  F   UNL     1     -10.271   9.862  66.075  1.00  0.00    -0.305 F  
ENDBRANCH   2  11
TORSDOF 2
ENDMDL
MODEL       44
REMARK 921   NORMALIZED FREE ENERGY PREDICTED BY IDOCK:   -6.04 KCAL/MOL
REMARK 922        TOTAL FREE ENERGY PREDICTED BY IDOCK:   -7.49 KCAL/MOL
REMARK 923 INTER-LIGAND FREE ENERGY PREDICTED BY IDOCK:   -6.62 KCAL/MOL
REMARK 924 INTRA-LIGAND FREE ENERGY PREDICTED BY IDOCK:   -0.87 KCAL/MOL
REMARK 927      BINDING AFFINITY PREDICTED BY RF-SCORE:    0.00 PKD
ROOT
HETATM    1  O   UNL     1     -11.421   9.702  68.306  1.00  0.00    -0.502 OA 
HETATM    2  C   UNL     1     -10.158   9.928  67.648  1.00  0.00    -0.197 C  
HETATM    3  H   UNL     1     -11.549  10.383  68.957  1.00  0.00     0.000 HD 
ENDROOT
BRANCH   2   4
HETATM    4  C   UNL     1      -9.946   8.803  66.573  1.00  0.00    -0.290 C  
HETATM    5  H   UNL     1     -10.122   6.751  66.378  1.00  0.00     0.000 HD 
HETATM    6  N   UNL     1      -9.921   7.424  67.117  1.00  0.00    -0.193 NA 
HETATM    7  C   UNL     1      -8.711   9.015  65.676  1.00  0.00    -0.205 C  
HETATM    8  C   UNL     1      -7.401   8.652  66.377  1.00  0.00    -0.080 C  
HETATM    9  C   UNL     1      -8.693   7.057  67.813  1.00  0.00    -0.121 C  
HETATM   10  C   UNL     1      -7.470   7.230  66.915  1.00  0.00    -0.097 C  
ENDBRANCH   2   4
BRANCH   2  11
HETATM   11  C   UNL     1     -10.203  11.351  67.080  1.00  0.00    -0.246 A  
HETATM   12  C   UNL     1     -12.531  13.359  64.808  1.00  0.00    -0.365 C  
HETATM   13  C   UNL     1      -9.407  13.646  66.816  1.00  0.00    -0.261 A  
HETATM   14  F   UNL     1     -13.305  14.367  65.302  1.00  0.00    -0.383 F  
HETATM   15  F   UNL     1     -12.115  13.773  63.575  1.00  0.00    -0.490 F  
HETATM   16  C   UNL     1     -11.376  12.981  65.726  1.00  0.00    -0.301 A  
HETATM   17  F   UNL     1     -13.393  12.326  64.568  1.00  0.00    -0.455 F  
HETATM   18  C   UNL     1     -11.274  11.695  66.234  1.00  0.00    -0.332 A  
HETATM   19  C   UNL     1      -9.221  12.348  67.360  1.00  0.00    -0.184 A  
HETATM   20  N   UNL     1     -10.454  13.933  66.031  1.00  0.00    -0.291 NA 
HETATM   21  C   UNL     1      -8.066  12.116  68.142  1.00  0.00    -0.161 A  
HETATM   22  C   UNL     1      -7.095  13.092  68.334  1.00  0.00    -0.103 A  
HETATM   23  C   UNL     1      -7.304  14.357  67.818  1.00  0.00    -0.186 A  
HETATM   24  C   UNL     1      -8.476  14.649  67.095  1.00  0.00    -0.244 A  
HETATM   25  C   UNL     1      -8.675  16.078  66.657  1.00  0.00    -0.274 C  
HETATM   26  F   UNL     1      -8.548  16.935  67.717  1.00  0.00    -0.197 F  
HETATM   27  F   UNL     1      -9.866  16.401  66.088  1.00  0.00    -0.274 F  
HETATM   28  F   UNL     1      -7.718  16.477  65.768  1.00  0.00    -0.188 F  
ENDBRANCH   2  11
TORSDOF 2
ENDMDL
MODEL       45
REMARK 921   NORMALIZED FREE ENERGY PREDICTED BY IDOCK:   -6.00 KCAL/MOL
REMARK 922        TOTAL FREE ENERGY PREDICTED BY IDOCK:   -7.44 KCAL/MOL
REMARK 923 INTER-LIGAND FREE ENERGY PREDICTED BY IDOCK:   -6.83 KCAL/MOL
REMARK 924 INTRA-LIGAND FREE ENERGY PREDICTED BY IDOCK:   -0.61 KCAL/MOL
REMARK 927      BINDING AFFINITY PREDICTED BY RF-SCORE:    0.00 PKD
ROOT
HETATM    1  O   UNL     1     -10.829  16.916  69.564  1.00  0.00    -0.341 OA 
HETATM    2  C   UNL     1     -10.236  16.863  68.251  1.00  0.00    -0.318 C  
HETATM    3  H   UNL     1     -11.501  16.246  69.620  1.00  0.00     0.000 HD 
ENDROOT
BRANCH   2   4
HETATM    4  C   UNL     1      -9.125  17.970  68.160  1.00  0.00    -0.276 C  
HETATM    5  H   UNL     1      -8.537  19.702  69.127  1.00  0.00     0.000 HD 
HETATM    6  N   UNL     1      -9.403  19.192  68.952  1.00  0.00    -0.364 NA 
HETATM    7  C   UNL     1      -8.757  18.374  66.719  1.00  0.00    -0.284 C  
HETATM    8  C   UNL     1      -9.793  19.300  66.081  1.00  0.00    -0.429 C  
HETATM    9  C   UNL     1     -10.406  20.084  68.380  1.00  0.00    -0.330 C  
HETATM   10  C   UNL     1     -10.026  20.516  66.965  1.00  0.00    -0.489 C  
ENDBRANCH   2   4
BRANCH   2  11
HETATM   11  C   UNL     1      -9.725  15.432  68.053  1.00  0.00    -0.207 A  
HETATM   12  C   UNL     1      -6.612  13.437  69.024  1.00  0.00    -0.107 C  
HETATM   13  C   UNL     1      -9.896  13.114  67.297  1.00  0.00    -0.232 A  
HETATM   14  F   UNL     1      -6.668  12.456  69.970  1.00  0.00    -0.052 F  
HETATM   15  F   UNL     1      -5.744  12.991  68.070  1.00  0.00    -0.068 F  
HETATM   16  C   UNL     1      -7.978  13.805  68.458  1.00  0.00    -0.131 A  
HETATM   17  F   UNL     1      -5.976  14.485  69.628  1.00  0.00    -0.092 F  
HETATM   18  C   UNL     1      -8.464  15.097  68.581  1.00  0.00    -0.170 A  
HETATM   19  C   UNL     1     -10.455  14.418  67.364  1.00  0.00    -0.261 A  
HETATM   20  N   UNL     1      -8.700  12.837  67.832  1.00  0.00    -0.176 NA 
HETATM   21  C   UNL     1     -11.702  14.637  66.734  1.00  0.00    -0.355 A  
HETATM   22  C   UNL     1     -12.351  13.643  66.011  1.00  0.00    -0.493 A  
HETATM   23  C   UNL     1     -11.805  12.374  65.977  1.00  0.00    -0.459 A  
HETATM   24  C   UNL     1     -10.600  12.096  66.651  1.00  0.00    -0.266 A  
HETATM   25  C   UNL     1     -10.128  10.665  66.651  1.00  0.00    -0.220 C  
HETATM   26  F   UNL     1     -11.118   9.824  67.084  1.00  0.00    -0.308 F  
HETATM   27  F   UNL     1      -9.049  10.358  67.418  1.00  0.00    -0.134 F  
HETATM   28  F   UNL     1      -9.825  10.227  65.393  1.00  0.00    -0.268 F  
ENDBRANCH   2  11
TORSDOF 2
ENDMDL
MODEL       46
REMARK 921   NORMALIZED FREE ENERGY PREDICTED BY IDOCK:   -5.96 KCAL/MOL
REMARK 922        TOTAL FREE ENERGY PREDICTED BY IDOCK:   -7.40 KCAL/MOL
REMARK 923 INTER-LIGAND FREE ENERGY PREDICTED BY IDOCK:   -6.57 KCAL/MOL
REMARK 924 INTRA-LIGAND FREE ENERGY PREDICTED BY IDOCK:   -0.84 KCAL/MOL
REMARK 927      BINDING AFFINITY PREDICTED BY RF-SCORE:    0.00 PKD
ROOT
HETATM    1  O   UNL     1      -6.650  12.747  68.595  1.00  0.00    -0.072 OA 
HETATM    2  C   UNL     1      -7.458  11.606  68.242  1.00  0.00    -0.097 C  
HETATM    3  H   UNL     1      -6.553  13.298  67.827  1.00  0.00     0.000 HD 
ENDROOT
BRANCH   2   4
HETATM    4  C   UNL     1      -7.619  10.694  69.511  1.00  0.00    -0.124 C  
HETATM    5  H   UNL     1      -6.459   9.577  70.809  1.00  0.00     0.000 HD 
HETATM    6  N   UNL     1      -6.430   9.869  69.832  1.00  0.00    -0.059 NA 
HETATM    7  C   UNL     1      -8.868   9.793  69.484  1.00  0.00    -0.202 C  
HETATM    8  C   UNL     1      -8.700   8.574  68.576  1.00  0.00    -0.139 C  
HETATM    9  C   UNL     1      -6.229   8.712  68.967  1.00  0.00    -0.044 C  
HETATM   10  C   UNL     1      -7.452   7.797  68.967  1.00  0.00    -0.095 C  
ENDBRANCH   2   4
BRANCH   2  11
HETATM   11  C   UNL     1      -8.776  12.154  67.682  1.00  0.00    -0.172 A  
HETATM   12  C   UNL     1     -11.432  14.667  68.796  1.00  0.00    -0.296 C  
HETATM   13  C   UNL     1     -10.528  12.386  65.994  1.00  0.00    -0.254 A  
HETATM   14  F   UNL     1     -11.568  15.874  68.174  1.00  0.00    -0.353 F  
HETATM   15  F   UNL     1     -12.697  14.256  69.100  1.00  0.00    -0.238 F  
HETATM   16  C   UNL     1     -10.661  13.648  67.968  1.00  0.00    -0.249 A  
HETATM   17  F   UNL     1     -10.845  14.945  69.998  1.00  0.00    -0.254 F  
HETATM   18  C   UNL     1      -9.483  13.098  68.450  1.00  0.00    -0.166 A  
HETATM   19  C   UNL     1      -9.327  11.763  66.425  1.00  0.00    -0.229 A  
HETATM   20  N   UNL     1     -11.156  13.295  66.751  1.00  0.00    -0.287 NA 
HETATM   21  C   UNL     1      -8.752  10.781  65.585  1.00  0.00    -0.198 A  
HETATM   22  C   UNL     1      -9.355  10.375  64.401  1.00  0.00    -0.321 A  
HETATM   23  C   UNL     1     -10.509  11.009  63.985  1.00  0.00    -0.433 A  
HETATM   24  C   UNL     1     -11.076  12.042  64.757  1.00  0.00    -0.369 A  
HETATM   25  C   UNL     1     -12.274  12.752  64.180  1.00  0.00    -0.429 C  
HETATM   26  F   UNL     1     -12.014  13.197  62.912  1.00  0.00    -0.571 F  
HETATM   27  F   UNL     1     -12.739  13.843  64.845  1.00  0.00    -0.412 F  
HETATM   28  F   UNL     1     -13.346  11.916  64.044  1.00  0.00    -0.503 F  
ENDBRANCH   2  11
TORSDOF 2
ENDMDL
MODEL       47
REMARK 921   NORMALIZED FREE ENERGY PREDICTED BY IDOCK:   -5.95 KCAL/MOL
REMARK 922        TOTAL FREE ENERGY PREDICTED BY IDOCK:   -7.39 KCAL/MOL
REMARK 923 INTER-LIGAND FREE ENERGY PREDICTED BY IDOCK:   -6.54 KCAL/MOL
REMARK 924 INTRA-LIGAND FREE ENERGY PREDICTED BY IDOCK:   -0.85 KCAL/MOL
REMARK 927      BINDING AFFINITY PREDICTED BY RF-SCORE:    0.00 PKD
ROOT
HETATM    1  O   UNL     1      -9.436   7.466  74.220  1.00  0.00    -0.405 OA 
HETATM    2  C   UNL     1      -9.358   7.018  72.852  1.00  0.00    -0.140 C  
HETATM    3  H   UNL     1      -9.028   8.322  74.282  1.00  0.00     0.000 HD 
ENDROOT
BRANCH   2   4
HETATM    4  C   UNL     1     -10.033   5.603  72.749  1.00  0.00    -0.173 C  
HETATM    5  H   UNL     1      -9.915   3.730  73.618  1.00  0.00     0.000 HD 
HETATM    6  N   UNL     1      -9.291   4.514  73.426  1.00  0.00    -0.116 NA 
HETATM    7  C   UNL     1     -10.368   5.169  71.309  1.00  0.00    -0.276 C  
HETATM    8  C   UNL     1      -9.140   4.687  70.536  1.00  0.00    -0.174 C  
HETATM    9  C   UNL     1      -8.100   4.049  72.723  1.00  0.00    -0.091 C  
HETATM   10  C   UNL     1      -8.434   3.583  71.308  1.00  0.00    -0.095 C  
ENDBRANCH   2   4
BRANCH   2  11
HETATM   11  C   UNL     1     -10.019   8.102  71.992  1.00  0.00    -0.299 A  
HETATM   12  C   UNL     1     -13.394   9.893  71.897  1.00  0.00    -0.424 C  
HETATM   13  C   UNL     1     -10.072   9.780  70.217  1.00  0.00    -0.266 A  
HETATM   14  F   UNL     1     -13.510  11.204  72.256  1.00  0.00    -0.560 F  
HETATM   15  F   UNL     1     -14.250   9.713  70.848  1.00  0.00    -0.270 F  
HETATM   16  C   UNL     1     -11.964   9.481  71.572  1.00  0.00    -0.399 A  
HETATM   17  F   UNL     1     -13.940   9.185  72.931  1.00  0.00    -0.459 F  
HETATM   18  C   UNL     1     -11.339   8.479  72.299  1.00  0.00    -0.441 A  
HETATM   19  C   UNL     1      -9.371   8.751  70.899  1.00  0.00    -0.266 A  
HETATM   20  N   UNL     1     -11.323  10.119  70.557  1.00  0.00    -0.316 NA 
HETATM   21  C   UNL     1      -8.071   8.424  70.448  1.00  0.00    -0.109 A  
HETATM   22  C   UNL     1      -7.500   9.029  69.335  1.00  0.00    -0.077 A  
HETATM   23  C   UNL     1      -8.187  10.045  68.698  1.00  0.00    -0.111 A  
HETATM   24  C   UNL     1      -9.454  10.450  69.160  1.00  0.00    -0.220 A  
HETATM   25  C   UNL     1     -10.088  11.634  68.474  1.00  0.00    -0.206 C  
HETATM   26  F   UNL     1      -9.230  12.700  68.449  1.00  0.00    -0.192 F  
HETATM   27  F   UNL     1     -11.240  12.125  69.004  1.00  0.00    -0.240 F  
HETATM   28  F   UNL     1     -10.363  11.376  67.161  1.00  0.00    -0.214 F  
ENDBRANCH   2  11
TORSDOF 2
ENDMDL
MODEL       48
REMARK 921   NORMALIZED FREE ENERGY PREDICTED BY IDOCK:   -5.94 KCAL/MOL
REMARK 922        TOTAL FREE ENERGY PREDICTED BY IDOCK:   -7.37 KCAL/MOL
REMARK 923 INTER-LIGAND FREE ENERGY PREDICTED BY IDOCK:   -7.09 KCAL/MOL
REMARK 924 INTRA-LIGAND FREE ENERGY PREDICTED BY IDOCK:   -0.29 KCAL/MOL
REMARK 927      BINDING AFFINITY PREDICTED BY RF-SCORE:    0.00 PKD
ROOT
HETATM    1  O   UNL     1     -10.016   7.504  66.262  1.00  0.00    -0.445 OA 
HETATM    2  C   UNL     1      -9.419   8.223  67.360  1.00  0.00    -0.151 C  
HETATM    3  H   UNL     1     -10.928   7.336  66.469  1.00  0.00     0.000 HD 
ENDROOT
BRANCH   2   4
HETATM    4  C   UNL     1      -7.912   8.500  67.016  1.00  0.00    -0.100 C  
HETATM    5  H   UNL     1      -6.162   7.463  66.640  1.00  0.00     0.000 HD 
HETATM    6  N   UNL     1      -7.016   7.331  67.181  1.00  0.00    -0.076 NA 
HETATM    7  C   UNL     1      -7.309   9.708  67.757  1.00  0.00    -0.086 C  
HETATM    8  C   UNL     1      -6.965   9.397  69.215  1.00  0.00    -0.053 C  
HETATM    9  C   UNL     1      -6.688   6.994  68.563  1.00  0.00    -0.064 C  
HETATM   10  C   UNL     1      -6.056   8.178  69.290  1.00  0.00    -0.038 C  
ENDBRANCH   2   4
BRANCH   2  11
HETATM   11  C   UNL     1     -10.264   9.483  67.575  1.00  0.00    -0.283 A  
HETATM   12  C   UNL     1     -12.155  11.092  70.482  1.00  0.00    -0.381 C  
HETATM   13  C   UNL     1     -11.277  11.602  66.899  1.00  0.00    -0.313 A  
HETATM   14  F   UNL     1     -11.704  12.236  71.072  1.00  0.00    -0.177 F  
HETATM   15  F   UNL     1     -13.516  11.192  70.458  1.00  0.00    -0.041 F  
HETATM   16  C   UNL     1     -11.555  10.849  69.103  1.00  0.00    -0.319 A  
HETATM   17  F   UNL     1     -11.884  10.094  71.375  1.00  0.00    -0.402 F  
HETATM   18  C   UNL     1     -10.814   9.704  68.852  1.00  0.00    -0.201 A  
HETATM   19  C   UNL     1     -10.525  10.447  66.556  1.00  0.00    -0.262 A  
HETATM   20  N   UNL     1     -11.764  11.779  68.134  1.00  0.00    -0.455 NA 
HETATM   21  C   UNL     1     -10.085  10.316  65.218  1.00  0.00    -0.359 A  
HETATM   22  C   UNL     1     -10.418  11.240  64.236  1.00  0.00    -0.419 A  
HETATM   23  C   UNL     1     -11.130  12.370  64.592  1.00  0.00    -0.348 A  
HETATM   24  C   UNL     1     -11.525  12.574  65.928  1.00  0.00    -0.417 A  
HETATM   25  C   UNL     1     -12.205  13.881  66.251  1.00  0.00    -0.461 C  
HETATM   26  F   UNL     1     -11.459  14.941  65.811  1.00  0.00    -0.342 F  
HETATM   27  F   UNL     1     -12.459  14.151  67.559  1.00  0.00    -0.370 F  
HETATM   28  F   UNL     1     -13.403  14.006  65.607  1.00  0.00    -0.522 F  
ENDBRANCH   2  11
TORSDOF 2
ENDMDL
MODEL       49
REMARK 921   NORMALIZED FREE ENERGY PREDICTED BY IDOCK:   -5.83 KCAL/MOL
REMARK 922        TOTAL FREE ENERGY PREDICTED BY IDOCK:   -7.25 KCAL/MOL
REMARK 923 INTER-LIGAND FREE ENERGY PREDICTED BY IDOCK:   -6.92 KCAL/MOL
REMARK 924 INTRA-LIGAND FREE ENERGY PREDICTED BY IDOCK:   -0.33 KCAL/MOL
REMARK 927      BINDING AFFINITY PREDICTED BY RF-SCORE:    0.00 PKD
ROOT
HETATM    1  O   UNL     1      -9.465   9.322  71.725  1.00  0.00    -0.302 OA 
HETATM    2  C   UNL     1     -10.258   8.774  70.652  1.00  0.00    -0.202 C  
HETATM    3  H   UNL     1      -8.721   9.777  71.350  1.00  0.00     0.000 HD 
ENDROOT
BRANCH   2   4
HETATM    4  C   UNL     1     -11.488   8.020  71.272  1.00  0.00    -0.269 C  
HETATM    5  H   UNL     1     -12.436   7.777  73.095  1.00  0.00     0.000 HD 
HETATM    6  N   UNL     1     -11.493   7.959  72.753  1.00  0.00    -0.399 NA 
HETATM    7  C   UNL     1     -11.710   6.605  70.706  1.00  0.00    -0.445 C  
HETATM    8  C   UNL     1     -10.735   5.578  71.283  1.00  0.00    -0.288 C  
HETATM    9  C   UNL     1     -10.555   7.004  73.334  1.00  0.00    -0.364 C  
HETATM   10  C   UNL     1     -10.795   5.593  72.803  1.00  0.00    -0.303 C  
ENDBRANCH   2   4
BRANCH   2  11
HETATM   11  C   UNL     1     -10.626   9.944  69.732  1.00  0.00    -0.296 A  
HETATM   12  C   UNL     1     -12.037  13.470  70.158  1.00  0.00    -0.354 C  
HETATM   13  C   UNL     1     -10.792  11.089  67.580  1.00  0.00    -0.263 A  
HETATM   14  F   UNL     1     -11.260  14.573  69.956  1.00  0.00    -0.270 F  
HETATM   15  F   UNL     1     -13.274  13.789  69.677  1.00  0.00     0.161 F  
HETATM   16  C   UNL     1     -11.465  12.206  69.530  1.00  0.00    -0.265 A  
HETATM   17  F   UNL     1     -12.192  13.380  71.513  1.00  0.00    -0.359 F  
HETATM   18  C   UNL     1     -11.152  11.110  70.319  1.00  0.00     0.009 A  
HETATM   19  C   UNL     1     -10.465   9.919  68.315  1.00  0.00    -0.246 A  
HETATM   20  N   UNL     1     -11.271  12.184  68.184  1.00  0.00    -0.246 NA 
HETATM   21  C   UNL     1     -10.007   8.791  67.595  1.00  0.00    -0.247 A  
HETATM   22  C   UNL     1      -9.930   8.780  66.208  1.00  0.00    -0.315 A  
HETATM   23  C   UNL     1     -10.228   9.935  65.510  1.00  0.00    -0.194 A  
HETATM   24  C   UNL     1     -10.620  11.102  66.194  1.00  0.00    -0.305 A  
HETATM   25  C   UNL     1     -10.825  12.346  65.368  1.00  0.00    -0.285 C  
HETATM   26  F   UNL     1      -9.729  12.600  64.588  1.00  0.00    -0.194 F  
HETATM   27  F   UNL     1     -11.059  13.510  66.030  1.00  0.00    -0.290 F  
HETATM   28  F   UNL     1     -11.858  12.208  64.485  1.00  0.00    -0.390 F  
ENDBRANCH   2  11
TORSDOF 2
ENDMDL
MODEL       50
REMARK 921   NORMALIZED FREE ENERGY PREDICTED BY IDOCK:   -5.80 KCAL/MOL
REMARK 922        TOTAL FREE ENERGY PREDICTED BY IDOCK:   -7.22 KCAL/MOL
REMARK 923 INTER-LIGAND FREE ENERGY PREDICTED BY IDOCK:   -6.45 KCAL/MOL
REMARK 924 INTRA-LIGAND FREE ENERGY PREDICTED BY IDOCK:   -0.77 KCAL/MOL
REMARK 927      BINDING AFFINITY PREDICTED BY RF-SCORE:    0.00 PKD
ROOT
HETATM    1  O   UNL     1     -13.673   7.130  71.277  1.00  0.00    -0.459 OA 
HETATM    2  C   UNL     1     -12.394   7.575  70.781  1.00  0.00    -0.082 C  
HETATM    3  H   UNL     1     -13.968   6.402  70.743  1.00  0.00     0.000 HD 
ENDROOT
BRANCH   2   4
HETATM    4  C   UNL     1     -11.906   8.779  71.664  1.00  0.00    -0.330 C  
HETATM    5  H   UNL     1     -12.662  10.467  72.589  1.00  0.00     0.000 HD 
HETATM    6  N   UNL     1     -12.870   9.900  71.768  1.00  0.00    -0.413 NA 
HETATM    7  C   UNL     1     -10.526   9.334  71.263  1.00  0.00    -0.408 C  
HETATM    8  C   UNL     1     -10.582  10.216  70.015  1.00  0.00    -0.338 C  
HETATM    9  C   UNL     1     -12.964  10.745  70.583  1.00  0.00    -0.232 C  
HETATM   10  C   UNL     1     -11.604  11.327  70.204  1.00  0.00    -0.393 C  
ENDBRANCH   2   4
BRANCH   2  11
HETATM   11  C   UNL     1     -11.465   6.356  70.797  1.00  0.00    -0.415 A  
HETATM   12  C   UNL     1      -9.973   4.040  73.448  1.00  0.00    -0.131 C  
HETATM   13  C   UNL     1     -10.108   4.603  69.768  1.00  0.00    -0.173 A  
HETATM   14  F   UNL     1     -10.391   2.748  73.574  1.00  0.00    -0.146 F  
HETATM   15  F   UNL     1      -8.628   4.026  73.684  1.00  0.00    -0.090 F  
HETATM   16  C   UNL     1     -10.331   4.660  72.103  1.00  0.00    -0.176 A  
HETATM   17  F   UNL     1     -10.517   4.702  74.512  1.00  0.00    -0.244 F  
HETATM   18  C   UNL     1     -11.139   5.786  72.042  1.00  0.00    -0.318 A  
HETATM   19  C   UNL     1     -10.911   5.765  69.623  1.00  0.00    -0.418 A  
HETATM   20  N   UNL     1      -9.841   4.084  70.974  1.00  0.00    -0.181 NA 
HETATM   21  C   UNL     1     -11.107   6.275  68.318  1.00  0.00    -0.364 A  
HETATM   22  C   UNL     1     -10.494   5.714  67.205  1.00  0.00    -0.334 A  
HETATM   23  C   UNL     1      -9.736   4.570  67.361  1.00  0.00    -0.218 A  
HETATM   24  C   UNL     1      -9.574   3.989  68.634  1.00  0.00    -0.190 A  
HETATM   25  C   UNL     1      -8.820   2.685  68.703  1.00  0.00    -0.107 C  
HETATM   26  F   UNL     1      -9.345   1.771  67.829  1.00  0.00    -0.165 F  
HETATM   27  F   UNL     1      -8.784   2.042  69.900  1.00  0.00    -0.071 F  
HETATM   28  F   UNL     1      -7.518   2.827  68.318  1.00  0.00    -0.051 F  
ENDBRANCH   2  11
TORSDOF 2
ENDMDL
MODEL       51
REMARK 921   NORMALIZED FREE ENERGY PREDICTED BY IDOCK:   -5.80 KCAL/MOL
REMARK 922        TOTAL FREE ENERGY PREDICTED BY IDOCK:   -7.22 KCAL/MOL
REMARK 923 INTER-LIGAND FREE ENERGY PREDICTED BY IDOCK:   -6.57 KCAL/MOL
REMARK 924 INTRA-LIGAND FREE ENERGY PREDICTED BY IDOCK:   -0.65 KCAL/MOL
REMARK 927      BINDING AFFINITY PREDICTED BY RF-SCORE:    0.00 PKD
ROOT
HETATM    1  O   UNL     1      -9.925  10.063  70.514  1.00  0.00    -0.380 OA 
HETATM    2  C   UNL     1     -10.042   9.021  69.524  1.00  0.00    -0.197 C  
HETATM    3  H   UNL     1      -9.173  10.603  70.299  1.00  0.00     0.000 HD 
ENDROOT
BRANCH   2   4
HETATM    4  C   UNL     1     -11.285   8.130  69.880  1.00  0.00    -0.028 C  
HETATM    5  H   UNL     1     -12.605   7.811  71.441  1.00  0.00     0.000 HD 
HETATM    6  N   UNL     1     -11.636   8.106  71.320  1.00  0.00    -0.269 NA 
HETATM    7  C   UNL     1     -11.192   6.684  69.358  1.00  0.00    -0.356 C  
HETATM    8  C   UNL     1     -10.268   5.807  70.203  1.00  0.00    -0.301 C  
HETATM    9  C   UNL     1     -10.756   7.296  72.157  1.00  0.00    -0.219 C  
HETATM   10  C   UNL     1     -10.691   5.853  71.664  1.00  0.00    -0.308 C  
ENDBRANCH   2   4
BRANCH   2  11
HETATM   11  C   UNL     1     -10.126   9.714  68.160  1.00  0.00    -0.205 A  
HETATM   12  C   UNL     1     -11.752  12.871  66.746  1.00  0.00    -0.383 C  
HETATM   13  C   UNL     1      -9.599   9.987  65.789  1.00  0.00    -0.231 A  
HETATM   14  F   UNL     1     -11.001  13.948  66.376  1.00  0.00    -0.295 F  
HETATM   15  F   UNL     1     -12.763  12.786  65.834  1.00  0.00    -0.415 F  
HETATM   16  C   UNL     1     -10.944  11.584  66.858  1.00  0.00    -0.296 A  
HETATM   17  F   UNL     1     -12.354  13.237  67.917  1.00  0.00    -0.335 F  
HETATM   18  C   UNL     1     -10.871  10.904  68.063  1.00  0.00    -0.293 A  
HETATM   19  C   UNL     1      -9.491   9.222  66.981  1.00  0.00    -0.205 A  
HETATM   20  N   UNL     1     -10.303  11.125  65.750  1.00  0.00    -0.254 NA 
HETATM   21  C   UNL     1      -8.766   8.009  66.925  1.00  0.00    -0.136 A  
HETATM   22  C   UNL     1      -8.221   7.526  65.742  1.00  0.00    -0.137 A  
HETATM   23  C   UNL     1      -8.314   8.295  64.597  1.00  0.00    -0.115 A  
HETATM   24  C   UNL     1      -8.966   9.543  64.626  1.00  0.00    -0.266 A  
HETATM   25  C   UNL     1      -8.932  10.365  63.363  1.00  0.00    -0.229 C  
HETATM   26  F   UNL     1      -7.649  10.512  62.911  1.00  0.00    -0.143 F  
HETATM   27  F   UNL     1      -9.429  11.629  63.421  1.00  0.00    -0.276 F  
HETATM   28  F   UNL     1      -9.595   9.752  62.338  1.00  0.00    -0.293 F  
ENDBRANCH   2  11
TORSDOF 2
ENDMDL
MODEL       52
REMARK 921   NORMALIZED FREE ENERGY PREDICTED BY IDOCK:   -5.77 KCAL/MOL
REMARK 922        TOTAL FREE ENERGY PREDICTED BY IDOCK:   -7.19 KCAL/MOL
REMARK 923 INTER-LIGAND FREE ENERGY PREDICTED BY IDOCK:   -6.92 KCAL/MOL
REMARK 924 INTRA-LIGAND FREE ENERGY PREDICTED BY IDOCK:   -0.27 KCAL/MOL
REMARK 927      BINDING AFFINITY PREDICTED BY RF-SCORE:    0.00 PKD
ROOT
HETATM    1  O   UNL     1     -11.173   8.262  67.483  1.00  0.00    -0.367 OA 
HETATM    2  C   UNL     1     -10.466   9.063  68.451  1.00  0.00    -0.192 C  
HETATM    3  H   UNL     1     -12.103   8.434  67.570  1.00  0.00     0.000 HD 
ENDROOT
BRANCH   2   4
HETATM    4  C   UNL     1      -8.927   8.779  68.307  1.00  0.00    -0.141 C  
HETATM    5  H   UNL     1      -7.631   7.184  68.072  1.00  0.00     0.000 HD 
HETATM    6  N   UNL     1      -8.540   7.361  68.498  1.00  0.00    -0.128 NA 
HETATM    7  C   UNL     1      -8.038   9.670  69.194  1.00  0.00    -0.104 C  
HETATM    8  C   UNL     1      -8.027   9.226  70.658  1.00  0.00    -0.189 C  
HETATM    9  C   UNL     1      -8.545   6.901  69.883  1.00  0.00    -0.141 C  
HETATM   10  C   UNL     1      -7.635   7.760  70.758  1.00  0.00    -0.078 C  
ENDBRANCH   2   4
BRANCH   2  11
HETATM   11  C   UNL     1     -10.869  10.520  68.200  1.00  0.00    -0.300 A  
HETATM   12  C   UNL     1     -12.243  13.416  70.282  1.00  0.00    -0.335 C  
HETATM   13  C   UNL     1     -11.127  12.534  66.840  1.00  0.00    -0.278 A  
HETATM   14  F   UNL     1     -11.470  14.498  70.586  1.00  0.00    -0.308 F  
HETATM   15  F   UNL     1     -13.499  13.902  70.058  1.00  0.00     0.130 F  
HETATM   16  C   UNL     1     -11.706  12.601  69.113  1.00  0.00    -0.321 A  
HETATM   17  F   UNL     1     -12.337  12.702  71.443  1.00  0.00    -0.385 F  
HETATM   18  C   UNL     1     -11.363  11.269  69.285  1.00  0.00    -0.354 A  
HETATM   19  C   UNL     1     -10.773  11.162  66.930  1.00  0.00    -0.322 A  
HETATM   20  N   UNL     1     -11.573  13.212  67.906  1.00  0.00    -0.314 NA 
HETATM   21  C   UNL     1     -10.353  10.508  65.748  1.00  0.00    -0.270 A  
HETATM   22  C   UNL     1     -10.339  11.147  64.514  1.00  0.00    -0.400 A  
HETATM   23  C   UNL     1     -10.663  12.489  64.450  1.00  0.00    -0.379 A  
HETATM   24  C   UNL     1     -11.017  13.195  65.615  1.00  0.00    -0.295 A  
HETATM   25  C   UNL     1     -11.254  14.678  65.475  1.00  0.00    -0.343 C  
HETATM   26  F   UNL     1     -10.193  15.285  64.858  1.00  0.00    -0.388 F  
HETATM   27  F   UNL     1     -11.452  15.394  66.613  1.00  0.00    -0.292 F  
HETATM   28  F   UNL     1     -12.326  14.950  64.674  1.00  0.00    -0.420 F  
ENDBRANCH   2  11
TORSDOF 2
ENDMDL
MODEL       53
REMARK 921   NORMALIZED FREE ENERGY PREDICTED BY IDOCK:   -5.76 KCAL/MOL
REMARK 922        TOTAL FREE ENERGY PREDICTED BY IDOCK:   -7.18 KCAL/MOL
REMARK 923 INTER-LIGAND FREE ENERGY PREDICTED BY IDOCK:   -6.33 KCAL/MOL
REMARK 924 INTRA-LIGAND FREE ENERGY PREDICTED BY IDOCK:   -0.85 KCAL/MOL
REMARK 927      BINDING AFFINITY PREDICTED BY RF-SCORE:    0.00 PKD
ROOT
HETATM    1  O   UNL     1      -9.628  10.781  69.238  1.00  0.00    -0.335 OA 
HETATM    2  C   UNL     1     -10.578  10.211  70.161  1.00  0.00    -0.281 C  
HETATM    3  H   UNL     1      -8.759  10.475  69.470  1.00  0.00     0.000 HD 
ENDROOT
BRANCH   2   4
HETATM    4  C   UNL     1     -12.015  10.718  69.777  1.00  0.00    -0.325 C  
HETATM    5  H   UNL     1     -12.944  12.400  69.012  1.00  0.00     0.000 HD 
HETATM    6  N   UNL     1     -12.119  12.182  69.570  1.00  0.00    -0.244 NA 
HETATM    7  C   UNL     1     -13.122  10.264  70.747  1.00  0.00    -0.360 C  
HETATM    8  C   UNL     1     -13.138  11.070  72.046  1.00  0.00    -0.449 C  
HETATM    9  C   UNL     1     -12.112  12.980  70.792  1.00  0.00    -0.179 C  
HETATM   10  C   UNL     1     -13.231  12.557  71.740  1.00  0.00    -0.444 C  
ENDBRANCH   2   4
BRANCH   2  11
HETATM   11  C   UNL     1     -10.401   8.690  70.095  1.00  0.00    -0.219 A  
HETATM   12  C   UNL     1      -9.959   6.065  67.351  1.00  0.00    -0.141 C  
HETATM   13  C   UNL     1     -10.125   6.458  71.051  1.00  0.00    -0.182 A  
HETATM   14  F   UNL     1      -8.766   5.430  67.166  1.00  0.00    -0.111 F  
HETATM   15  F   UNL     1     -10.925   5.128  67.122  1.00  0.00    -0.230 F  
HETATM   16  C   UNL     1     -10.085   6.721  68.720  1.00  0.00    -0.160 A  
HETATM   17  F   UNL     1     -10.064   6.949  66.314  1.00  0.00    -0.202 F  
HETATM   18  C   UNL     1     -10.283   8.090  68.827  1.00  0.00    -0.220 A  
HETATM   19  C   UNL     1     -10.349   7.847  71.244  1.00  0.00    -0.222 A  
HETATM   20  N   UNL     1      -9.999   5.934  69.825  1.00  0.00    -0.170 NA 
HETATM   21  C   UNL     1     -10.516   8.313  72.569  1.00  0.00    -0.406 A  
HETATM   22  C   UNL     1     -10.530   7.452  73.660  1.00  0.00    -0.350 A  
HETATM   23  C   UNL     1     -10.286   6.107  73.456  1.00  0.00    -0.263 A  
HETATM   24  C   UNL     1     -10.044   5.614  72.160  1.00  0.00    -0.227 A  
HETATM   25  C   UNL     1      -9.683   4.155  72.037  1.00  0.00    -0.167 C  
HETATM   26  F   UNL     1      -8.642   3.838  72.866  1.00  0.00    -0.090 F  
HETATM   27  F   UNL     1      -9.305   3.701  70.813  1.00  0.00    -0.164 F  
HETATM   28  F   UNL     1     -10.706   3.341  72.434  1.00  0.00    -0.191 F  
ENDBRANCH   2  11
TORSDOF 2
ENDMDL
MODEL       54
REMARK 921   NORMALIZED FREE ENERGY PREDICTED BY IDOCK:   -5.74 KCAL/MOL
REMARK 922        TOTAL FREE ENERGY PREDICTED BY IDOCK:   -7.15 KCAL/MOL
REMARK 923 INTER-LIGAND FREE ENERGY PREDICTED BY IDOCK:   -6.59 KCAL/MOL
REMARK 924 INTRA-LIGAND FREE ENERGY PREDICTED BY IDOCK:   -0.56 KCAL/MOL
REMARK 927      BINDING AFFINITY PREDICTED BY RF-SCORE:    0.00 PKD
ROOT
HETATM    1  O   UNL     1      -9.719  15.383  69.371  1.00  0.00    -0.244 OA 
HETATM    2  C   UNL     1     -10.653  14.302  69.568  1.00  0.00    -0.011 C  
HETATM    3  H   UNL     1      -8.878  15.015  69.126  1.00  0.00     0.000 HD 
ENDROOT
BRANCH   2   4
HETATM    4  C   UNL     1     -12.044  14.911  69.972  1.00  0.00    -0.338 C  
HETATM    5  H   UNL     1     -12.825  16.588  70.898  1.00  0.00     0.000 HD 
HETATM    6  N   UNL     1     -11.970  16.033  70.938  1.00  0.00    -0.386 NA 
HETATM    7  C   UNL     1     -13.061  13.872  70.481  1.00  0.00    -0.056 C  
HETATM    8  C   UNL     1     -12.788  13.430  71.919  1.00  0.00    -0.354 C  
HETATM    9  C   UNL     1     -11.686  15.645  72.315  1.00  0.00    -0.481 C  
HETATM   10  C   UNL     1     -12.714  14.643  72.835  1.00  0.00    -0.506 C  
ENDBRANCH   2   4
BRANCH   2  11
HETATM   11  C   UNL     1     -10.669  13.488  68.269  1.00  0.00    -0.271 A  
HETATM   12  C   UNL     1     -12.711  13.457  65.038  1.00  0.00    -0.360 C  
HETATM   13  C   UNL     1      -9.841  11.786  66.724  1.00  0.00    -0.198 A  
HETATM   14  F   UNL     1     -12.171  13.871  63.856  1.00  0.00    -0.478 F  
HETATM   15  F   UNL     1     -13.517  12.398  64.733  1.00  0.00    -0.293 F  
HETATM   16  C   UNL     1     -11.665  13.120  66.093  1.00  0.00    -0.381 A  
HETATM   17  F   UNL     1     -13.561  14.457  65.418  1.00  0.00    -0.311 F  
HETATM   18  C   UNL     1     -11.637  13.805  67.298  1.00  0.00    -0.391 A  
HETATM   19  C   UNL     1      -9.758  12.427  67.988  1.00  0.00    -0.210 A  
HETATM   20  N   UNL     1     -10.767  12.136  65.822  1.00  0.00    -0.258 NA 
HETATM   21  C   UNL     1      -8.780  11.967  68.901  1.00  0.00     0.164 A  
HETATM   22  C   UNL     1      -7.957  10.883  68.620  1.00  0.00    -0.140 A  
HETATM   23  C   UNL     1      -8.034  10.287  67.375  1.00  0.00    -0.107 A  
HETATM   24  C   UNL     1      -8.945  10.761  66.412  1.00  0.00    -0.179 A  
HETATM   25  C   UNL     1      -8.893  10.125  65.046  1.00  0.00    -0.181 C  
HETATM   26  F   UNL     1      -7.620  10.149  64.545  1.00  0.00    -0.132 F  
HETATM   27  F   UNL     1      -9.663  10.671  64.067  1.00  0.00    -0.250 F  
HETATM   28  F   UNL     1      -9.228   8.801  65.086  1.00  0.00    -0.236 F  
ENDBRANCH   2  11
TORSDOF 2
ENDMDL
MODEL       55
REMARK 921   NORMALIZED FREE ENERGY PREDICTED BY IDOCK:   -5.69 KCAL/MOL
REMARK 922        TOTAL FREE ENERGY PREDICTED BY IDOCK:   -7.10 KCAL/MOL
REMARK 923 INTER-LIGAND FREE ENERGY PREDICTED BY IDOCK:   -7.77 KCAL/MOL
REMARK 924 INTRA-LIGAND FREE ENERGY PREDICTED BY IDOCK:    0.67 KCAL/MOL
REMARK 927      BINDING AFFINITY PREDICTED BY RF-SCORE:    0.00 PKD
ROOT
HETATM    1  O   UNL     1     -12.923   9.936  70.518  1.00  0.00    -0.556 OA 
HETATM    2  C   UNL     1     -11.502  10.038  70.301  1.00  0.00    -0.300 C  
HETATM    3  H   UNL     1     -13.301  10.807  70.465  1.00  0.00     0.000 HD 
ENDROOT
BRANCH   2   4
HETATM    4  C   UNL     1     -10.878   8.599  70.389  1.00  0.00    -0.227 C  
HETATM    5  H   UNL     1     -11.474   6.630  70.610  1.00  0.00     0.000 HD 
HETATM    6  N   UNL     1     -11.803   7.554  70.889  1.00  0.00    -0.288 NA 
HETATM    7  C   UNL     1      -9.561   8.532  71.186  1.00  0.00    -0.248 C  
HETATM    8  C   UNL     1      -9.781   8.576  72.698  1.00  0.00    -0.285 C  
HETATM    9  C   UNL     1     -12.052   7.586  72.327  1.00  0.00    -0.230 C  
HETATM   10  C   UNL     1     -10.751   7.483  73.120  1.00  0.00    -0.452 C  
ENDBRANCH   2   4
BRANCH   2  11
HETATM   11  C   UNL     1     -11.309  10.733  68.948  1.00  0.00    -0.349 A  
HETATM   12  C   UNL     1     -11.946  14.213  67.501  1.00  0.00    -0.384 C  
HETATM   13  C   UNL     1     -10.571  10.865  66.622  1.00  0.00    -0.249 A  
HETATM   14  F   UNL     1     -10.915  15.054  67.201  1.00  0.00    -0.297 F  
HETATM   15  F   UNL     1     -12.881  14.401  66.524  1.00  0.00    -0.378 F  
HETATM   16  C   UNL     1     -11.516  12.758  67.636  1.00  0.00    -0.334 A  
HETATM   17  F   UNL     1     -12.508  14.720  68.639  1.00  0.00    -0.204 F  
HETATM   18  C   UNL     1     -11.706  12.078  68.830  1.00  0.00    -0.377 A  
HETATM   19  C   UNL     1     -10.749  10.094  67.802  1.00  0.00    -0.328 A  
HETATM   20  N   UNL     1     -10.946  12.149  66.562  1.00  0.00    -0.270 NA 
HETATM   21  C   UNL     1     -10.367   8.733  67.767  1.00  0.00    -0.297 A  
HETATM   22  C   UNL     1      -9.891   8.127  66.611  1.00  0.00    -0.331 A  
HETATM   23  C   UNL     1      -9.701   8.897  65.480  1.00  0.00     0.010 A  
HETATM   24  C   UNL     1     -10.001  10.273  65.493  1.00  0.00    -0.364 A  
HETATM   25  C   UNL     1      -9.668  11.061  64.252  1.00  0.00    -0.284 C  
HETATM   26  F   UNL     1      -8.364  10.865  63.885  1.00  0.00    -0.122 F  
HETATM   27  F   UNL     1      -9.816  12.411  64.305  1.00  0.00    -0.271 F  
HETATM   28  F   UNL     1     -10.399  10.649  63.174  1.00  0.00    -0.352 F  
ENDBRANCH   2  11
TORSDOF 2
ENDMDL
MODEL       56
REMARK 921   NORMALIZED FREE ENERGY PREDICTED BY IDOCK:   -5.67 KCAL/MOL
REMARK 922        TOTAL FREE ENERGY PREDICTED BY IDOCK:   -7.08 KCAL/MOL
REMARK 923 INTER-LIGAND FREE ENERGY PREDICTED BY IDOCK:   -7.00 KCAL/MOL
REMARK 924 INTRA-LIGAND FREE ENERGY PREDICTED BY IDOCK:   -0.07 KCAL/MOL
REMARK 927      BINDING AFFINITY PREDICTED BY RF-SCORE:    0.00 PKD
ROOT
HETATM    1  O   UNL     1      -9.447   9.965  70.411  1.00  0.00    -0.358 OA 
HETATM    2  C   UNL     1      -9.796   8.766  69.690  1.00  0.00    -0.183 C  
HETATM    3  H   UNL     1      -8.571  10.230  70.153  1.00  0.00     0.000 HD 
ENDROOT
BRANCH   2   4
HETATM    4  C   UNL     1     -11.243   8.329  70.117  1.00  0.00    -0.132 C  
HETATM    5  H   UNL     1     -12.669   8.773  71.549  1.00  0.00     0.000 HD 
HETATM    6  N   UNL     1     -11.652   8.782  71.468  1.00  0.00    -0.281 NA 
HETATM    7  C   UNL     1     -11.507   6.817  69.989  1.00  0.00    -0.390 C  
HETATM    8  C   UNL     1     -10.881   6.008  71.126  1.00  0.00    -0.338 C  
HETATM    9  C   UNL     1     -11.052   8.045  72.574  1.00  0.00    -0.375 C  
HETATM   10  C   UNL     1     -11.343   6.550  72.471  1.00  0.00    -0.299 C  
ENDBRANCH   2   4
BRANCH   2  11
HETATM   11  C   UNL     1      -9.642   9.085  68.199  1.00  0.00    -0.164 A  
HETATM   12  C   UNL     1      -7.800   7.566  65.214  1.00  0.00    -0.120 C  
HETATM   13  C   UNL     1     -10.101  10.340  66.153  1.00  0.00    -0.242 A  
HETATM   14  F   UNL     1      -8.477   6.934  64.212  1.00  0.00    -0.054 F  
HETATM   15  F   UNL     1      -6.776   8.237  64.611  1.00  0.00    -0.064 F  
HETATM   16  C   UNL     1      -8.685   8.471  66.061  1.00  0.00    -0.161 A  
HETATM   17  F   UNL     1      -7.202   6.568  65.930  1.00  0.00    -0.066 F  
HETATM   18  C   UNL     1      -8.825   8.243  67.421  1.00  0.00    -0.135 A  
HETATM   19  C   UNL     1     -10.279  10.186  67.553  1.00  0.00    -0.257 A  
HETATM   20  N   UNL     1      -9.329   9.501  65.450  1.00  0.00    -0.247 NA 
HETATM   21  C   UNL     1     -11.074  11.141  68.229  1.00  0.00    -0.310 A  
HETATM   22  C   UNL     1     -11.622  12.240  67.579  1.00  0.00    -0.422 A  
HETATM   23  C   UNL     1     -11.458  12.361  66.212  1.00  0.00    -0.423 A  
HETATM   24  C   UNL     1     -10.734  11.393  65.491  1.00  0.00    -0.313 A  
HETATM   25  C   UNL     1     -10.691  11.544  63.991  1.00  0.00    -0.384 C  
HETATM   26  F   UNL     1     -11.954  11.670  63.477  1.00  0.00    -0.524 F  
HETATM   27  F   UNL     1     -10.122  10.539  63.273  1.00  0.00    -0.351 F  
HETATM   28  F   UNL     1     -10.044  12.685  63.611  1.00  0.00    -0.409 F  
ENDBRANCH   2  11
TORSDOF 2
ENDMDL
MODEL       57
REMARK 921   NORMALIZED FREE ENERGY PREDICTED BY IDOCK:   -5.67 KCAL/MOL
REMARK 922        TOTAL FREE ENERGY PREDICTED BY IDOCK:   -7.07 KCAL/MOL
REMARK 923 INTER-LIGAND FREE ENERGY PREDICTED BY IDOCK:   -6.65 KCAL/MOL
REMARK 924 INTRA-LIGAND FREE ENERGY PREDICTED BY IDOCK:   -0.42 KCAL/MOL
REMARK 927      BINDING AFFINITY PREDICTED BY RF-SCORE:    0.00 PKD
ROOT
HETATM    1  O   UNL     1     -11.256   7.347  67.258  1.00  0.00    -0.554 OA 
HETATM    2  C   UNL     1     -10.532   8.348  68.001  1.00  0.00    -0.184 C  
HETATM    3  H   UNL     1     -12.060   7.735  66.931  1.00  0.00     0.000 HD 
ENDROOT
BRANCH   2   4
HETATM    4  C   UNL     1      -9.204   7.706  68.542  1.00  0.00    -0.143 C  
HETATM    5  H   UNL     1      -8.486   6.747  70.229  1.00  0.00     0.000 HD 
HETATM    6  N   UNL     1      -9.193   7.447  70.002  1.00  0.00    -0.148 NA 
HETATM    7  C   UNL     1      -7.929   8.478  68.156  1.00  0.00    -0.111 C  
HETATM    8  C   UNL     1      -7.718   9.734  69.003  1.00  0.00    -0.085 C  
HETATM    9  C   UNL     1      -9.018   8.630  70.837  1.00  0.00    -0.187 C  
HETATM   10  C   UNL     1      -7.735   9.378  70.482  1.00  0.00    -0.177 C  
ENDBRANCH   2   4
BRANCH   2  11
HETATM   11  C   UNL     1     -10.325   9.537  67.057  1.00  0.00    -0.319 A  
HETATM   12  C   UNL     1      -9.148  10.047  63.456  1.00  0.00    -0.272 C  
HETATM   13  C   UNL     1     -10.414  11.897  66.430  1.00  0.00    -0.223 A  
HETATM   14  F   UNL     1     -10.019  10.418  62.473  1.00  0.00    -0.297 F  
HETATM   15  F   UNL     1      -7.980  10.701  63.190  1.00  0.00    -0.155 F  
HETATM   16  C   UNL     1      -9.673  10.319  64.859  1.00  0.00    -0.320 A  
HETATM   17  F   UNL     1      -8.881   8.727  63.223  1.00  0.00    -0.171 F  
HETATM   18  C   UNL     1      -9.841   9.279  65.760  1.00  0.00    -0.302 A  
HETATM   19  C   UNL     1     -10.594  10.891  67.416  1.00  0.00    -0.285 A  
HETATM   20  N   UNL     1      -9.970  11.601  65.202  1.00  0.00    -0.252 NA 
HETATM   21  C   UNL     1     -11.023  11.293  68.702  1.00  0.00    -0.266 A  
HETATM   22  C   UNL     1     -11.208  12.629  69.036  1.00  0.00    -0.322 A  
HETATM   23  C   UNL     1     -11.051  13.593  68.058  1.00  0.00    -0.285 A  
HETATM   24  C   UNL     1     -10.695  13.228  66.746  1.00  0.00    -0.279 A  
HETATM   25  C   UNL     1     -10.647  14.328  65.716  1.00  0.00    -0.309 C  
HETATM   26  F   UNL     1     -11.817  15.039  65.708  1.00  0.00    -0.309 F  
HETATM   27  F   UNL     1     -10.449  13.968  64.420  1.00  0.00    -0.431 F  
HETATM   28  F   UNL     1      -9.680  15.250  65.998  1.00  0.00    -0.266 F  
ENDBRANCH   2  11
TORSDOF 2
ENDMDL
MODEL       58
REMARK 921   NORMALIZED FREE ENERGY PREDICTED BY IDOCK:   -5.64 KCAL/MOL
REMARK 922        TOTAL FREE ENERGY PREDICTED BY IDOCK:   -7.04 KCAL/MOL
REMARK 923 INTER-LIGAND FREE ENERGY PREDICTED BY IDOCK:   -6.79 KCAL/MOL
REMARK 924 INTRA-LIGAND FREE ENERGY PREDICTED BY IDOCK:   -0.24 KCAL/MOL
REMARK 927      BINDING AFFINITY PREDICTED BY RF-SCORE:    0.00 PKD
ROOT
HETATM    1  O   UNL     1     -10.807   7.121  74.267  1.00  0.00    -0.472 OA 
HETATM    2  C   UNL     1     -10.183   6.625  73.066  1.00  0.00    -0.205 C  
HETATM    3  H   UNL     1     -10.258   7.804  74.634  1.00  0.00     0.000 HD 
ENDROOT
BRANCH   2   4
HETATM    4  C   UNL     1     -11.091   5.496  72.459  1.00  0.00    -0.270 C  
HETATM    5  H   UNL     1     -12.313   3.947  73.081  1.00  0.00     0.000 HD 
HETATM    6  N   UNL     1     -11.484   4.437  73.418  1.00  0.00    -0.270 NA 
HETATM    7  C   UNL     1     -10.515   4.841  71.189  1.00  0.00    -0.121 C  
HETATM    8  C   UNL     1      -9.400   3.840  71.494  1.00  0.00    -0.203 C  
HETATM    9  C   UNL     1     -10.433   3.481  73.747  1.00  0.00    -0.181 C  
HETATM   10  C   UNL     1      -9.886   2.801  72.494  1.00  0.00    -0.217 C  
ENDBRANCH   2   4
BRANCH   2  11
HETATM   11  C   UNL     1      -9.969   7.833  72.146  1.00  0.00    -0.249 A  
HETATM   12  C   UNL     1      -7.047   9.374  70.224  1.00  0.00    -0.097 C  
HETATM   13  C   UNL     1     -10.692   9.788  70.870  1.00  0.00    -0.305 A  
HETATM   14  F   UNL     1      -6.984   9.310  68.862  1.00  0.00    -0.060 F  
HETATM   15  F   UNL     1      -6.556  10.601  70.566  1.00  0.00    -0.143 F  
HETATM   16  C   UNL     1      -8.444   9.120  70.774  1.00  0.00    -0.212 A  
HETATM   17  F   UNL     1      -6.117   8.478  70.670  1.00  0.00    -0.031 F  
HETATM   18  C   UNL     1      -8.677   8.061  71.639  1.00  0.00    -0.169 A  
HETATM   19  C   UNL     1     -11.006   8.739  71.775  1.00  0.00    -0.415 A  
HETATM   20  N   UNL     1      -9.450   9.954  70.397  1.00  0.00    -0.134 NA 
HETATM   21  C   UNL     1     -12.332   8.661  72.262  1.00  0.00    -0.449 A  
HETATM   22  C   UNL     1     -13.298   9.603  71.933  1.00  0.00    -0.526 A  
HETATM   23  C   UNL     1     -12.981  10.603  71.032  1.00  0.00    -0.456 A  
HETATM   24  C   UNL     1     -11.693  10.674  70.469  1.00  0.00    -0.451 A  
HETATM   25  C   UNL     1     -11.460  11.730  69.417  1.00  0.00    -0.307 C  
HETATM   26  F   UNL     1     -12.405  11.651  68.430  1.00  0.00    -0.308 F  
HETATM   27  F   UNL     1     -10.270  11.714  68.763  1.00  0.00    -0.201 F  
HETATM   28  F   UNL     1     -11.590  12.992  69.924  1.00  0.00    -0.340 F  
ENDBRANCH   2  11
TORSDOF 2
ENDMDL
MODEL       59
REMARK 921   NORMALIZED FREE ENERGY PREDICTED BY IDOCK:   -5.57 KCAL/MOL
REMARK 922        TOTAL FREE ENERGY PREDICTED BY IDOCK:   -6.97 KCAL/MOL
REMARK 923 INTER-LIGAND FREE ENERGY PREDICTED BY IDOCK:   -6.51 KCAL/MOL
REMARK 924 INTRA-LIGAND FREE ENERGY PREDICTED BY IDOCK:   -0.46 KCAL/MOL
REMARK 927      BINDING AFFINITY PREDICTED BY RF-SCORE:    0.00 PKD
ROOT
HETATM    1  O   UNL     1     -10.479  10.695  65.794  1.00  0.00    -0.232 OA 
HETATM    2  C   UNL     1     -10.456  11.692  66.835  1.00  0.00    -0.227 C  
HETATM    3  H   UNL     1      -9.692  10.168  65.862  1.00  0.00     0.000 HD 
ENDROOT
BRANCH   2   4
HETATM    4  C   UNL     1     -11.758  12.564  66.722  1.00  0.00    -0.384 C  
HETATM    5  H   UNL     1     -13.404  12.792  65.490  1.00  0.00     0.000 HD 
HETATM    6  N   UNL     1     -12.430  12.503  65.402  1.00  0.00    -0.647 NA 
HETATM    7  C   UNL     1     -11.564  14.039  67.124  1.00  0.00    -0.397 C  
HETATM    8  C   UNL     1     -10.868  14.861  66.039  1.00  0.00    -0.328 C  
HETATM    9  C   UNL     1     -11.775  13.258  64.340  1.00  0.00    -0.388 C  
HETATM   10  C   UNL     1     -11.614  14.729  64.720  1.00  0.00    -0.418 C  
ENDBRANCH   2   4
BRANCH   2  11
HETATM   11  C   UNL     1     -10.306  10.942  68.164  1.00  0.00    -0.202 A  
HETATM   12  C   UNL     1     -12.636   9.715  70.935  1.00  0.00    -0.219 C  
HETATM   13  C   UNL     1      -9.060   9.749  69.894  1.00  0.00    -0.229 A  
HETATM   14  F   UNL     1     -12.891   8.386  71.108  1.00  0.00    -0.298 F  
HETATM   15  F   UNL     1     -12.572  10.253  72.188  1.00  0.00    -0.460 F  
HETATM   16  C   UNL     1     -11.384   9.986  70.110  1.00  0.00    -0.291 A  
HETATM   17  F   UNL     1     -13.773  10.232  70.380  1.00  0.00    -0.264 F  
HETATM   18  C   UNL     1     -11.467  10.693  68.920  1.00  0.00    -0.334 A  
HETATM   19  C   UNL     1      -9.058  10.481  68.677  1.00  0.00    -0.158 A  
HETATM   20  N   UNL     1     -10.193   9.518  70.570  1.00  0.00    -0.269 NA 
HETATM   21  C   UNL     1      -7.813  10.719  68.050  1.00  0.00    -0.106 A  
HETATM   22  C   UNL     1      -6.610  10.316  68.616  1.00  0.00    -0.052 A  
HETATM   23  C   UNL     1      -6.632   9.583  69.788  1.00  0.00    -0.051 A  
HETATM   24  C   UNL     1      -7.856   9.263  70.407  1.00  0.00    -0.158 A  
HETATM   25  C   UNL     1      -7.798   8.373  71.622  1.00  0.00    -0.120 C  
HETATM   26  F   UNL     1      -7.089   7.232  71.358  1.00  0.00    -0.060 F  
HETATM   27  F   UNL     1      -8.977   7.939  72.141  1.00  0.00    -0.139 F  
HETATM   28  F   UNL     1      -7.133   8.965  72.658  1.00  0.00    -0.077 F  
ENDBRANCH   2  11
TORSDOF 2
ENDMDL
MODEL       60
REMARK 921   NORMALIZED FREE ENERGY PREDICTED BY IDOCK:   -5.52 KCAL/MOL
REMARK 922        TOTAL FREE ENERGY PREDICTED BY IDOCK:   -6.90 KCAL/MOL
REMARK 923 INTER-LIGAND FREE ENERGY PREDICTED BY IDOCK:   -7.01 KCAL/MOL
REMARK 924 INTRA-LIGAND FREE ENERGY PREDICTED BY IDOCK:    0.11 KCAL/MOL
REMARK 927      BINDING AFFINITY PREDICTED BY RF-SCORE:    0.00 PKD
ROOT
HETATM    1  O   UNL     1      -9.922  13.962  67.667  1.00  0.00    -0.230 OA 
HETATM    2  C   UNL     1     -11.038  13.173  68.125  1.00  0.00    -0.255 C  
HETATM    3  H   UNL     1      -9.342  14.122  68.402  1.00  0.00     0.000 HD 
ENDROOT
BRANCH   2   4
HETATM    4  C   UNL     1     -11.997  12.909  66.909  1.00  0.00    -0.335 C  
HETATM    5  H   UNL     1     -12.372  11.463  65.478  1.00  0.00     0.000 HD 
HETATM    6  N   UNL     1     -11.576  11.800  66.019  1.00  0.00    -0.404 NA 
HETATM    7  C   UNL     1     -12.291  14.158  66.057  1.00  0.00    -0.470 C  
HETATM    8  C   UNL     1     -11.136  14.522  65.123  1.00  0.00    -0.374 C  
HETATM    9  C   UNL     1     -10.460  12.110  65.133  1.00  0.00    -0.281 C  
HETATM   10  C   UNL     1     -10.762  13.326  64.260  1.00  0.00    -0.408 C  
ENDBRANCH   2   4
BRANCH   2  11
HETATM   11  C   UNL     1     -10.454  11.906  68.760  1.00  0.00    -0.207 A  
HETATM   12  C   UNL     1      -7.250   9.851  68.410  1.00  0.00    -0.073 C  
HETATM   13  C   UNL     1     -10.439  10.029  70.325  1.00  0.00    -0.272 A  
HETATM   14  F   UNL     1      -6.304   9.842  69.393  1.00  0.00    -0.042 F  
HETATM   15  F   UNL     1      -7.288   8.580  67.912  1.00  0.00    -0.085 F  
HETATM   16  C   UNL     1      -8.611  10.340  68.888  1.00  0.00    -0.150 A  
HETATM   17  F   UNL     1      -6.721  10.614  67.406  1.00  0.00    -0.069 F  
HETATM   18  C   UNL     1      -9.195  11.460  68.316  1.00  0.00    -0.183 A  
HETATM   19  C   UNL     1     -11.112  11.153  69.778  1.00  0.00    -0.271 A  
HETATM   20  N   UNL     1      -9.232   9.654  69.884  1.00  0.00    -0.215 NA 
HETATM   21  C   UNL     1     -12.404  11.456  70.269  1.00  0.00    -0.379 A  
HETATM   22  C   UNL     1     -13.043  10.658  71.210  1.00  0.00    -0.456 A  
HETATM   23  C   UNL     1     -12.364   9.582  71.750  1.00  0.00    -0.474 A  
HETATM   24  C   UNL     1     -11.049   9.289  71.340  1.00  0.00    -0.437 A  
HETATM   25  C   UNL     1     -10.342   8.164  72.053  1.00  0.00    -0.254 C  
HETATM   26  F   UNL     1     -10.387   8.342  73.409  1.00  0.00    -0.313 F  
HETATM   27  F   UNL     1      -9.027   7.967  71.770  1.00  0.00    -0.136 F  
HETATM   28  F   UNL     1     -10.952   6.961  71.838  1.00  0.00    -0.236 F  
ENDBRANCH   2  11
TORSDOF 2
ENDMDL
MODEL       61
REMARK 921   NORMALIZED FREE ENERGY PREDICTED BY IDOCK:   -5.52 KCAL/MOL
REMARK 922        TOTAL FREE ENERGY PREDICTED BY IDOCK:   -6.90 KCAL/MOL
REMARK 923 INTER-LIGAND FREE ENERGY PREDICTED BY IDOCK:   -6.02 KCAL/MOL
REMARK 924 INTRA-LIGAND FREE ENERGY PREDICTED BY IDOCK:   -0.88 KCAL/MOL
REMARK 927      BINDING AFFINITY PREDICTED BY RF-SCORE:    0.00 PKD
ROOT
HETATM    1  O   UNL     1     -10.988   7.538  73.950  1.00  0.00    -0.528 OA 
HETATM    2  C   UNL     1     -10.330   6.970  72.800  1.00  0.00    -0.222 C  
HETATM    3  H   UNL     1     -10.454   8.249  74.285  1.00  0.00     0.000 HD 
ENDROOT
BRANCH   2   4
HETATM    4  C   UNL     1     -11.213   5.795  72.247  1.00  0.00    -0.278 C  
HETATM    5  H   UNL     1     -12.348   4.211  72.941  1.00  0.00     0.000 HD 
HETATM    6  N   UNL     1     -11.529   4.739  73.239  1.00  0.00    -0.330 NA 
HETATM    7  C   UNL     1     -10.658   5.138  70.969  1.00  0.00    -0.201 C  
HETATM    8  C   UNL     1      -9.493   4.188  71.249  1.00  0.00    -0.230 C  
HETATM    9  C   UNL     1     -10.428   3.831  73.545  1.00  0.00    -0.179 C  
HETATM   10  C   UNL     1      -9.900   3.150  72.285  1.00  0.00    -0.233 C  
ENDBRANCH   2   4
BRANCH   2  11
HETATM   11  C   UNL     1     -10.103   8.116  71.809  1.00  0.00    -0.267 A  
HETATM   12  C   UNL     1     -12.167  11.004  70.389  1.00  0.00    -0.373 C  
HETATM   13  C   UNL     1      -8.768   9.484  70.285  1.00  0.00    -0.235 A  
HETATM   14  F   UNL     1     -11.911  12.297  70.743  1.00  0.00    -0.431 F  
HETATM   15  F   UNL     1     -12.504  11.036  69.066  1.00  0.00    -0.383 F  
HETATM   16  C   UNL     1     -11.008  10.060  70.682  1.00  0.00    -0.322 A  
HETATM   17  F   UNL     1     -13.318  10.670  71.045  1.00  0.00    -0.412 F  
HETATM   18  C   UNL     1     -11.177   8.987  71.544  1.00  0.00    -0.418 A  
HETATM   19  C   UNL     1      -8.866   8.353  71.139  1.00  0.00    -0.201 A  
HETATM   20  N   UNL     1      -9.812  10.297  70.079  1.00  0.00    -0.128 NA 
HETATM   21  C   UNL     1      -7.731   7.520  71.267  1.00  0.00    -0.085 A  
HETATM   22  C   UNL     1      -6.565   7.741  70.544  1.00  0.00    -0.038 A  
HETATM   23  C   UNL     1      -6.478   8.860  69.737  1.00  0.00    -0.035 A  
HETATM   24  C   UNL     1      -7.562   9.754  69.637  1.00  0.00    -0.120 A  
HETATM   25  C   UNL     1      -7.349  11.002  68.819  1.00  0.00    -0.111 C  
HETATM   26  F   UNL     1      -6.223  11.666  69.227  1.00  0.00    -0.058 F  
HETATM   27  F   UNL     1      -8.332  11.941  68.835  1.00  0.00    -0.124 F  
HETATM   28  F   UNL     1      -7.127  10.718  67.502  1.00  0.00    -0.082 F  
ENDBRANCH   2  11
TORSDOF 2
ENDMDL
MODEL       62
REMARK 921   NORMALIZED FREE ENERGY PREDICTED BY IDOCK:   -5.51 KCAL/MOL
REMARK 922        TOTAL FREE ENERGY PREDICTED BY IDOCK:   -6.89 KCAL/MOL
REMARK 923 INTER-LIGAND FREE ENERGY PREDICTED BY IDOCK:   -6.57 KCAL/MOL
REMARK 924 INTRA-LIGAND FREE ENERGY PREDICTED BY IDOCK:   -0.32 KCAL/MOL
REMARK 927      BINDING AFFINITY PREDICTED BY RF-SCORE:    0.00 PKD
ROOT
HETATM    1  O   UNL     1      -9.280  16.554  65.596  1.00  0.00    -0.481 OA 
HETATM    2  C   UNL     1      -9.503  15.751  66.772  1.00  0.00    -0.240 C  
HETATM    3  H   UNL     1      -8.576  16.163  65.092  1.00  0.00     0.000 HD 
ENDROOT
BRANCH   2   4
HETATM    4  C   UNL     1     -10.668  16.397  67.605  1.00  0.00    -0.312 C  
HETATM    5  H   UNL     1     -10.944  17.598  69.267  1.00  0.00     0.000 HD 
HETATM    6  N   UNL     1     -10.264  16.914  68.935  1.00  0.00    -0.296 NA 
HETATM    7  C   UNL     1     -11.903  15.491  67.768  1.00  0.00     0.026 C  
HETATM    8  C   UNL     1     -11.700  14.398  68.819  1.00  0.00    -0.372 C  
HETATM    9  C   UNL     1     -10.040  15.892  69.952  1.00  0.00    -0.190 C  
HETATM   10  C   UNL     1     -11.275  15.015  70.143  1.00  0.00    -0.291 C  
ENDBRANCH   2   4
BRANCH   2  11
HETATM   11  C   UNL     1      -9.784  14.324  66.288  1.00  0.00    -0.321 A  
HETATM   12  C   UNL     1     -11.930  12.683  63.585  1.00  0.00    -0.535 C  
HETATM   13  C   UNL     1      -9.478  11.900  66.276  1.00  0.00    -0.227 A  
HETATM   14  F   UNL     1     -11.364  12.113  62.482  1.00  0.00     0.204 F  
HETATM   15  F   UNL     1     -12.985  11.885  63.921  1.00  0.00    -0.558 F  
HETATM   16  C   UNL     1     -10.947  12.879  64.732  1.00  0.00    -0.318 A  
HETATM   17  F   UNL     1     -12.488  13.849  63.143  1.00  0.00    -0.476 F  
HETATM   18  C   UNL     1     -10.691  14.149  65.227  1.00  0.00    -0.374 A  
HETATM   19  C   UNL     1      -9.177  13.162  66.852  1.00  0.00    -0.236 A  
HETATM   20  N   UNL     1     -10.333  11.783  65.252  1.00  0.00    -0.262 NA 
HETATM   21  C   UNL     1      -8.298  13.193  67.959  1.00  0.00    -0.162 A  
HETATM   22  C   UNL     1      -7.781  12.034  68.526  1.00  0.00    -0.127 A  
HETATM   23  C   UNL     1      -8.065  10.816  67.938  1.00  0.00    -0.112 A  
HETATM   24  C   UNL     1      -8.878  10.748  66.791  1.00  0.00    -0.147 A  
HETATM   25  C   UNL     1      -9.053   9.394  66.151  1.00  0.00    -0.171 C  
HETATM   26  F   UNL     1      -7.839   8.811  65.905  1.00  0.00    -0.094 F  
HETATM   27  F   UNL     1      -9.712   9.339  64.964  1.00  0.00    -0.309 F  
HETATM   28  F   UNL     1      -9.699   8.519  66.976  1.00  0.00    -0.189 F  
ENDBRANCH   2  11
TORSDOF 2
ENDMDL
MODEL       63
REMARK 921   NORMALIZED FREE ENERGY PREDICTED BY IDOCK:   -5.41 KCAL/MOL
REMARK 922        TOTAL FREE ENERGY PREDICTED BY IDOCK:   -6.78 KCAL/MOL
REMARK 923 INTER-LIGAND FREE ENERGY PREDICTED BY IDOCK:   -6.95 KCAL/MOL
REMARK 924 INTRA-LIGAND FREE ENERGY PREDICTED BY IDOCK:    0.16 KCAL/MOL
REMARK 927      BINDING AFFINITY PREDICTED BY RF-SCORE:    0.00 PKD
ROOT
HETATM    1  O   UNL     1     -11.524   6.608  67.736  1.00  0.00    -0.654 OA 
HETATM    2  C   UNL     1     -10.735   7.469  68.580  1.00  0.00    -0.073 C  
HETATM    3  H   UNL     1     -12.347   7.042  67.544  1.00  0.00     0.000 HD 
ENDROOT
BRANCH   2   4
HETATM    4  C   UNL     1      -9.374   6.750  68.896  1.00  0.00    -0.129 C  
HETATM    5  H   UNL     1      -7.801   5.841  67.906  1.00  0.00     0.000 HD 
HETATM    6  N   UNL     1      -8.800   5.988  67.761  1.00  0.00    -0.107 NA 
HETATM    7  C   UNL     1      -9.414   5.848  70.144  1.00  0.00    -0.190 C  
HETATM    8  C   UNL     1     -10.110   4.511  69.885  1.00  0.00    -0.195 C  
HETATM    9  C   UNL     1      -9.459   4.718  67.475  1.00  0.00    -0.146 C  
HETATM   10  C   UNL     1      -9.468   3.806  68.700  1.00  0.00    -0.215 C  
ENDBRANCH   2   4
BRANCH   2  11
HETATM   11  C   UNL     1     -10.592   8.804  67.841  1.00  0.00    -0.236 A  
HETATM   12  C   UNL     1      -9.304   9.965  64.434  1.00  0.00    -0.265 C  
HETATM   13  C   UNL     1     -10.864  11.218  67.575  1.00  0.00    -0.245 A  
HETATM   14  F   UNL     1     -10.158  10.413  63.470  1.00  0.00    -0.360 F  
HETATM   15  F   UNL     1      -8.188  10.746  64.340  1.00  0.00    -0.147 F  
HETATM   16  C   UNL     1      -9.914   9.971  65.829  1.00  0.00    -0.276 A  
HETATM   17  F   UNL     1      -8.910   8.724  64.020  1.00  0.00    -0.171 F  
HETATM   18  C   UNL     1     -10.029   8.792  66.551  1.00  0.00    -0.360 A  
HETATM   19  C   UNL     1     -10.998  10.059  68.385  1.00  0.00    -0.266 A  
HETATM   20  N   UNL     1     -10.340  11.155  66.344  1.00  0.00    -0.244 NA 
HETATM   21  C   UNL     1     -11.519  10.219  69.690  1.00  0.00    -0.297 A  
HETATM   22  C   UNL     1     -11.837  11.467  70.211  1.00  0.00    -0.438 A  
HETATM   23  C   UNL     1     -11.724  12.581  69.402  1.00  0.00    -0.383 A  
HETATM   24  C   UNL     1     -11.277  12.456  68.072  1.00  0.00    -0.317 A  
HETATM   25  C   UNL     1     -11.281  13.703  67.226  1.00  0.00    -0.309 C  
HETATM   26  F   UNL     1     -12.508  14.310  67.257  1.00  0.00    -0.407 F  
HETATM   27  F   UNL     1     -10.993  13.568  65.904  1.00  0.00    -0.279 F  
HETATM   28  F   UNL     1     -10.414  14.646  67.701  1.00  0.00    -0.237 F  
ENDBRANCH   2  11
TORSDOF 2
ENDMDL
MODEL       64
REMARK 921   NORMALIZED FREE ENERGY PREDICTED BY IDOCK:   -5.40 KCAL/MOL
REMARK 922        TOTAL FREE ENERGY PREDICTED BY IDOCK:   -6.77 KCAL/MOL
REMARK 923 INTER-LIGAND FREE ENERGY PREDICTED BY IDOCK:   -6.43 KCAL/MOL
REMARK 924 INTRA-LIGAND FREE ENERGY PREDICTED BY IDOCK:   -0.34 KCAL/MOL
REMARK 927      BINDING AFFINITY PREDICTED BY RF-SCORE:    0.00 PKD
ROOT
HETATM    1  O   UNL     1     -11.953  14.370  66.628  1.00  0.00    -0.407 OA 
HETATM    2  C   UNL     1     -10.977  13.421  67.101  1.00  0.00    -0.280 C  
HETATM    3  H   UNL     1     -12.806  13.950  66.623  1.00  0.00     0.000 HD 
ENDROOT
BRANCH   2   4
HETATM    4  C   UNL     1      -9.567  14.115  67.110  1.00  0.00    -0.244 C  
HETATM    5  H   UNL     1      -7.891  14.300  65.912  1.00  0.00     0.000 HD 
HETATM    6  N   UNL     1      -8.625  13.613  66.082  1.00  0.00     0.560 NA 
HETATM    7  C   UNL     1      -8.870  14.106  68.484  1.00  0.00    -0.173 C  
HETATM    8  C   UNL     1      -8.252  12.750  68.825  1.00  0.00     0.117 C  
HETATM    9  C   UNL     1      -8.037  12.308  66.369  1.00  0.00     0.285 C  
HETATM   10  C   UNL     1      -7.313  12.307  67.713  1.00  0.00    -0.118 C  
ENDBRANCH   2   4
BRANCH   2  11
HETATM   11  C   UNL     1     -11.457  12.939  68.475  1.00  0.00    -0.345 A  
HETATM   12  C   UNL     1     -13.090  14.513  71.552  1.00  0.00    -0.343 C  
HETATM   13  C   UNL     1     -11.906  11.255  70.188  1.00  0.00    -0.364 A  
HETATM   14  F   UNL     1     -14.391  14.254  71.872  1.00  0.00    -0.478 F  
HETATM   15  F   UNL     1     -12.418  14.586  72.738  1.00  0.00    -0.391 F  
HETATM   16  C   UNL     1     -12.492  13.491  70.594  1.00  0.00    -0.333 A  
HETATM   17  F   UNL     1     -13.086  15.787  71.058  1.00  0.00    -0.500 F  
HETATM   18  C   UNL     1     -12.011  13.887  69.355  1.00  0.00    -0.402 A  
HETATM   19  C   UNL     1     -11.374  11.584  68.913  1.00  0.00    -0.331 A  
HETATM   20  N   UNL     1     -12.443  12.189  70.984  1.00  0.00    -0.339 NA 
HETATM   21  C   UNL     1     -10.785  10.546  68.154  1.00  0.00    -0.273 A  
HETATM   22  C   UNL     1     -10.660   9.252  68.643  1.00  0.00    -0.219 A  
HETATM   23  C   UNL     1     -11.204   8.944  69.875  1.00  0.00    -0.076 A  
HETATM   24  C   UNL     1     -11.863   9.932  70.632  1.00  0.00    -0.386 A  
HETATM   25  C   UNL     1     -12.519   9.491  71.915  1.00  0.00    -0.384 C  
HETATM   26  F   UNL     1     -13.353   8.428  71.696  1.00  0.00    -0.322 F  
HETATM   27  F   UNL     1     -13.280  10.401  72.579  1.00  0.00    -0.444 F  
HETATM   28  F   UNL     1     -11.607   9.036  72.825  1.00  0.00    -0.239 F  
ENDBRANCH   2  11
TORSDOF 2
ENDMDL
MODEL       65
REMARK 921   NORMALIZED FREE ENERGY PREDICTED BY IDOCK:   -5.37 KCAL/MOL
REMARK 922        TOTAL FREE ENERGY PREDICTED BY IDOCK:   -6.74 KCAL/MOL
REMARK 923 INTER-LIGAND FREE ENERGY PREDICTED BY IDOCK:   -7.00 KCAL/MOL
REMARK 924 INTRA-LIGAND FREE ENERGY PREDICTED BY IDOCK:    0.26 KCAL/MOL
REMARK 927      BINDING AFFINITY PREDICTED BY RF-SCORE:    0.00 PKD
ROOT
HETATM    1  O   UNL     1     -10.153  11.495  67.147  1.00  0.00    -0.194 OA 
HETATM    2  C   UNL     1     -10.466  11.845  68.510  1.00  0.00    -0.224 C  
HETATM    3  H   UNL     1      -9.406  10.909  67.149  1.00  0.00     0.000 HD 
ENDROOT
BRANCH   2   4
HETATM    4  C   UNL     1     -11.703  12.814  68.507  1.00  0.00    -0.333 C  
HETATM    5  H   UNL     1     -12.906  13.834  67.169  1.00  0.00     0.000 HD 
HETATM    6  N   UNL     1     -11.942  13.506  67.218  1.00  0.00    -0.376 NA 
HETATM    7  C   UNL     1     -11.691  13.852  69.645  1.00  0.00    -0.370 C  
HETATM    8  C   UNL     1     -10.728  15.010  69.380  1.00  0.00    -0.267 C  
HETATM    9  C   UNL     1     -11.023  14.601  66.926  1.00  0.00    -0.324 C  
HETATM   10  C   UNL     1     -11.036  15.651  68.034  1.00  0.00    -0.335 C  
ENDBRANCH   2   4
BRANCH   2  11
HETATM   11  C   UNL     1     -10.691  10.530  69.265  1.00  0.00    -0.269 A  
HETATM   12  C   UNL     1     -13.082   9.251  71.958  1.00  0.00    -0.436 C  
HETATM   13  C   UNL     1     -10.267   8.177  69.769  1.00  0.00    -0.203 A  
HETATM   14  F   UNL     1     -14.059   8.345  71.664  1.00  0.00    -0.385 F  
HETATM   15  F   UNL     1     -12.621   8.917  73.199  1.00  0.00    -0.271 F  
HETATM   16  C   UNL     1     -11.978   9.306  70.911  1.00  0.00    -0.257 A  
HETATM   17  F   UNL     1     -13.732  10.441  72.125  1.00  0.00    -0.427 F  
HETATM   18  C   UNL     1     -11.714  10.484  70.230  1.00  0.00    -0.420 A  
HETATM   19  C   UNL     1      -9.923   9.348  69.045  1.00  0.00    -0.182 A  
HETATM   20  N   UNL     1     -11.263   8.175  70.664  1.00  0.00    -0.263 NA 
HETATM   21  C   UNL     1      -8.829   9.276  68.151  1.00  0.00    -0.129 A  
HETATM   22  C   UNL     1      -8.059   8.128  68.015  1.00  0.00    -0.128 A  
HETATM   23  C   UNL     1      -8.423   6.990  68.709  1.00  0.00    -0.122 A  
HETATM   24  C   UNL     1      -9.549   6.999  69.555  1.00  0.00    -0.153 A  
HETATM   25  C   UNL     1      -9.939   5.690  70.193  1.00  0.00    -0.207 C  
HETATM   26  F   UNL     1     -10.063   4.705  69.250  1.00  0.00    -0.266 F  
HETATM   27  F   UNL     1     -11.104   5.652  70.891  1.00  0.00    -0.335 F  
HETATM   28  F   UNL     1      -8.978   5.233  71.050  1.00  0.00    -0.130 F  
ENDBRANCH   2  11
TORSDOF 2
ENDMDL
MODEL       66
REMARK 921   NORMALIZED FREE ENERGY PREDICTED BY IDOCK:   -5.31 KCAL/MOL
REMARK 922        TOTAL FREE ENERGY PREDICTED BY IDOCK:   -6.68 KCAL/MOL
REMARK 923 INTER-LIGAND FREE ENERGY PREDICTED BY IDOCK:   -6.21 KCAL/MOL
REMARK 924 INTRA-LIGAND FREE ENERGY PREDICTED BY IDOCK:   -0.47 KCAL/MOL
REMARK 927      BINDING AFFINITY PREDICTED BY RF-SCORE:    0.00 PKD
ROOT
HETATM    1  O   UNL     1      -9.820  18.306  67.468  1.00  0.00    -0.298 OA 
HETATM    2  C   UNL     1      -8.860  17.819  66.509  1.00  0.00    -0.262 C  
HETATM    3  H   UNL     1     -10.691  18.063  67.175  1.00  0.00     0.000 HD 
ENDROOT
BRANCH   2   4
HETATM    4  C   UNL     1      -7.421  18.220  66.994  1.00  0.00    -0.213 C  
HETATM    5  H   UNL     1      -6.509  19.378  68.445  1.00  0.00     0.000 HD 
HETATM    6  N   UNL     1      -7.380  19.381  67.915  1.00  0.00    -0.253 NA 
HETATM    7  C   UNL     1      -6.412  18.444  65.852  1.00  0.00    -0.290 C  
HETATM    8  C   UNL     1      -6.598  19.792  65.154  1.00  0.00    -0.317 C  
HETATM    9  C   UNL     1      -7.579  20.679  67.281  1.00  0.00    -0.333 C  
HETATM   10  C   UNL     1      -6.557  20.921  66.173  1.00  0.00    -0.230 C  
ENDBRANCH   2   4
BRANCH   2  11
HETATM   11  C   UNL     1      -9.090  16.309  66.379  1.00  0.00    -0.336 A  
HETATM   12  C   UNL     1      -7.480  13.129  67.758  1.00  0.00    -0.150 C  
HETATM   13  C   UNL     1     -10.275  14.318  65.602  1.00  0.00    -0.347 A  
HETATM   14  F   UNL     1      -8.117  12.359  68.686  1.00  0.00    -0.137 F  
HETATM   15  F   UNL     1      -6.831  12.260  66.929  1.00  0.00    -0.138 F  
HETATM   16  C   UNL     1      -8.416  14.072  67.013  1.00  0.00    -0.147 A  
HETATM   17  F   UNL     1      -6.491  13.776  68.443  1.00  0.00    -0.075 F  
HETATM   18  C   UNL     1      -8.223  15.443  67.072  1.00  0.00    -0.270 A  
HETATM   19  C   UNL     1     -10.133  15.731  65.596  1.00  0.00    -0.401 A  
HETATM   20  N   UNL     1      -9.437  13.534  66.293  1.00  0.00    -0.228 NA 
HETATM   21  C   UNL     1     -11.032  16.483  64.804  1.00  0.00    -0.192 A  
HETATM   22  C   UNL     1     -11.990  15.880  63.998  1.00  0.00     0.235 A  
HETATM   23  C   UNL     1     -12.130  14.506  64.035  1.00  0.00    -0.271 A  
HETATM   24  C   UNL     1     -11.302  13.726  64.866  1.00  0.00    -0.353 A  
HETATM   25  C   UNL     1     -11.589  12.247  64.927  1.00  0.00    -0.342 C  
HETATM   26  F   UNL     1     -12.906  12.017  65.221  1.00  0.00    -0.147 F  
HETATM   27  F   UNL     1     -10.895  11.508  65.832  1.00  0.00    -0.298 F  
HETATM   28  F   UNL     1     -11.390  11.638  63.720  1.00  0.00    -0.412 F  
ENDBRANCH   2  11
TORSDOF 2
ENDMDL
MODEL       67
REMARK 921   NORMALIZED FREE ENERGY PREDICTED BY IDOCK:   -5.30 KCAL/MOL
REMARK 922        TOTAL FREE ENERGY PREDICTED BY IDOCK:   -6.66 KCAL/MOL
REMARK 923 INTER-LIGAND FREE ENERGY PREDICTED BY IDOCK:   -6.29 KCAL/MOL
REMARK 924 INTRA-LIGAND FREE ENERGY PREDICTED BY IDOCK:   -0.37 KCAL/MOL
REMARK 927      BINDING AFFINITY PREDICTED BY RF-SCORE:    0.00 PKD
ROOT
HETATM    1  O   UNL     1      -6.833  11.077  68.371  1.00  0.00    -0.061 OA 
HETATM    2  C   UNL     1      -7.312  10.256  67.286  1.00  0.00    -0.090 C  
HETATM    3  H   UNL     1      -6.880  11.988  68.105  1.00  0.00     0.000 HD 
ENDROOT
BRANCH   2   4
HETATM    4  C   UNL     1      -7.234   8.750  67.726  1.00  0.00    -0.084 C  
HETATM    5  H   UNL     1      -5.987   7.111  67.531  1.00  0.00     0.000 HD 
HETATM    6  N   UNL     1      -6.227   7.945  66.995  1.00  0.00    -0.053 NA 
HETATM    7  C   UNL     1      -8.587   8.016  67.699  1.00  0.00    -0.130 C  
HETATM    8  C   UNL     1      -9.020   7.625  66.285  1.00  0.00    -0.203 C  
HETATM    9  C   UNL     1      -6.601   7.577  65.634  1.00  0.00    -0.045 C  
HETATM   10  C   UNL     1      -7.925   6.816  65.606  1.00  0.00    -0.116 C  
ENDBRANCH   2   4
BRANCH   2  11
HETATM   11  C   UNL     1      -8.724  10.748  66.950  1.00  0.00    -0.141 A  
HETATM   12  C   UNL     1     -11.837  11.797  68.905  1.00  0.00    -0.320 C  
HETATM   13  C   UNL     1     -10.510  11.459  65.441  1.00  0.00    -0.280 A  
HETATM   14  F   UNL     1     -12.236  13.100  68.953  1.00  0.00    -0.343 F  
HETATM   15  F   UNL     1     -12.981  11.054  68.845  1.00  0.00     0.156 F  
HETATM   16  C   UNL     1     -10.879  11.502  67.758  1.00  0.00    -0.221 A  
HETATM   17  F   UNL     1     -11.304  11.537  70.136  1.00  0.00    -0.330 F  
HETATM   18  C   UNL     1      -9.604  11.021  68.014  1.00  0.00    -0.175 A  
HETATM   19  C   UNL     1      -9.198  10.945  65.619  1.00  0.00    -0.227 A  
HETATM   20  N   UNL     1     -11.306  11.723  66.486  1.00  0.00    -0.376 NA 
HETATM   21  C   UNL     1      -8.440  10.651  64.462  1.00  0.00    -0.080 A  
HETATM   22  C   UNL     1      -8.961  10.790  63.181  1.00  0.00    -0.239 A  
HETATM   23  C   UNL     1     -10.230  11.314  63.026  1.00  0.00    -0.293 A  
HETATM   24  C   UNL     1     -10.991  11.687  64.150  1.00  0.00    -0.442 A  
HETATM   25  C   UNL     1     -12.322  12.346  63.891  1.00  0.00    -0.508 C  
HETATM   26  F   UNL     1     -12.182  13.410  63.041  1.00  0.00    -0.608 F  
HETATM   27  F   UNL     1     -12.998  12.842  64.961  1.00  0.00    -0.558 F  
HETATM   28  F   UNL     1     -13.193  11.506  63.258  1.00  0.00    -0.527 F  
ENDBRANCH   2  11
TORSDOF 2
ENDMDL
MODEL       68
REMARK 921   NORMALIZED FREE ENERGY PREDICTED BY IDOCK:   -5.29 KCAL/MOL
REMARK 922        TOTAL FREE ENERGY PREDICTED BY IDOCK:   -6.65 KCAL/MOL
REMARK 923 INTER-LIGAND FREE ENERGY PREDICTED BY IDOCK:   -6.54 KCAL/MOL
REMARK 924 INTRA-LIGAND FREE ENERGY PREDICTED BY IDOCK:   -0.12 KCAL/MOL
REMARK 927      BINDING AFFINITY PREDICTED BY RF-SCORE:    0.00 PKD
ROOT
HETATM    1  O   UNL     1      -9.804  15.086  69.899  1.00  0.00    -0.453 OA 
HETATM    2  C   UNL     1     -10.059  15.643  68.594  1.00  0.00    -0.210 C  
HETATM    3  H   UNL     1     -10.452  14.413  70.073  1.00  0.00     0.000 HD 
ENDROOT
BRANCH   2   4
HETATM    4  C   UNL     1      -8.986  16.754  68.306  1.00  0.00    -0.228 C  
HETATM    5  H   UNL     1      -8.311  18.541  69.100  1.00  0.00     0.000 HD 
HETATM    6  N   UNL     1      -9.184  18.014  69.062  1.00  0.00    -0.123 NA 
HETATM    7  C   UNL     1      -8.808  17.084  66.812  1.00  0.00    -0.267 C  
HETATM    8  C   UNL     1      -9.931  17.964  66.261  1.00  0.00    -0.333 C  
HETATM    9  C   UNL     1     -10.265  18.864  68.575  1.00  0.00    -0.347 C  
HETATM   10  C   UNL     1     -10.072  19.223  67.104  1.00  0.00    -0.473 C  
ENDBRANCH   2   4
BRANCH   2  11
HETATM   11  C   UNL     1     -10.045  14.474  67.602  1.00  0.00    -0.228 A  
HETATM   12  C   UNL     1     -12.105  13.380  64.574  1.00  0.00    -0.409 C  
HETATM   13  C   UNL     1      -9.149  12.421  66.626  1.00  0.00    -0.204 A  
HETATM   14  F   UNL     1     -11.593  13.440  63.311  1.00  0.00    -0.397 F  
HETATM   15  F   UNL     1     -12.863  12.245  64.620  1.00  0.00    -0.537 F  
HETATM   16  C   UNL     1     -11.037  13.423  65.660  1.00  0.00    -0.285 A  
HETATM   17  F   UNL     1     -12.998  14.411  64.652  1.00  0.00    -0.310 F  
HETATM   18  C   UNL     1     -11.033  14.441  66.600  1.00  0.00    -0.318 A  
HETATM   19  C   UNL     1      -9.088  13.417  67.636  1.00  0.00    -0.203 A  
HETATM   20  N   UNL     1     -10.096  12.442  65.680  1.00  0.00    -0.256 NA 
HETATM   21  C   UNL     1      -8.083  13.297  68.625  1.00  0.00    -0.028 A  
HETATM   22  C   UNL     1      -7.212  12.215  68.667  1.00  0.00    -0.109 A  
HETATM   23  C   UNL     1      -7.270  11.268  67.662  1.00  0.00    -0.092 A  
HETATM   24  C   UNL     1      -8.208  11.389  66.620  1.00  0.00    -0.163 A  
HETATM   25  C   UNL     1      -8.136  10.372  65.509  1.00  0.00    -0.156 C  
HETATM   26  F   UNL     1      -6.868  10.297  64.998  1.00  0.00    -0.120 F  
HETATM   27  F   UNL     1      -8.937  10.563  64.427  1.00  0.00    -0.176 F  
HETATM   28  F   UNL     1      -8.408   9.109  65.954  1.00  0.00    -0.110 F  
ENDBRANCH   2  11
TORSDOF 2
ENDMDL
MODEL       69
REMARK 921   NORMALIZED FREE ENERGY PREDICTED BY IDOCK:   -5.24 KCAL/MOL
REMARK 922        TOTAL FREE ENERGY PREDICTED BY IDOCK:   -6.59 KCAL/MOL
REMARK 923 INTER-LIGAND FREE ENERGY PREDICTED BY IDOCK:   -6.56 KCAL/MOL
REMARK 924 INTRA-LIGAND FREE ENERGY PREDICTED BY IDOCK:   -0.03 KCAL/MOL
REMARK 927      BINDING AFFINITY PREDICTED BY RF-SCORE:    0.00 PKD
ROOT
HETATM    1  O   UNL     1     -11.211  11.238  66.467  1.00  0.00    -0.273 OA 
HETATM    2  C   UNL     1     -10.717  12.223  67.397  1.00  0.00    -0.230 C  
HETATM    3  H   UNL     1     -10.841  10.394  66.695  1.00  0.00     0.000 HD 
ENDROOT
BRANCH   2   4
HETATM    4  C   UNL     1     -11.330  13.620  67.020  1.00  0.00    -0.324 C  
HETATM    5  H   UNL     1     -12.159  14.593  65.393  1.00  0.00     0.000 HD 
HETATM    6  N   UNL     1     -11.471  13.860  65.564  1.00  0.00    -0.310 NA 
HETATM    7  C   UNL     1     -10.607  14.818  67.662  1.00  0.00    -0.262 C  
HETATM    8  C   UNL     1      -9.290  15.159  66.963  1.00  0.00    -0.244 C  
HETATM    9  C   UNL     1     -10.227  14.163  64.865  1.00  0.00    -0.341 C  
HETATM   10  C   UNL     1      -9.526  15.374  65.476  1.00  0.00    -0.160 C  
ENDBRANCH   2   4
BRANCH   2  11
HETATM   11  C   UNL     1     -11.080  11.728  68.801  1.00  0.00    -0.293 A  
HETATM   12  C   UNL     1     -13.014  13.083  71.807  1.00  0.00    -0.321 C  
HETATM   13  C   UNL     1     -11.151  10.087  70.611  1.00  0.00    -0.335 A  
HETATM   14  F   UNL     1     -14.227  12.567  72.158  1.00  0.00    -0.242 F  
HETATM   15  F   UNL     1     -12.373  13.367  72.978  1.00  0.00     0.130 F  
HETATM   16  C   UNL     1     -12.208  12.162  70.899  1.00  0.00    -0.211 A  
HETATM   17  F   UNL     1     -13.287  14.297  71.243  1.00  0.00    -0.372 F  
HETATM   18  C   UNL     1     -11.826  12.582  69.634  1.00  0.00    -0.382 A  
HETATM   19  C   UNL     1     -10.705  10.450  69.312  1.00  0.00    -0.270 A  
HETATM   20  N   UNL     1     -11.877  10.926  71.361  1.00  0.00    -0.024 NA 
HETATM   21  C   UNL     1      -9.905   9.523  68.605  1.00  0.00    -0.173 A  
HETATM   22  C   UNL     1      -9.500   8.317  69.163  1.00  0.00    -0.155 A  
HETATM   23  C   UNL     1      -9.964   7.969  70.417  1.00  0.00    -0.188 A  
HETATM   24  C   UNL     1     -10.821   8.833  71.126  1.00  0.00    -0.335 A  
HETATM   25  C   UNL     1     -11.364   8.333  72.441  1.00  0.00    -0.388 C  
HETATM   26  F   UNL     1     -11.948   7.104  72.292  1.00  0.00    -0.300 F  
HETATM   27  F   UNL     1     -12.305   9.093  73.063  1.00  0.00    -0.183 F  
HETATM   28  F   UNL     1     -10.375   8.140  73.362  1.00  0.00    -0.376 F  
ENDBRANCH   2  11
TORSDOF 2
ENDMDL
MODEL       70
REMARK 921   NORMALIZED FREE ENERGY PREDICTED BY IDOCK:   -5.23 KCAL/MOL
REMARK 922        TOTAL FREE ENERGY PREDICTED BY IDOCK:   -6.58 KCAL/MOL
REMARK 923 INTER-LIGAND FREE ENERGY PREDICTED BY IDOCK:   -5.69 KCAL/MOL
REMARK 924 INTRA-LIGAND FREE ENERGY PREDICTED BY IDOCK:   -0.88 KCAL/MOL
REMARK 927      BINDING AFFINITY PREDICTED BY RF-SCORE:    0.00 PKD
ROOT
HETATM    1  O   UNL     1      -9.758   4.592  69.389  1.00  0.00    -0.179 OA 
HETATM    2  C   UNL     1     -10.248   5.050  70.665  1.00  0.00    -0.235 C  
HETATM    3  H   UNL     1     -10.307   4.957  68.705  1.00  0.00     0.000 HD 
ENDROOT
BRANCH   2   4
HETATM    4  C   UNL     1      -9.340   4.446  71.796  1.00  0.00    -0.140 C  
HETATM    5  H   UNL     1      -8.495   2.640  72.348  1.00  0.00     0.000 HD 
HETATM    6  N   UNL     1      -9.325   2.965  71.852  1.00  0.00    -0.110 NA 
HETATM    7  C   UNL     1      -9.634   5.002  73.203  1.00  0.00    -0.156 C  
HETATM    8  C   UNL     1     -10.890   4.396  73.829  1.00  0.00    -0.362 C  
HETATM    9  C   UNL     1     -10.522   2.356  72.422  1.00  0.00    -0.061 C  
HETATM   10  C   UNL     1     -10.795   2.877  73.831  1.00  0.00    -0.291 C  
ENDBRANCH   2   4
BRANCH   2  11
HETATM   11  C   UNL     1     -10.263   6.581  70.611  1.00  0.00    -0.220 A  
HETATM   12  C   UNL     1      -7.793   9.348  69.684  1.00  0.00    -0.105 C  
HETATM   13  C   UNL     1     -11.303   8.785  70.796  1.00  0.00    -0.272 A  
HETATM   14  F   UNL     1      -7.948  10.082  68.545  1.00  0.00    -0.093 F  
HETATM   15  F   UNL     1      -7.330  10.215  70.631  1.00  0.00    -0.152 F  
HETATM   16  C   UNL     1      -9.064   8.626  70.113  1.00  0.00    -0.158 A  
HETATM   17  F   UNL     1      -6.749   8.503  69.430  1.00  0.00    -0.042 F  
HETATM   18  C   UNL     1      -9.086   7.243  70.212  1.00  0.00    -0.152 A  
HETATM   19  C   UNL     1     -11.400   7.375  70.941  1.00  0.00    -0.300 A  
HETATM   20  N   UNL     1     -10.167   9.369  70.393  1.00  0.00    -0.235 NA 
HETATM   21  C   UNL     1     -12.622   6.842  71.415  1.00  0.00    -0.400 A  
HETATM   22  C   UNL     1     -13.685   7.652  71.794  1.00  0.00    -0.408 A  
HETATM   23  C   UNL     1     -13.582   9.019  71.623  1.00  0.00    -0.446 A  
HETATM   24  C   UNL     1     -12.409   9.585  71.087  1.00  0.00    -0.410 A  
HETATM   25  C   UNL     1     -12.416  11.072  70.836  1.00  0.00    -0.410 C  
HETATM   26  F   UNL     1     -13.502  11.434  70.085  1.00  0.00     0.284 F  
HETATM   27  F   UNL     1     -11.349  11.606  70.185  1.00  0.00    -0.321 F  
HETATM   28  F   UNL     1     -12.540  11.785  71.994  1.00  0.00    -0.319 F  
ENDBRANCH   2  11
TORSDOF 2
ENDMDL
MODEL       71
REMARK 921   NORMALIZED FREE ENERGY PREDICTED BY IDOCK:   -5.21 KCAL/MOL
REMARK 922        TOTAL FREE ENERGY PREDICTED BY IDOCK:   -6.56 KCAL/MOL
REMARK 923 INTER-LIGAND FREE ENERGY PREDICTED BY IDOCK:   -6.50 KCAL/MOL
REMARK 924 INTRA-LIGAND FREE ENERGY PREDICTED BY IDOCK:   -0.06 KCAL/MOL
REMARK 927      BINDING AFFINITY PREDICTED BY RF-SCORE:    0.00 PKD
ROOT
HETATM    1  O   UNL     1     -10.978  10.992  64.551  1.00  0.00    -0.270 OA 
HETATM    2  C   UNL     1     -10.197  10.344  65.575  1.00  0.00    -0.246 C  
HETATM    3  H   UNL     1     -11.895  10.799  64.702  1.00  0.00     0.000 HD 
ENDROOT
BRANCH   2   4
HETATM    4  C   UNL     1      -8.679  10.665  65.326  1.00  0.00    -0.187 C  
HETATM    5  H   UNL     1      -7.425  11.277  63.800  1.00  0.00     0.000 HD 
HETATM    6  N   UNL     1      -8.292  10.750  63.898  1.00  0.00    -0.016 NA 
HETATM    7  C   UNL     1      -7.708   9.719  66.058  1.00  0.00    -0.104 C  
HETATM    8  C   UNL     1      -7.577   8.358  65.372  1.00  0.00    -0.092 C  
HETATM    9  C   UNL     1      -8.183   9.469  63.210  1.00  0.00    -0.162 C  
HETATM   10  C   UNL     1      -7.193   8.542  63.911  1.00  0.00    -0.097 C  
ENDBRANCH   2   4
BRANCH   2  11
HETATM   11  C   UNL     1     -10.738  10.835  66.922  1.00  0.00    -0.309 A  
HETATM   12  C   UNL     1     -11.584   9.275  70.308  1.00  0.00    -0.114 C  
HETATM   13  C   UNL     1     -11.503  12.533  68.505  1.00  0.00    -0.305 A  
HETATM   14  F   UNL     1     -10.817   9.517  71.410  1.00  0.00    -0.366 F  
HETATM   15  F   UNL     1     -12.874   9.227  70.751  1.00  0.00    -0.254 F  
HETATM   16  C   UNL     1     -11.377  10.294  69.195  1.00  0.00    -0.186 A  
HETATM   17  F   UNL     1     -11.285   7.995  69.934  1.00  0.00    -0.249 F  
HETATM   18  C   UNL     1     -10.925   9.889  67.948  1.00  0.00    -0.281 A  
HETATM   19  C   UNL     1     -11.062  12.197  67.197  1.00  0.00    -0.345 A  
HETATM   20  N   UNL     1     -11.646  11.601  69.456  1.00  0.00    -0.305 NA 
HETATM   21  C   UNL     1     -10.980  13.234  66.239  1.00  0.00    -0.296 A  
HETATM   22  C   UNL     1     -11.372  14.536  66.524  1.00  0.00    -0.354 A  
HETATM   23  C   UNL     1     -11.775  14.851  67.808  1.00  0.00    -0.340 A  
HETATM   24  C   UNL     1     -11.802  13.862  68.810  1.00  0.00    -0.396 A  
HETATM   25  C   UNL     1     -12.153  14.309  70.207  1.00  0.00    -0.335 C  
HETATM   26  F   UNL     1     -11.361  15.356  70.596  1.00  0.00    -0.253 F  
HETATM   27  F   UNL     1     -12.040  13.396  71.207  1.00  0.00    -0.394 F  
HETATM   28  F   UNL     1     -13.429  14.789  70.284  1.00  0.00    -0.239 F  
ENDBRANCH   2  11
TORSDOF 2
ENDMDL
MODEL       72
REMARK 921   NORMALIZED FREE ENERGY PREDICTED BY IDOCK:   -5.20 KCAL/MOL
REMARK 922        TOTAL FREE ENERGY PREDICTED BY IDOCK:   -6.55 KCAL/MOL
REMARK 923 INTER-LIGAND FREE ENERGY PREDICTED BY IDOCK:   -5.74 KCAL/MOL
REMARK 924 INTRA-LIGAND FREE ENERGY PREDICTED BY IDOCK:   -0.81 KCAL/MOL
REMARK 927      BINDING AFFINITY PREDICTED BY RF-SCORE:    0.00 PKD
ROOT
HETATM    1  O   UNL     1      -9.747   5.678  69.593  1.00  0.00    -0.152 OA 
HETATM    2  C   UNL     1      -9.946   6.713  70.576  1.00  0.00    -0.179 C  
HETATM    3  H   UNL     1     -10.358   5.816  68.879  1.00  0.00     0.000 HD 
ENDROOT
BRANCH   2   4
HETATM    4  C   UNL     1      -8.935   6.484  71.757  1.00  0.00    -0.138 C  
HETATM    5  H   UNL     1      -8.049   4.931  72.798  1.00  0.00     0.000 HD 
HETATM    6  N   UNL     1      -8.922   5.104  72.299  1.00  0.00    -0.128 NA 
HETATM    7  C   UNL     1      -9.088   7.483  72.919  1.00  0.00    -0.211 C  
HETATM    8  C   UNL     1     -10.281   7.164  73.821  1.00  0.00    -0.395 C  
HETATM    9  C   UNL     1     -10.061   4.762  73.145  1.00  0.00    -0.162 C  
HETATM   10  C   UNL     1     -10.194   5.729  74.319  1.00  0.00    -0.294 C  
ENDBRANCH   2   4
BRANCH   2  11
HETATM   11  C   UNL     1      -9.780   8.052  69.849  1.00  0.00    -0.180 A  
HETATM   12  C   UNL     1      -7.471   9.481  67.159  1.00  0.00    -0.091 C  
HETATM   13  C   UNL     1     -10.391  10.354  69.300  1.00  0.00    -0.230 A  
HETATM   14  F   UNL     1      -7.928   9.741  65.900  1.00  0.00    -0.105 F  
HETATM   15  F   UNL     1      -6.592  10.483  67.455  1.00  0.00    -0.063 F  
HETATM   16  C   UNL     1      -8.586   9.348  68.188  1.00  0.00    -0.120 A  
HETATM   17  F   UNL     1      -6.706   8.355  67.040  1.00  0.00    -0.058 F  
HETATM   18  C   UNL     1      -8.750   8.168  68.897  1.00  0.00    -0.137 A  
HETATM   19  C   UNL     1     -10.612   9.188  70.080  1.00  0.00    -0.258 A  
HETATM   20  N   UNL     1      -9.409  10.411  68.391  1.00  0.00    -0.145 NA 
HETATM   21  C   UNL     1     -11.641   9.226  71.050  1.00  0.00    -0.380 A  
HETATM   22  C   UNL     1     -12.384  10.374  71.296  1.00  0.00    -0.507 A  
HETATM   23  C   UNL     1     -12.172  11.491  70.511  1.00  0.00    -0.469 A  
HETATM   24  C   UNL     1     -11.206  11.472  69.487  1.00  0.00    -0.305 A  
HETATM   25  C   UNL     1     -11.111  12.694  68.610  1.00  0.00    -0.266 C  
HETATM   26  F   UNL     1     -12.337  13.024  68.098  1.00  0.00    -0.313 F  
HETATM   27  F   UNL     1     -10.288  12.632  67.530  1.00  0.00    -0.211 F  
HETATM   28  F   UNL     1     -10.718  13.798  69.313  1.00  0.00    -0.239 F  
ENDBRANCH   2  11
TORSDOF 2
ENDMDL
MODEL       73
REMARK 921   NORMALIZED FREE ENERGY PREDICTED BY IDOCK:   -5.18 KCAL/MOL
REMARK 922        TOTAL FREE ENERGY PREDICTED BY IDOCK:   -6.52 KCAL/MOL
REMARK 923 INTER-LIGAND FREE ENERGY PREDICTED BY IDOCK:   -5.97 KCAL/MOL
REMARK 924 INTRA-LIGAND FREE ENERGY PREDICTED BY IDOCK:   -0.56 KCAL/MOL
REMARK 927      BINDING AFFINITY PREDICTED BY RF-SCORE:    0.00 PKD
ROOT
HETATM    1  O   UNL     1     -10.797  10.294  65.719  1.00  0.00     0.032 OA 
HETATM    2  C   UNL     1     -10.415  10.149  67.102  1.00  0.00    -0.246 C  
HETATM    3  H   UNL     1     -11.736  10.429  65.677  1.00  0.00     0.000 HD 
ENDROOT
BRANCH   2   4
HETATM    4  C   UNL     1      -8.862   9.925  67.171  1.00  0.00    -0.138 C  
HETATM    5  H   UNL     1      -7.438   8.543  66.587  1.00  0.00     0.000 HD 
HETATM    6  N   UNL     1      -8.422   8.545  66.856  1.00  0.00    -0.112 NA 
HETATM    7  C   UNL     1      -8.221  10.370  68.500  1.00  0.00    -0.119 C  
HETATM    8  C   UNL     1      -8.459   9.372  69.634  1.00  0.00    -0.166 C  
HETATM    9  C   UNL     1      -8.658   7.566  67.911  1.00  0.00    -0.121 C  
HETATM   10  C   UNL     1      -7.993   7.985  69.220  1.00  0.00    -0.116 C  
ENDBRANCH   2   4
BRANCH   2  11
HETATM   11  C   UNL     1     -10.910  11.403  67.831  1.00  0.00    -0.274 A  
HETATM   12  C   UNL     1     -11.193  15.135  67.055  1.00  0.00    -0.308 C  
HETATM   13  C   UNL     1     -11.933  12.612  69.693  1.00  0.00    -0.286 A  
HETATM   14  F   UNL     1     -12.406  15.724  66.848  1.00  0.00     0.559 F  
HETATM   15  F   UNL     1     -10.442  16.048  67.737  1.00  0.00    -0.265 F  
HETATM   16  C   UNL     1     -11.290  13.794  67.771  1.00  0.00    -0.303 A  
HETATM   17  F   UNL     1     -10.618  15.049  65.818  1.00  0.00    -0.282 F  
HETATM   18  C   UNL     1     -10.820  12.639  67.164  1.00  0.00    -0.282 A  
HETATM   19  C   UNL     1     -11.457  11.389  69.149  1.00  0.00    -0.365 A  
HETATM   20  N   UNL     1     -11.844  13.762  69.012  1.00  0.00    -0.338 NA 
HETATM   21  C   UNL     1     -11.547  10.228  69.951  1.00  0.00    -0.326 A  
HETATM   22  C   UNL     1     -12.021  10.266  71.257  1.00  0.00    -0.457 A  
HETATM   23  C   UNL     1     -12.502  11.459  71.762  1.00  0.00    -0.103 A  
HETATM   24  C   UNL     1     -12.497  12.623  70.970  1.00  0.00    -0.354 A  
HETATM   25  C   UNL     1     -13.134  13.857  71.558  1.00  0.00    -0.365 C  
HETATM   26  F   UNL     1     -14.403  13.588  71.996  1.00  0.00    -0.479 F  
HETATM   27  F   UNL     1     -13.267  14.943  70.751  1.00  0.00    -0.391 F  
HETATM   28  F   UNL     1     -12.468  14.297  72.666  1.00  0.00    -0.363 F  
ENDBRANCH   2  11
TORSDOF 2
ENDMDL
MODEL       74
REMARK 921   NORMALIZED FREE ENERGY PREDICTED BY IDOCK:   -5.16 KCAL/MOL
REMARK 922        TOTAL FREE ENERGY PREDICTED BY IDOCK:   -6.51 KCAL/MOL
REMARK 923 INTER-LIGAND FREE ENERGY PREDICTED BY IDOCK:   -6.13 KCAL/MOL
REMARK 924 INTRA-LIGAND FREE ENERGY PREDICTED BY IDOCK:   -0.37 KCAL/MOL
REMARK 927      BINDING AFFINITY PREDICTED BY RF-SCORE:    0.00 PKD
ROOT
HETATM    1  O   UNL     1      -8.127   5.919  68.087  1.00  0.00    -0.107 OA 
HETATM    2  C   UNL     1      -9.248   6.256  67.245  1.00  0.00    -0.118 C  
HETATM    3  H   UNL     1      -7.568   6.683  68.168  1.00  0.00     0.000 HD 
ENDROOT
BRANCH   2   4
HETATM    4  C   UNL     1     -10.172   4.993  67.112  1.00  0.00    -0.186 C  
HETATM    5  H   UNL     1     -10.340   3.073  67.863  1.00  0.00     0.000 HD 
HETATM    6  N   UNL     1      -9.598   3.746  67.671  1.00  0.00    -0.179 NA 
HETATM    7  C   UNL     1     -10.668   4.724  65.679  1.00  0.00    -0.188 C  
HETATM    8  C   UNL     1      -9.598   4.087  64.792  1.00  0.00    -0.178 C  
HETATM    9  C   UNL     1      -8.556   3.128  66.858  1.00  0.00    -0.114 C  
HETATM   10  C   UNL     1      -9.056   2.826  65.447  1.00  0.00    -0.145 C  
ENDBRANCH   2   4
BRANCH   2  11
HETATM   11  C   UNL     1      -9.926   7.477  67.877  1.00  0.00    -0.203 A  
HETATM   12  C   UNL     1     -11.583   8.309  71.220  1.00  0.00    -0.281 C  
HETATM   13  C   UNL     1     -10.667   9.805  67.934  1.00  0.00    -0.258 A  
HETATM   14  F   UNL     1     -10.988   9.150  72.114  1.00  0.00    -0.414 F  
HETATM   15  F   UNL     1     -12.921   8.572  71.288  1.00  0.00    -0.313 F  
HETATM   16  C   UNL     1     -11.026   8.439  69.808  1.00  0.00    -0.127 A  
HETATM   17  F   UNL     1     -11.435   7.058  71.747  1.00  0.00    -0.258 F  
HETATM   18  C   UNL     1     -10.437   7.351  69.182  1.00  0.00    -0.217 A  
HETATM   19  C   UNL     1     -10.069   8.734  67.218  1.00  0.00    -0.301 A  
HETATM   20  N   UNL     1     -11.121   9.644  69.183  1.00  0.00    -0.149 NA 
HETATM   21  C   UNL     1      -9.656   8.976  65.887  1.00  0.00    -0.317 A  
HETATM   22  C   UNL     1      -9.876  10.194  65.254  1.00  0.00    -0.388 A  
HETATM   23  C   UNL     1     -10.437  11.232  65.973  1.00  0.00    -0.310 A  
HETATM   24  C   UNL     1     -10.796  11.054  67.323  1.00  0.00    -0.335 A  
HETATM   25  C   UNL     1     -11.304  12.264  68.064  1.00  0.00    -0.293 C  
HETATM   26  F   UNL     1     -10.433  13.313  67.941  1.00  0.00    -0.222 F  
HETATM   27  F   UNL     1     -11.515  12.142  69.401  1.00  0.00    -0.290 F  
HETATM   28  F   UNL     1     -12.480  12.725  67.544  1.00  0.00    -0.241 F  
ENDBRANCH   2  11
TORSDOF 2
ENDMDL
MODEL       75
REMARK 921   NORMALIZED FREE ENERGY PREDICTED BY IDOCK:   -5.16 KCAL/MOL
REMARK 922        TOTAL FREE ENERGY PREDICTED BY IDOCK:   -6.50 KCAL/MOL
REMARK 923 INTER-LIGAND FREE ENERGY PREDICTED BY IDOCK:   -6.73 KCAL/MOL
REMARK 924 INTRA-LIGAND FREE ENERGY PREDICTED BY IDOCK:    0.23 KCAL/MOL
REMARK 927      BINDING AFFINITY PREDICTED BY RF-SCORE:    0.00 PKD
ROOT
HETATM    1  O   UNL     1     -11.376   7.162  69.499  1.00  0.00    -0.464 OA 
HETATM    2  C   UNL     1     -11.320   8.413  70.214  1.00  0.00    -0.129 C  
HETATM    3  H   UNL     1     -12.035   7.232  68.817  1.00  0.00     0.000 HD 
ENDROOT
BRANCH   2   4
HETATM    4  C   UNL     1     -10.231   8.298  71.340  1.00  0.00    -0.207 C  
HETATM    5  H   UNL     1      -8.766   9.445  72.243  1.00  0.00     0.000 HD 
HETATM    6  N   UNL     1      -9.216   9.378  71.330  1.00  0.00    -0.245 NA 
HETATM    7  C   UNL     1      -9.518   6.933  71.388  1.00  0.00    -0.160 C  
HETATM    8  C   UNL     1      -8.463   6.778  70.291  1.00  0.00    -0.135 C  
HETATM    9  C   UNL     1      -8.209   9.270  70.280  1.00  0.00    -0.172 C  
HETATM   10  C   UNL     1      -7.474   7.933  70.347  1.00  0.00    -0.077 C  
ENDBRANCH   2   4
BRANCH   2  11
HETATM   11  C   UNL     1     -11.047   9.506  69.174  1.00  0.00    -0.082 A  
HETATM   12  C   UNL     1      -9.383   9.713  65.739  1.00  0.00    -0.228 C  
HETATM   13  C   UNL     1     -11.183  11.771  68.268  1.00  0.00    -0.255 A  
HETATM   14  F   UNL     1     -10.119   9.908  64.607  1.00  0.00    -0.388 F  
HETATM   15  F   UNL     1      -8.229  10.422  65.564  1.00  0.00    -0.139 F  
HETATM   16  C   UNL     1     -10.125  10.094  67.013  1.00  0.00    -0.223 A  
HETATM   17  F   UNL     1      -9.006   8.400  65.703  1.00  0.00    -0.187 F  
HETATM   18  C   UNL     1     -10.362   9.147  67.998  1.00  0.00    -0.272 A  
HETATM   19  C   UNL     1     -11.447  10.866  69.330  1.00  0.00    -0.372 A  
HETATM   20  N   UNL     1     -10.546  11.379  67.157  1.00  0.00    -0.230 NA 
HETATM   21  C   UNL     1     -12.084  11.371  70.487  1.00  0.00    -0.487 A  
HETATM   22  C   UNL     1     -12.396  12.717  70.632  1.00  0.00    -0.381 A  
HETATM   23  C   UNL     1     -12.154  13.579  69.579  1.00  0.00    -0.352 A  
HETATM   24  C   UNL     1     -11.586  13.103  68.382  1.00  0.00    -0.372 A  
HETATM   25  C   UNL     1     -11.453  14.086  67.246  1.00  0.00    -0.348 C  
HETATM   26  F   UNL     1     -12.648  14.701  66.991  1.00  0.00    -0.280 F  
HETATM   27  F   UNL     1     -11.044  13.605  66.043  1.00  0.00    -0.291 F  
HETATM   28  F   UNL     1     -10.594  15.104  67.551  1.00  0.00    -0.251 F  
ENDBRANCH   2  11
TORSDOF 2
ENDMDL
MODEL       76
REMARK 921   NORMALIZED FREE ENERGY PREDICTED BY IDOCK:   -5.14 KCAL/MOL
REMARK 922        TOTAL FREE ENERGY PREDICTED BY IDOCK:   -6.48 KCAL/MOL
REMARK 923 INTER-LIGAND FREE ENERGY PREDICTED BY IDOCK:   -5.86 KCAL/MOL
REMARK 924 INTRA-LIGAND FREE ENERGY PREDICTED BY IDOCK:   -0.62 KCAL/MOL
REMARK 927      BINDING AFFINITY PREDICTED BY RF-SCORE:    0.00 PKD
ROOT
HETATM    1  O   UNL     1     -10.155   7.836  65.887  1.00  0.00    -0.298 OA 
HETATM    2  C   UNL     1      -9.918   8.083  67.287  1.00  0.00    -0.217 C  
HETATM    3  H   UNL     1     -11.065   8.029  65.695  1.00  0.00     0.000 HD 
ENDROOT
BRANCH   2   4
HETATM    4  C   UNL     1      -8.413   7.764  67.604  1.00  0.00    -0.121 C  
HETATM    5  H   UNL     1      -6.893   6.517  66.960  1.00  0.00     0.000 HD 
HETATM    6  N   UNL     1      -7.911   6.500  67.014  1.00  0.00    -0.111 NA 
HETATM    7  C   UNL     1      -8.065   7.795  69.104  1.00  0.00    -0.125 C  
HETATM    8  C   UNL     1      -8.532   6.542  69.846  1.00  0.00    -0.135 C  
HETATM    9  C   UNL     1      -8.360   5.285  67.686  1.00  0.00    -0.106 C  
HETATM   10  C   UNL     1      -7.984   5.296  69.166  1.00  0.00    -0.089 C  
ENDBRANCH   2   4
BRANCH   2  11
HETATM   11  C   UNL     1     -10.331   9.534  67.558  1.00  0.00    -0.306 A  
HETATM   12  C   UNL     1     -10.392  12.813  65.594  1.00  0.00    -0.279 C  
HETATM   13  C   UNL     1     -11.267  11.346  68.904  1.00  0.00    -0.248 A  
HETATM   14  F   UNL     1     -11.568  13.373  65.188  1.00  0.00    -0.306 F  
HETATM   15  F   UNL     1      -9.583  13.853  65.950  1.00  0.00    -0.290 F  
HETATM   16  C   UNL     1     -10.565  11.790  66.709  1.00  0.00    -0.238 A  
HETATM   17  F   UNL     1      -9.830  12.291  64.463  1.00  0.00    -0.256 F  
HETATM   18  C   UNL     1     -10.171  10.474  66.522  1.00  0.00    -0.288 A  
HETATM   19  C   UNL     1     -10.870   9.986  68.798  1.00  0.00    -0.252 A  
HETATM   20  N   UNL     1     -11.114  12.200  67.884  1.00  0.00    -0.229 NA 
HETATM   21  C   UNL     1     -11.026   9.161  69.936  1.00  0.00    -0.218 A  
HETATM   22  C   UNL     1     -11.489   9.654  71.150  1.00  0.00    -0.456 A  
HETATM   23  C   UNL     1     -11.893  10.973  71.228  1.00  0.00     0.028 A  
HETATM   24  C   UNL     1     -11.822  11.810  70.098  1.00  0.00    -0.408 A  
HETATM   25  C   UNL     1     -12.380  13.204  70.239  1.00  0.00    -0.249 C  
HETATM   26  F   UNL     1     -13.660  13.170  70.723  1.00  0.00     0.051 F  
HETATM   27  F   UNL     1     -12.451  13.970  69.118  1.00  0.00    -0.373 F  
HETATM   28  F   UNL     1     -11.681  13.943  71.150  1.00  0.00    -0.343 F  
ENDBRANCH   2  11
TORSDOF 2
ENDMDL
MODEL       77
REMARK 921   NORMALIZED FREE ENERGY PREDICTED BY IDOCK:   -5.12 KCAL/MOL
REMARK 922        TOTAL FREE ENERGY PREDICTED BY IDOCK:   -6.46 KCAL/MOL
REMARK 923 INTER-LIGAND FREE ENERGY PREDICTED BY IDOCK:   -6.41 KCAL/MOL
REMARK 924 INTRA-LIGAND FREE ENERGY PREDICTED BY IDOCK:   -0.05 KCAL/MOL
REMARK 927      BINDING AFFINITY PREDICTED BY RF-SCORE:    0.00 PKD
ROOT
HETATM    1  O   UNL     1      -8.888   8.955  72.227  1.00  0.00    -0.397 OA 
HETATM    2  C   UNL     1      -9.485   8.149  71.191  1.00  0.00    -0.157 C  
HETATM    3  H   UNL     1      -8.015   9.207  71.950  1.00  0.00     0.000 HD 
ENDROOT
BRANCH   2   4
HETATM    4  C   UNL     1     -10.928   7.732  71.649  1.00  0.00    -0.235 C  
HETATM    5  H   UNL     1     -12.113   7.748  73.345  1.00  0.00     0.000 HD 
HETATM    6  N   UNL     1     -11.121   7.686  73.118  1.00  0.00    -0.388 NA 
HETATM    7  C   UNL     1     -11.427   6.412  71.031  1.00  0.00    -0.394 C  
HETATM    8  C   UNL     1     -10.813   5.179  71.695  1.00  0.00    -0.124 C  
HETATM    9  C   UNL     1     -10.524   6.532  73.783  1.00  0.00    -0.315 C  
HETATM   10  C   UNL     1     -11.045   5.221  73.198  1.00  0.00    -0.384 C  
ENDBRANCH   2   4
BRANCH   2  11
HETATM   11  C   UNL     1      -9.442   8.981  69.904  1.00  0.00    -0.186 A  
HETATM   12  C   UNL     1      -7.348   9.038  66.706  1.00  0.00    -0.086 C  
HETATM   13  C   UNL     1     -10.231  10.710  68.368  1.00  0.00    -0.173 A  
HETATM   14  F   UNL     1      -7.873   8.644  65.510  1.00  0.00    -0.088 F  
HETATM   15  F   UNL     1      -6.529  10.094  66.428  1.00  0.00    -0.068 F  
HETATM   16  C   UNL     1      -8.408   9.370  67.748  1.00  0.00    -0.115 A  
HETATM   17  F   UNL     1      -6.512   8.025  67.086  1.00  0.00    -0.051 F  
HETATM   18  C   UNL     1      -8.461   8.668  68.943  1.00  0.00    -0.129 A  
HETATM   19  C   UNL     1     -10.339  10.054  69.623  1.00  0.00    -0.274 A  
HETATM   20  N   UNL     1      -9.294  10.365  67.476  1.00  0.00    -0.148 NA 
HETATM   21  C   UNL     1     -11.327  10.510  70.526  1.00  0.00    -0.400 A  
HETATM   22  C   UNL     1     -12.137  11.604  70.246  1.00  0.00    -0.443 A  
HETATM   23  C   UNL     1     -12.035  12.215  69.011  1.00  0.00    -0.302 A  
HETATM   24  C   UNL     1     -11.113  11.747  68.056  1.00  0.00    -0.297 A  
HETATM   25  C   UNL     1     -11.138  12.402  66.698  1.00  0.00    -0.289 C  
HETATM   26  F   UNL     1     -12.404  12.395  66.177  1.00  0.00    -0.444 F  
HETATM   27  F   UNL     1     -10.357  11.863  65.725  1.00  0.00    -0.247 F  
HETATM   28  F   UNL     1     -10.793  13.722  66.762  1.00  0.00    -0.278 F  
ENDBRANCH   2  11
TORSDOF 2
ENDMDL
MODEL       78
REMARK 921   NORMALIZED FREE ENERGY PREDICTED BY IDOCK:   -5.11 KCAL/MOL
REMARK 922        TOTAL FREE ENERGY PREDICTED BY IDOCK:   -6.44 KCAL/MOL
REMARK 923 INTER-LIGAND FREE ENERGY PREDICTED BY IDOCK:   -5.60 KCAL/MOL
REMARK 924 INTRA-LIGAND FREE ENERGY PREDICTED BY IDOCK:   -0.85 KCAL/MOL
REMARK 927      BINDING AFFINITY PREDICTED BY RF-SCORE:    0.00 PKD
ROOT
HETATM    1  O   UNL     1      -9.240   7.886  65.516  1.00  0.00    -0.392 OA 
HETATM    2  C   UNL     1      -8.935   7.590  66.894  1.00  0.00    -0.135 C  
HETATM    3  H   UNL     1     -10.178   7.803  65.389  1.00  0.00     0.000 HD 
ENDROOT
BRANCH   2   4
HETATM    4  C   UNL     1      -7.384   7.728  67.104  1.00  0.00    -0.091 C  
HETATM    5  H   UNL     1      -5.615   7.354  66.100  1.00  0.00     0.000 HD 
HETATM    6  N   UNL     1      -6.559   6.970  66.134  1.00  0.00    -0.051 NA 
HETATM    7  C   UNL     1      -6.911   7.403  68.533  1.00  0.00    -0.079 C  
HETATM    8  C   UNL     1      -6.858   5.901  68.812  1.00  0.00    -0.066 C  
HETATM    9  C   UNL     1      -6.509   5.529  66.360  1.00  0.00    -0.047 C  
HETATM   10  C   UNL     1      -6.005   5.202  67.763  1.00  0.00    -0.022 C  
ENDBRANCH   2   4
BRANCH   2  11
HETATM   11  C   UNL     1      -9.780   8.540  67.750  1.00  0.00    -0.199 A  
HETATM   12  C   UNL     1     -10.762  12.233  67.648  1.00  0.00    -0.220 C  
HETATM   13  C   UNL     1     -11.272   9.102  69.601  1.00  0.00    -0.009 A  
HETATM   14  F   UNL     1     -12.037  12.617  67.351  1.00  0.00    -0.418 F  
HETATM   15  F   UNL     1     -10.322  13.098  68.608  1.00  0.00    -0.234 F  
HETATM   16  C   UNL     1     -10.657  10.774  68.073  1.00  0.00    -0.207 A  
HETATM   17  F   UNL     1     -10.027  12.527  66.535  1.00  0.00    -0.223 F  
HETATM   18  C   UNL     1      -9.875   9.886  67.350  1.00  0.00    -0.223 A  
HETATM   19  C   UNL     1     -10.477   8.138  68.927  1.00  0.00    -0.202 A  
HETATM   20  N   UNL     1     -11.348  10.369  69.173  1.00  0.00    -0.240 NA 
HETATM   21  C   UNL     1     -10.416   6.834  69.471  1.00  0.00    -0.248 A  
HETATM   22  C   UNL     1     -11.052   6.497  70.660  1.00  0.00    -0.364 A  
HETATM   23  C   UNL     1     -11.841   7.441  71.289  1.00  0.00    -0.330 A  
HETATM   24  C   UNL     1     -11.986   8.730  70.742  1.00  0.00    -0.161 A  
HETATM   25  C   UNL     1     -12.946   9.666  71.432  1.00  0.00    -0.385 C  
HETATM   26  F   UNL     1     -14.172   9.077  71.589  1.00  0.00    -0.409 F  
HETATM   27  F   UNL     1     -13.205  10.857  70.832  1.00  0.00    -0.383 F  
HETATM   28  F   UNL     1     -12.540   9.969  72.701  1.00  0.00    -0.261 F  
ENDBRANCH   2  11
TORSDOF 2
ENDMDL
MODEL       79
REMARK 921   NORMALIZED FREE ENERGY PREDICTED BY IDOCK:   -5.07 KCAL/MOL
REMARK 922        TOTAL FREE ENERGY PREDICTED BY IDOCK:   -6.40 KCAL/MOL
REMARK 923 INTER-LIGAND FREE ENERGY PREDICTED BY IDOCK:   -6.79 KCAL/MOL
REMARK 924 INTRA-LIGAND FREE ENERGY PREDICTED BY IDOCK:    0.39 KCAL/MOL
REMARK 927      BINDING AFFINITY PREDICTED BY RF-SCORE:    0.00 PKD
ROOT
HETATM    1  O   UNL     1     -11.621  13.116  69.839  1.00  0.00    -0.448 OA 
HETATM    2  C   UNL     1     -11.881  13.608  68.509  1.00  0.00    -0.371 C  
HETATM    3  H   UNL     1     -11.604  12.166  69.812  1.00  0.00     0.000 HD 
ENDROOT
BRANCH   2   4
HETATM    4  C   UNL     1     -11.910  15.178  68.553  1.00  0.00    -0.281 C  
HETATM    5  H   UNL     1     -11.870  16.795  67.263  1.00  0.00     0.000 HD 
HETATM    6  N   UNL     1     -11.516  15.839  67.286  1.00  0.00    -0.066 NA 
HETATM    7  C   UNL     1     -11.104  15.789  69.714  1.00  0.00    -0.322 C  
HETATM    8  C   UNL     1      -9.596  15.781  69.458  1.00  0.00    -0.262 C  
HETATM    9  C   UNL     1     -10.085  15.826  67.001  1.00  0.00    -0.261 C  
HETATM   10  C   UNL     1      -9.286  16.465  68.134  1.00  0.00    -0.201 C  
ENDBRANCH   2   4
BRANCH   2  11
HETATM   11  C   UNL     1     -10.799  13.017  67.598  1.00  0.00    -0.256 A  
HETATM   12  C   UNL     1      -7.082  12.173  67.893  1.00  0.00    -0.101 C  
HETATM   13  C   UNL     1      -9.961  12.011  65.535  1.00  0.00    -0.241 A  
HETATM   14  F   UNL     1      -6.653  10.879  67.938  1.00  0.00    -0.060 F  
HETATM   15  F   UNL     1      -6.153  12.853  67.160  1.00  0.00    -0.158 F  
HETATM   16  C   UNL     1      -8.494  12.319  67.340  1.00  0.00    -0.176 A  
HETATM   17  F   UNL     1      -6.948  12.643  69.169  1.00  0.00    -0.100 F  
HETATM   18  C   UNL     1      -9.497  12.882  68.115  1.00  0.00    -0.218 A  
HETATM   19  C   UNL     1     -11.036  12.595  66.256  1.00  0.00    -0.314 A  
HETATM   20  N   UNL     1      -8.742  11.885  66.075  1.00  0.00    -0.025 NA 
HETATM   21  C   UNL     1     -12.279  12.731  65.596  1.00  0.00    -0.503 A  
HETATM   22  C   UNL     1     -12.454  12.373  64.265  1.00  0.00    -0.529 A  
HETATM   23  C   UNL     1     -11.404  11.784  63.586  1.00  0.00    -0.525 A  
HETATM   24  C   UNL     1     -10.171  11.565  64.229  1.00  0.00    -0.361 A  
HETATM   25  C   UNL     1      -9.113  10.823  63.451  1.00  0.00    -0.235 C  
HETATM   26  F   UNL     1      -9.606   9.645  62.958  1.00  0.00    -0.273 F  
HETATM   27  F   UNL     1      -7.975  10.477  64.108  1.00  0.00    -0.158 F  
HETATM   28  F   UNL     1      -8.708  11.520  62.348  1.00  0.00    -0.344 F  
ENDBRANCH   2  11
TORSDOF 2
ENDMDL
MODEL       80
REMARK 921   NORMALIZED FREE ENERGY PREDICTED BY IDOCK:   -5.03 KCAL/MOL
REMARK 922        TOTAL FREE ENERGY PREDICTED BY IDOCK:   -6.36 KCAL/MOL
REMARK 923 INTER-LIGAND FREE ENERGY PREDICTED BY IDOCK:   -6.66 KCAL/MOL
REMARK 924 INTRA-LIGAND FREE ENERGY PREDICTED BY IDOCK:    0.30 KCAL/MOL
REMARK 927      BINDING AFFINITY PREDICTED BY RF-SCORE:    0.00 PKD
ROOT
HETATM    1  O   UNL     1     -10.632   7.240  67.322  1.00  0.00    -0.268 OA 
HETATM    2  C   UNL     1     -10.512   8.489  68.032  1.00  0.00    -0.191 C  
HETATM    3  H   UNL     1     -11.377   7.296  66.734  1.00  0.00     0.000 HD 
ENDROOT
BRANCH   2   4
HETATM    4  C   UNL     1      -9.280   8.395  69.003  1.00  0.00    -0.147 C  
HETATM    5  H   UNL     1      -7.723   9.567  69.696  1.00  0.00     0.000 HD 
HETATM    6  N   UNL     1      -8.290   9.488  68.852  1.00  0.00    -0.118 NA 
HETATM    7  C   UNL     1      -8.550   7.040  68.964  1.00  0.00    -0.129 C  
HETATM    8  C   UNL     1      -7.648   6.889  67.738  1.00  0.00    -0.107 C  
HETATM    9  C   UNL     1      -7.431   9.383  67.677  1.00  0.00    -0.087 C  
HETATM   10  C   UNL     1      -6.676   8.056  67.654  1.00  0.00    -0.069 C  
ENDBRANCH   2   4
BRANCH   2  11
HETATM   11  C   UNL     1     -10.404   9.592  66.973  1.00  0.00    -0.319 A  
HETATM   12  C   UNL     1      -9.051   9.896  63.411  1.00  0.00    -0.261 C  
HETATM   13  C   UNL     1     -10.776  11.836  66.081  1.00  0.00    -0.277 A  
HETATM   14  F   UNL     1      -9.891  10.032  62.345  1.00  0.00    -0.276 F  
HETATM   15  F   UNL     1      -7.969  10.683  63.141  1.00  0.00    -0.155 F  
HETATM   16  C   UNL     1      -9.710  10.231  64.743  1.00  0.00    -0.332 A  
HETATM   17  F   UNL     1      -8.586   8.612  63.344  1.00  0.00    -0.187 F  
HETATM   18  C   UNL     1      -9.796   9.275  65.744  1.00  0.00    -0.302 A  
HETATM   19  C   UNL     1     -10.885  10.921  67.162  1.00  0.00    -0.337 A  
HETATM   20  N   UNL     1     -10.207  11.484  64.921  1.00  0.00    -0.260 NA 
HETATM   21  C   UNL     1     -11.459  11.387  68.368  1.00  0.00    -0.367 A  
HETATM   22  C   UNL     1     -11.852  12.708  68.538  1.00  0.00    -0.342 A  
HETATM   23  C   UNL     1     -11.761  13.579  67.469  1.00  0.00    -0.403 A  
HETATM   24  C   UNL     1     -11.262  13.137  66.229  1.00  0.00    -0.328 A  
HETATM   25  C   UNL     1     -11.294  14.120  65.086  1.00  0.00    -0.336 C  
HETATM   26  F   UNL     1     -12.547  14.647  64.931  1.00  0.00    -0.419 F  
HETATM   27  F   UNL     1     -10.953  13.662  63.852  1.00  0.00    -0.329 F  
HETATM   28  F   UNL     1     -10.488  15.198  65.317  1.00  0.00    -0.314 F  
ENDBRANCH   2  11
TORSDOF 2
ENDMDL
MODEL       81
REMARK 921   NORMALIZED FREE ENERGY PREDICTED BY IDOCK:   -5.03 KCAL/MOL
REMARK 922        TOTAL FREE ENERGY PREDICTED BY IDOCK:   -6.36 KCAL/MOL
REMARK 923 INTER-LIGAND FREE ENERGY PREDICTED BY IDOCK:   -5.47 KCAL/MOL
REMARK 924 INTRA-LIGAND FREE ENERGY PREDICTED BY IDOCK:   -0.89 KCAL/MOL
REMARK 927      BINDING AFFINITY PREDICTED BY RF-SCORE:    0.00 PKD
ROOT
HETATM    1  O   UNL     1     -11.109   7.605  67.388  1.00  0.00    -0.537 OA 
HETATM    2  C   UNL     1     -10.987   8.417  68.573  1.00  0.00     0.211 C  
HETATM    3  H   UNL     1     -11.482   8.136  66.694  1.00  0.00     0.000 HD 
ENDROOT
BRANCH   2   4
HETATM    4  C   UNL     1     -10.369   7.538  69.720  1.00  0.00    -0.221 C  
HETATM    5  H   UNL     1     -10.595   5.667  70.572  1.00  0.00     0.000 HD 
HETATM    6  N   UNL     1     -11.179   6.355  70.096  1.00  0.00    -0.359 NA 
HETATM    7  C   UNL     1     -10.006   8.328  70.992  1.00  0.00    -0.226 C  
HETATM    8  C   UNL     1     -11.227   8.665  71.848  1.00  0.00    -0.413 C  
HETATM    9  C   UNL     1     -12.365   6.647  70.894  1.00  0.00    -0.201 C  
HETATM   10  C   UNL     1     -12.005   7.398  72.174  1.00  0.00    -0.307 C  
ENDBRANCH   2   4
BRANCH   2  11
HETATM   11  C   UNL     1     -10.148   9.641  68.188  1.00  0.00    -0.205 A  
HETATM   12  C   UNL     1      -6.812  10.277  66.433  1.00  0.00    -0.106 C  
HETATM   13  C   UNL     1      -9.702  12.035  67.992  1.00  0.00    -0.198 A  
HETATM   14  F   UNL     1      -6.763  10.821  65.183  1.00  0.00    -0.100 F  
HETATM   15  F   UNL     1      -5.755  10.806  67.116  1.00  0.00    -0.040 F  
HETATM   16  C   UNL     1      -8.144  10.503  67.136  1.00  0.00    -0.120 A  
HETATM   17  F   UNL     1      -6.506   8.956  66.265  1.00  0.00    -0.061 F  
HETATM   18  C   UNL     1      -8.919   9.425  67.536  1.00  0.00    -0.130 A  
HETATM   19  C   UNL     1     -10.542  10.986  68.451  1.00  0.00    -0.224 A  
HETATM   20  N   UNL     1      -8.549  11.782  67.359  1.00  0.00    -0.154 NA 
HETATM   21  C   UNL     1     -11.719  11.339  69.151  1.00  0.00    -0.410 A  
HETATM   22  C   UNL     1     -12.035  12.658  69.450  1.00  0.00    -0.318 A  
HETATM   23  C   UNL     1     -11.219  13.668  68.976  1.00  0.00    -0.316 A  
HETATM   24  C   UNL     1     -10.075  13.362  68.213  1.00  0.00    -0.247 A  
HETATM   25  C   UNL     1      -9.298  14.523  67.645  1.00  0.00    -0.202 C  
HETATM   26  F   UNL     1     -10.120  15.366  66.948  1.00  0.00    -0.243 F  
HETATM   27  F   UNL     1      -8.281  14.241  66.789  1.00  0.00    -0.194 F  
HETATM   28  F   UNL     1      -8.752  15.300  68.627  1.00  0.00    -0.152 F  
ENDBRANCH   2  11
TORSDOF 2
ENDMDL
MODEL       82
REMARK 921   NORMALIZED FREE ENERGY PREDICTED BY IDOCK:   -5.02 KCAL/MOL
REMARK 922        TOTAL FREE ENERGY PREDICTED BY IDOCK:   -6.35 KCAL/MOL
REMARK 923 INTER-LIGAND FREE ENERGY PREDICTED BY IDOCK:   -6.01 KCAL/MOL
REMARK 924 INTRA-LIGAND FREE ENERGY PREDICTED BY IDOCK:   -0.34 KCAL/MOL
REMARK 927      BINDING AFFINITY PREDICTED BY RF-SCORE:    0.00 PKD
ROOT
HETATM    1  O   UNL     1      -8.548  12.432  65.985  1.00  0.00    -0.386 OA 
HETATM    2  C   UNL     1      -9.475  13.535  65.936  1.00  0.00    -0.025 C  
HETATM    3  H   UNL     1      -7.678  12.759  65.793  1.00  0.00     0.000 HD 
ENDROOT
BRANCH   2   4
HETATM    4  C   UNL     1     -10.915  12.994  66.255  1.00  0.00    -0.284 C  
HETATM    5  H   UNL     1     -11.903  11.196  66.526  1.00  0.00     0.000 HD 
HETATM    6  N   UNL     1     -11.101  11.546  66.000  1.00  0.00    -0.270 NA 
HETATM    7  C   UNL     1     -12.048  13.778  65.567  1.00  0.00    -0.434 C  
HETATM    8  C   UNL     1     -12.197  13.427  64.086  1.00  0.00    -0.457 C  
HETATM    9  C   UNL     1     -11.222  11.177  64.594  1.00  0.00     0.018 C  
HETATM   10  C   UNL     1     -12.369  11.925  63.918  1.00  0.00    -0.488 C  
ENDBRANCH   2   4
BRANCH   2  11
HETATM   11  C   UNL     1      -8.960  14.590  66.921  1.00  0.00    -0.267 A  
HETATM   12  C   UNL     1      -6.574  14.668  69.907  1.00  0.00    -0.167 C  
HETATM   13  C   UNL     1      -8.745  16.855  67.815  1.00  0.00    -0.212 A  
HETATM   14  F   UNL     1      -5.357  15.278  69.824  1.00  0.00    -0.095 F  
HETATM   15  F   UNL     1      -7.039  14.926  71.164  1.00  0.00     0.358 F  
HETATM   16  C   UNL     1      -7.543  15.106  68.816  1.00  0.00    -0.136 A  
HETATM   17  F   UNL     1      -6.309  13.328  69.890  1.00  0.00    -0.126 F  
HETATM   18  C   UNL     1      -8.063  14.180  67.926  1.00  0.00    -0.154 A  
HETATM   19  C   UNL     1      -9.337  15.966  66.879  1.00  0.00    -0.244 A  
HETATM   20  N   UNL     1      -7.880  16.422  68.741  1.00  0.00    -0.208 NA 
HETATM   21  C   UNL     1     -10.274  16.497  65.962  1.00  0.00    -0.372 A  
HETATM   22  C   UNL     1     -10.669  17.828  65.996  1.00  0.00    -0.119 A  
HETATM   23  C   UNL     1     -10.066  18.684  66.897  1.00  0.00    -0.399 A  
HETATM   24  C   UNL     1      -9.075  18.211  67.779  1.00  0.00    -0.265 A  
HETATM   25  C   UNL     1      -8.393  19.230  68.657  1.00  0.00    -0.372 C  
HETATM   26  F   UNL     1      -7.904  20.268  67.910  1.00  0.00    -0.321 F  
HETATM   27  F   UNL     1      -7.338  18.811  69.404  1.00  0.00    -0.281 F  
HETATM   28  F   UNL     1      -9.262  19.811  69.535  1.00  0.00    -0.305 F  
ENDBRANCH   2  11
TORSDOF 2
ENDMDL
MODEL       83
REMARK 921   NORMALIZED FREE ENERGY PREDICTED BY IDOCK:   -5.02 KCAL/MOL
REMARK 922        TOTAL FREE ENERGY PREDICTED BY IDOCK:   -6.34 KCAL/MOL
REMARK 923 INTER-LIGAND FREE ENERGY PREDICTED BY IDOCK:   -5.61 KCAL/MOL
REMARK 924 INTRA-LIGAND FREE ENERGY PREDICTED BY IDOCK:   -0.74 KCAL/MOL
REMARK 927      BINDING AFFINITY PREDICTED BY RF-SCORE:    0.00 PKD
ROOT
HETATM    1  O   UNL     1      -8.769   7.309  64.374  1.00  0.00    -0.321 OA 
HETATM    2  C   UNL     1      -8.421   7.475  65.763  1.00  0.00    -0.144 C  
HETATM    3  H   UNL     1      -9.710   7.193  64.309  1.00  0.00     0.000 HD 
ENDROOT
BRANCH   2   4
HETATM    4  C   UNL     1      -6.866   7.667  65.870  1.00  0.00    -0.057 C  
HETATM    5  H   UNL     1      -5.133   7.093  64.897  1.00  0.00     0.000 HD 
HETATM    6  N   UNL     1      -6.069   6.719  65.055  1.00  0.00    -0.035 NA 
HETATM    7  C   UNL     1      -6.330   7.667  67.314  1.00  0.00    -0.054 C  
HETATM    8  C   UNL     1      -6.241   6.263  67.913  1.00  0.00    -0.028 C  
HETATM    9  C   UNL     1      -5.986   5.364  65.589  1.00  0.00    -0.025 C  
HETATM   10  C   UNL     1      -5.420   5.357  67.007  1.00  0.00    -0.012 C  
ENDBRANCH   2   4
BRANCH   2  11
HETATM   11  C   UNL     1      -9.245   8.656  66.288  1.00  0.00    -0.257 A  
HETATM   12  C   UNL     1     -10.506  11.990  64.908  1.00  0.00    -0.285 C  
HETATM   13  C   UNL     1     -10.583   9.845  67.952  1.00  0.00    -0.254 A  
HETATM   14  F   UNL     1     -11.829  12.191  64.643  1.00  0.00    -0.389 F  
HETATM   15  F   UNL     1     -10.038  13.172  65.405  1.00  0.00    -0.281 F  
HETATM   16  C   UNL     1     -10.251  10.813  65.840  1.00  0.00    -0.259 A  
HETATM   17  F   UNL     1      -9.910  11.853  63.686  1.00  0.00    -0.297 F  
HETATM   18  C   UNL     1      -9.480   9.740  65.421  1.00  0.00    -0.333 A  
HETATM   19  C   UNL     1      -9.789   8.720  67.605  1.00  0.00    -0.228 A  
HETATM   20  N   UNL     1     -10.796  10.845  67.086  1.00  0.00    -0.274 NA 
HETATM   21  C   UNL     1      -9.576   7.730  68.593  1.00  0.00    -0.154 A  
HETATM   22  C   UNL     1     -10.063   7.861  69.888  1.00  0.00    -0.197 A  
HETATM   23  C   UNL     1     -10.854   8.950  70.201  1.00  0.00    -0.251 A  
HETATM   24  C   UNL     1     -11.149   9.922  69.226  1.00  0.00    -0.220 A  
HETATM   25  C   UNL     1     -12.103  11.022  69.619  1.00  0.00    -0.340 C  
HETATM   26  F   UNL     1     -13.260  10.503  70.135  1.00  0.00    -0.330 F  
HETATM   27  F   UNL     1     -12.509  11.880  68.646  1.00  0.00    -0.229 F  
HETATM   28  F   UNL     1     -11.596  11.805  70.617  1.00  0.00    -0.355 F  
ENDBRANCH   2  11
TORSDOF 2
ENDMDL
MODEL       84
REMARK 921   NORMALIZED FREE ENERGY PREDICTED BY IDOCK:   -4.99 KCAL/MOL
REMARK 922        TOTAL FREE ENERGY PREDICTED BY IDOCK:   -6.32 KCAL/MOL
REMARK 923 INTER-LIGAND FREE ENERGY PREDICTED BY IDOCK:   -6.46 KCAL/MOL
REMARK 924 INTRA-LIGAND FREE ENERGY PREDICTED BY IDOCK:    0.15 KCAL/MOL
REMARK 927      BINDING AFFINITY PREDICTED BY RF-SCORE:    0.00 PKD
ROOT
HETATM    1  O   UNL     1      -7.978   9.853  67.952  1.00  0.00    -0.103 OA 
HETATM    2  C   UNL     1      -9.056  10.692  67.492  1.00  0.00    -0.139 C  
HETATM    3  H   UNL     1      -7.606  10.239  68.736  1.00  0.00     0.000 HD 
ENDROOT
BRANCH   2   4
HETATM    4  C   UNL     1      -9.670  10.053  66.195  1.00  0.00    -0.227 C  
HETATM    5  H   UNL     1     -10.749   8.386  65.614  1.00  0.00     0.000 HD 
HETATM    6  N   UNL     1     -10.073   8.633  66.337  1.00  0.00    -0.274 NA 
HETATM    7  C   UNL     1      -8.789  10.206  64.940  1.00  0.00    -0.214 C  
HETATM    8  C   UNL     1      -7.614   9.226  64.919  1.00  0.00    -0.108 C  
HETATM    9  C   UNL     1      -8.971   7.677  66.344  1.00  0.00    -0.167 C  
HETATM   10  C   UNL     1      -8.117   7.800  65.085  1.00  0.00    -0.137 C  
ENDBRANCH   2   4
BRANCH   2  11
HETATM   11  C   UNL     1     -10.039  10.830  68.659  1.00  0.00    -0.194 A  
HETATM   12  C   UNL     1     -11.388   8.570  71.432  1.00  0.00    -0.271 C  
HETATM   13  C   UNL     1     -11.572  12.051  70.119  1.00  0.00    -0.143 A  
HETATM   14  F   UNL     1     -11.025   8.755  72.734  1.00  0.00    -0.327 F  
HETATM   15  F   UNL     1     -12.703   8.206  71.456  1.00  0.00    -0.300 F  
HETATM   16  C   UNL     1     -11.127   9.789  70.556  1.00  0.00    -0.321 A  
HETATM   17  F   UNL     1     -10.714   7.454  71.023  1.00  0.00    -0.224 F  
HETATM   18  C   UNL     1     -10.274   9.701  69.467  1.00  0.00    -0.233 A  
HETATM   19  C   UNL     1     -10.730  12.037  68.976  1.00  0.00    -0.178 A  
HETATM   20  N   UNL     1     -11.750  10.956  70.870  1.00  0.00    -0.261 NA 
HETATM   21  C   UNL     1     -10.632  13.223  68.211  1.00  0.00    -0.262 A  
HETATM   22  C   UNL     1     -11.375  14.359  68.510  1.00  0.00    -0.307 A  
HETATM   23  C   UNL     1     -12.171  14.363  69.639  1.00  0.00    -0.353 A  
HETATM   24  C   UNL     1     -12.240  13.226  70.467  1.00  0.00    -0.416 A  
HETATM   25  C   UNL     1     -13.048  13.348  71.735  1.00  0.00    -0.388 C  
HETATM   26  F   UNL     1     -12.654  14.440  72.461  1.00  0.00    -0.378 F  
HETATM   27  F   UNL     1     -13.004  12.311  72.612  1.00  0.00    -0.337 F  
HETATM   28  F   UNL     1     -14.373  13.560  71.477  1.00  0.00    -0.203 F  
ENDBRANCH   2  11
TORSDOF 2
ENDMDL
MODEL       85
REMARK 921   NORMALIZED FREE ENERGY PREDICTED BY IDOCK:   -4.98 KCAL/MOL
REMARK 922        TOTAL FREE ENERGY PREDICTED BY IDOCK:   -6.30 KCAL/MOL
REMARK 923 INTER-LIGAND FREE ENERGY PREDICTED BY IDOCK:   -5.51 KCAL/MOL
REMARK 924 INTRA-LIGAND FREE ENERGY PREDICTED BY IDOCK:   -0.79 KCAL/MOL
REMARK 927      BINDING AFFINITY PREDICTED BY RF-SCORE:    0.00 PKD
ROOT
HETATM    1  O   UNL     1      -5.788  17.564  66.497  1.00  0.00    -0.167 OA 
HETATM    2  C   UNL     1      -6.570  16.578  67.202  1.00  0.00    -0.194 C  
HETATM    3  H   UNL     1      -5.880  17.412  65.564  1.00  0.00     0.000 HD 
ENDROOT
BRANCH   2   4
HETATM    4  C   UNL     1      -6.419  16.830  68.746  1.00  0.00    -0.170 C  
HETATM    5  H   UNL     1      -4.975  16.750  70.225  1.00  0.00     0.000 HD 
HETATM    6  N   UNL     1      -5.178  16.280  69.343  1.00  0.00    -0.115 NA 
HETATM    7  C   UNL     1      -7.629  16.369  69.579  1.00  0.00     0.045 C  
HETATM    8  C   UNL     1      -7.664  14.855  69.786  1.00  0.00     0.009 C  
HETATM    9  C   UNL     1      -5.172  14.833  69.530  1.00  0.00    -0.087 C  
HETATM   10  C   UNL     1      -6.350  14.377  70.388  1.00  0.00    -0.144 C  
ENDBRANCH   2   4
BRANCH   2  11
HETATM   11  C   UNL     1      -8.005  16.692  66.677  1.00  0.00    -0.315 A  
HETATM   12  C   UNL     1     -10.491  19.512  65.985  1.00  0.00    -0.516 C  
HETATM   13  C   UNL     1     -10.090  15.816  65.750  1.00  0.00    -0.371 A  
HETATM   14  F   UNL     1     -10.824  19.864  64.710  1.00  0.00    -0.169 F  
HETATM   15  F   UNL     1     -11.636  19.627  66.719  1.00  0.00    -0.240 F  
HETATM   16  C   UNL     1      -9.862  18.128  66.083  1.00  0.00    -0.251 A  
HETATM   17  F   UNL     1      -9.674  20.511  66.434  1.00  0.00    -0.482 F  
HETATM   18  C   UNL     1      -8.580  17.973  66.587  1.00  0.00    -0.281 A  
HETATM   19  C   UNL     1      -8.792  15.573  66.273  1.00  0.00    -0.338 A  
HETATM   20  N   UNL     1     -10.588  17.057  65.665  1.00  0.00    -0.497 NA 
HETATM   21  C   UNL     1      -8.359  14.230  66.370  1.00  0.00     0.562 A  
HETATM   22  C   UNL     1      -9.180  13.161  66.032  1.00  0.00     0.078 A  
HETATM   23  C   UNL     1     -10.431  13.417  65.503  1.00  0.00    -0.297 A  
HETATM   24  C   UNL     1     -10.872  14.742  65.323  1.00  0.00    -0.395 A  
HETATM   25  C   UNL     1     -12.204  14.936  64.643  1.00  0.00    -0.341 C  
HETATM   26  F   UNL     1     -12.249  14.256  63.455  1.00  0.00    -0.424 F  
HETATM   27  F   UNL     1     -12.573  16.206  64.332  1.00  0.00     0.053 F  
HETATM   28  F   UNL     1     -13.233  14.420  65.379  1.00  0.00    -0.465 F  
ENDBRANCH   2  11
TORSDOF 2
ENDMDL
MODEL       86
REMARK 921   NORMALIZED FREE ENERGY PREDICTED BY IDOCK:   -4.98 KCAL/MOL
REMARK 922        TOTAL FREE ENERGY PREDICTED BY IDOCK:   -6.30 KCAL/MOL
REMARK 923 INTER-LIGAND FREE ENERGY PREDICTED BY IDOCK:   -5.92 KCAL/MOL
REMARK 924 INTRA-LIGAND FREE ENERGY PREDICTED BY IDOCK:   -0.39 KCAL/MOL
REMARK 927      BINDING AFFINITY PREDICTED BY RF-SCORE:    0.00 PKD
ROOT
HETATM    1  O   UNL     1      -9.984  10.846  68.775  1.00  0.00    -0.182 OA 
HETATM    2  C   UNL     1      -8.837  11.626  68.381  1.00  0.00    -0.161 C  
HETATM    3  H   UNL     1     -10.541  11.384  69.325  1.00  0.00     0.000 HD 
ENDROOT
BRANCH   2   4
HETATM    4  C   UNL     1      -7.915  10.736  67.472  1.00  0.00    -0.110 C  
HETATM    5  H   UNL     1      -7.920   8.884  66.550  1.00  0.00     0.000 HD 
HETATM    6  N   UNL     1      -8.322   9.314  67.383  1.00  0.00    -0.121 NA 
HETATM    7  C   UNL     1      -6.418  10.813  67.828  1.00  0.00    -0.059 C  
HETATM    8  C   UNL     1      -6.062   9.992  69.067  1.00  0.00    -0.040 C  
HETATM    9  C   UNL     1      -8.017   8.510  68.561  1.00  0.00    -0.117 C  
HETATM   10  C   UNL     1      -6.528   8.553  68.896  1.00  0.00    -0.049 C  
ENDBRANCH   2   4
BRANCH   2  11
HETATM   11  C   UNL     1      -9.374  12.889  67.699  1.00  0.00    -0.195 A  
HETATM   12  C   UNL     1     -12.153  13.731  65.213  1.00  0.00    -0.407 C  
HETATM   13  C   UNL     1      -9.471  15.293  67.271  1.00  0.00    -0.208 A  
HETATM   14  F   UNL     1     -13.271  14.408  65.604  1.00  0.00    -0.496 F  
HETATM   15  F   UNL     1     -11.854  14.189  63.962  1.00  0.00    -0.419 F  
HETATM   16  C   UNL     1     -10.992  13.872  66.188  1.00  0.00    -0.293 A  
HETATM   17  F   UNL     1     -12.558  12.438  65.034  1.00  0.00    -0.510 F  
HETATM   18  C   UNL     1     -10.449  12.753  66.800  1.00  0.00    -0.253 A  
HETATM   19  C   UNL     1      -8.848  14.196  67.922  1.00  0.00    -0.182 A  
HETATM   20  N   UNL     1     -10.506  15.117  66.439  1.00  0.00    -0.288 NA 
HETATM   21  C   UNL     1      -7.733  14.464  68.750  1.00  0.00    -0.139 A  
HETATM   22  C   UNL     1      -7.204  15.741  68.889  1.00  0.00    -0.147 A  
HETATM   23  C   UNL     1      -7.837  16.800  68.267  1.00  0.00    -0.194 A  
HETATM   24  C   UNL     1      -8.993  16.586  67.492  1.00  0.00    -0.201 A  
HETATM   25  C   UNL     1      -9.683  17.806  66.936  1.00  0.00    -0.300 C  
HETATM   26  F   UNL     1      -9.939  18.716  67.926  1.00  0.00    -0.304 F  
HETATM   27  F   UNL     1     -10.876  17.625  66.312  1.00  0.00    -0.269 F  
HETATM   28  F   UNL     1      -8.894  18.475  66.043  1.00  0.00    -0.273 F  
ENDBRANCH   2  11
TORSDOF 2
ENDMDL
MODEL       87
REMARK 921   NORMALIZED FREE ENERGY PREDICTED BY IDOCK:   -4.98 KCAL/MOL
REMARK 922        TOTAL FREE ENERGY PREDICTED BY IDOCK:   -6.30 KCAL/MOL
REMARK 923 INTER-LIGAND FREE ENERGY PREDICTED BY IDOCK:   -6.01 KCAL/MOL
REMARK 924 INTRA-LIGAND FREE ENERGY PREDICTED BY IDOCK:   -0.30 KCAL/MOL
REMARK 927      BINDING AFFINITY PREDICTED BY RF-SCORE:    0.00 PKD
ROOT
HETATM    1  O   UNL     1     -11.773  10.273  67.977  1.00  0.00    -0.712 OA 
HETATM    2  C   UNL     1     -10.402   9.832  68.035  1.00  0.00    -0.207 C  
HETATM    3  H   UNL     1     -12.295   9.588  67.575  1.00  0.00     0.000 HD 
ENDROOT
BRANCH   2   4
HETATM    4  C   UNL     1      -9.539  10.965  68.698  1.00  0.00    -0.190 C  
HETATM    5  H   UNL     1      -9.271  13.013  68.590  1.00  0.00     0.000 HD 
HETATM    6  N   UNL     1      -9.545  12.254  67.967  1.00  0.00    -0.200 NA 
HETATM    7  C   UNL     1      -8.083  10.557  68.992  1.00  0.00    -0.143 C  
HETATM    8  C   UNL     1      -7.203  10.560  67.742  1.00  0.00    -0.085 C  
HETATM    9  C   UNL     1      -8.733  12.280  66.755  1.00  0.00    -0.175 C  
HETATM   10  C   UNL     1      -7.281  11.912  67.049  1.00  0.00    -0.118 C  
ENDBRANCH   2   4
BRANCH   2  11
HETATM   11  C   UNL     1     -10.396   8.501  68.795  1.00  0.00    -0.233 A  
HETATM   12  C   UNL     1      -9.150   4.945  68.153  1.00  0.00    -0.114 C  
HETATM   13  C   UNL     1     -10.819   7.061  70.723  1.00  0.00    -0.246 A  
HETATM   14  F   UNL     1      -8.075   4.440  68.825  1.00  0.00    -0.075 F  
HETATM   15  F   UNL     1     -10.031   3.911  68.021  1.00  0.00    -0.192 F  
HETATM   16  C   UNL     1      -9.764   6.163  68.829  1.00  0.00    -0.129 A  
HETATM   17  F   UNL     1      -8.699   5.197  66.888  1.00  0.00    -0.111 F  
HETATM   18  C   UNL     1      -9.825   7.379  68.166  1.00  0.00    -0.174 A  
HETATM   19  C   UNL     1     -10.937   8.334  70.104  1.00  0.00    -0.222 A  
HETATM   20  N   UNL     1     -10.249   6.026  70.093  1.00  0.00    -0.195 NA 
HETATM   21  C   UNL     1     -11.593   9.361  70.822  1.00  0.00    -0.364 A  
HETATM   22  C   UNL     1     -12.169   9.142  72.067  1.00  0.00    -0.443 A  
HETATM   23  C   UNL     1     -12.024   7.905  72.665  1.00  0.00    -0.299 A  
HETATM   24  C   UNL     1     -11.316   6.876  72.015  1.00  0.00    -0.301 A  
HETATM   25  C   UNL     1     -11.114   5.592  72.779  1.00  0.00    -0.291 C  
HETATM   26  F   UNL     1     -10.568   5.838  74.010  1.00  0.00    -0.241 F  
HETATM   27  F   UNL     1     -10.310   4.648  72.223  1.00  0.00    -0.227 F  
HETATM   28  F   UNL     1     -12.298   4.963  73.042  1.00  0.00    -0.322 F  
ENDBRANCH   2  11
TORSDOF 2
ENDMDL
MODEL       88
REMARK 921   NORMALIZED FREE ENERGY PREDICTED BY IDOCK:   -4.94 KCAL/MOL
REMARK 922        TOTAL FREE ENERGY PREDICTED BY IDOCK:   -6.26 KCAL/MOL
REMARK 923 INTER-LIGAND FREE ENERGY PREDICTED BY IDOCK:   -6.59 KCAL/MOL
REMARK 924 INTRA-LIGAND FREE ENERGY PREDICTED BY IDOCK:    0.33 KCAL/MOL
REMARK 927      BINDING AFFINITY PREDICTED BY RF-SCORE:    0.00 PKD
ROOT
HETATM    1  O   UNL     1     -12.273   6.371  71.916  1.00  0.00    -0.346 OA 
HETATM    2  C   UNL     1     -11.820   7.733  72.046  1.00  0.00    -0.307 C  
HETATM    3  H   UNL     1     -12.950   6.339  71.251  1.00  0.00     0.000 HD 
ENDROOT
BRANCH   2   4
HETATM    4  C   UNL     1     -10.699   7.786  73.146  1.00  0.00    -0.351 C  
HETATM    5  H   UNL     1      -8.934   8.783  73.556  1.00  0.00     0.000 HD 
HETATM    6  N   UNL     1      -9.462   8.490  72.734  1.00  0.00    -0.230 NA 
HETATM    7  C   UNL     1     -10.329   6.410  73.732  1.00  0.00    -0.326 C  
HETATM    8  C   UNL     1      -9.435   5.591  72.800  1.00  0.00    -0.160 C  
HETATM    9  C   UNL     1      -8.600   7.742  71.825  1.00  0.00    -0.116 C  
HETATM   10  C   UNL     1      -8.200   6.393  72.418  1.00  0.00    -0.106 C  
ENDBRANCH   2   4
BRANCH   2  11
HETATM   11  C   UNL     1     -11.365   8.184  70.654  1.00  0.00    -0.256 A  
HETATM   12  C   UNL     1      -9.753   6.550  67.598  1.00  0.00    -0.123 C  
HETATM   13  C   UNL     1     -11.092   9.796  68.838  1.00  0.00    -0.099 A  
HETATM   14  F   UNL     1     -10.459   6.348  66.448  1.00  0.00    -0.234 F  
HETATM   15  F   UNL     1      -8.490   6.893  67.208  1.00  0.00    -0.117 F  
HETATM   16  C   UNL     1     -10.388   7.580  68.522  1.00  0.00    -0.199 A  
HETATM   17  F   UNL     1      -9.629   5.314  68.168  1.00  0.00    -0.119 F  
HETATM   18  C   UNL     1     -10.781   7.227  69.804  1.00  0.00    -0.253 A  
HETATM   19  C   UNL     1     -11.501   9.519  70.169  1.00  0.00    -0.205 A  
HETATM   20  N   UNL     1     -10.559   8.847  68.058  1.00  0.00    -0.203 NA 
HETATM   21  C   UNL     1     -12.013  10.588  70.940  1.00  0.00    -0.481 A  
HETATM   22  C   UNL     1     -12.065  11.890  70.458  1.00  0.00    -0.422 A  
HETATM   23  C   UNL     1     -11.685  12.138  69.153  1.00  0.00    -0.384 A  
HETATM   24  C   UNL     1     -11.237  11.088  68.328  1.00  0.00    -0.340 A  
HETATM   25  C   UNL     1     -10.942  11.424  66.888  1.00  0.00    -0.299 C  
HETATM   26  F   UNL     1     -12.006  12.061  66.308  1.00  0.00    -0.424 F  
HETATM   27  F   UNL     1     -10.651  10.396  66.049  1.00  0.00    -0.293 F  
HETATM   28  F   UNL     1      -9.904  12.304  66.772  1.00  0.00    -0.197 F  
ENDBRANCH   2  11
TORSDOF 2
ENDMDL
MODEL       89
REMARK 921   NORMALIZED FREE ENERGY PREDICTED BY IDOCK:   -4.92 KCAL/MOL
REMARK 922        TOTAL FREE ENERGY PREDICTED BY IDOCK:   -6.23 KCAL/MOL
REMARK 923 INTER-LIGAND FREE ENERGY PREDICTED BY IDOCK:   -6.21 KCAL/MOL
REMARK 924 INTRA-LIGAND FREE ENERGY PREDICTED BY IDOCK:   -0.02 KCAL/MOL
REMARK 927      BINDING AFFINITY PREDICTED BY RF-SCORE:    0.00 PKD
ROOT
HETATM    1  O   UNL     1      -8.375  12.149  68.145  1.00  0.00    -0.155 OA 
HETATM    2  C   UNL     1      -9.777  12.095  68.478  1.00  0.00    -0.149 C  
HETATM    3  H   UNL     1      -7.880  11.758  68.856  1.00  0.00     0.000 HD 
ENDROOT
BRANCH   2   4
HETATM    4  C   UNL     1     -10.596  12.741  67.302  1.00  0.00    -0.233 C  
HETATM    5  H   UNL     1     -10.283  13.838  65.576  1.00  0.00     0.000 HD 
HETATM    6  N   UNL     1      -9.837  13.719  66.486  1.00  0.00    -0.282 NA 
HETATM    7  C   UNL     1     -11.930  13.375  67.739  1.00  0.00    -0.363 C  
HETATM    8  C   UNL     1     -11.747  14.733  68.417  1.00  0.00    -0.343 C  
HETATM    9  C   UNL     1      -9.625  15.017  67.116  1.00  0.00    -0.217 C  
HETATM   10  C   UNL     1     -10.949  15.665  67.517  1.00  0.00    -0.309 C  
ENDBRANCH   2   4
BRANCH   2  11
HETATM   11  C   UNL     1     -10.111  10.625  68.752  1.00  0.00    -0.203 A  
HETATM   12  C   UNL     1     -11.978   8.659  71.447  1.00  0.00    -0.304 C  
HETATM   13  C   UNL     1     -10.149   8.237  68.230  1.00  0.00    -0.198 A  
HETATM   14  F   UNL     1     -13.185   8.078  71.190  1.00  0.00    -0.289 F  
HETATM   15  F   UNL     1     -11.311   7.797  72.268  1.00  0.00    -0.272 F  
HETATM   16  C   UNL     1     -11.194   9.002  70.187  1.00  0.00    -0.171 A  
HETATM   17  F   UNL     1     -12.260   9.748  72.223  1.00  0.00    -0.389 F  
HETATM   18  C   UNL     1     -10.838  10.314  69.917  1.00  0.00    -0.355 A  
HETATM   19  C   UNL     1      -9.729   9.551  67.893  1.00  0.00    -0.171 A  
HETATM   20  N   UNL     1     -10.857   7.993  69.340  1.00  0.00    -0.155 NA 
HETATM   21  C   UNL     1      -8.947   9.718  66.727  1.00  0.00    -0.156 A  
HETATM   22  C   UNL     1      -8.534   8.640  65.953  1.00  0.00    -0.158 A  
HETATM   23  C   UNL     1      -8.972   7.371  66.282  1.00  0.00    -0.192 A  
HETATM   24  C   UNL     1      -9.811   7.171  67.394  1.00  0.00    -0.200 A  
HETATM   25  C   UNL     1     -10.328   5.773  67.622  1.00  0.00    -0.217 C  
HETATM   26  F   UNL     1     -10.919   5.281  66.490  1.00  0.00    -0.323 F  
HETATM   27  F   UNL     1     -11.253   5.597  68.602  1.00  0.00    -0.293 F  
HETATM   28  F   UNL     1      -9.320   4.895  67.900  1.00  0.00    -0.118 F  
ENDBRANCH   2  11
TORSDOF 2
ENDMDL
MODEL       90
REMARK 921   NORMALIZED FREE ENERGY PREDICTED BY IDOCK:   -4.90 KCAL/MOL
REMARK 922        TOTAL FREE ENERGY PREDICTED BY IDOCK:   -6.21 KCAL/MOL
REMARK 923 INTER-LIGAND FREE ENERGY PREDICTED BY IDOCK:   -6.15 KCAL/MOL
REMARK 924 INTRA-LIGAND FREE ENERGY PREDICTED BY IDOCK:   -0.06 KCAL/MOL
REMARK 927      BINDING AFFINITY PREDICTED BY RF-SCORE:    0.00 PKD
ROOT
HETATM    1  O   UNL     1      -9.588  11.184  69.241  1.00  0.00    -0.407 OA 
HETATM    2  C   UNL     1     -10.556  10.569  70.115  1.00  0.00    -0.105 C  
HETATM    3  H   UNL     1      -8.720  10.905  69.507  1.00  0.00     0.000 HD 
ENDROOT
BRANCH   2   4
HETATM    4  C   UNL     1     -11.992  11.030  69.675  1.00  0.00    -0.353 C  
HETATM    5  H   UNL     1     -12.944  12.683  68.877  1.00  0.00     0.000 HD 
HETATM    6  N   UNL     1     -12.135  12.490  69.468  1.00  0.00    -0.235 NA 
HETATM    7  C   UNL     1     -13.121  10.536  70.599  1.00  0.00    -0.278 C  
HETATM    8  C   UNL     1     -13.216  11.337  71.898  1.00  0.00    -0.491 C  
HETATM    9  C   UNL     1     -12.204  13.284  70.690  1.00  0.00    -0.338 C  
HETATM   10  C   UNL     1     -13.346  12.822  71.591  1.00  0.00    -0.345 C  
ENDBRANCH   2   4
BRANCH   2  11
HETATM   11  C   UNL     1     -10.323   9.056  70.041  1.00  0.00    -0.226 A  
HETATM   12  C   UNL     1     -10.290   6.129  72.499  1.00  0.00    -0.193 C  
HETATM   13  C   UNL     1      -9.901   6.944  68.886  1.00  0.00    -0.147 A  
HETATM   14  F   UNL     1     -11.281   5.191  72.495  1.00  0.00    -0.283 F  
HETATM   15  F   UNL     1      -9.134   5.454  72.764  1.00  0.00    -0.130 F  
HETATM   16  C   UNL     1     -10.222   6.938  71.210  1.00  0.00    -0.198 A  
HETATM   17  F   UNL     1     -10.522   6.894  73.607  1.00  0.00    -0.269 F  
HETATM   18  C   UNL     1     -10.390   8.314  71.235  1.00  0.00    -0.256 A  
HETATM   19  C   UNL     1     -10.042   8.356  68.830  1.00  0.00    -0.209 A  
HETATM   20  N   UNL     1      -9.993   6.277  70.044  1.00  0.00    -0.168 NA 
HETATM   21  C   UNL     1      -9.887   8.987  67.574  1.00  0.00    -0.230 A  
HETATM   22  C   UNL     1      -9.543   8.281  66.428  1.00  0.00    -0.300 A  
HETATM   23  C   UNL     1      -9.434   6.905  66.495  1.00  0.00    -0.199 A  
HETATM   24  C   UNL     1      -9.652   6.230  67.712  1.00  0.00    -0.118 A  
HETATM   25  C   UNL     1      -9.617   4.723  67.678  1.00  0.00    -0.155 C  
HETATM   26  F   UNL     1     -10.455   4.238  66.710  1.00  0.00    -0.202 F  
HETATM   27  F   UNL     1      -9.969   4.059  68.810  1.00  0.00    -0.214 F  
HETATM   28  F   UNL     1      -8.381   4.249  67.338  1.00  0.00    -0.098 F  
ENDBRANCH   2  11
TORSDOF 2
ENDMDL
MODEL       91
REMARK 921   NORMALIZED FREE ENERGY PREDICTED BY IDOCK:   -4.86 KCAL/MOL
REMARK 922        TOTAL FREE ENERGY PREDICTED BY IDOCK:   -6.17 KCAL/MOL
REMARK 923 INTER-LIGAND FREE ENERGY PREDICTED BY IDOCK:   -5.29 KCAL/MOL
REMARK 924 INTRA-LIGAND FREE ENERGY PREDICTED BY IDOCK:   -0.88 KCAL/MOL
REMARK 927      BINDING AFFINITY PREDICTED BY RF-SCORE:    0.00 PKD
ROOT
HETATM    1  O   UNL     1     -11.293  12.595  69.060  1.00  0.00    -0.261 OA 
HETATM    2  C   UNL     1     -10.592  13.260  67.990  1.00  0.00    -0.240 C  
HETATM    3  H   UNL     1     -11.803  11.883  68.691  1.00  0.00     0.000 HD 
ENDROOT
BRANCH   2   4
HETATM    4  C   UNL     1      -9.748  14.437  68.601  1.00  0.00    -0.216 C  
HETATM    5  H   UNL     1      -9.971  16.031  69.900  1.00  0.00     0.000 HD 
HETATM    6  N   UNL     1     -10.551  15.500  69.250  1.00  0.00    -0.220 NA 
HETATM    7  C   UNL     1      -8.759  15.081  67.611  1.00  0.00    -0.182 C  
HETATM    8  C   UNL     1      -9.443  16.027  66.623  1.00  0.00    -0.259 C  
HETATM    9  C   UNL     1     -11.235  16.404  68.332  1.00  0.00    -0.324 C  
HETATM   10  C   UNL     1     -10.254  17.074  67.374  1.00  0.00    -0.314 C  
ENDBRANCH   2   4
BRANCH   2  11
HETATM   11  C   UNL     1      -9.763  12.190  67.271  1.00  0.00    -0.193 A  
HETATM   12  C   UNL     1      -7.247   9.492  68.270  1.00  0.00    -0.076 C  
HETATM   13  C   UNL     1      -9.030  10.908  65.323  1.00  0.00    -0.186 A  
HETATM   14  F   UNL     1      -7.570   8.168  68.215  1.00  0.00    -0.092 F  
HETATM   15  F   UNL     1      -5.941   9.578  67.880  1.00  0.00    -0.049 F  
HETATM   16  C   UNL     1      -8.171  10.373  67.440  1.00  0.00    -0.117 A  
HETATM   17  F   UNL     1      -7.245   9.809  69.600  1.00  0.00    -0.061 F  
HETATM   18  C   UNL     1      -8.912  11.378  68.043  1.00  0.00    -0.163 A  
HETATM   19  C   UNL     1      -9.805  11.970  65.862  1.00  0.00    -0.259 A  
HETATM   20  N   UNL     1      -8.249  10.148  66.101  1.00  0.00    -0.122 NA 
HETATM   21  C   UNL     1     -10.568  12.753  64.965  1.00  0.00    -0.330 A  
HETATM   22  C   UNL     1     -10.530  12.554  63.591  1.00  0.00    -0.418 A  
HETATM   23  C   UNL     1      -9.790  11.501  63.086  1.00  0.00    -0.413 A  
HETATM   24  C   UNL     1      -9.072  10.653  63.951  1.00  0.00    -0.244 A  
HETATM   25  C   UNL     1      -8.377   9.468  63.331  1.00  0.00    -0.179 C  
HETATM   26  F   UNL     1      -9.246   8.738  62.566  1.00  0.00    -0.150 F  
HETATM   27  F   UNL     1      -7.806   8.563  64.169  1.00  0.00    -0.112 F  
HETATM   28  F   UNL     1      -7.389   9.850  62.468  1.00  0.00    -0.110 F  
ENDBRANCH   2  11
TORSDOF 2
ENDMDL
MODEL       92
REMARK 921   NORMALIZED FREE ENERGY PREDICTED BY IDOCK:   -4.86 KCAL/MOL
REMARK 922        TOTAL FREE ENERGY PREDICTED BY IDOCK:   -6.17 KCAL/MOL
REMARK 923 INTER-LIGAND FREE ENERGY PREDICTED BY IDOCK:   -5.79 KCAL/MOL
REMARK 924 INTRA-LIGAND FREE ENERGY PREDICTED BY IDOCK:   -0.38 KCAL/MOL
REMARK 927      BINDING AFFINITY PREDICTED BY RF-SCORE:    0.00 PKD
ROOT
HETATM    1  O   UNL     1     -12.979  10.268  69.638  1.00  0.00    -0.532 OA 
HETATM    2  C   UNL     1     -11.670  10.329  70.241  1.00  0.00    -0.306 C  
HETATM    3  H   UNL     1     -13.381  11.127  69.702  1.00  0.00     0.000 HD 
ENDROOT
BRANCH   2   4
HETATM    4  C   UNL     1     -11.005   8.909  70.136  1.00  0.00    -0.227 C  
HETATM    5  H   UNL     1     -11.532   6.940  69.787  1.00  0.00     0.000 HD 
HETATM    6  N   UNL     1     -11.958   7.775  70.190  1.00  0.00     0.217 NA 
HETATM    7  C   UNL     1      -9.873   8.669  71.154  1.00  0.00    -0.285 C  
HETATM    8  C   UNL     1     -10.395   8.367  72.559  1.00  0.00    -0.371 C  
HETATM    9  C   UNL     1     -12.492   7.479  71.515  1.00  0.00    -0.346 C  
HETATM   10  C   UNL     1     -11.374   7.203  72.517  1.00  0.00    -0.318 C  
ENDBRANCH   2   4
BRANCH   2  11
HETATM   11  C   UNL     1     -10.903  11.445  69.525  1.00  0.00    -0.165 A  
HETATM   12  C   UNL     1      -8.006  11.669  67.041  1.00  0.00    -0.164 C  
HETATM   13  C   UNL     1     -10.449  13.767  68.913  1.00  0.00    -0.169 A  
HETATM   14  F   UNL     1      -8.212  12.043  65.746  1.00  0.00     0.163 F  
HETATM   15  F   UNL     1      -6.814  12.224  67.409  1.00  0.00    -0.095 F  
HETATM   16  C   UNL     1      -9.150  12.056  67.969  1.00  0.00    -0.188 A  
HETATM   17  F   UNL     1      -7.776  10.323  66.996  1.00  0.00    -0.096 F  
HETATM   18  C   UNL     1      -9.848  11.082  68.667  1.00  0.00    -0.197 A  
HETATM   19  C   UNL     1     -11.197  12.833  69.677  1.00  0.00    -0.072 A  
HETATM   20  N   UNL     1      -9.466  13.373  68.093  1.00  0.00    -0.214 NA 
HETATM   21  C   UNL     1     -12.188  13.336  70.552  1.00  0.00    -0.416 A  
HETATM   22  C   UNL     1     -12.398  14.698  70.726  1.00  0.00    -0.398 A  
HETATM   23  C   UNL     1     -11.678  15.592  69.958  1.00  0.00    -0.369 A  
HETATM   24  C   UNL     1     -10.732  15.130  69.022  1.00  0.00    -0.239 A  
HETATM   25  C   UNL     1     -10.065  16.164  68.151  1.00  0.00    -0.237 C  
HETATM   26  F   UNL     1     -10.997  16.954  67.531  1.00  0.00    -0.321 F  
HETATM   27  F   UNL     1      -9.263  15.719  67.148  1.00  0.00    -0.196 F  
HETATM   28  F   UNL     1      -9.303  17.031  68.880  1.00  0.00    -0.251 F  
ENDBRANCH   2  11
TORSDOF 2
ENDMDL
MODEL       93
REMARK 921   NORMALIZED FREE ENERGY PREDICTED BY IDOCK:   -4.85 KCAL/MOL
REMARK 922        TOTAL FREE ENERGY PREDICTED BY IDOCK:   -6.16 KCAL/MOL
REMARK 923 INTER-LIGAND FREE ENERGY PREDICTED BY IDOCK:   -5.39 KCAL/MOL
REMARK 924 INTRA-LIGAND FREE ENERGY PREDICTED BY IDOCK:   -0.76 KCAL/MOL
REMARK 927      BINDING AFFINITY PREDICTED BY RF-SCORE:    0.00 PKD
ROOT
HETATM    1  O   UNL     1      -6.729  12.489  69.930  1.00  0.00    -0.352 OA 
HETATM    2  C   UNL     1      -7.062  13.594  69.065  1.00  0.00    -0.077 C  
HETATM    3  H   UNL     1      -7.531  12.035  70.162  1.00  0.00     0.000 HD 
ENDROOT
BRANCH   2   4
HETATM    4  C   UNL     1      -5.736  14.344  68.680  1.00  0.00    -0.088 C  
HETATM    5  H   UNL     1      -4.222  15.433  69.575  1.00  0.00     0.000 HD 
HETATM    6  N   UNL     1      -5.213  15.251  69.730  1.00  0.00    -0.096 NA 
HETATM    7  C   UNL     1      -5.810  15.106  67.344  1.00  0.00     0.154 C  
HETATM    8  C   UNL     1      -6.576  16.425  67.455  1.00  0.00    -0.184 C  
HETATM    9  C   UNL     1      -5.939  16.509  69.876  1.00  0.00    -0.201 C  
HETATM   10  C   UNL     1      -5.982  17.284  68.562  1.00  0.00    -0.156 C  
ENDBRANCH   2   4
BRANCH   2  11
HETATM   11  C   UNL     1      -7.830  13.009  67.875  1.00  0.00    -0.149 A  
HETATM   12  C   UNL     1      -7.493   9.973  65.576  1.00  0.00    -0.137 C  
HETATM   13  C   UNL     1      -9.666  12.920  66.264  1.00  0.00    -0.268 A  
HETATM   14  F   UNL     1      -8.365   8.927  65.654  1.00  0.00    -0.113 F  
HETATM   15  F   UNL     1      -7.212  10.131  64.250  1.00  0.00    -0.128 F  
HETATM   16  C   UNL     1      -8.021  11.247  66.225  1.00  0.00    -0.086 A  
HETATM   17  F   UNL     1      -6.333   9.520  66.137  1.00  0.00    -0.063 F  
HETATM   18  C   UNL     1      -7.339  11.831  67.281  1.00  0.00    -0.141 A  
HETATM   19  C   UNL     1      -9.015  13.590  67.334  1.00  0.00    -0.219 A  
HETATM   20  N   UNL     1      -9.171  11.789  65.743  1.00  0.00    -0.186 NA 
HETATM   21  C   UNL     1      -9.579  14.802  67.795  1.00  0.00    -0.209 A  
HETATM   22  C   UNL     1     -10.695  15.375  67.197  1.00  0.00    -0.314 A  
HETATM   23  C   UNL     1     -11.329  14.697  66.174  1.00  0.00    -0.350 A  
HETATM   24  C   UNL     1     -10.842  13.452  65.732  1.00  0.00    -0.283 A  
HETATM   25  C   UNL     1     -11.651  12.730  64.684  1.00  0.00    -0.338 C  
HETATM   26  F   UNL     1     -12.959  12.616  65.071  1.00  0.00    -0.564 F  
HETATM   27  F   UNL     1     -11.273  11.466  64.357  1.00  0.00    -0.394 F  
HETATM   28  F   UNL     1     -11.694  13.422  63.507  1.00  0.00    -0.449 F  
ENDBRANCH   2  11
TORSDOF 2
ENDMDL
MODEL       94
REMARK 921   NORMALIZED FREE ENERGY PREDICTED BY IDOCK:   -4.83 KCAL/MOL
REMARK 922        TOTAL FREE ENERGY PREDICTED BY IDOCK:   -6.14 KCAL/MOL
REMARK 923 INTER-LIGAND FREE ENERGY PREDICTED BY IDOCK:   -5.84 KCAL/MOL
REMARK 924 INTRA-LIGAND FREE ENERGY PREDICTED BY IDOCK:   -0.30 KCAL/MOL
REMARK 927      BINDING AFFINITY PREDICTED BY RF-SCORE:    0.00 PKD
ROOT
HETATM    1  O   UNL     1     -10.894   5.247  66.620  1.00  0.00    -0.444 OA 
HETATM    2  C   UNL     1     -10.288   5.221  67.928  1.00  0.00    -0.125 C  
HETATM    3  H   UNL     1     -11.830   5.373  66.722  1.00  0.00     0.000 HD 
ENDROOT
BRANCH   2   4
HETATM    4  C   UNL     1      -8.740   5.013  67.758  1.00  0.00    -0.103 C  
HETATM    5  H   UNL     1      -7.409   3.664  66.930  1.00  0.00     0.000 HD 
HETATM    6  N   UNL     1      -8.342   3.647  67.343  1.00  0.00    -0.093 NA 
HETATM    7  C   UNL     1      -7.911   5.430  68.988  1.00  0.00    -0.094 C  
HETATM    8  C   UNL     1      -7.969   4.401  70.117  1.00  0.00    -0.059 C  
HETATM    9  C   UNL     1      -8.410   2.638  68.393  1.00  0.00    -0.065 C  
HETATM   10  C   UNL     1      -7.560   3.030  69.599  1.00  0.00    -0.044 C  
ENDBRANCH   2   4
BRANCH   2  11
HETATM   11  C   UNL     1     -10.682   6.528  68.625  1.00  0.00    -0.323 A  
HETATM   12  C   UNL     1     -12.269   7.526  71.956  1.00  0.00    -0.280 C  
HETATM   13  C   UNL     1     -10.834   8.958  68.831  1.00  0.00    -0.022 A  
HETATM   14  F   UNL     1     -11.537   8.134  72.934  1.00  0.00    -0.445 F  
HETATM   15  F   UNL     1     -13.504   8.106  71.994  1.00  0.00    -0.318 F  
HETATM   16  C   UNL     1     -11.619   7.605  70.581  1.00  0.00    -0.232 A  
HETATM   17  F   UNL     1     -12.460   6.245  72.392  1.00  0.00    -0.302 F  
HETATM   18  C   UNL     1     -11.280   6.448  69.897  1.00  0.00    -0.485 A  
HETATM   19  C   UNL     1     -10.477   7.821  68.059  1.00  0.00    -0.244 A  
HETATM   20  N   UNL     1     -11.383   8.834  70.047  1.00  0.00    -0.110 NA 
HETATM   21  C   UNL     1      -9.944   8.039  66.767  1.00  0.00    -0.344 A  
HETATM   22  C   UNL     1      -9.824   9.311  66.221  1.00  0.00    -0.361 A  
HETATM   23  C   UNL     1     -10.155  10.407  66.995  1.00  0.00    -0.264 A  
HETATM   24  C   UNL     1     -10.621  10.237  68.313  1.00  0.00    -0.255 A  
HETATM   25  C   UNL     1     -10.859  11.485  69.125  1.00  0.00    -0.195 C  
HETATM   26  F   UNL     1      -9.752  12.291  69.115  1.00  0.00    -0.007 F  
HETATM   27  F   UNL     1     -11.167  11.332  70.439  1.00  0.00    -0.324 F  
HETATM   28  F   UNL     1     -11.856  12.255  68.597  1.00  0.00    -0.306 F  
ENDBRANCH   2  11
TORSDOF 2
ENDMDL
MODEL       95
REMARK 921   NORMALIZED FREE ENERGY PREDICTED BY IDOCK:   -4.83 KCAL/MOL
REMARK 922        TOTAL FREE ENERGY PREDICTED BY IDOCK:   -6.13 KCAL/MOL
REMARK 923 INTER-LIGAND FREE ENERGY PREDICTED BY IDOCK:   -6.50 KCAL/MOL
REMARK 924 INTRA-LIGAND FREE ENERGY PREDICTED BY IDOCK:    0.37 KCAL/MOL
REMARK 927      BINDING AFFINITY PREDICTED BY RF-SCORE:    0.00 PKD
ROOT
HETATM    1  O   UNL     1     -13.082   8.209  70.480  1.00  0.00    -0.111 OA 
HETATM    2  C   UNL     1     -12.714   9.190  71.470  1.00  0.00    -0.341 C  
HETATM    3  H   UNL     1     -13.754   8.581  69.921  1.00  0.00     0.000 HD 
ENDROOT
BRANCH   2   4
HETATM    4  C   UNL     1     -11.603   8.575  72.395  1.00  0.00    -0.354 C  
HETATM    5  H   UNL     1      -9.585   8.790  72.796  1.00  0.00     0.000 HD 
HETATM    6  N   UNL     1     -10.215   8.917  72.004  1.00  0.00    -0.334 NA 
HETATM    7  C   UNL     1     -11.714   7.050  72.583  1.00  0.00    -0.140 C  
HETATM    8  C   UNL     1     -11.203   6.266  71.374  1.00  0.00    -0.349 C  
HETATM    9  C   UNL     1      -9.707   8.202  70.838  1.00  0.00    -0.166 C  
HETATM   10  C   UNL     1      -9.782   6.690  71.036  1.00  0.00    -0.185 C  
ENDBRANCH   2   4
BRANCH   2  11
HETATM   11  C   UNL     1     -12.283  10.449  70.709  1.00  0.00    -0.457 A  
HETATM   12  C   UNL     1     -10.589  11.229  67.372  1.00  0.00    -0.224 C  
HETATM   13  C   UNL     1     -12.091  12.860  70.364  1.00  0.00    -0.306 A  
HETATM   14  F   UNL     1     -11.284  11.787  66.340  1.00  0.00    -0.321 F  
HETATM   15  F   UNL     1      -9.346  11.791  67.336  1.00  0.00    -0.166 F  
HETATM   16  C   UNL     1     -11.276  11.397  68.721  1.00  0.00    -0.247 A  
HETATM   17  F   UNL     1     -10.403   9.922  67.018  1.00  0.00    -0.247 F  
HETATM   18  C   UNL     1     -11.651  10.287  69.462  1.00  0.00    -0.234 A  
HETATM   19  C   UNL     1     -12.486  11.776  71.192  1.00  0.00    -0.390 A  
HETATM   20  N   UNL     1     -11.511  12.658  69.175  1.00  0.00    -0.288 NA 
HETATM   21  C   UNL     1     -13.052  12.076  72.452  1.00  0.00     0.113 A  
HETATM   22  C   UNL     1     -13.170  13.380  72.919  1.00  0.00    -0.007 A  
HETATM   23  C   UNL     1     -12.803  14.424  72.091  1.00  0.00    -0.418 A  
HETATM   24  C   UNL     1     -12.302  14.170  70.800  1.00  0.00    -0.439 A  
HETATM   25  C   UNL     1     -12.025  15.365  69.923  1.00  0.00    -0.359 C  
HETATM   26  F   UNL     1     -13.120  16.184  69.854  1.00  0.00     0.084 F  
HETATM   27  F   UNL     1     -11.682  15.130  68.629  1.00  0.00    -0.311 F  
HETATM   28  F   UNL     1     -11.032  16.153  70.434  1.00  0.00    -0.300 F  
ENDBRANCH   2  11
TORSDOF 2
ENDMDL
MODEL       96
REMARK 921   NORMALIZED FREE ENERGY PREDICTED BY IDOCK:   -4.81 KCAL/MOL
REMARK 922        TOTAL FREE ENERGY PREDICTED BY IDOCK:   -6.11 KCAL/MOL
REMARK 923 INTER-LIGAND FREE ENERGY PREDICTED BY IDOCK:   -5.32 KCAL/MOL
REMARK 924 INTRA-LIGAND FREE ENERGY PREDICTED BY IDOCK:   -0.80 KCAL/MOL
REMARK 927      BINDING AFFINITY PREDICTED BY RF-SCORE:    0.00 PKD
ROOT
HETATM    1  O   UNL     1     -10.155   9.066  65.705  1.00  0.00    -0.421 OA 
HETATM    2  C   UNL     1      -9.176   8.605  66.658  1.00  0.00    -0.181 C  
HETATM    3  H   UNL     1     -10.923   8.510  65.767  1.00  0.00     0.000 HD 
ENDROOT
BRANCH   2   4
HETATM    4  C   UNL     1      -7.906   9.524  66.555  1.00  0.00    -0.101 C  
HETATM    5  H   UNL     1      -6.949  10.749  65.190  1.00  0.00     0.000 HD 
HETATM    6  N   UNL     1      -7.536   9.915  65.174  1.00  0.00    -0.126 NA 
HETATM    7  C   UNL     1      -6.664   8.963  67.273  1.00  0.00    -0.066 C  
HETATM    8  C   UNL     1      -5.975   7.851  66.481  1.00  0.00    -0.041 C  
HETATM    9  C   UNL     1      -6.899   8.865  64.386  1.00  0.00    -0.081 C  
HETATM   10  C   UNL     1      -5.646   8.333  65.076  1.00  0.00    -0.044 C  
ENDBRANCH   2   4
BRANCH   2  11
HETATM   11  C   UNL     1      -9.857   8.611  68.031  1.00  0.00    -0.201 A  
HETATM   12  C   UNL     1     -12.233  10.919  69.939  1.00  0.00    -0.336 C  
HETATM   13  C   UNL     1     -10.435   7.669  70.210  1.00  0.00    -0.224 A  
HETATM   14  F   UNL     1     -13.532  10.568  70.162  1.00  0.00    -0.249 F  
HETATM   15  F   UNL     1     -11.819  11.568  71.066  1.00  0.00    -0.387 F  
HETATM   16  C   UNL     1     -11.344   9.737  69.576  1.00  0.00    -0.083 A  
HETATM   17  F   UNL     1     -12.279  11.880  68.969  1.00  0.00    -0.331 F  
HETATM   18  C   UNL     1     -10.679   9.706  68.360  1.00  0.00    -0.251 A  
HETATM   19  C   UNL     1      -9.705   7.572  68.996  1.00  0.00    -0.162 A  
HETATM   20  N   UNL     1     -11.221   8.721  70.472  1.00  0.00    -0.256 NA 
HETATM   21  C   UNL     1      -8.863   6.450  68.818  1.00  0.00    -0.124 A  
HETATM   22  C   UNL     1      -8.686   5.492  69.809  1.00  0.00    -0.118 A  
HETATM   23  C   UNL     1      -9.422   5.590  70.975  1.00  0.00    -0.203 A  
HETATM   24  C   UNL     1     -10.326   6.653  71.162  1.00  0.00    -0.232 A  
HETATM   25  C   UNL     1     -11.165   6.628  72.414  1.00  0.00    -0.267 C  
HETATM   26  F   UNL     1     -11.812   5.429  72.545  1.00  0.00    -0.321 F  
HETATM   27  F   UNL     1     -12.142   7.566  72.536  1.00  0.00    -0.296 F  
HETATM   28  F   UNL     1     -10.403   6.738  73.542  1.00  0.00    -0.217 F  
ENDBRANCH   2  11
TORSDOF 2
ENDMDL
MODEL       97
REMARK 921   NORMALIZED FREE ENERGY PREDICTED BY IDOCK:   -4.77 KCAL/MOL
REMARK 922        TOTAL FREE ENERGY PREDICTED BY IDOCK:   -6.07 KCAL/MOL
REMARK 923 INTER-LIGAND FREE ENERGY PREDICTED BY IDOCK:   -5.63 KCAL/MOL
REMARK 924 INTRA-LIGAND FREE ENERGY PREDICTED BY IDOCK:   -0.44 KCAL/MOL
REMARK 927      BINDING AFFINITY PREDICTED BY RF-SCORE:    0.00 PKD
ROOT
HETATM    1  O   UNL     1      -9.343   9.165  66.657  1.00  0.00    -0.156 OA 
HETATM    2  C   UNL     1      -9.735   9.699  67.938  1.00  0.00    -0.146 C  
HETATM    3  H   UNL     1      -9.743   9.690  65.975  1.00  0.00     0.000 HD 
ENDROOT
BRANCH   2   4
HETATM    4  C   UNL     1      -9.074   8.829  69.067  1.00  0.00    -0.141 C  
HETATM    5  H   UNL     1      -8.557   6.863  69.447  1.00  0.00     0.000 HD 
HETATM    6  N   UNL     1      -9.264   7.367  68.912  1.00  0.00    -0.143 NA 
HETATM    7  C   UNL     1      -9.475   9.243  70.495  1.00  0.00    -0.317 C  
HETATM    8  C   UNL     1     -10.873   8.758  70.881  1.00  0.00    -0.293 C  
HETATM    9  C   UNL     1     -10.596   6.878  69.249  1.00  0.00    -0.226 C  
HETATM   10  C   UNL     1     -10.982   7.254  70.678  1.00  0.00    -0.278 C  
ENDBRANCH   2   4
BRANCH   2  11
HETATM   11  C   UNL     1      -9.322  11.175  67.948  1.00  0.00    -0.161 A  
HETATM   12  C   UNL     1      -6.349  13.215  69.216  1.00  0.00    -0.106 C  
HETATM   13  C   UNL     1      -9.584  13.542  67.399  1.00  0.00    -0.227 A  
HETATM   14  F   UNL     1      -5.456  13.776  68.351  1.00  0.00    -0.075 F  
HETATM   15  F   UNL     1      -6.502  14.112  70.233  1.00  0.00    -0.155 F  
HETATM   16  C   UNL     1      -7.669  12.836  68.557  1.00  0.00    -0.113 A  
HETATM   17  F   UNL     1      -5.695  12.151  69.771  1.00  0.00    -0.073 F  
HETATM   18  C   UNL     1      -8.101  11.518  68.556  1.00  0.00    -0.146 A  
HETATM   19  C   UNL     1     -10.105  12.221  67.375  1.00  0.00    -0.207 A  
HETATM   20  N   UNL     1      -8.406  13.819  67.973  1.00  0.00    -0.159 NA 
HETATM   21  C   UNL     1     -11.377  12.022  66.789  1.00  0.00    -0.398 A  
HETATM   22  C   UNL     1     -12.141  13.075  66.304  1.00  0.00    -0.453 A  
HETATM   23  C   UNL     1     -11.609  14.351  66.314  1.00  0.00    -0.377 A  
HETATM   24  C   UNL     1     -10.316  14.581  66.823  1.00  0.00    -0.269 A  
HETATM   25  C   UNL     1      -9.770  15.981  66.701  1.00  0.00    -0.244 C  
HETATM   26  F   UNL     1      -9.857  16.428  65.410  1.00  0.00    -0.301 F  
HETATM   27  F   UNL     1      -8.473  16.183  67.054  1.00  0.00    -0.177 F  
HETATM   28  F   UNL     1     -10.497  16.878  67.431  1.00  0.00    -0.294 F  
ENDBRANCH   2  11
TORSDOF 2
ENDMDL
MODEL       98
REMARK 921   NORMALIZED FREE ENERGY PREDICTED BY IDOCK:   -4.76 KCAL/MOL
REMARK 922        TOTAL FREE ENERGY PREDICTED BY IDOCK:   -6.06 KCAL/MOL
REMARK 923 INTER-LIGAND FREE ENERGY PREDICTED BY IDOCK:   -7.03 KCAL/MOL
REMARK 924 INTRA-LIGAND FREE ENERGY PREDICTED BY IDOCK:    0.97 KCAL/MOL
REMARK 927      BINDING AFFINITY PREDICTED BY RF-SCORE:    0.00 PKD
ROOT
HETATM    1  O   UNL     1      -9.665  17.855  68.718  1.00  0.00    -0.329 OA 
HETATM    2  C   UNL     1     -10.230  17.699  67.401  1.00  0.00    -0.345 C  
HETATM    3  H   UNL     1     -10.123  17.275  69.315  1.00  0.00     0.000 HD 
ENDROOT
BRANCH   2   4
HETATM    4  C   UNL     1      -9.472  18.658  66.414  1.00  0.00    -0.311 C  
HETATM    5  H   UNL     1      -8.033  18.582  64.931  1.00  0.00     0.000 HD 
HETATM    6  N   UNL     1      -8.270  18.068  65.779  1.00  0.00    -0.487 NA 
HETATM    7  C   UNL     1      -9.103  20.024  67.024  1.00  0.00    -0.466 C  
HETATM    8  C   UNL     1      -7.889  19.949  67.952  1.00  0.00    -0.327 C  
HETATM    9  C   UNL     1      -7.103  17.961  66.647  1.00  0.00    -0.219 C  
HETATM   10  C   UNL     1      -6.711  19.319  67.224  1.00  0.00    -0.207 C  
ENDBRANCH   2   4
BRANCH   2  11
HETATM   11  C   UNL     1     -10.124  16.211  67.048  1.00  0.00    -0.270 A  
HETATM   12  C   UNL     1     -11.886  13.793  64.668  1.00  0.00    -0.402 C  
HETATM   13  C   UNL     1      -9.145  13.976  67.183  1.00  0.00    -0.232 A  
HETATM   14  F   UNL     1     -11.254  13.301  63.564  1.00  0.00    -0.378 F  
HETATM   15  F   UNL     1     -12.648  12.770  65.153  1.00  0.00    -0.495 F  
HETATM   16  C   UNL     1     -10.928  14.361  65.707  1.00  0.00    -0.314 A  
HETATM   17  F   UNL     1     -12.779  14.713  64.194  1.00  0.00    -0.428 F  
HETATM   18  C   UNL     1     -11.011  15.693  66.085  1.00  0.00    -0.206 A  
HETATM   19  C   UNL     1      -9.178  15.321  67.638  1.00  0.00    -0.187 A  
HETATM   20  N   UNL     1      -9.996  13.532  66.250  1.00  0.00    -0.292 NA 
HETATM   21  C   UNL     1      -8.275  15.698  68.659  1.00  0.00    -0.168 A  
HETATM   22  C   UNL     1      -7.416  14.786  69.260  1.00  0.00    -0.162 A  
HETATM   23  C   UNL     1      -7.379  13.487  68.789  1.00  0.00    -0.086 A  
HETATM   24  C   UNL     1      -8.212  13.090  67.725  1.00  0.00    -0.168 A  
HETATM   25  C   UNL     1      -8.036  11.687  67.202  1.00  0.00    -0.166 C  
HETATM   26  F   UNL     1      -6.725  11.442  66.893  1.00  0.00    -0.102 F  
HETATM   27  F   UNL     1      -8.728  11.340  66.085  1.00  0.00    -0.172 F  
HETATM   28  F   UNL     1      -8.354  10.748  68.142  1.00  0.00    -0.108 F  
ENDBRANCH   2  11
TORSDOF 2
ENDMDL
MODEL       99
REMARK 921   NORMALIZED FREE ENERGY PREDICTED BY IDOCK:   -4.72 KCAL/MOL
REMARK 922        TOTAL FREE ENERGY PREDICTED BY IDOCK:   -6.02 KCAL/MOL
REMARK 923 INTER-LIGAND FREE ENERGY PREDICTED BY IDOCK:   -6.03 KCAL/MOL
REMARK 924 INTRA-LIGAND FREE ENERGY PREDICTED BY IDOCK:    0.01 KCAL/MOL
REMARK 927      BINDING AFFINITY PREDICTED BY RF-SCORE:    0.00 PKD
ROOT
HETATM    1  O   UNL     1     -10.986   7.331  66.872  1.00  0.00    -0.519 OA 
HETATM    2  C   UNL     1     -10.170   6.258  67.383  1.00  0.00    -0.180 C  
HETATM    3  H   UNL     1     -11.894   7.145  67.077  1.00  0.00     0.000 HD 
ENDROOT
BRANCH   2   4
HETATM    4  C   UNL     1      -8.667   6.566  67.044  1.00  0.00    -0.112 C  
HETATM    5  H   UNL     1      -6.958   7.287  67.959  1.00  0.00     0.000 HD 
HETATM    6  N   UNL     1      -7.967   7.404  68.046  1.00  0.00    -0.118 NA 
HETATM    7  C   UNL     1      -8.449   7.166  65.642  1.00  0.00    -0.141 C  
HETATM    8  C   UNL     1      -8.815   8.649  65.569  1.00  0.00    -0.220 C  
HETATM    9  C   UNL     1      -8.314   8.820  68.017  1.00  0.00    -0.119 C  
HETATM   10  C   UNL     1      -8.063   9.428  66.639  1.00  0.00    -0.108 C  
ENDBRANCH   2   4
BRANCH   2  11
HETATM   11  C   UNL     1     -10.473   6.144  68.881  1.00  0.00    -0.293 A  
HETATM   12  C   UNL     1     -12.166   8.307  71.540  1.00  0.00    -0.301 C  
HETATM   13  C   UNL     1     -10.517   5.005  71.042  1.00  0.00    -0.141 A  
HETATM   14  F   UNL     1     -13.379   7.966  72.061  1.00  0.00    -0.312 F  
HETATM   15  F   UNL     1     -11.445   8.831  72.574  1.00  0.00    -0.425 F  
HETATM   16  C   UNL     1     -11.458   7.146  70.854  1.00  0.00    -0.297 A  
HETATM   17  F   UNL     1     -12.414   9.360  70.705  1.00  0.00    -0.306 F  
HETATM   18  C   UNL     1     -11.130   7.219  69.508  1.00  0.00    -0.129 A  
HETATM   19  C   UNL     1     -10.129   5.011  69.676  1.00  0.00    -0.321 A  
HETATM   20  N   UNL     1     -11.158   6.044  71.592  1.00  0.00    -0.271 NA 
HETATM   21  C   UNL     1      -9.416   3.893  69.185  1.00  0.00    -0.246 A  
HETATM   22  C   UNL     1      -9.037   2.838  70.006  1.00  0.00    -0.189 A  
HETATM   23  C   UNL     1      -9.442   2.837  71.327  1.00  0.00    -0.219 A  
HETATM   24  C   UNL     1     -10.216   3.897  71.837  1.00  0.00    -0.143 A  
HETATM   25  C   UNL     1     -10.706   3.769  73.258  1.00  0.00    -0.197 C  
HETATM   26  F   UNL     1     -11.354   2.577  73.444  1.00  0.00    -0.274 F  
HETATM   27  F   UNL     1     -11.572   4.712  73.713  1.00  0.00    -0.333 F  
HETATM   28  F   UNL     1      -9.674   3.749  74.153  1.00  0.00    -0.112 F  
ENDBRANCH   2  11
TORSDOF 2
ENDMDL
MODEL      100
REMARK 921   NORMALIZED FREE ENERGY PREDICTED BY IDOCK:   -4.70 KCAL/MOL
REMARK 922        TOTAL FREE ENERGY PREDICTED BY IDOCK:   -5.99 KCAL/MOL
REMARK 923 INTER-LIGAND FREE ENERGY PREDICTED BY IDOCK:   -5.29 KCAL/MOL
REMARK 924 INTRA-LIGAND FREE ENERGY PREDICTED BY IDOCK:   -0.70 KCAL/MOL
REMARK 927      BINDING AFFINITY PREDICTED BY RF-SCORE:    0.00 PKD
ROOT
HETATM    1  O   UNL     1      -8.310  13.710  67.612  1.00  0.00    -0.156 OA 
HETATM    2  C   UNL     1      -9.429  13.082  68.270  1.00  0.00    -0.208 C  
HETATM    3  H   UNL     1      -7.530  13.197  67.786  1.00  0.00     0.000 HD 
ENDROOT
BRANCH   2   4
HETATM    4  C   UNL     1     -10.720  13.931  67.982  1.00  0.00    -0.247 C  
HETATM    5  H   UNL     1     -11.264  15.878  67.547  1.00  0.00     0.000 HD 
HETATM    6  N   UNL     1     -10.523  15.398  68.058  1.00  0.00    -0.252 NA 
HETATM    7  C   UNL     1     -11.936  13.538  68.842  1.00  0.00    -0.378 C  
HETATM    8  C   UNL     1     -11.848  14.075  70.271  1.00  0.00    -0.373 C  
HETATM    9  C   UNL     1     -10.412  15.937  69.409  1.00  0.00    -0.265 C  
HETATM   10  C   UNL     1     -11.633  15.582  70.253  1.00  0.00    -0.355 C  
ENDBRANCH   2   4
BRANCH   2  11
HETATM   11  C   UNL     1      -9.491  11.638  67.758  1.00  0.00    -0.178 A  
HETATM   12  C   UNL     1      -8.708   9.818  64.489  1.00  0.00    -0.198 C  
HETATM   13  C   UNL     1      -9.869   9.234  67.980  1.00  0.00    -0.163 A  
HETATM   14  F   UNL     1      -7.632   8.987  64.383  1.00  0.00    -0.101 F  
HETATM   15  F   UNL     1      -9.705   9.239  63.758  1.00  0.00     0.109 F  
HETATM   16  C   UNL     1      -9.116  10.094  65.931  1.00  0.00    -0.156 A  
HETATM   17  F   UNL     1      -8.364  10.945  63.798  1.00  0.00    -0.126 F  
HETATM   18  C   UNL     1      -9.111  11.389  66.426  1.00  0.00    -0.201 A  
HETATM   19  C   UNL     1      -9.910  10.532  68.555  1.00  0.00    -0.175 A  
HETATM   20  N   UNL     1      -9.481   9.043  66.712  1.00  0.00    -0.169 NA 
HETATM   21  C   UNL     1     -10.375  10.652  69.885  1.00  0.00    -0.076 A  
HETATM   22  C   UNL     1     -10.842   9.561  70.607  1.00  0.00    -0.371 A  
HETATM   23  C   UNL     1     -10.772   8.302  70.041  1.00  0.00    -0.239 A  
HETATM   24  C   UNL     1     -10.249   8.130  68.745  1.00  0.00    -0.221 A  
HETATM   25  C   UNL     1     -10.111   6.715  68.242  1.00  0.00    -0.159 C  
HETATM   26  F   UNL     1      -9.419   5.945  69.137  1.00  0.00    -0.124 F  
HETATM   27  F   UNL     1      -9.474   6.528  67.056  1.00  0.00    -0.125 F  
HETATM   28  F   UNL     1     -11.322   6.098  68.114  1.00  0.00    -0.388 F  
ENDBRANCH   2  11
TORSDOF 2
ENDMDL
MODEL      101
REMARK 921   NORMALIZED FREE ENERGY PREDICTED BY IDOCK:   -4.69 KCAL/MOL
REMARK 922        TOTAL FREE ENERGY PREDICTED BY IDOCK:   -5.97 KCAL/MOL
REMARK 923 INTER-LIGAND FREE ENERGY PREDICTED BY IDOCK:   -5.67 KCAL/MOL
REMARK 924 INTRA-LIGAND FREE ENERGY PREDICTED BY IDOCK:   -0.31 KCAL/MOL
REMARK 927      BINDING AFFINITY PREDICTED BY RF-SCORE:    0.00 PKD
ROOT
HETATM    1  O   UNL     1      -7.259  10.869  69.198  1.00  0.00    -0.096 OA 
HETATM    2  C   UNL     1      -8.656  10.828  68.843  1.00  0.00    -0.153 C  
HETATM    3  H   UNL     1      -7.187  10.884  70.145  1.00  0.00     0.000 HD 
ENDROOT
BRANCH   2   4
HETATM    4  C   UNL     1      -8.774  10.803  67.277  1.00  0.00    -0.130 C  
HETATM    5  H   UNL     1      -8.206  11.922  65.632  1.00  0.00     0.000 HD 
HETATM    6  N   UNL     1      -8.440  12.084  66.612  1.00  0.00    -0.157 NA 
HETATM    7  C   UNL     1     -10.135  10.302  66.757  1.00  0.00    -0.272 C  
HETATM    8  C   UNL     1     -11.236  11.359  66.866  1.00  0.00    -0.331 C  
HETATM    9  C   UNL     1      -9.461  13.121  66.720  1.00  0.00    -0.252 C  
HETATM   10  C   UNL     1     -10.803  12.641  66.171  1.00  0.00    -0.301 C  
ENDBRANCH   2   4
BRANCH   2  11
HETATM   11  C   UNL     1      -9.255   9.604  69.546  1.00  0.00    -0.214 A  
HETATM   12  C   UNL     1     -12.187   8.918  71.901  1.00  0.00    -0.374 C  
HETATM   13  C   UNL     1      -9.423   7.223  70.068  1.00  0.00    -0.161 A  
HETATM   14  F   UNL     1     -13.293   8.244  71.475  1.00  0.00    -0.323 F  
HETATM   15  F   UNL     1     -11.968   8.509  73.185  1.00  0.00    -0.304 F  
HETATM   16  C   UNL     1     -10.975   8.715  71.001  1.00  0.00    -0.260 A  
HETATM   17  F   UNL     1     -12.575  10.224  72.001  1.00  0.00    -0.470 F  
HETATM   18  C   UNL     1     -10.377   9.798  70.374  1.00  0.00    -0.354 A  
HETATM   19  C   UNL     1      -8.743   8.281  69.408  1.00  0.00    -0.142 A  
HETATM   20  N   UNL     1     -10.500   7.452  70.831  1.00  0.00    -0.216 NA 
HETATM   21  C   UNL     1      -7.588   7.958  68.657  1.00  0.00    -0.101 A  
HETATM   22  C   UNL     1      -7.077   6.667  68.603  1.00  0.00    -0.083 A  
HETATM   23  C   UNL     1      -7.765   5.647  69.231  1.00  0.00    -0.088 A  
HETATM   24  C   UNL     1      -8.959   5.914  69.929  1.00  0.00    -0.144 A  
HETATM   25  C   UNL     1      -9.702   4.731  70.496  1.00  0.00    -0.211 C  
HETATM   26  F   UNL     1      -9.920   3.784  69.532  1.00  0.00    -0.261 F  
HETATM   27  F   UNL     1     -10.926   4.959  71.042  1.00  0.00    -0.149 F  
HETATM   28  F   UNL     1      -8.979   4.088  71.460  1.00  0.00    -0.120 F  
ENDBRANCH   2  11
TORSDOF 2
ENDMDL
MODEL      102
REMARK 921   NORMALIZED FREE ENERGY PREDICTED BY IDOCK:   -4.66 KCAL/MOL
REMARK 922        TOTAL FREE ENERGY PREDICTED BY IDOCK:   -5.95 KCAL/MOL
REMARK 923 INTER-LIGAND FREE ENERGY PREDICTED BY IDOCK:   -5.77 KCAL/MOL
REMARK 924 INTRA-LIGAND FREE ENERGY PREDICTED BY IDOCK:   -0.18 KCAL/MOL
REMARK 927      BINDING AFFINITY PREDICTED BY RF-SCORE:    0.00 PKD
ROOT
HETATM    1  O   UNL     1     -11.314   6.902  70.080  1.00  0.00    -0.334 OA 
HETATM    2  C   UNL     1     -10.503   7.950  70.648  1.00  0.00    -0.213 C  
HETATM    3  H   UNL     1     -12.229   7.123  70.207  1.00  0.00     0.000 HD 
ENDROOT
BRANCH   2   4
HETATM    4  C   UNL     1      -8.990   7.583  70.437  1.00  0.00    -0.152 C  
HETATM    5  H   UNL     1      -7.805   5.933  70.051  1.00  0.00     0.000 HD 
HETATM    6  N   UNL     1      -8.689   6.134  70.517  1.00  0.00    -0.141 NA 
HETATM    7  C   UNL     1      -8.023   8.352  71.357  1.00  0.00    -0.152 C  
HETATM    8  C   UNL     1      -8.002   7.805  72.784  1.00  0.00    -0.153 C  
HETATM    9  C   UNL     1      -8.686   5.577  71.865  1.00  0.00    -0.135 C  
HETATM   10  C   UNL     1      -7.701   6.313  72.770  1.00  0.00    -0.104 C  
ENDBRANCH   2   4
BRANCH   2  11
HETATM   11  C   UNL     1     -10.939   9.258  69.979  1.00  0.00    -0.254 A  
HETATM   12  C   UNL     1     -12.779  12.437  71.038  1.00  0.00    -0.223 C  
HETATM   13  C   UNL     1     -11.084  10.847  68.128  1.00  0.00    -0.280 A  
HETATM   14  F   UNL     1     -12.123  13.627  71.161  1.00  0.00    -0.397 F  
HETATM   15  F   UNL     1     -14.008  12.736  70.523  1.00  0.00     1.120 F  
HETATM   16  C   UNL     1     -12.020  11.414  70.203  1.00  0.00    -0.377 A  
HETATM   17  F   UNL     1     -13.018  12.023  72.318  1.00  0.00    -0.494 F  
HETATM   18  C   UNL     1     -11.638  10.201  70.756  1.00  0.00    -0.445 A  
HETATM   19  C   UNL     1     -10.677   9.577  68.613  1.00  0.00    -0.218 A  
HETATM   20  N   UNL     1     -11.730  11.721  68.911  1.00  0.00    -0.300 NA 
HETATM   21  C   UNL     1     -10.040   8.695  67.709  1.00  0.00    -0.266 A  
HETATM   22  C   UNL     1      -9.864   9.012  66.367  1.00  0.00    -0.356 A  
HETATM   23  C   UNL     1     -10.245  10.262  65.917  1.00  0.00    -0.293 A  
HETATM   24  C   UNL     1     -10.817  11.196  66.802  1.00  0.00    -0.322 A  
HETATM   25  C   UNL     1     -11.108  12.571  66.257  1.00  0.00    -0.295 C  
HETATM   26  F   UNL     1      -9.996  13.103  65.660  1.00  0.00    -0.271 F  
HETATM   27  F   UNL     1     -11.522  13.522  67.135  1.00  0.00    -0.299 F  
HETATM   28  F   UNL     1     -12.052  12.540  65.270  1.00  0.00    -0.412 F  
ENDBRANCH   2  11
TORSDOF 2
ENDMDL
MODEL      103
REMARK 921   NORMALIZED FREE ENERGY PREDICTED BY IDOCK:   -4.66 KCAL/MOL
REMARK 922        TOTAL FREE ENERGY PREDICTED BY IDOCK:   -5.95 KCAL/MOL
REMARK 923 INTER-LIGAND FREE ENERGY PREDICTED BY IDOCK:   -5.64 KCAL/MOL
REMARK 924 INTRA-LIGAND FREE ENERGY PREDICTED BY IDOCK:   -0.30 KCAL/MOL
REMARK 927      BINDING AFFINITY PREDICTED BY RF-SCORE:    0.00 PKD
ROOT
HETATM    1  O   UNL     1      -9.637   7.477  65.718  1.00  0.00    -0.406 OA 
HETATM    2  C   UNL     1      -9.106   7.496  67.059  1.00  0.00    -0.135 C  
HETATM    3  H   UNL     1     -10.578   7.358  65.767  1.00  0.00     0.000 HD 
ENDROOT
BRANCH   2   4
HETATM    4  C   UNL     1      -7.549   7.693  66.978  1.00  0.00    -0.103 C  
HETATM    5  H   UNL     1      -5.895   6.844  66.071  1.00  0.00     0.000 HD 
HETATM    6  N   UNL     1      -6.810   6.543  66.407  1.00  0.00    -0.060 NA 
HETATM    7  C   UNL     1      -6.897   8.102  68.312  1.00  0.00    -0.069 C  
HETATM    8  C   UNL     1      -6.741   6.928  69.279  1.00  0.00    -0.050 C  
HETATM    9  C   UNL     1      -6.666   5.397  67.298  1.00  0.00    -0.059 C  
HETATM   10  C   UNL     1      -5.986   5.791  68.607  1.00  0.00    -0.020 C  
ENDBRANCH   2   4
BRANCH   2  11
HETATM   11  C   UNL     1      -9.849   8.604  67.814  1.00  0.00    -0.218 A  
HETATM   12  C   UNL     1     -11.805   8.902  71.084  1.00  0.00    -0.298 C  
HETATM   13  C   UNL     1     -10.613  10.897  68.174  1.00  0.00    -0.198 A  
HETATM   14  F   UNL     1     -11.300   9.586  72.151  1.00  0.00    -0.399 F  
HETATM   15  F   UNL     1     -13.146   9.157  71.074  1.00  0.00    -0.312 F  
HETATM   16  C   UNL     1     -11.125   9.252  69.767  1.00  0.00    -0.150 A  
HETATM   17  F   UNL     1     -11.694   7.581  71.417  1.00  0.00    -0.267 F  
HETATM   18  C   UNL     1     -10.473   8.274  69.031  1.00  0.00    -0.212 A  
HETATM   19  C   UNL     1      -9.943   9.951  67.354  1.00  0.00    -0.235 A  
HETATM   20  N   UNL     1     -11.175  10.541  69.336  1.00  0.00    -0.251 NA 
HETATM   21  C   UNL     1      -9.416  10.400  66.121  1.00  0.00    -0.227 A  
HETATM   22  C   UNL     1      -9.589  11.704  65.673  1.00  0.00    -0.252 A  
HETATM   23  C   UNL     1     -10.221  12.617  66.495  1.00  0.00    -0.255 A  
HETATM   24  C   UNL     1     -10.698  12.228  67.761  1.00  0.00    -0.246 A  
HETATM   25  C   UNL     1     -11.281  13.308  68.637  1.00  0.00    -0.274 C  
HETATM   26  F   UNL     1     -10.412  14.358  68.761  1.00  0.00    -0.220 F  
HETATM   27  F   UNL     1     -11.609  12.974  69.913  1.00  0.00    -0.340 F  
HETATM   28  F   UNL     1     -12.410  13.852  68.093  1.00  0.00    -0.390 F  
ENDBRANCH   2  11
TORSDOF 2
ENDMDL
MODEL      104
REMARK 921   NORMALIZED FREE ENERGY PREDICTED BY IDOCK:   -4.66 KCAL/MOL
REMARK 922        TOTAL FREE ENERGY PREDICTED BY IDOCK:   -5.95 KCAL/MOL
REMARK 923 INTER-LIGAND FREE ENERGY PREDICTED BY IDOCK:   -5.99 KCAL/MOL
REMARK 924 INTRA-LIGAND FREE ENERGY PREDICTED BY IDOCK:    0.04 KCAL/MOL
REMARK 927      BINDING AFFINITY PREDICTED BY RF-SCORE:    0.00 PKD
ROOT
HETATM    1  O   UNL     1     -11.743   6.564  69.725  1.00  0.00    -0.595 OA 
HETATM    2  C   UNL     1     -10.917   7.745  69.734  1.00  0.00    -0.158 C  
HETATM    3  H   UNL     1     -12.338   6.616  68.986  1.00  0.00     0.000 HD 
ENDROOT
BRANCH   2   4
HETATM    4  C   UNL     1      -9.932   7.659  70.955  1.00  0.00    -0.180 C  
HETATM    5  H   UNL     1      -8.685   6.295  71.884  1.00  0.00     0.000 HD 
HETATM    6  N   UNL     1      -9.549   6.280  71.343  1.00  0.00    -0.156 NA 
HETATM    7  C   UNL     1     -10.411   8.422  72.204  1.00  0.00    -0.397 C  
HETATM    8  C   UNL     1     -11.500   7.673  72.974  1.00  0.00    -0.265 C  
HETATM    9  C   UNL     1     -10.577   5.532  72.058  1.00  0.00    -0.228 C  
HETATM   10  C   UNL     1     -11.028   6.268  73.318  1.00  0.00    -0.221 C  
ENDBRANCH   2   4
BRANCH   2  11
HETATM   11  C   UNL     1     -10.229   7.815  68.366  1.00  0.00    -0.230 A  
HETATM   12  C   UNL     1      -8.095   5.487  66.212  1.00  0.00    -0.106 C  
HETATM   13  C   UNL     1      -9.653   8.870  66.238  1.00  0.00    -0.260 A  
HETATM   14  F   UNL     1      -8.588   4.933  65.067  1.00  0.00    -0.122 F  
HETATM   15  F   UNL     1      -6.786   5.779  65.956  1.00  0.00    -0.051 F  
HETATM   16  C   UNL     1      -8.889   6.697  66.686  1.00  0.00    -0.136 A  
HETATM   17  F   UNL     1      -8.064   4.468  67.122  1.00  0.00    -0.099 F  
HETATM   18  C   UNL     1      -9.498   6.693  67.932  1.00  0.00    -0.117 A  
HETATM   19  C   UNL     1     -10.287   8.952  67.506  1.00  0.00    -0.328 A  
HETATM   20  N   UNL     1      -8.985   7.773  65.860  1.00  0.00    -0.149 NA 
HETATM   21  C   UNL     1     -10.933  10.163  67.846  1.00  0.00    -0.335 A  
HETATM   22  C   UNL     1     -10.909  11.274  67.012  1.00  0.00    -0.332 A  
HETATM   23  C   UNL     1     -10.308  11.169  65.772  1.00  0.00    -0.316 A  
HETATM   24  C   UNL     1      -9.716   9.958  65.366  1.00  0.00    -0.375 A  
HETATM   25  C   UNL     1      -9.176   9.895  63.959  1.00  0.00    -0.253 C  
HETATM   26  F   UNL     1     -10.126  10.284  63.054  1.00  0.00    -0.289 F  
HETATM   27  F   UNL     1      -8.735   8.692  63.507  1.00  0.00    -0.166 F  
HETATM   28  F   UNL     1      -8.139  10.765  63.772  1.00  0.00    -0.125 F  
ENDBRANCH   2  11
TORSDOF 2
ENDMDL
MODEL      105
REMARK 921   NORMALIZED FREE ENERGY PREDICTED BY IDOCK:   -4.66 KCAL/MOL
REMARK 922        TOTAL FREE ENERGY PREDICTED BY IDOCK:   -5.94 KCAL/MOL
REMARK 923 INTER-LIGAND FREE ENERGY PREDICTED BY IDOCK:   -5.72 KCAL/MOL
REMARK 924 INTRA-LIGAND FREE ENERGY PREDICTED BY IDOCK:   -0.23 KCAL/MOL
REMARK 927      BINDING AFFINITY PREDICTED BY RF-SCORE:    0.00 PKD
ROOT
HETATM    1  O   UNL     1     -13.110   7.222  70.690  1.00  0.00    -0.591 OA 
HETATM    2  C   UNL     1     -11.774   7.552  70.258  1.00  0.00    -0.023 C  
HETATM    3  H   UNL     1     -13.418   6.481  70.181  1.00  0.00     0.000 HD 
ENDROOT
BRANCH   2   4
HETATM    4  C   UNL     1     -11.265   8.778  71.099  1.00  0.00    -0.277 C  
HETATM    5  H   UNL     1     -12.014  10.423  72.106  1.00  0.00     0.000 HD 
HETATM    6  N   UNL     1     -12.271   9.847  71.304  1.00  0.00    -0.358 NA 
HETATM    7  C   UNL     1      -9.960   9.404  70.571  1.00  0.00    -0.328 C  
HETATM    8  C   UNL     1     -10.182  10.285  69.341  1.00  0.00    -0.255 C  
HETATM    9  C   UNL     1     -12.522  10.690  70.140  1.00  0.00    -0.270 C  
HETATM   10  C   UNL     1     -11.236  11.342  69.636  1.00  0.00    -0.301 C  
ENDBRANCH   2   4
BRANCH   2  11
HETATM   11  C   UNL     1     -10.932   6.281  70.411  1.00  0.00    -0.385 A  
HETATM   12  C   UNL     1      -9.321   3.722  68.074  1.00  0.00    -0.179 C  
HETATM   13  C   UNL     1      -9.694   4.595  71.675  1.00  0.00    -0.172 A  
HETATM   14  F   UNL     1      -7.967   3.664  67.913  1.00  0.00    -0.077 F  
HETATM   15  F   UNL     1      -9.758   2.429  68.048  1.00  0.00    -0.264 F  
HETATM   16  C   UNL     1      -9.746   4.466  69.333  1.00  0.00    -0.197 A  
HETATM   17  F   UNL     1      -9.798   4.285  66.924  1.00  0.00    -0.196 F  
HETATM   18  C   UNL     1     -10.540   5.599  69.244  1.00  0.00    -0.359 A  
HETATM   19  C   UNL     1     -10.521   5.750  71.670  1.00  0.00    -0.286 A  
HETATM   20  N   UNL     1      -9.329   3.991  70.537  1.00  0.00    -0.133 NA 
HETATM   21  C   UNL     1     -10.897   6.301  72.917  1.00  0.00    -0.284 A  
HETATM   22  C   UNL     1     -10.536   5.714  74.124  1.00  0.00    -0.281 A  
HETATM   23  C   UNL     1      -9.711   4.606  74.111  1.00  0.00    -0.154 A  
HETATM   24  C   UNL     1      -9.255   4.069  72.891  1.00  0.00    -0.130 A  
HETATM   25  C   UNL     1      -8.276   2.925  72.968  1.00  0.00    -0.071 C  
HETATM   26  F   UNL     1      -7.214   3.245  73.770  1.00  0.00    -0.044 F  
HETATM   27  F   UNL     1      -7.718   2.495  71.805  1.00  0.00    -0.041 F  
HETATM   28  F   UNL     1      -8.828   1.817  73.546  1.00  0.00    -0.061 F  
ENDBRANCH   2  11
TORSDOF 2
ENDMDL
MODEL      106
REMARK 921   NORMALIZED FREE ENERGY PREDICTED BY IDOCK:   -4.63 KCAL/MOL
REMARK 922        TOTAL FREE ENERGY PREDICTED BY IDOCK:   -5.91 KCAL/MOL
REMARK 923 INTER-LIGAND FREE ENERGY PREDICTED BY IDOCK:   -5.66 KCAL/MOL
REMARK 924 INTRA-LIGAND FREE ENERGY PREDICTED BY IDOCK:   -0.25 KCAL/MOL
REMARK 927      BINDING AFFINITY PREDICTED BY RF-SCORE:    0.00 PKD
ROOT
HETATM    1  O   UNL     1      -9.750  12.183  67.233  1.00  0.00    -0.188 OA 
HETATM    2  C   UNL     1     -10.422  11.373  66.247  1.00  0.00    -0.255 C  
HETATM    3  H   UNL     1      -9.901  11.803  68.091  1.00  0.00     0.000 HD 
ENDROOT
BRANCH   2   4
HETATM    4  C   UNL     1     -10.172  12.001  64.829  1.00  0.00    -0.279 C  
HETATM    5  H   UNL     1      -9.487  13.758  63.979  1.00  0.00     0.000 HD 
HETATM    6  N   UNL     1      -9.967  13.469  64.831  1.00  0.00    -0.216 NA 
HETATM    7  C   UNL     1     -11.245  11.641  63.784  1.00  0.00    -0.498 C  
HETATM    8  C   UNL     1     -12.535  12.444  63.960  1.00  0.00    -0.554 C  
HETATM    9  C   UNL     1     -11.177  14.261  65.021  1.00  0.00    -0.364 C  
HETATM   10  C   UNL     1     -12.229  13.934  63.964  1.00  0.00    -0.413 C  
ENDBRANCH   2   4
BRANCH   2  11
HETATM   11  C   UNL     1      -9.893   9.944  66.412  1.00  0.00    -0.288 A  
HETATM   12  C   UNL     1      -7.895   7.464  64.298  1.00  0.00    -0.127 C  
HETATM   13  C   UNL     1      -9.485   7.871  67.641  1.00  0.00    -0.144 A  
HETATM   14  F   UNL     1      -6.606   7.146  64.610  1.00  0.00    -0.038 F  
HETATM   15  F   UNL     1      -8.469   6.310  63.849  1.00  0.00    -0.077 F  
HETATM   16  C   UNL     1      -8.658   8.093  65.457  1.00  0.00    -0.149 A  
HETATM   17  F   UNL     1      -7.811   8.274  63.201  1.00  0.00    -0.118 F  
HETATM   18  C   UNL     1      -9.186   9.369  65.339  1.00  0.00    -0.305 A  
HETATM   19  C   UNL     1     -10.074   9.163  67.592  1.00  0.00    -0.273 A  
HETATM   20  N   UNL     1      -8.804   7.373  66.601  1.00  0.00    -0.136 NA 
HETATM   21  C   UNL     1     -10.814   9.596  68.716  1.00  0.00    -0.199 A  
HETATM   22  C   UNL     1     -11.029   8.779  69.820  1.00  0.00    -0.146 A  
HETATM   23  C   UNL     1     -10.429   7.535  69.861  1.00  0.00    -0.232 A  
HETATM   24  C   UNL     1      -9.624   7.095  68.793  1.00  0.00    -0.144 A  
HETATM   25  C   UNL     1      -8.923   5.771  68.962  1.00  0.00    -0.117 C  
HETATM   26  F   UNL     1      -8.213   5.741  70.132  1.00  0.00    -0.105 F  
HETATM   27  F   UNL     1      -8.031   5.405  68.004  1.00  0.00    -0.092 F  
HETATM   28  F   UNL     1      -9.806   4.734  69.063  1.00  0.00    -0.202 F  
ENDBRANCH   2  11
TORSDOF 2
ENDMDL
MODEL      107
REMARK 921   NORMALIZED FREE ENERGY PREDICTED BY IDOCK:   -4.63 KCAL/MOL
REMARK 922        TOTAL FREE ENERGY PREDICTED BY IDOCK:   -5.91 KCAL/MOL
REMARK 923 INTER-LIGAND FREE ENERGY PREDICTED BY IDOCK:   -5.15 KCAL/MOL
REMARK 924 INTRA-LIGAND FREE ENERGY PREDICTED BY IDOCK:   -0.76 KCAL/MOL
REMARK 927      BINDING AFFINITY PREDICTED BY RF-SCORE:    0.00 PKD
ROOT
HETATM    1  O   UNL     1     -10.110   3.984  66.378  1.00  0.00    -0.386 OA 
HETATM    2  C   UNL     1      -9.862   4.348  67.751  1.00  0.00    -0.094 C  
HETATM    3  H   UNL     1     -10.964   4.315  66.127  1.00  0.00     0.000 HD 
ENDROOT
BRANCH   2   4
HETATM    4  C   UNL     1      -8.450   3.800  68.167  1.00  0.00    -0.093 C  
HETATM    5  H   UNL     1      -7.311   2.081  68.001  1.00  0.00     0.000 HD 
HETATM    6  N   UNL     1      -8.299   2.330  68.052  1.00  0.00    -0.062 NA 
HETATM    7  C   UNL     1      -7.989   4.248  69.567  1.00  0.00    -0.056 C  
HETATM    8  C   UNL     1      -8.670   3.469  70.692  1.00  0.00    -0.126 C  
HETATM    9  C   UNL     1      -8.959   1.558  69.098  1.00  0.00    -0.084 C  
HETATM   10  C   UNL     1      -8.477   1.974  70.486  1.00  0.00    -0.086 C  
ENDBRANCH   2   4
BRANCH   2  11
HETATM   11  C   UNL     1     -10.004   5.872  67.837  1.00  0.00    -0.157 A  
HETATM   12  C   UNL     1      -9.064   8.873  65.664  1.00  0.00    -0.212 C  
HETATM   13  C   UNL     1     -10.749   7.963  68.859  1.00  0.00    -0.073 A  
HETATM   14  F   UNL     1     -10.017   9.601  65.014  1.00  0.00    -0.379 F  
HETATM   15  F   UNL     1      -8.125   9.771  66.083  1.00  0.00    -0.106 F  
HETATM   16  C   UNL     1      -9.624   8.027  66.800  1.00  0.00    -0.216 A  
HETATM   17  F   UNL     1      -8.448   8.136  64.693  1.00  0.00    -0.164 F  
HETATM   18  C   UNL     1      -9.486   6.648  66.783  1.00  0.00    -0.194 A  
HETATM   19  C   UNL     1     -10.631   6.550  68.925  1.00  0.00    -0.280 A  
HETATM   20  N   UNL     1     -10.258   8.659  67.825  1.00  0.00    -0.212 NA 
HETATM   21  C   UNL     1     -11.136   5.896  70.073  1.00  0.00    -0.411 A  
HETATM   22  C   UNL     1     -11.677   6.596  71.145  1.00  0.00    -0.399 A  
HETATM   23  C   UNL     1     -11.806   7.968  71.053  1.00  0.00    -0.280 A  
HETATM   24  C   UNL     1     -11.381   8.650  69.897  1.00  0.00     0.043 A  
HETATM   25  C   UNL     1     -11.653  10.132  69.834  1.00  0.00    -0.223 C  
HETATM   26  F   UNL     1     -12.973  10.397  70.082  1.00  0.00    -0.357 F  
HETATM   27  F   UNL     1     -11.381  10.773  68.667  1.00  0.00    -0.256 F  
HETATM   28  F   UNL     1     -10.973  10.817  70.801  1.00  0.00    -0.287 F  
ENDBRANCH   2  11
TORSDOF 2
ENDMDL
MODEL      108
REMARK 921   NORMALIZED FREE ENERGY PREDICTED BY IDOCK:   -4.62 KCAL/MOL
REMARK 922        TOTAL FREE ENERGY PREDICTED BY IDOCK:   -5.90 KCAL/MOL
REMARK 923 INTER-LIGAND FREE ENERGY PREDICTED BY IDOCK:   -6.11 KCAL/MOL
REMARK 924 INTRA-LIGAND FREE ENERGY PREDICTED BY IDOCK:    0.21 KCAL/MOL
REMARK 927      BINDING AFFINITY PREDICTED BY RF-SCORE:    0.00 PKD
ROOT
HETATM    1  O   UNL     1      -9.226  13.258  67.538  1.00  0.00    -0.195 OA 
HETATM    2  C   UNL     1     -10.089  12.733  68.567  1.00  0.00    -0.185 C  
HETATM    3  H   UNL     1      -8.349  12.921  67.678  1.00  0.00     0.000 HD 
ENDROOT
BRANCH   2   4
HETATM    4  C   UNL     1     -11.540  13.290  68.336  1.00  0.00    -0.337 C  
HETATM    5  H   UNL     1     -12.523  14.712  67.201  1.00  0.00     0.000 HD 
HETATM    6  N   UNL     1     -11.598  14.580  67.609  1.00  0.00    -0.362 NA 
HETATM    7  C   UNL     1     -12.386  13.394  69.619  1.00  0.00    -0.187 C  
HETATM    8  C   UNL     1     -12.012  14.603  70.478  1.00  0.00    -0.376 C  
HETATM    9  C   UNL     1     -11.223  15.750  68.396  1.00  0.00    -0.362 C  
HETATM   10  C   UNL     1     -12.085  15.877  69.650  1.00  0.00    -0.216 C  
ENDBRANCH   2   4
BRANCH   2  11
HETATM   11  C   UNL     1      -9.976  11.206  68.504  1.00  0.00    -0.204 A  
HETATM   12  C   UNL     1      -8.233   8.643  66.268  1.00  0.00    -0.116 C  
HETATM   13  C   UNL     1     -10.371   8.931  69.304  1.00  0.00    -0.213 A  
HETATM   14  F   UNL     1      -7.163   7.925  66.716  1.00  0.00    -0.079 F  
HETATM   15  F   UNL     1      -8.959   7.789  65.489  1.00  0.00    -0.169 F  
HETATM   16  C   UNL     1      -9.054   9.263  67.391  1.00  0.00    -0.126 A  
HETATM   17  F   UNL     1      -7.713   9.564  65.403  1.00  0.00    -0.101 F  
HETATM   18  C   UNL     1      -9.214  10.639  67.466  1.00  0.00    -0.151 A  
HETATM   19  C   UNL     1     -10.599  10.326  69.438  1.00  0.00    -0.262 A  
HETATM   20  N   UNL     1      -9.621   8.437  68.310  1.00  0.00    -0.142 NA 
HETATM   21  C   UNL     1     -11.440  10.761  70.489  1.00  0.00    -0.367 A  
HETATM   22  C   UNL     1     -12.086   9.870  71.337  1.00  0.00    -0.501 A  
HETATM   23  C   UNL     1     -11.834   8.518  71.207  1.00  0.00    -0.335 A  
HETATM   24  C   UNL     1     -10.947   8.048  70.219  1.00  0.00    -0.242 A  
HETATM   25  C   UNL     1     -10.647   6.570  70.212  1.00  0.00    -0.228 C  
HETATM   26  F   UNL     1     -10.243   6.149  71.450  1.00  0.00    -0.211 F  
HETATM   27  F   UNL     1      -9.684   6.128  69.362  1.00  0.00    -0.142 F  
HETATM   28  F   UNL     1     -11.758   5.825  69.936  1.00  0.00    -0.301 F  
ENDBRANCH   2  11
TORSDOF 2
ENDMDL
MODEL      109
REMARK 921   NORMALIZED FREE ENERGY PREDICTED BY IDOCK:   -4.61 KCAL/MOL
REMARK 922        TOTAL FREE ENERGY PREDICTED BY IDOCK:   -5.89 KCAL/MOL
REMARK 923 INTER-LIGAND FREE ENERGY PREDICTED BY IDOCK:   -5.62 KCAL/MOL
REMARK 924 INTRA-LIGAND FREE ENERGY PREDICTED BY IDOCK:   -0.27 KCAL/MOL
REMARK 927      BINDING AFFINITY PREDICTED BY RF-SCORE:    0.00 PKD
ROOT
HETATM    1  O   UNL     1      -9.259  11.575  68.373  1.00  0.00    -0.182 OA 
HETATM    2  C   UNL     1     -10.233  10.965  69.243  1.00  0.00    -0.166 C  
HETATM    3  H   UNL     1      -8.391  11.313  68.659  1.00  0.00     0.000 HD 
ENDROOT
BRANCH   2   4
HETATM    4  C   UNL     1     -11.667  11.398  68.769  1.00  0.00    -0.339 C  
HETATM    5  H   UNL     1     -12.605  12.212  67.115  1.00  0.00     0.000 HD 
HETATM    6  N   UNL     1     -11.687  12.250  67.557  1.00  0.00    -0.459 NA 
HETATM    7  C   UNL     1     -12.519  12.061  69.868  1.00  0.00    -0.019 C  
HETATM    8  C   UNL     1     -12.120  13.514  70.129  1.00  0.00    -0.425 C  
HETATM    9  C   UNL     1     -11.287  13.637  67.770  1.00  0.00    -0.306 C  
HETATM   10  C   UNL     1     -12.154  14.309  68.832  1.00  0.00    -0.314 C  
ENDBRANCH   2   4
BRANCH   2  11
HETATM   11  C   UNL     1      -9.979   9.454  69.203  1.00  0.00    -0.184 A  
HETATM   12  C   UNL     1      -8.986   6.877  66.560  1.00  0.00    -0.150 C  
HETATM   13  C   UNL     1      -9.758   7.228  70.187  1.00  0.00    -0.172 A  
HETATM   14  F   UNL     1      -7.751   6.298  66.566  1.00  0.00    -0.092 F  
HETATM   15  F   UNL     1      -9.859   5.899  66.178  1.00  0.00    -0.180 F  
HETATM   16  C   UNL     1      -9.359   7.514  67.893  1.00  0.00    -0.138 A  
HETATM   17  F   UNL     1      -8.964   7.765  65.522  1.00  0.00    -0.169 F  
HETATM   18  C   UNL     1      -9.633   8.871  67.969  1.00  0.00    -0.167 A  
HETATM   19  C   UNL     1     -10.072   8.604  70.345  1.00  0.00    -0.213 A  
HETATM   20  N   UNL     1      -9.414   6.721  68.996  1.00  0.00    -0.134 NA 
HETATM   21  C   UNL     1     -10.470   9.049  71.627  1.00  0.00    -0.426 A  
HETATM   22  C   UNL     1     -10.617   8.179  72.700  1.00  0.00    -0.414 A  
HETATM   23  C   UNL     1     -10.284   6.848  72.535  1.00  0.00    -0.205 A  
HETATM   24  C   UNL     1      -9.815   6.378  71.293  1.00  0.00    -0.200 A  
HETATM   25  C   UNL     1      -9.374   4.938  71.226  1.00  0.00    -0.150 C  
HETATM   26  F   UNL     1      -8.464   4.660  72.211  1.00  0.00    -0.109 F  
HETATM   27  F   UNL     1      -8.785   4.513  70.077  1.00  0.00    -0.083 F  
HETATM   28  F   UNL     1     -10.408   4.076  71.454  1.00  0.00    -0.225 F  
ENDBRANCH   2  11
TORSDOF 2
ENDMDL
MODEL      110
REMARK 921   NORMALIZED FREE ENERGY PREDICTED BY IDOCK:   -4.61 KCAL/MOL
REMARK 922        TOTAL FREE ENERGY PREDICTED BY IDOCK:   -5.89 KCAL/MOL
REMARK 923 INTER-LIGAND FREE ENERGY PREDICTED BY IDOCK:   -5.44 KCAL/MOL
REMARK 924 INTRA-LIGAND FREE ENERGY PREDICTED BY IDOCK:   -0.45 KCAL/MOL
REMARK 927      BINDING AFFINITY PREDICTED BY RF-SCORE:    0.00 PKD
ROOT
HETATM    1  O   UNL     1      -9.371   9.095  64.373  1.00  0.00    -0.417 OA 
HETATM    2  C   UNL     1      -8.553   8.911  65.545  1.00  0.00    -0.168 C  
HETATM    3  H   UNL     1     -10.203   8.658  64.513  1.00  0.00     0.000 HD 
ENDROOT
BRANCH   2   4
HETATM    4  C   UNL     1      -7.177   9.632  65.313  1.00  0.00    -0.113 C  
HETATM    5  H   UNL     1      -6.202  10.747  63.869  1.00  0.00     0.000 HD 
HETATM    6  N   UNL     1      -6.907  10.012  63.906  1.00  0.00    -0.127 NA 
HETATM    7  C   UNL     1      -5.963   8.867  65.873  1.00  0.00    -0.051 C  
HETATM    8  C   UNL     1      -5.544   7.692  64.987  1.00  0.00    -0.033 C  
HETATM    9  C   UNL     1      -6.530   8.907  63.031  1.00  0.00    -0.090 C  
HETATM   10  C   UNL     1      -5.303   8.169  63.562  1.00  0.00    -0.050 C  
ENDBRANCH   2   4
BRANCH   2  11
HETATM   11  C   UNL     1      -9.358   9.443  66.736  1.00  0.00    -0.202 A  
HETATM   12  C   UNL     1     -11.012  12.749  67.709  1.00  0.00    -0.237 C  
HETATM   13  C   UNL     1     -10.498   9.254  68.889  1.00  0.00    -0.215 A  
HETATM   14  F   UNL     1     -12.370  12.881  67.730  1.00  0.00    -0.320 F  
HETATM   15  F   UNL     1     -10.546  13.477  68.766  1.00  0.00    -0.234 F  
HETATM   16  C   UNL     1     -10.548  11.299  67.739  1.00  0.00    -0.201 A  
HETATM   17  F   UNL     1     -10.600  13.427  66.597  1.00  0.00    -0.272 F  
HETATM   18  C   UNL     1      -9.786  10.784  66.701  1.00  0.00    -0.227 A  
HETATM   19  C   UNL     1      -9.699   8.658  67.877  1.00  0.00    -0.192 A  
HETATM   20  N   UNL     1     -10.899  10.529  68.803  1.00  0.00    -0.215 NA 
HETATM   21  C   UNL     1      -9.280   7.321  68.065  1.00  0.00    -0.131 A  
HETATM   22  C   UNL     1      -9.573   6.610  69.223  1.00  0.00    -0.145 A  
HETATM   23  C   UNL     1     -10.371   7.196  70.186  1.00  0.00    -0.218 A  
HETATM   24  C   UNL     1     -10.869   8.501  70.005  1.00  0.00    -0.225 A  
HETATM   25  C   UNL     1     -11.817   9.027  71.052  1.00  0.00    -0.285 C  
HETATM   26  F   UNL     1     -12.849   8.152  71.260  1.00  0.00    -0.313 F  
HETATM   27  F   UNL     1     -12.416  10.223  70.815  1.00  0.00    -0.339 F  
HETATM   28  F   UNL     1     -11.213   9.149  72.272  1.00  0.00    -0.422 F  
ENDBRANCH   2  11
TORSDOF 2
ENDMDL
MODEL      111
REMARK 921   NORMALIZED FREE ENERGY PREDICTED BY IDOCK:   -4.55 KCAL/MOL
REMARK 922        TOTAL FREE ENERGY PREDICTED BY IDOCK:   -5.82 KCAL/MOL
REMARK 923 INTER-LIGAND FREE ENERGY PREDICTED BY IDOCK:   -7.05 KCAL/MOL
REMARK 924 INTRA-LIGAND FREE ENERGY PREDICTED BY IDOCK:    1.22 KCAL/MOL
REMARK 927      BINDING AFFINITY PREDICTED BY RF-SCORE:    0.00 PKD
ROOT
HETATM    1  O   UNL     1     -10.080  13.291  64.202  1.00  0.00    -0.672 OA 
HETATM    2  C   UNL     1     -10.906  14.391  64.633  1.00  0.00    -0.346 C  
HETATM    3  H   UNL     1      -9.293  13.642  63.802  1.00  0.00     0.000 HD 
ENDROOT
BRANCH   2   4
HETATM    4  C   UNL     1     -12.208  13.810  65.294  1.00  0.00    -0.439 C  
HETATM    5  H   UNL     1     -13.562  14.275  66.788  1.00  0.00     0.000 HD 
HETATM    6  N   UNL     1     -12.575  14.436  66.587  1.00  0.00    -0.101 NA 
HETATM    7  C   UNL     1     -12.201  12.279  65.457  1.00  0.00    -0.242 C  
HETATM    8  C   UNL     1     -11.343  11.812  66.633  1.00  0.00    -0.381 C  
HETATM    9  C   UNL     1     -11.757  14.028  67.725  1.00  0.00    -0.368 C  
HETATM   10  C   UNL     1     -11.778  12.513  67.911  1.00  0.00    -0.416 C  
ENDBRANCH   2   4
BRANCH   2  11
HETATM   11  C   UNL     1     -10.048  15.251  65.566  1.00  0.00    -0.408 A  
HETATM   12  C   UNL     1      -9.782  18.958  66.460  1.00  0.00    -0.358 C  
HETATM   13  C   UNL     1      -8.345  15.621  67.280  1.00  0.00    -0.184 A  
HETATM   14  F   UNL     1     -10.186  19.423  67.677  1.00  0.00    -0.393 F  
HETATM   15  F   UNL     1      -8.666  19.675  66.135  1.00  0.00    -0.336 F  
HETATM   16  C   UNL     1      -9.545  17.454  66.439  1.00  0.00    -0.276 A  
HETATM   17  F   UNL     1     -10.742  19.369  65.579  1.00  0.00    -0.545 F  
HETATM   18  C   UNL     1     -10.273  16.641  65.583  1.00  0.00    -0.285 A  
HETATM   19  C   UNL     1      -9.034  14.725  66.420  1.00  0.00    -0.223 A  
HETATM   20  N   UNL     1      -8.607  16.934  67.276  1.00  0.00    -0.193 NA 
HETATM   21  C   UNL     1      -8.665  13.360  66.455  1.00  0.00     0.083 A  
HETATM   22  C   UNL     1      -7.624  12.894  67.249  1.00  0.00    -0.104 A  
HETATM   23  C   UNL     1      -6.981  13.776  68.097  1.00  0.00    -0.120 A  
HETATM   24  C   UNL     1      -7.366  15.129  68.145  1.00  0.00    -0.117 A  
HETATM   25  C   UNL     1      -6.686  16.001  69.171  1.00  0.00    -0.174 C  
HETATM   26  F   UNL     1      -6.769  15.441  70.418  1.00  0.00    -0.105 F  
HETATM   27  F   UNL     1      -7.151  17.268  69.327  1.00  0.00    -0.239 F  
HETATM   28  F   UNL     1      -5.347  16.122  68.931  1.00  0.00    -0.107 F  
ENDBRANCH   2  11
TORSDOF 2
ENDMDL
MODEL      112
REMARK 921   NORMALIZED FREE ENERGY PREDICTED BY IDOCK:   -4.38 KCAL/MOL
REMARK 922        TOTAL FREE ENERGY PREDICTED BY IDOCK:   -5.64 KCAL/MOL
REMARK 923 INTER-LIGAND FREE ENERGY PREDICTED BY IDOCK:   -6.50 KCAL/MOL
REMARK 924 INTRA-LIGAND FREE ENERGY PREDICTED BY IDOCK:    0.86 KCAL/MOL
REMARK 927      BINDING AFFINITY PREDICTED BY RF-SCORE:    0.00 PKD
ROOT
HETATM    1  O   UNL     1     -11.599  15.103  67.153  1.00  0.00    -0.311 OA 
HETATM    2  C   UNL     1     -10.581  14.534  66.304  1.00  0.00    -0.304 C  
HETATM    3  H   UNL     1     -12.366  14.543  67.123  1.00  0.00     0.000 HD 
ENDROOT
BRANCH   2   4
HETATM    4  C   UNL     1      -9.313  15.459  66.355  1.00  0.00    -0.299 C  
HETATM    5  H   UNL     1      -7.544  15.658  67.408  1.00  0.00     0.000 HD 
HETATM    6  N   UNL     1      -8.488  15.311  67.577  1.00  0.00    -0.167 NA 
HETATM    7  C   UNL     1      -9.614  16.952  66.126  1.00  0.00    -0.280 C  
HETATM    8  C   UNL     1     -10.211  17.632  67.359  1.00  0.00    -0.345 C  
HETATM    9  C   UNL     1      -9.044  15.928  68.776  1.00  0.00    -0.219 C  
HETATM   10  C   UNL     1      -9.309  17.417  68.565  1.00  0.00    -0.281 C  
ENDBRANCH   2   4
BRANCH   2  11
HETATM   11  C   UNL     1     -10.344  13.102  66.796  1.00  0.00    -0.252 A  
HETATM   12  C   UNL     1      -8.436  10.026  65.566  1.00  0.00    -0.147 C  
HETATM   13  C   UNL     1     -10.534  11.256  68.387  1.00  0.00    -0.197 A  
HETATM   14  F   UNL     1      -7.302   9.600  66.193  1.00  0.00    -0.092 F  
HETATM   15  F   UNL     1      -9.103   8.898  65.187  1.00  0.00    -0.236 F  
HETATM   16  C   UNL     1      -9.285  10.956  66.424  1.00  0.00    -0.174 A  
HETATM   17  F   UNL     1      -8.010  10.601  64.402  1.00  0.00    -0.145 F  
HETATM   18  C   UNL     1      -9.557  12.248  66.001  1.00  0.00    -0.230 A  
HETATM   19  C   UNL     1     -10.874  12.584  68.015  1.00  0.00    -0.252 A  
HETATM   20  N   UNL     1      -9.764  10.487  67.607  1.00  0.00    -0.163 NA 
HETATM   21  C   UNL     1     -11.728  13.314  68.874  1.00  0.00    -0.369 A  
HETATM   22  C   UNL     1     -12.283  12.753  70.018  1.00  0.00    -0.279 A  
HETATM   23  C   UNL     1     -11.922  11.468  70.377  1.00  0.00    -0.459 A  
HETATM   24  C   UNL     1     -11.018  10.733  69.587  1.00  0.00    -0.320 A  
HETATM   25  C   UNL     1     -10.596   9.380  70.104  1.00  0.00    -0.240 C  
HETATM   26  F   UNL     1     -10.135   9.472  71.390  1.00  0.00    -0.367 F  
HETATM   27  F   UNL     1      -9.615   8.726  69.428  1.00  0.00    -0.157 F  
HETATM   28  F   UNL     1     -11.646   8.509  70.171  1.00  0.00    -0.212 F  
ENDBRANCH   2  11
TORSDOF 2
ENDMDL
MODEL      113
REMARK 921   NORMALIZED FREE ENERGY PREDICTED BY IDOCK:   -4.36 KCAL/MOL
REMARK 922        TOTAL FREE ENERGY PREDICTED BY IDOCK:   -5.61 KCAL/MOL
REMARK 923 INTER-LIGAND FREE ENERGY PREDICTED BY IDOCK:   -5.76 KCAL/MOL
REMARK 924 INTRA-LIGAND FREE ENERGY PREDICTED BY IDOCK:    0.15 KCAL/MOL
REMARK 927      BINDING AFFINITY PREDICTED BY RF-SCORE:    0.00 PKD
ROOT
HETATM    1  O   UNL     1      -8.423  12.860  66.639  1.00  0.00    -0.411 OA 
HETATM    2  C   UNL     1      -9.413  12.025  67.275  1.00  0.00    -0.181 C  
HETATM    3  H   UNL     1      -7.577  12.434  66.711  1.00  0.00     0.000 HD 
ENDROOT
BRANCH   2   4
HETATM    4  C   UNL     1     -10.812  12.729  67.155  1.00  0.00    -0.256 C  
HETATM    5  H   UNL     1     -12.651  12.445  66.251  1.00  0.00     0.000 HD 
HETATM    6  N   UNL     1     -11.676  12.207  66.069  1.00  0.00    -0.504 NA 
HETATM    7  C   UNL     1     -10.738  14.264  67.049  1.00  0.00    -0.290 C  
HETATM    8  C   UNL     1     -10.330  14.742  65.655  1.00  0.00    -0.369 C  
HETATM    9  C   UNL     1     -11.297  12.626  64.724  1.00  0.00    -0.312 C  
HETATM   10  C   UNL     1     -11.258  14.148  64.605  1.00  0.00    -0.371 C  
ENDBRANCH   2   4
BRANCH   2  11
HETATM   11  C   UNL     1      -9.333  10.651  66.601  1.00  0.00    -0.189 A  
HETATM   12  C   UNL     1      -8.089   9.268  63.261  1.00  0.00    -0.159 C  
HETATM   13  C   UNL     1      -9.591   8.223  66.506  1.00  0.00    -0.244 A  
HETATM   14  F   UNL     1      -6.961   8.505  63.188  1.00  0.00    -0.088 F  
HETATM   15  F   UNL     1      -8.964   8.734  62.359  1.00  0.00    -0.222 F  
HETATM   16  C   UNL     1      -8.668   9.352  64.667  1.00  0.00    -0.200 A  
HETATM   17  F   UNL     1      -7.738  10.483  62.745  1.00  0.00    -0.143 F  
HETATM   18  C   UNL     1      -8.794  10.579  65.302  1.00  0.00    -0.205 A  
HETATM   19  C   UNL     1      -9.771   9.440  67.214  1.00  0.00    -0.215 A  
HETATM   20  N   UNL     1      -9.055   8.201  65.278  1.00  0.00     0.087 NA 
HETATM   21  C   UNL     1     -10.386   9.381  68.487  1.00  0.00    -0.236 A  
HETATM   22  C   UNL     1     -10.865   8.191  69.022  1.00  0.00    -0.014 A  
HETATM   23  C   UNL     1     -10.659   7.013  68.330  1.00  0.00    -0.240 A  
HETATM   24  C   UNL     1      -9.987   7.020  67.093  1.00  0.00    -0.248 A  
HETATM   25  C   UNL     1      -9.711   5.682  66.454  1.00  0.00    -0.156 C  
HETATM   26  F   UNL     1      -9.078   4.844  67.331  1.00  0.00    -0.112 F  
HETATM   27  F   UNL     1      -8.938   5.666  65.336  1.00  0.00    -0.158 F  
HETATM   28  F   UNL     1     -10.863   5.030  66.117  1.00  0.00    -0.322 F  
ENDBRANCH   2  11
TORSDOF 2
ENDMDL
MODEL      114
REMARK 921   NORMALIZED FREE ENERGY PREDICTED BY IDOCK:   -4.32 KCAL/MOL
REMARK 922        TOTAL FREE ENERGY PREDICTED BY IDOCK:   -5.56 KCAL/MOL
REMARK 923 INTER-LIGAND FREE ENERGY PREDICTED BY IDOCK:   -4.94 KCAL/MOL
REMARK 924 INTRA-LIGAND FREE ENERGY PREDICTED BY IDOCK:   -0.62 KCAL/MOL
REMARK 927      BINDING AFFINITY PREDICTED BY RF-SCORE:    0.00 PKD
ROOT
HETATM    1  O   UNL     1     -11.680   7.209  69.891  1.00  0.00    -0.536 OA 
HETATM    2  C   UNL     1     -11.130   8.342  69.189  1.00  0.00     0.214 C  
HETATM    3  H   UNL     1     -12.038   6.602  69.254  1.00  0.00     0.000 HD 
ENDROOT
BRANCH   2   4
HETATM    4  C   UNL     1     -10.538   9.345  70.244  1.00  0.00    -0.250 C  
HETATM    5  H   UNL     1     -10.653   9.759  72.267  1.00  0.00     0.000 HD 
HETATM    6  N   UNL     1     -11.255   9.373  71.541  1.00  0.00    -0.378 NA 
HETATM    7  C   UNL     1     -10.379  10.785  69.722  1.00  0.00    -0.073 C  
HETATM    8  C   UNL     1     -11.704  11.548  69.677  1.00  0.00    -0.419 C  
HETATM    9  C   UNL     1     -12.535  10.073  71.523  1.00  0.00    -0.419 C  
HETATM   10  C   UNL     1     -12.376  11.513  71.042  1.00  0.00    -0.434 C  
ENDBRANCH   2   4
BRANCH   2  11
HETATM   11  C   UNL     1     -10.106   7.790  68.191  1.00  0.00    -0.220 A  
HETATM   12  C   UNL     1      -7.752   4.784  68.007  1.00  0.00    -0.082 C  
HETATM   13  C   UNL     1      -8.885   7.760  66.075  1.00  0.00    -0.157 A  
HETATM   14  F   UNL     1      -7.987   3.754  67.145  1.00  0.00    -0.087 F  
HETATM   15  F   UNL     1      -6.398   4.957  68.027  1.00  0.00    -0.031 F  
HETATM   16  C   UNL     1      -8.506   6.057  67.644  1.00  0.00    -0.107 A  
HETATM   17  F   UNL     1      -8.071   4.300  69.244  1.00  0.00    -0.063 F  
HETATM   18  C   UNL     1      -9.415   6.613  68.531  1.00  0.00    -0.123 A  
HETATM   19  C   UNL     1      -9.814   8.402  66.936  1.00  0.00    -0.313 A  
HETATM   20  N   UNL     1      -8.265   6.629  66.434  1.00  0.00    -0.112 NA 
HETATM   21  C   UNL     1     -10.391   9.617  66.499  1.00  0.00    -0.264 A  
HETATM   22  C   UNL     1     -10.029  10.220  65.301  1.00  0.00    -0.387 A  
HETATM   23  C   UNL     1      -9.141   9.570  64.465  1.00  0.00    -0.250 A  
HETATM   24  C   UNL     1      -8.599   8.323  64.829  1.00  0.00    -0.047 A  
HETATM   25  C   UNL     1      -7.722   7.632  63.816  1.00  0.00    -0.126 C  
HETATM   26  F   UNL     1      -8.355   7.537  62.606  1.00  0.00    -0.143 F  
HETATM   27  F   UNL     1      -7.312   6.367  64.095  1.00  0.00    -0.054 F  
HETATM   28  F   UNL     1      -6.583   8.342  63.559  1.00  0.00    -0.080 F  
ENDBRANCH   2  11
TORSDOF 2
ENDMDL
MODEL      115
REMARK 921   NORMALIZED FREE ENERGY PREDICTED BY IDOCK:   -4.29 KCAL/MOL
REMARK 922        TOTAL FREE ENERGY PREDICTED BY IDOCK:   -5.53 KCAL/MOL
REMARK 923 INTER-LIGAND FREE ENERGY PREDICTED BY IDOCK:   -5.01 KCAL/MOL
REMARK 924 INTRA-LIGAND FREE ENERGY PREDICTED BY IDOCK:   -0.52 KCAL/MOL
REMARK 927      BINDING AFFINITY PREDICTED BY RF-SCORE:    0.00 PKD
ROOT
HETATM    1  O   UNL     1      -8.794  14.543  66.279  1.00  0.00    -0.473 OA 
HETATM    2  C   UNL     1      -8.195  14.096  67.512  1.00  0.00    -0.186 C  
HETATM    3  H   UNL     1      -8.658  13.876  65.616  1.00  0.00     0.000 HD 
ENDROOT
BRANCH   2   4
HETATM    4  C   UNL     1      -8.420  15.199  68.607  1.00  0.00    -0.170 C  
HETATM    5  H   UNL     1      -9.077  17.154  68.767  1.00  0.00     0.000 HD 
HETATM    6  N   UNL     1      -8.612  16.569  68.074  1.00  0.00    -0.181 NA 
HETATM    7  C   UNL     1      -7.337  15.229  69.702  1.00  0.00    -0.188 C  
HETATM    8  C   UNL     1      -6.042  15.896  69.235  1.00  0.00    -0.133 C  
HETATM    9  C   UNL     1      -7.397  17.222  67.598  1.00  0.00    -0.166 C  
HETATM   10  C   UNL     1      -6.334  17.287  68.692  1.00  0.00    -0.173 C  
ENDBRANCH   2   4
BRANCH   2  11
HETATM   11  C   UNL     1      -8.821  12.736  67.841  1.00  0.00    -0.186 A  
HETATM   12  C   UNL     1     -11.792  11.472  69.887  1.00  0.00    -0.355 C  
HETATM   13  C   UNL     1      -9.029  10.307  67.677  1.00  0.00    -0.134 A  
HETATM   14  F   UNL     1     -12.902  10.962  69.280  1.00  0.00    -0.214 F  
HETATM   15  F   UNL     1     -11.596  10.718  71.008  1.00  0.00    -0.394 F  
HETATM   16  C   UNL     1     -10.571  11.507  68.976  1.00  0.00    -0.173 A  
HETATM   17  F   UNL     1     -12.163  12.705  70.343  1.00  0.00    -0.392 F  
HETATM   18  C   UNL     1      -9.950  12.711  68.681  1.00  0.00    -0.106 A  
HETATM   19  C   UNL     1      -8.325  11.494  67.344  1.00  0.00    -0.148 A  
HETATM   20  N   UNL     1     -10.112  10.333  68.465  1.00  0.00    -0.159 NA 
HETATM   21  C   UNL     1      -7.165  11.374  66.543  1.00  0.00    -0.057 A  
HETATM   22  C   UNL     1      -6.672  10.140  66.136  1.00  0.00    -0.106 A  
HETATM   23  C   UNL     1      -7.383   8.997  66.449  1.00  0.00    -0.088 A  
HETATM   24  C   UNL     1      -8.581   9.080  67.184  1.00  0.00    -0.119 A  
HETATM   25  C   UNL     1      -9.349   7.799  67.393  1.00  0.00    -0.141 C  
HETATM   26  F   UNL     1      -9.567   7.162  66.201  1.00  0.00    -0.204 F  
HETATM   27  F   UNL     1     -10.576   7.888  67.970  1.00  0.00    -0.244 F  
HETATM   28  F   UNL     1      -8.648   6.901  68.145  1.00  0.00    -0.122 F  
ENDBRANCH   2  11
TORSDOF 2
ENDMDL
MODEL      116
REMARK 921   NORMALIZED FREE ENERGY PREDICTED BY IDOCK:   -4.28 KCAL/MOL
REMARK 922        TOTAL FREE ENERGY PREDICTED BY IDOCK:   -5.52 KCAL/MOL
REMARK 923 INTER-LIGAND FREE ENERGY PREDICTED BY IDOCK:   -5.21 KCAL/MOL
REMARK 924 INTRA-LIGAND FREE ENERGY PREDICTED BY IDOCK:   -0.31 KCAL/MOL
REMARK 927      BINDING AFFINITY PREDICTED BY RF-SCORE:    0.00 PKD
ROOT
HETATM    1  O   UNL     1      -6.090  13.012  69.626  1.00  0.00    -0.108 OA 
HETATM    2  C   UNL     1      -7.027  13.871  68.947  1.00  0.00    -0.110 C  
HETATM    3  H   UNL     1      -6.577  12.362  70.119  1.00  0.00     0.000 HD 
ENDROOT
BRANCH   2   4
HETATM    4  C   UNL     1      -6.221  14.946  68.131  1.00  0.00    -0.138 C  
HETATM    5  H   UNL     1      -4.709  16.330  68.407  1.00  0.00     0.000 HD 
HETATM    6  N   UNL     1      -5.449  15.900  68.962  1.00  0.00    -0.104 NA 
HETATM    7  C   UNL     1      -7.071  15.732  67.115  1.00  0.00    -0.225 C  
HETATM    8  C   UNL     1      -7.931  16.812  67.773  1.00  0.00    -0.187 C  
HETATM    9  C   UNL     1      -6.245  16.929  69.622  1.00  0.00    -0.225 C  
HETATM   10  C   UNL     1      -7.061  17.735  68.614  1.00  0.00    -0.257 C  
ENDBRANCH   2   4
BRANCH   2  11
HETATM   11  C   UNL     1      -7.921  12.964  68.093  1.00  0.00    -0.153 A  
HETATM   12  C   UNL     1     -11.674  12.365  67.679  1.00  0.00    -0.346 C  
HETATM   13  C   UNL     1      -8.357  11.294  66.364  1.00  0.00    -0.159 A  
HETATM   14  F   UNL     1     -12.333  12.763  66.554  1.00  0.00    -0.437 F  
HETATM   15  F   UNL     1     -12.233  11.173  68.042  1.00  0.00    -0.249 F  
HETATM   16  C   UNL     1     -10.164  12.277  67.493  1.00  0.00    -0.204 A  
HETATM   17  F   UNL     1     -12.050  13.249  68.651  1.00  0.00    -0.360 F  
HETATM   18  C   UNL     1      -9.315  13.051  68.269  1.00  0.00    -0.199 A  
HETATM   19  C   UNL     1      -7.422  12.037  67.131  1.00  0.00    -0.138 A  
HETATM   20  N   UNL     1      -9.677  11.425  66.552  1.00  0.00    -0.196 NA 
HETATM   21  C   UNL     1      -6.045  11.807  66.901  1.00  0.00    -0.140 A  
HETATM   22  C   UNL     1      -5.596  10.845  66.005  1.00  0.00    -0.144 A  
HETATM   23  C   UNL     1      -6.520  10.148  65.250  1.00  0.00    -0.119 A  
HETATM   24  C   UNL     1      -7.897  10.399  65.397  1.00  0.00    -0.143 A  
HETATM   25  C   UNL     1      -8.831   9.672  64.462  1.00  0.00    -0.223 C  
HETATM   26  F   UNL     1      -8.454   9.853  63.158  1.00  0.00    -0.134 F  
HETATM   27  F   UNL     1     -10.146  10.014  64.495  1.00  0.00    -0.394 F  
HETATM   28  F   UNL     1      -8.794   8.320  64.652  1.00  0.00    -0.121 F  
ENDBRANCH   2  11
TORSDOF 2
ENDMDL
MODEL      117
REMARK 921   NORMALIZED FREE ENERGY PREDICTED BY IDOCK:   -4.16 KCAL/MOL
REMARK 922        TOTAL FREE ENERGY PREDICTED BY IDOCK:   -5.39 KCAL/MOL
REMARK 923 INTER-LIGAND FREE ENERGY PREDICTED BY IDOCK:   -5.88 KCAL/MOL
REMARK 924 INTRA-LIGAND FREE ENERGY PREDICTED BY IDOCK:    0.49 KCAL/MOL
REMARK 927      BINDING AFFINITY PREDICTED BY RF-SCORE:    0.00 PKD
ROOT
HETATM    1  O   UNL     1      -9.121   7.889  72.854  1.00  0.00    -0.172 OA 
HETATM    2  C   UNL     1      -9.024   7.675  71.432  1.00  0.00    -0.132 C  
HETATM    3  H   UNL     1      -8.817   8.768  73.049  1.00  0.00     0.000 HD 
ENDROOT
BRANCH   2   4
HETATM    4  C   UNL     1      -9.526   6.221  71.109  1.00  0.00    -0.170 C  
HETATM    5  H   UNL     1     -11.042   5.268  70.073  1.00  0.00     0.000 HD 
HETATM    6  N   UNL     1     -10.904   6.150  70.566  1.00  0.00    -0.278 NA 
HETATM    7  C   UNL     1      -9.393   5.234  72.284  1.00  0.00    -0.160 C  
HETATM    8  C   UNL     1     -10.482   5.422  73.341  1.00  0.00    -0.269 C  
HETATM    9  C   UNL     1     -11.965   6.350  71.548  1.00  0.00    -0.273 C  
HETATM   10  C   UNL     1     -11.858   5.349  72.696  1.00  0.00    -0.145 C  
ENDBRANCH   2   4
BRANCH   2  11
HETATM   11  C   UNL     1      -9.832   8.790  70.760  1.00  0.00    -0.255 A  
HETATM   12  C   UNL     1     -13.020  10.755  71.527  1.00  0.00    -0.456 C  
HETATM   13  C   UNL     1     -10.267  10.467  69.035  1.00  0.00    -0.217 A  
HETATM   14  F   UNL     1     -12.972  12.070  71.884  1.00  0.00    -0.497 F  
HETATM   15  F   UNL     1     -14.129  10.618  70.742  1.00  0.00     0.415 F  
HETATM   16  C   UNL     1     -11.748  10.269  70.844  1.00  0.00    -0.379 A  
HETATM   17  F   UNL     1     -13.310  10.078  72.678  1.00  0.00    -0.404 F  
HETATM   18  C   UNL     1     -11.005   9.237  71.396  1.00  0.00    -0.429 A  
HETATM   19  C   UNL     1      -9.463   9.403  69.526  1.00  0.00    -0.187 A  
HETATM   20  N   UNL     1     -11.365  10.871  69.687  1.00  0.00    -0.267 NA 
HETATM   21  C   UNL     1      -8.346   9.008  68.754  1.00  0.00    -0.122 A  
HETATM   22  C   UNL     1      -8.057   9.581  67.522  1.00  0.00    -0.110 A  
HETATM   23  C   UNL     1      -8.836  10.631  67.071  1.00  0.00    -0.141 A  
HETATM   24  C   UNL     1      -9.915  11.102  67.843  1.00  0.00    -0.189 A  
HETATM   25  C   UNL     1     -10.647  12.316  67.331  1.00  0.00    -0.222 C  
HETATM   26  F   UNL     1      -9.774  13.337  67.065  1.00  0.00    -0.215 F  
HETATM   27  F   UNL     1     -11.593  12.868  68.137  1.00  0.00    -0.287 F  
HETATM   28  F   UNL     1     -11.270  12.072  66.140  1.00  0.00    -0.321 F  
ENDBRANCH   2  11
TORSDOF 2
ENDMDL
MODEL      118
REMARK 921   NORMALIZED FREE ENERGY PREDICTED BY IDOCK:   -4.13 KCAL/MOL
REMARK 922        TOTAL FREE ENERGY PREDICTED BY IDOCK:   -5.35 KCAL/MOL
REMARK 923 INTER-LIGAND FREE ENERGY PREDICTED BY IDOCK:   -4.60 KCAL/MOL
REMARK 924 INTRA-LIGAND FREE ENERGY PREDICTED BY IDOCK:   -0.75 KCAL/MOL
REMARK 927      BINDING AFFINITY PREDICTED BY RF-SCORE:    0.00 PKD
ROOT
HETATM    1  O   UNL     1      -8.893   9.026  72.124  1.00  0.00    -0.376 OA 
HETATM    2  C   UNL     1      -9.162   7.838  71.353  1.00  0.00    -0.134 C  
HETATM    3  H   UNL     1      -8.021   9.336  71.907  1.00  0.00     0.000 HD 
ENDROOT
BRANCH   2   4
HETATM    4  C   UNL     1     -10.603   7.325  71.712  1.00  0.00    -0.205 C  
HETATM    5  H   UNL     1     -12.000   7.474  73.231  1.00  0.00     0.000 HD 
HETATM    6  N   UNL     1     -10.985   7.499  73.133  1.00  0.00    -0.392 NA 
HETATM    7  C   UNL     1     -10.876   5.869  71.289  1.00  0.00    -0.333 C  
HETATM    8  C   UNL     1     -10.233   4.849  72.229  1.00  0.00    -0.254 C  
HETATM    9  C   UNL     1     -10.367   6.555  74.058  1.00  0.00    -0.340 C  
HETATM   10  C   UNL     1     -10.667   5.111  73.663  1.00  0.00    -0.345 C  
ENDBRANCH   2   4
BRANCH   2  11
HETATM   11  C   UNL     1      -8.969   8.212  69.879  1.00  0.00    -0.143 A  
HETATM   12  C   UNL     1     -10.094  11.039  67.565  1.00  0.00    -0.180 C  
HETATM   13  C   UNL     1      -8.044   7.930  67.635  1.00  0.00    -0.124 A  
HETATM   14  F   UNL     1      -9.211  11.976  67.112  1.00  0.00    -0.172 F  
HETATM   15  F   UNL     1     -10.947  10.794  66.528  1.00  0.00    -0.303 F  
HETATM   16  C   UNL     1      -9.418   9.778  68.087  1.00  0.00    -0.135 A  
HETATM   17  F   UNL     1     -10.848  11.680  68.507  1.00  0.00    -0.190 F  
HETATM   18  C   UNL     1      -9.595   9.380  69.403  1.00  0.00    -0.177 A  
HETATM   19  C   UNL     1      -8.192   7.445  68.962  1.00  0.00    -0.128 A  
HETATM   20  N   UNL     1      -8.643   9.059  67.232  1.00  0.00    -0.114 NA 
HETATM   21  C   UNL     1      -7.564   6.222  69.293  1.00  0.00    -0.099 A  
HETATM   22  C   UNL     1      -6.873   5.467  68.354  1.00  0.00    -0.056 A  
HETATM   23  C   UNL     1      -6.719   5.965  67.074  1.00  0.00    -0.061 A  
HETATM   24  C   UNL     1      -7.268   7.213  66.723  1.00  0.00    -0.083 A  
HETATM   25  C   UNL     1      -6.965   7.732  65.340  1.00  0.00    -0.055 C  
HETATM   26  F   UNL     1      -5.618   7.723  65.099  1.00  0.00    -0.034 F  
HETATM   27  F   UNL     1      -7.365   8.996  65.040  1.00  0.00    -0.090 F  
HETATM   28  F   UNL     1      -7.498   6.934  64.367  1.00  0.00    -0.072 F  
ENDBRANCH   2  11
TORSDOF 2
ENDMDL
MODEL      119
REMARK 921   NORMALIZED FREE ENERGY PREDICTED BY IDOCK:   -4.12 KCAL/MOL
REMARK 922        TOTAL FREE ENERGY PREDICTED BY IDOCK:   -5.35 KCAL/MOL
REMARK 923 INTER-LIGAND FREE ENERGY PREDICTED BY IDOCK:   -5.14 KCAL/MOL
REMARK 924 INTRA-LIGAND FREE ENERGY PREDICTED BY IDOCK:   -0.21 KCAL/MOL
REMARK 927      BINDING AFFINITY PREDICTED BY RF-SCORE:    0.00 PKD
ROOT
HETATM    1  O   UNL     1     -12.021  10.505  67.736  1.00  0.00    -0.611 OA 
HETATM    2  C   UNL     1     -10.592  10.321  67.692  1.00  0.00    -0.263 C  
HETATM    3  H   UNL     1     -12.439   9.689  67.488  1.00  0.00     0.000 HD 
ENDROOT
BRANCH   2   4
HETATM    4  C   UNL     1      -9.900  11.671  68.102  1.00  0.00    -0.191 C  
HETATM    5  H   UNL     1     -10.344  13.439  69.080  1.00  0.00     0.000 HD 
HETATM    6  N   UNL     1     -10.836  12.741  68.522  1.00  0.00    -0.246 NA 
HETATM    7  C   UNL     1      -8.934  12.230  67.041  1.00  0.00    -0.204 C  
HETATM    8  C   UNL     1      -9.659  12.905  65.877  1.00  0.00    -0.133 C  
HETATM    9  C   UNL     1     -11.561  13.388  67.434  1.00  0.00    -0.354 C  
HETATM   10  C   UNL     1     -10.605  13.977  66.399  1.00  0.00    -0.280 C  
ENDBRANCH   2   4
BRANCH   2  11
HETATM   11  C   UNL     1     -10.270   9.137  68.611  1.00  0.00    -0.225 A  
HETATM   12  C   UNL     1     -10.713   8.297  72.313  1.00  0.00    -0.329 C  
HETATM   13  C   UNL     1      -9.460   6.884  69.103  1.00  0.00    -0.142 A  
HETATM   14  F   UNL     1     -11.620   7.364  72.723  1.00  0.00    -0.315 F  
HETATM   15  F   UNL     1      -9.629   8.151  73.130  1.00  0.00    -0.295 F  
HETATM   16  C   UNL     1     -10.361   8.185  70.836  1.00  0.00    -0.190 A  
HETATM   17  F   UNL     1     -11.258   9.503  72.651  1.00  0.00     0.231 F  
HETATM   18  C   UNL     1     -10.600   9.245  69.975  1.00  0.00    -0.256 A  
HETATM   19  C   UNL     1      -9.655   7.930  68.162  1.00  0.00    -0.163 A  
HETATM   20  N   UNL     1      -9.809   7.025  70.388  1.00  0.00    -0.179 NA 
HETATM   21  C   UNL     1      -9.218   7.716  66.834  1.00  0.00    -0.179 A  
HETATM   22  C   UNL     1      -8.558   6.555  66.450  1.00  0.00    -0.136 A  
HETATM   23  C   UNL     1      -8.399   5.538  67.372  1.00  0.00    -0.103 A  
HETATM   24  C   UNL     1      -8.884   5.682  68.686  1.00  0.00    -0.109 A  
HETATM   25  C   UNL     1      -8.764   4.488  69.598  1.00  0.00    -0.081 C  
HETATM   26  F   UNL     1      -9.303   3.373  69.015  1.00  0.00    -0.181 F  
HETATM   27  F   UNL     1      -9.358   4.565  70.818  1.00  0.00    -0.158 F  
HETATM   28  F   UNL     1      -7.460   4.160  69.840  1.00  0.00    -0.047 F  
ENDBRANCH   2  11
TORSDOF 2
ENDMDL
MODEL      120
REMARK 921   NORMALIZED FREE ENERGY PREDICTED BY IDOCK:   -4.07 KCAL/MOL
REMARK 922        TOTAL FREE ENERGY PREDICTED BY IDOCK:   -5.29 KCAL/MOL
REMARK 923 INTER-LIGAND FREE ENERGY PREDICTED BY IDOCK:   -5.54 KCAL/MOL
REMARK 924 INTRA-LIGAND FREE ENERGY PREDICTED BY IDOCK:    0.25 KCAL/MOL
REMARK 927      BINDING AFFINITY PREDICTED BY RF-SCORE:    0.00 PKD
ROOT
HETATM    1  O   UNL     1      -9.766   8.324  65.518  1.00  0.00    -0.375 OA 
HETATM    2  C   UNL     1      -8.764   8.482  66.542  1.00  0.00    -0.132 C  
HETATM    3  H   UNL     1     -10.251   7.525  65.688  1.00  0.00     0.000 HD 
ENDROOT
BRANCH   2   4
HETATM    4  C   UNL     1      -7.963   9.804  66.260  1.00  0.00    -0.109 C  
HETATM    5  H   UNL     1      -8.084  11.503  65.087  1.00  0.00     0.000 HD 
HETATM    6  N   UNL     1      -8.379  10.528  65.035  1.00  0.00    -0.161 NA 
HETATM    7  C   UNL     1      -6.434   9.621  66.245  1.00  0.00    -0.070 C  
HETATM    8  C   UNL     1      -5.925   8.985  64.951  1.00  0.00    -0.064 C  
HETATM    9  C   UNL     1      -7.929   9.932  63.782  1.00  0.00    -0.148 C  
HETATM   10  C   UNL     1      -6.410   9.783  63.749  1.00  0.00    -0.118 C  
ENDBRANCH   2   4
BRANCH   2  11
HETATM   11  C   UNL     1      -9.499   8.459  67.887  1.00  0.00    -0.164 A  
HETATM   12  C   UNL     1      -9.607   6.174  70.950  1.00  0.00    -0.173 C  
HETATM   13  C   UNL     1     -10.990   9.359  69.601  1.00  0.00    -0.197 A  
HETATM   14  F   UNL     1      -9.060   6.559  72.139  1.00  0.00    -0.140 F  
HETATM   15  F   UNL     1     -10.741   5.482  71.264  1.00  0.00    -0.291 F  
HETATM   16  C   UNL     1      -9.867   7.338  70.002  1.00  0.00    -0.175 A  
HETATM   17  F   UNL     1      -8.747   5.242  70.442  1.00  0.00    -0.115 F  
HETATM   18  C   UNL     1      -9.253   7.382  68.760  1.00  0.00    -0.144 A  
HETATM   19  C   UNL     1     -10.417   9.467  68.307  1.00  0.00    -0.260 A  
HETATM   20  N   UNL     1     -10.711   8.325  70.406  1.00  0.00    -0.229 NA 
HETATM   21  C   UNL     1     -10.799  10.566  67.503  1.00  0.00    -0.357 A  
HETATM   22  C   UNL     1     -11.751  11.490  67.918  1.00  0.00    -0.317 A  
HETATM   23  C   UNL     1     -12.280  11.383  69.190  1.00  0.00    -0.242 A  
HETATM   24  C   UNL     1     -11.872  10.344  70.048  1.00  0.00    -0.351 A  
HETATM   25  C   UNL     1     -12.418  10.360  71.454  1.00  0.00    -0.415 C  
HETATM   26  F   UNL     1     -12.203  11.575  72.046  1.00  0.00    -0.066 F  
HETATM   27  F   UNL     1     -11.921   9.451  72.332  1.00  0.00    -0.374 F  
HETATM   28  F   UNL     1     -13.774  10.196  71.477  1.00  0.00    -0.349 F  
ENDBRANCH   2  11
TORSDOF 2
ENDMDL
MODEL      121
REMARK 921   NORMALIZED FREE ENERGY PREDICTED BY IDOCK:   -4.06 KCAL/MOL
REMARK 922        TOTAL FREE ENERGY PREDICTED BY IDOCK:   -5.28 KCAL/MOL
REMARK 923 INTER-LIGAND FREE ENERGY PREDICTED BY IDOCK:   -6.22 KCAL/MOL
REMARK 924 INTRA-LIGAND FREE ENERGY PREDICTED BY IDOCK:    0.94 KCAL/MOL
REMARK 927      BINDING AFFINITY PREDICTED BY RF-SCORE:    0.00 PKD
ROOT
HETATM    1  O   UNL     1     -12.166  10.875  68.020  1.00  0.00    -0.695 OA 
HETATM    2  C   UNL     1     -10.871  10.648  67.429  1.00  0.00    -0.296 C  
HETATM    3  H   UNL     1     -12.592  10.035  68.149  1.00  0.00     0.000 HD 
ENDROOT
BRANCH   2   4
HETATM    4  C   UNL     1     -10.167  12.036  67.216  1.00  0.00    -0.204 C  
HETATM    5  H   UNL     1      -9.275  13.540  68.321  1.00  0.00     0.000 HD 
HETATM    6  N   UNL     1     -10.009  12.844  68.449  1.00  0.00    -0.228 NA 
HETATM    7  C   UNL     1     -10.811  12.906  66.120  1.00  0.00    -0.300 C  
HETATM    8  C   UNL     1     -12.102  13.582  66.583  1.00  0.00    -0.447 C  
HETATM    9  C   UNL     1     -11.230  13.483  68.929  1.00  0.00    -0.275 C  
HETATM   10  C   UNL     1     -11.851  14.375  67.857  1.00  0.00    -0.384 C  
ENDBRANCH   2   4
BRANCH   2  11
HETATM   11  C   UNL     1     -10.120   9.691  68.362  1.00  0.00    -0.199 A  
HETATM   12  C   UNL     1      -6.936   7.583  68.196  1.00  0.00    -0.072 C  
HETATM   13  C   UNL     1      -9.732   8.520  70.472  1.00  0.00    -0.177 A  
HETATM   14  F   UNL     1      -5.829   7.916  68.921  1.00  0.00    -0.030 F  
HETATM   15  F   UNL     1      -7.001   6.219  68.213  1.00  0.00    -0.068 F  
HETATM   16  C   UNL     1      -8.210   8.243  68.707  1.00  0.00    -0.117 A  
HETATM   17  F   UNL     1      -6.635   7.912  66.905  1.00  0.00    -0.053 F  
HETATM   18  C   UNL     1      -8.942   9.086  67.885  1.00  0.00    -0.135 A  
HETATM   19  C   UNL     1     -10.547   9.379  69.687  1.00  0.00    -0.239 A  
HETATM   20  N   UNL     1      -8.607   7.983  69.982  1.00  0.00    -0.133 NA 
HETATM   21  C   UNL     1     -11.741   9.868  70.265  1.00  0.00    -0.286 A  
HETATM   22  C   UNL     1     -12.160   9.485  71.533  1.00  0.00    -0.468 A  
HETATM   23  C   UNL     1     -11.344   8.669  72.292  1.00  0.00    -0.411 A  
HETATM   24  C   UNL     1     -10.112   8.218  71.781  1.00  0.00    -0.290 A  
HETATM   25  C   UNL     1      -9.234   7.418  72.710  1.00  0.00    -0.149 C  
HETATM   26  F   UNL     1      -9.041   8.082  73.891  1.00  0.00    -0.310 F  
HETATM   27  F   UNL     1      -7.984   7.103  72.279  1.00  0.00    -0.095 F  
HETATM   28  F   UNL     1      -9.813   6.233  73.066  1.00  0.00    -0.162 F  
ENDBRANCH   2  11
TORSDOF 2
ENDMDL
MODEL      122
REMARK 921   NORMALIZED FREE ENERGY PREDICTED BY IDOCK:   -4.02 KCAL/MOL
REMARK 922        TOTAL FREE ENERGY PREDICTED BY IDOCK:   -5.24 KCAL/MOL
REMARK 923 INTER-LIGAND FREE ENERGY PREDICTED BY IDOCK:   -4.82 KCAL/MOL
REMARK 924 INTRA-LIGAND FREE ENERGY PREDICTED BY IDOCK:   -0.41 KCAL/MOL
REMARK 927      BINDING AFFINITY PREDICTED BY RF-SCORE:    0.00 PKD
ROOT
HETATM    1  O   UNL     1     -10.728  11.991  65.132  1.00  0.00    -0.270 OA 
HETATM    2  C   UNL     1      -9.727  11.922  66.167  1.00  0.00    -0.232 C  
HETATM    3  H   UNL     1     -10.488  11.388  64.438  1.00  0.00     0.000 HD 
ENDROOT
BRANCH   2   4
HETATM    4  C   UNL     1     -10.123  12.919  67.314  1.00  0.00    -0.231 C  
HETATM    5  H   UNL     1     -11.449  14.466  67.674  1.00  0.00     0.000 HD 
HETATM    6  N   UNL     1     -10.956  14.065  66.877  1.00  0.00    -0.294 NA 
HETATM    7  C   UNL     1      -8.928  13.444  68.132  1.00  0.00    -0.188 C  
HETATM    8  C   UNL     1      -8.142  14.533  67.399  1.00  0.00    -0.219 C  
HETATM    9  C   UNL     1     -10.238  15.109  66.153  1.00  0.00    -0.295 C  
HETATM   10  C   UNL     1      -9.075  15.658  66.976  1.00  0.00    -0.239 C  
ENDBRANCH   2   4
BRANCH   2  11
HETATM   11  C   UNL     1      -9.640  10.455  66.601  1.00  0.00    -0.219 A  
HETATM   12  C   UNL     1     -10.724   8.389  69.630  1.00  0.00    -0.198 C  
HETATM   13  C   UNL     1      -9.082   8.095  66.300  1.00  0.00    -0.185 A  
HETATM   14  F   UNL     1     -11.749   7.493  69.544  1.00  0.00     0.050 F  
HETATM   15  F   UNL     1      -9.796   7.822  70.455  1.00  0.00    -0.180 F  
HETATM   16  C   UNL     1     -10.150   8.779  68.273  1.00  0.00    -0.188 A  
HETATM   17  F   UNL     1     -11.228   9.449  70.330  1.00  0.00    -0.245 F  
HETATM   18  C   UNL     1     -10.174  10.100  67.855  1.00  0.00    -0.217 A  
HETATM   19  C   UNL     1      -9.049   9.427  65.808  1.00  0.00    -0.249 A  
HETATM   20  N   UNL     1      -9.619   7.802  67.491  1.00  0.00    -0.143 NA 
HETATM   21  C   UNL     1      -8.424   9.657  64.561  1.00  0.00    -0.186 A  
HETATM   22  C   UNL     1      -7.796   8.642  63.849  1.00  0.00    -0.147 A  
HETATM   23  C   UNL     1      -7.858   7.348  64.330  1.00  0.00    -0.127 A  
HETATM   24  C   UNL     1      -8.534   7.065  65.532  1.00  0.00    -0.120 A  
HETATM   25  C   UNL     1      -8.646   5.615  65.933  1.00  0.00    -0.144 C  
HETATM   26  F   UNL     1      -9.163   4.866  64.911  1.00  0.00    -0.155 F  
HETATM   27  F   UNL     1      -9.419   5.318  67.010  1.00  0.00    -0.122 F  
HETATM   28  F   UNL     1      -7.424   5.061  66.188  1.00  0.00    -0.080 F  
ENDBRANCH   2  11
TORSDOF 2
ENDMDL
MODEL      123
REMARK 921   NORMALIZED FREE ENERGY PREDICTED BY IDOCK:   -3.99 KCAL/MOL
REMARK 922        TOTAL FREE ENERGY PREDICTED BY IDOCK:   -5.20 KCAL/MOL
REMARK 923 INTER-LIGAND FREE ENERGY PREDICTED BY IDOCK:   -5.94 KCAL/MOL
REMARK 924 INTRA-LIGAND FREE ENERGY PREDICTED BY IDOCK:    0.75 KCAL/MOL
REMARK 927      BINDING AFFINITY PREDICTED BY RF-SCORE:    0.00 PKD
ROOT
HETATM    1  O   UNL     1      -8.755  10.001  70.474  1.00  0.00    -0.342 OA 
HETATM    2  C   UNL     1      -8.569  10.000  69.044  1.00  0.00    -0.153 C  
HETATM    3  H   UNL     1      -8.723  10.899  70.782  1.00  0.00     0.000 HD 
ENDROOT
BRANCH   2   4
HETATM    4  C   UNL     1      -8.621   8.515  68.533  1.00  0.00    -0.138 C  
HETATM    5  H   UNL     1      -9.992   7.135  67.829  1.00  0.00     0.000 HD 
HETATM    6  N   UNL     1      -9.983   7.934  68.463  1.00  0.00    -0.181 NA 
HETATM    7  C   UNL     1      -7.699   7.552  69.304  1.00  0.00    -0.112 C  
HETATM    8  C   UNL     1      -8.269   7.150  70.666  1.00  0.00    -0.117 C  
HETATM    9  C   UNL     1     -10.563   7.563  69.749  1.00  0.00    -0.241 C  
HETATM   10  C   UNL     1      -9.669   6.578  70.500  1.00  0.00    -0.186 C  
ENDBRANCH   2   4
BRANCH   2  11
HETATM   11  C   UNL     1      -9.650  10.913  68.456  1.00  0.00    -0.187 A  
HETATM   12  C   UNL     1     -12.047  13.582  69.777  1.00  0.00    -0.318 C  
HETATM   13  C   UNL     1     -10.981  11.872  66.645  1.00  0.00    -0.291 A  
HETATM   14  F   UNL     1     -11.870  14.901  69.480  1.00  0.00    -0.284 F  
HETATM   15  F   UNL     1     -13.396  13.372  69.770  1.00  0.00     0.454 F  
HETATM   16  C   UNL     1     -11.298  12.647  68.837  1.00  0.00    -0.297 A  
HETATM   17  F   UNL     1     -11.670  13.452  71.084  1.00  0.00    -0.223 F  
HETATM   18  C   UNL     1     -10.337  11.777  69.330  1.00  0.00     0.084 A  
HETATM   19  C   UNL     1     -10.000  10.939  67.073  1.00  0.00    -0.227 A  
HETATM   20  N   UNL     1     -11.595  12.689  67.510  1.00  0.00    -0.339 NA 
HETATM   21  C   UNL     1      -9.432  10.082  66.102  1.00  0.00    -0.242 A  
HETATM   22  C   UNL     1      -9.849  10.088  64.776  1.00  0.00    -0.325 A  
HETATM   23  C   UNL     1     -10.787  11.018  64.372  1.00  0.00    -0.263 A  
HETATM   24  C   UNL     1     -11.325  11.937  65.293  1.00  0.00    -0.333 A  
HETATM   25  C   UNL     1     -12.262  12.986  64.750  1.00  0.00    -0.435 C  
HETATM   26  F   UNL     1     -11.694  13.650  63.696  1.00  0.00    -0.411 F  
HETATM   27  F   UNL     1     -12.672  13.965  65.599  1.00  0.00    -0.471 F  
HETATM   28  F   UNL     1     -13.404  12.435  64.240  1.00  0.00    -0.365 F  
ENDBRANCH   2  11
TORSDOF 2
ENDMDL
MODEL      124
REMARK 921   NORMALIZED FREE ENERGY PREDICTED BY IDOCK:   -3.98 KCAL/MOL
REMARK 922        TOTAL FREE ENERGY PREDICTED BY IDOCK:   -5.18 KCAL/MOL
REMARK 923 INTER-LIGAND FREE ENERGY PREDICTED BY IDOCK:   -5.34 KCAL/MOL
REMARK 924 INTRA-LIGAND FREE ENERGY PREDICTED BY IDOCK:    0.16 KCAL/MOL
REMARK 927      BINDING AFFINITY PREDICTED BY RF-SCORE:    0.00 PKD
ROOT
HETATM    1  O   UNL     1     -11.944  10.246  68.198  1.00  0.00    -0.692 OA 
HETATM    2  C   UNL     1     -10.544  10.090  67.895  1.00  0.00    -0.250 C  
HETATM    3  H   UNL     1     -12.030  10.827  68.945  1.00  0.00     0.000 HD 
ENDROOT
BRANCH   2   4
HETATM    4  C   UNL     1     -10.403   9.130  66.659  1.00  0.00    -0.218 C  
HETATM    5  H   UNL     1      -9.510   7.335  66.148  1.00  0.00     0.000 HD 
HETATM    6  N   UNL     1      -9.336   8.109  66.788  1.00  0.00    -0.170 NA 
HETATM    7  C   UNL     1     -10.246   9.858  65.311  1.00  0.00    -0.095 C  
HETATM    8  C   UNL     1      -8.836  10.410  65.097  1.00  0.00    -0.207 C  
HETATM    9  C   UNL     1      -7.977   8.611  66.613  1.00  0.00    -0.096 C  
HETATM   10  C   UNL     1      -7.808   9.301  65.262  1.00  0.00    -0.105 C  
ENDBRANCH   2   4
BRANCH   2  11
HETATM   11  C   UNL     1      -9.979  11.498  67.673  1.00  0.00    -0.199 A  
HETATM   12  C   UNL     1     -11.117  14.700  65.923  1.00  0.00    -0.338 C  
HETATM   13  C   UNL     1      -8.335  13.284  67.955  1.00  0.00    -0.163 A  
HETATM   14  F   UNL     1     -11.484  15.803  66.636  1.00  0.00    -0.177 F  
HETATM   15  F   UNL     1     -10.457  15.165  64.822  1.00  0.00    -0.404 F  
HETATM   16  C   UNL     1     -10.293  13.707  66.732  1.00  0.00    -0.268 A  
HETATM   17  F   UNL     1     -12.284  14.173  65.446  1.00  0.00    -0.362 F  
HETATM   18  C   UNL     1     -10.746  12.411  66.927  1.00  0.00    -0.269 A  
HETATM   19  C   UNL     1      -8.720  11.936  68.181  1.00  0.00    -0.173 A  
HETATM   20  N   UNL     1      -9.108  14.124  67.255  1.00  0.00    -0.203 NA 
HETATM   21  C   UNL     1      -7.825  11.102  68.892  1.00  0.00    -0.131 A  
HETATM   22  C   UNL     1      -6.576  11.544  69.311  1.00  0.00    -0.113 A  
HETATM   23  C   UNL     1      -6.228  12.865  69.103  1.00  0.00    -0.101 A  
HETATM   24  C   UNL     1      -7.120  13.747  68.463  1.00  0.00    -0.106 A  
HETATM   25  C   UNL     1      -6.707  15.194  68.369  1.00  0.00    -0.110 C  
HETATM   26  F   UNL     1      -6.360  15.683  69.600  1.00  0.00    -0.136 F  
HETATM   27  F   UNL     1      -7.618  16.079  67.887  1.00  0.00    -0.121 F  
HETATM   28  F   UNL     1      -5.589  15.357  67.602  1.00  0.00    -0.136 F  
ENDBRANCH   2  11
TORSDOF 2
ENDMDL
MODEL      125
REMARK 921   NORMALIZED FREE ENERGY PREDICTED BY IDOCK:   -3.97 KCAL/MOL
REMARK 922        TOTAL FREE ENERGY PREDICTED BY IDOCK:   -5.17 KCAL/MOL
REMARK 923 INTER-LIGAND FREE ENERGY PREDICTED BY IDOCK:   -4.72 KCAL/MOL
REMARK 924 INTRA-LIGAND FREE ENERGY PREDICTED BY IDOCK:   -0.45 KCAL/MOL
REMARK 927      BINDING AFFINITY PREDICTED BY RF-SCORE:    0.00 PKD
ROOT
HETATM    1  O   UNL     1      -5.721  15.409  67.338  1.00  0.00    -0.327 OA 
HETATM    2  C   UNL     1      -6.633  14.309  67.528  1.00  0.00    -0.075 C  
HETATM    3  H   UNL     1      -5.719  15.646  66.418  1.00  0.00     0.000 HD 
ENDROOT
BRANCH   2   4
HETATM    4  C   UNL     1      -6.637  13.918  69.050  1.00  0.00    -0.107 C  
HETATM    5  H   UNL     1      -5.314  13.363  70.541  1.00  0.00     0.000 HD 
HETATM    6  N   UNL     1      -5.386  13.280  69.527  1.00  0.00    -0.083 NA 
HETATM    7  C   UNL     1      -7.839  13.055  69.474  1.00  0.00     0.934 C  
HETATM    8  C   UNL     1      -7.695  11.591  69.055  1.00  0.00    -0.034 C  
HETATM    9  C   UNL     1      -5.209  11.890  69.121  1.00  0.00    -0.051 C  
HETATM   10  C   UNL     1      -6.382  11.024  69.573  1.00  0.00    -0.095 C  
ENDBRANCH   2   4
BRANCH   2  11
HETATM   11  C   UNL     1      -7.993  14.761  66.984  1.00  0.00    -0.139 A  
HETATM   12  C   UNL     1      -9.954  18.037  66.795  1.00  0.00    -0.346 C  
HETATM   13  C   UNL     1     -10.119  14.445  65.822  1.00  0.00    -0.340 A  
HETATM   14  F   UNL     1     -10.139  18.683  65.607  1.00  0.00    -0.287 F  
HETATM   15  F   UNL     1     -11.116  18.195  67.494  1.00  0.00    -0.384 F  
HETATM   16  C   UNL     1      -9.557  16.575  66.629  1.00  0.00    -0.258 A  
HETATM   17  F   UNL     1      -9.025  18.778  67.469  1.00  0.00    -0.272 F  
HETATM   18  C   UNL     1      -8.353  16.113  67.138  1.00  0.00    -0.225 A  
HETATM   19  C   UNL     1      -8.914  13.891  66.331  1.00  0.00    -0.017 A  
HETATM   20  N   UNL     1     -10.410  15.743  65.974  1.00  0.00    -0.320 NA 
HETATM   21  C   UNL     1      -8.704  12.502  66.166  1.00  0.00     0.245 A  
HETATM   22  C   UNL     1      -9.656  11.672  65.587  1.00  0.00    -0.252 A  
HETATM   23  C   UNL     1     -10.812  12.232  65.075  1.00  0.00    -0.337 A  
HETATM   24  C   UNL     1     -11.027  13.622  65.154  1.00  0.00    -0.334 A  
HETATM   25  C   UNL     1     -12.262  14.164  64.480  1.00  0.00    -0.445 C  
HETATM   26  F   UNL     1     -12.329  13.748  63.178  1.00  0.00    -0.545 F  
HETATM   27  F   UNL     1     -12.406  15.514  64.423  1.00  0.00    -0.368 F  
HETATM   28  F   UNL     1     -13.407  13.693  65.057  1.00  0.00    -0.263 F  
ENDBRANCH   2  11
TORSDOF 2
ENDMDL
MODEL      126
REMARK 921   NORMALIZED FREE ENERGY PREDICTED BY IDOCK:   -3.96 KCAL/MOL
REMARK 922        TOTAL FREE ENERGY PREDICTED BY IDOCK:   -5.16 KCAL/MOL
REMARK 923 INTER-LIGAND FREE ENERGY PREDICTED BY IDOCK:   -5.28 KCAL/MOL
REMARK 924 INTRA-LIGAND FREE ENERGY PREDICTED BY IDOCK:    0.12 KCAL/MOL
REMARK 927      BINDING AFFINITY PREDICTED BY RF-SCORE:    0.00 PKD
ROOT
HETATM    1  O   UNL     1      -9.068  12.746  67.296  1.00  0.00    -0.184 OA 
HETATM    2  C   UNL     1     -10.152  12.023  67.914  1.00  0.00    -0.195 C  
HETATM    3  H   UNL     1      -8.496  13.076  67.978  1.00  0.00     0.000 HD 
ENDROOT
BRANCH   2   4
HETATM    4  C   UNL     1     -11.099  11.478  66.785  1.00  0.00    -0.302 C  
HETATM    5  H   UNL     1     -11.740   9.677  65.996  1.00  0.00     0.000 HD 
HETATM    6  N   UNL     1     -10.910  10.044  66.459  1.00  0.00    -0.024 NA 
HETATM    7  C   UNL     1     -11.064  12.301  65.483  1.00  0.00    -0.348 C  
HETATM    8  C   UNL     1      -9.822  12.020  64.637  1.00  0.00    -0.182 C  
HETATM    9  C   UNL     1      -9.719   9.742  65.673  1.00  0.00    -0.288 C  
HETATM   10  C   UNL     1      -9.700  10.528  64.365  1.00  0.00    -0.388 C  
ENDBRANCH   2   4
BRANCH   2  11
HETATM   11  C   UNL     1      -9.518  10.938  68.791  1.00  0.00    -0.196 A  
HETATM   12  C   UNL     1      -6.032   9.443  69.268  1.00  0.00    -0.037 C  
HETATM   13  C   UNL     1      -9.525   9.239  70.547  1.00  0.00    -0.264 A  
HETATM   14  F   UNL     1      -5.308   9.685  70.398  1.00  0.00    -0.032 F  
HETATM   15  F   UNL     1      -5.778   8.146  68.928  1.00  0.00    -0.031 F  
HETATM   16  C   UNL     1      -7.519   9.731  69.433  1.00  0.00    -0.099 A  
HETATM   17  F   UNL     1      -5.440  10.193  68.292  1.00  0.00    -0.037 F  
HETATM   18  C   UNL     1      -8.143  10.678  68.636  1.00  0.00    -0.132 A  
HETATM   19  C   UNL     1     -10.240  10.177  69.757  1.00  0.00    -0.286 A  
HETATM   20  N   UNL     1      -8.211   9.039  70.377  1.00  0.00    -0.132 NA 
HETATM   21  C   UNL     1     -11.634  10.295  69.969  1.00  0.00    -0.349 A  
HETATM   22  C   UNL     1     -12.316   9.486  70.870  1.00  0.00    -0.305 A  
HETATM   23  C   UNL     1     -11.600   8.596  71.648  1.00  0.00    -0.379 A  
HETATM   24  C   UNL     1     -10.202   8.498  71.518  1.00  0.00    -0.320 A  
HETATM   25  C   UNL     1      -9.485   7.580  72.475  1.00  0.00    -0.159 C  
HETATM   26  F   UNL     1      -9.821   7.867  73.771  1.00  0.00    -0.346 F  
HETATM   27  F   UNL     1      -8.126   7.588  72.458  1.00  0.00    -0.099 F  
HETATM   28  F   UNL     1      -9.851   6.275  72.301  1.00  0.00    -0.162 F  
ENDBRANCH   2  11
TORSDOF 2
ENDMDL
MODEL      127
REMARK 921   NORMALIZED FREE ENERGY PREDICTED BY IDOCK:   -3.91 KCAL/MOL
REMARK 922        TOTAL FREE ENERGY PREDICTED BY IDOCK:   -5.11 KCAL/MOL
REMARK 923 INTER-LIGAND FREE ENERGY PREDICTED BY IDOCK:   -4.31 KCAL/MOL
REMARK 924 INTRA-LIGAND FREE ENERGY PREDICTED BY IDOCK:   -0.80 KCAL/MOL
REMARK 927      BINDING AFFINITY PREDICTED BY RF-SCORE:    0.00 PKD
ROOT
HETATM    1  O   UNL     1      -7.551  12.807  67.550  1.00  0.00    -0.140 OA 
HETATM    2  C   UNL     1      -8.748  12.051  67.823  1.00  0.00    -0.161 C  
HETATM    3  H   UNL     1      -6.803  12.315  67.867  1.00  0.00     0.000 HD 
ENDROOT
BRANCH   2   4
HETATM    4  C   UNL     1      -9.985  12.865  67.299  1.00  0.00    -0.224 C  
HETATM    5  H   UNL     1     -10.595  14.826  67.051  1.00  0.00     0.000 HD 
HETATM    6  N   UNL     1      -9.986  14.299  67.677  1.00  0.00    -0.224 NA 
HETATM    7  C   UNL     1     -11.347  12.244  67.665  1.00  0.00    -0.374 C  
HETATM    8  C   UNL     1     -11.741  12.499  69.120  1.00  0.00    -0.375 C  
HETATM    9  C   UNL     1     -10.335  14.571  69.067  1.00  0.00    -0.223 C  
HETATM   10  C   UNL     1     -11.702  13.989  69.422  1.00  0.00    -0.365 C  
ENDBRANCH   2   4
BRANCH   2  11
HETATM   11  C   UNL     1      -8.564  10.679  67.165  1.00  0.00    -0.127 A  
HETATM   12  C   UNL     1      -7.720   9.366  63.676  1.00  0.00    -0.123 C  
HETATM   13  C   UNL     1      -8.436   8.239  67.153  1.00  0.00    -0.123 A  
HETATM   14  F   UNL     1      -6.513   8.789  63.411  1.00  0.00    -0.087 F  
HETATM   15  F   UNL     1      -8.640   8.663  62.954  1.00  0.00    -0.193 F  
HETATM   16  C   UNL     1      -8.048   9.419  65.162  1.00  0.00    -0.126 A  
HETATM   17  F   UNL     1      -7.667  10.599  63.088  1.00  0.00    -0.149 F  
HETATM   18  C   UNL     1      -8.259  10.636  65.792  1.00  0.00    -0.161 A  
HETATM   19  C   UNL     1      -8.685   9.442  67.865  1.00  0.00    -0.120 A  
HETATM   20  N   UNL     1      -8.128   8.248  65.849  1.00  0.00    -0.100 NA 
HETATM   21  C   UNL     1      -9.047   9.341  69.228  1.00  0.00    -0.151 A  
HETATM   22  C   UNL     1      -9.224   8.115  69.858  1.00  0.00    -0.151 A  
HETATM   23  C   UNL     1      -8.954   6.955  69.157  1.00  0.00    -0.133 A  
HETATM   24  C   UNL     1      -8.521   7.014  67.819  1.00  0.00    -0.120 A  
HETATM   25  C   UNL     1      -8.147   5.711  67.159  1.00  0.00    -0.102 C  
HETATM   26  F   UNL     1      -7.241   5.022  67.920  1.00  0.00    -0.062 F  
HETATM   27  F   UNL     1      -7.590   5.769  65.921  1.00  0.00    -0.080 F  
HETATM   28  F   UNL     1      -9.218   4.871  67.046  1.00  0.00    -0.116 F  
ENDBRANCH   2  11
TORSDOF 2
ENDMDL
MODEL      128
REMARK 921   NORMALIZED FREE ENERGY PREDICTED BY IDOCK:   -3.88 KCAL/MOL
REMARK 922        TOTAL FREE ENERGY PREDICTED BY IDOCK:   -5.07 KCAL/MOL
REMARK 923 INTER-LIGAND FREE ENERGY PREDICTED BY IDOCK:   -5.09 KCAL/MOL
REMARK 924 INTRA-LIGAND FREE ENERGY PREDICTED BY IDOCK:    0.02 KCAL/MOL
REMARK 927      BINDING AFFINITY PREDICTED BY RF-SCORE:    0.00 PKD
ROOT
HETATM    1  O   UNL     1      -7.682   6.435  71.896  1.00  0.00    -0.094 OA 
HETATM    2  C   UNL     1      -7.521   7.300  70.754  1.00  0.00    -0.079 C  
HETATM    3  H   UNL     1      -7.898   6.968  72.652  1.00  0.00     0.000 HD 
ENDROOT
BRANCH   2   4
HETATM    4  C   UNL     1      -7.165   6.418  69.504  1.00  0.00    -0.078 C  
HETATM    5  H   UNL     1      -8.083   5.571  67.855  1.00  0.00     0.000 HD 
HETATM    6  N   UNL     1      -8.335   5.830  68.809  1.00  0.00    -0.104 NA 
HETATM    7  C   UNL     1      -6.136   5.307  69.790  1.00  0.00    -0.021 C  
HETATM    8  C   UNL     1      -6.746   4.108  70.517  1.00  0.00    -0.033 C  
HETATM    9  C   UNL     1      -8.954   4.698  69.491  1.00  0.00    -0.092 C  
HETATM   10  C   UNL     1      -7.945   3.580  69.743  1.00  0.00    -0.056 C  
ENDBRANCH   2   4
BRANCH   2  11
HETATM   11  C   UNL     1      -8.821   8.101  70.618  1.00  0.00    -0.143 A  
HETATM   12  C   UNL     1     -12.407   7.809  71.908  1.00  0.00    -0.310 C  
HETATM   13  C   UNL     1     -10.181   9.986  69.865  1.00  0.00    -0.260 A  
HETATM   14  F   UNL     1     -12.892   8.668  72.850  1.00  0.00    -0.424 F  
HETATM   15  F   UNL     1     -13.441   7.573  71.047  1.00  0.00    -0.331 F  
HETATM   16  C   UNL     1     -11.159   8.328  71.205  1.00  0.00    -0.251 A  
HETATM   17  F   UNL     1     -12.208   6.627  72.564  1.00  0.00    -0.242 F  
HETATM   18  C   UNL     1      -9.970   7.617  71.271  1.00  0.00    -0.195 A  
HETATM   19  C   UNL     1      -8.933   9.308  69.867  1.00  0.00    -0.194 A  
HETATM   20  N   UNL     1     -11.243   9.498  70.518  1.00  0.00    -0.268 NA 
HETATM   21  C   UNL     1      -7.874   9.868  69.115  1.00  0.00    -0.105 A  
HETATM   22  C   UNL     1      -8.040  11.009  68.339  1.00  0.00    -0.134 A  
HETATM   23  C   UNL     1      -9.254  11.669  68.367  1.00  0.00    -0.182 A  
HETATM   24  C   UNL     1     -10.312  11.184  69.160  1.00  0.00    -0.186 A  
HETATM   25  C   UNL     1     -11.566  12.020  69.217  1.00  0.00    -0.321 C  
HETATM   26  F   UNL     1     -11.275  13.314  69.556  1.00  0.00    -0.281 F  
HETATM   27  F   UNL     1     -12.536  11.640  70.090  1.00  0.00    -0.332 F  
HETATM   28  F   UNL     1     -12.176  12.108  67.998  1.00  0.00    -0.376 F  
ENDBRANCH   2  11
TORSDOF 2
ENDMDL
MODEL      129
REMARK 921   NORMALIZED FREE ENERGY PREDICTED BY IDOCK:   -3.85 KCAL/MOL
REMARK 922        TOTAL FREE ENERGY PREDICTED BY IDOCK:   -5.04 KCAL/MOL
REMARK 923 INTER-LIGAND FREE ENERGY PREDICTED BY IDOCK:   -5.01 KCAL/MOL
REMARK 924 INTRA-LIGAND FREE ENERGY PREDICTED BY IDOCK:   -0.03 KCAL/MOL
REMARK 927      BINDING AFFINITY PREDICTED BY RF-SCORE:    0.00 PKD
ROOT
HETATM    1  O   UNL     1      -9.232  15.595  65.784  1.00  0.00    -0.321 OA 
HETATM    2  C   UNL     1      -8.391  15.378  66.934  1.00  0.00    -0.255 C  
HETATM    3  H   UNL     1      -9.044  14.922  65.140  1.00  0.00     0.000 HD 
ENDROOT
BRANCH   2   4
HETATM    4  C   UNL     1      -8.703  16.490  67.999  1.00  0.00    -0.189 C  
HETATM    5  H   UNL     1     -10.302  17.596  68.706  1.00  0.00     0.000 HD 
HETATM    6  N   UNL     1     -10.017  17.155  67.831  1.00  0.00    -0.281 NA 
HETATM    7  C   UNL     1      -7.605  17.564  68.127  1.00  0.00    -0.221 C  
HETATM    8  C   UNL     1      -7.639  18.584  66.989  1.00  0.00    -0.234 C  
HETATM    9  C   UNL     1     -10.087  18.117  66.736  1.00  0.00    -0.362 C  
HETATM   10  C   UNL     1      -9.024  19.204  66.880  1.00  0.00    -0.332 C  
ENDBRANCH   2   4
BRANCH   2  11
HETATM   11  C   UNL     1      -8.657  13.947  67.414  1.00  0.00    -0.206 A  
HETATM   12  C   UNL     1     -11.275  11.241  66.755  1.00  0.00    -0.195 C  
HETATM   13  C   UNL     1      -8.145  11.907  68.659  1.00  0.00    -0.086 A  
HETATM   14  F   UNL     1     -10.968  10.117  66.046  1.00  0.00    -0.106 F  
HETATM   15  F   UNL     1     -12.129  10.842  67.742  1.00  0.00    -0.223 F  
HETATM   16  C   UNL     1     -10.050  11.969  67.290  1.00  0.00    -0.194 A  
HETATM   17  F   UNL     1     -12.033  12.003  65.911  1.00  0.00    -0.439 F  
HETATM   18  C   UNL     1      -9.790  13.278  66.913  1.00  0.00    -0.247 A  
HETATM   19  C   UNL     1      -7.821  13.252  68.338  1.00  0.00    -0.137 A  
HETATM   20  N   UNL     1      -9.224  11.305  68.142  1.00  0.00    -0.164 NA 
HETATM   21  C   UNL     1      -6.690  13.828  68.962  1.00  0.00    -0.111 A  
HETATM   22  C   UNL     1      -5.940  13.144  69.911  1.00  0.00    -0.138 A  
HETATM   23  C   UNL     1      -6.255  11.828  70.194  1.00  0.00    -0.104 A  
HETATM   24  C   UNL     1      -7.330  11.195  69.541  1.00  0.00    -0.023 A  
HETATM   25  C   UNL     1      -7.541   9.730  69.828  1.00  0.00    -0.137 C  
HETATM   26  F   UNL     1      -6.385   9.023  69.632  1.00  0.00    -0.037 F  
HETATM   27  F   UNL     1      -8.480   9.074  69.097  1.00  0.00    -0.118 F  
HETATM   28  F   UNL     1      -7.868   9.509  71.136  1.00  0.00    -0.155 F  
ENDBRANCH   2  11
TORSDOF 2
ENDMDL
MODEL      130
REMARK 921   NORMALIZED FREE ENERGY PREDICTED BY IDOCK:   -3.83 KCAL/MOL
REMARK 922        TOTAL FREE ENERGY PREDICTED BY IDOCK:   -5.02 KCAL/MOL
REMARK 923 INTER-LIGAND FREE ENERGY PREDICTED BY IDOCK:   -5.45 KCAL/MOL
REMARK 924 INTRA-LIGAND FREE ENERGY PREDICTED BY IDOCK:    0.43 KCAL/MOL
REMARK 927      BINDING AFFINITY PREDICTED BY RF-SCORE:    0.00 PKD
ROOT
HETATM    1  O   UNL     1      -9.124   5.412  68.759  1.00  0.00    -0.115 OA 
HETATM    2  C   UNL     1      -9.533   5.960  70.028  1.00  0.00    -0.159 C  
HETATM    3  H   UNL     1      -9.881   5.374  68.187  1.00  0.00     0.000 HD 
ENDROOT
BRANCH   2   4
HETATM    4  C   UNL     1      -8.281   6.022  70.974  1.00  0.00    -0.123 C  
HETATM    5  H   UNL     1      -6.404   5.176  71.167  1.00  0.00     0.000 HD 
HETATM    6  N   UNL     1      -7.316   4.911  70.796  1.00  0.00    -0.062 NA 
HETATM    7  C   UNL     1      -8.628   6.156  72.469  1.00  0.00    -0.121 C  
HETATM    8  C   UNL     1      -9.086   4.837  73.091  1.00  0.00    -0.121 C  
HETATM    9  C   UNL     1      -7.737   3.632  71.358  1.00  0.00    -0.056 C  
HETATM   10  C   UNL     1      -8.046   3.753  72.848  1.00  0.00    -0.086 C  
ENDBRANCH   2   4
BRANCH   2  11
HETATM   11  C   UNL     1     -10.178   7.320  69.736  1.00  0.00    -0.214 A  
HETATM   12  C   UNL     1     -12.558   9.707  71.538  1.00  0.00    -0.391 C  
HETATM   13  C   UNL     1     -10.564   9.339  68.414  1.00  0.00    -0.190 A  
HETATM   14  F   UNL     1     -12.120  10.897  72.041  1.00  0.00    -0.157 F  
HETATM   15  F   UNL     1     -13.811   9.943  71.049  1.00  0.00    -0.370 F  
HETATM   16  C   UNL     1     -11.619   9.111  70.497  1.00  0.00    -0.197 A  
HETATM   17  F   UNL     1     -12.743   8.901  72.626  1.00  0.00    -0.444 F  
HETATM   18  C   UNL     1     -11.043   7.867  70.702  1.00  0.00    -0.263 A  
HETATM   19  C   UNL     1      -9.951   8.064  68.540  1.00  0.00    -0.206 A  
HETATM   20  N   UNL     1     -11.364   9.828  69.370  1.00  0.00    -0.112 NA 
HETATM   21  C   UNL     1      -9.156   7.603  67.465  1.00  0.00    -0.131 A  
HETATM   22  C   UNL     1      -9.015   8.324  66.286  1.00  0.00    -0.221 A  
HETATM   23  C   UNL     1      -9.598   9.573  66.190  1.00  0.00    -0.302 A  
HETATM   24  C   UNL     1     -10.338  10.100  67.266  1.00  0.00    -0.291 A  
HETATM   25  C   UNL     1     -10.853  11.510  67.120  1.00  0.00    -0.268 C  
HETATM   26  F   UNL     1      -9.840  12.366  66.778  1.00  0.00    -0.206 F  
HETATM   27  F   UNL     1     -11.440  12.081  68.205  1.00  0.00    -0.275 F  
HETATM   28  F   UNL     1     -11.760  11.620  66.105  1.00  0.00    -0.371 F  
ENDBRANCH   2  11
TORSDOF 2
ENDMDL
MODEL      131
REMARK 921   NORMALIZED FREE ENERGY PREDICTED BY IDOCK:   -3.80 KCAL/MOL
REMARK 922        TOTAL FREE ENERGY PREDICTED BY IDOCK:   -4.98 KCAL/MOL
REMARK 923 INTER-LIGAND FREE ENERGY PREDICTED BY IDOCK:   -5.26 KCAL/MOL
REMARK 924 INTRA-LIGAND FREE ENERGY PREDICTED BY IDOCK:    0.27 KCAL/MOL
REMARK 927      BINDING AFFINITY PREDICTED BY RF-SCORE:    0.00 PKD
ROOT
HETATM    1  O   UNL     1      -5.988  18.480  66.978  1.00  0.00    -0.156 OA 
HETATM    2  C   UNL     1      -6.573  17.255  67.463  1.00  0.00    -0.144 C  
HETATM    3  H   UNL     1      -6.030  18.480  66.029  1.00  0.00     0.000 HD 
ENDROOT
BRANCH   2   4
HETATM    4  C   UNL     1      -6.503  17.254  69.033  1.00  0.00    -0.221 C  
HETATM    5  H   UNL     1      -7.725  17.586  70.669  1.00  0.00     0.000 HD 
HETATM    6  N   UNL     1      -7.653  17.907  69.703  1.00  0.00     0.402 NA 
HETATM    7  C   UNL     1      -5.192  17.827  69.604  1.00  0.00    -0.188 C  
HETATM    8  C   UNL     1      -5.145  19.355  69.559  1.00  0.00    -0.189 C  
HETATM    9  C   UNL     1      -7.648  19.365  69.656  1.00  0.00     0.116 C  
HETATM   10  C   UNL     1      -6.366  19.938  70.256  1.00  0.00    -0.328 C  
ENDBRANCH   2   4
BRANCH   2  11
HETATM   11  C   UNL     1      -7.993  17.185  66.891  1.00  0.00    -0.250 A  
HETATM   12  C   UNL     1     -10.711  19.685  65.901  1.00  0.00    -0.413 C  
HETATM   13  C   UNL     1      -9.951  16.039  65.982  1.00  0.00    -0.339 A  
HETATM   14  F   UNL     1     -11.031  19.900  64.592  1.00  0.00    -0.023 F  
HETATM   15  F   UNL     1     -11.888  19.745  66.591  1.00  0.00     0.154 F  
HETATM   16  C   UNL     1      -9.957  18.381  66.129  1.00  0.00    -0.319 A  
HETATM   17  F   UNL     1     -10.010  20.792  66.289  1.00  0.00    -0.415 F  
HETATM   18  C   UNL     1      -8.684  18.393  66.680  1.00  0.00    -0.295 A  
HETATM   19  C   UNL     1      -8.655  15.966  66.558  1.00  0.00    -0.345 A  
HETATM   20  N   UNL     1     -10.562  17.214  65.781  1.00  0.00    -0.436 NA 
HETATM   21  C   UNL     1      -8.099  14.684  66.777  1.00  0.00     0.088 A  
HETATM   22  C   UNL     1      -8.802  13.517  66.506  1.00  0.00     0.005 A  
HETATM   23  C   UNL     1     -10.052  13.606  65.923  1.00  0.00    -0.320 A  
HETATM   24  C   UNL     1     -10.611  14.863  65.622  1.00  0.00    -0.358 A  
HETATM   25  C   UNL     1     -11.931  14.871  64.892  1.00  0.00    -0.306 C  
HETATM   26  F   UNL     1     -11.868  14.098  63.764  1.00  0.00    -0.377 F  
HETATM   27  F   UNL     1     -12.408  16.070  64.468  1.00  0.00    -0.081 F  
HETATM   28  F   UNL     1     -12.931  14.316  65.640  1.00  0.00    -0.518 F  
ENDBRANCH   2  11
TORSDOF 2
ENDMDL
MODEL      132
REMARK 921   NORMALIZED FREE ENERGY PREDICTED BY IDOCK:   -3.77 KCAL/MOL
REMARK 922        TOTAL FREE ENERGY PREDICTED BY IDOCK:   -4.96 KCAL/MOL
REMARK 923 INTER-LIGAND FREE ENERGY PREDICTED BY IDOCK:   -5.63 KCAL/MOL
REMARK 924 INTRA-LIGAND FREE ENERGY PREDICTED BY IDOCK:    0.68 KCAL/MOL
REMARK 927      BINDING AFFINITY PREDICTED BY RF-SCORE:    0.00 PKD
ROOT
HETATM    1  O   UNL     1     -11.755   6.555  69.723  1.00  0.00    -0.595 OA 
HETATM    2  C   UNL     1     -10.961   7.753  69.609  1.00  0.00    -0.122 C  
HETATM    3  H   UNL     1     -12.397   6.550  69.023  1.00  0.00     0.000 HD 
ENDROOT
BRANCH   2   4
HETATM    4  C   UNL     1      -9.898   7.761  70.766  1.00  0.00    -0.180 C  
HETATM    5  H   UNL     1      -8.559   6.482  71.689  1.00  0.00     0.000 HD 
HETATM    6  N   UNL     1      -9.456   6.417  71.208  1.00  0.00    -0.166 NA 
HETATM    7  C   UNL     1     -10.316   8.586  71.998  1.00  0.00    -0.408 C  
HETATM    8  C   UNL     1     -11.334   7.861  72.879  1.00  0.00    -0.399 C  
HETATM    9  C   UNL     1     -10.417   5.690  72.031  1.00  0.00    -0.219 C  
HETATM   10  C   UNL     1     -10.805   6.490  73.272  1.00  0.00    -0.276 C  
ENDBRANCH   2   4
BRANCH   2  11
HETATM   11  C   UNL     1     -10.363   7.756  68.197  1.00  0.00    -0.248 A  
HETATM   12  C   UNL     1      -9.809  10.329  65.425  1.00  0.00    -0.296 C  
HETATM   13  C   UNL     1      -9.230   6.750  66.280  1.00  0.00    -0.127 A  
HETATM   14  F   UNL     1      -8.558  10.774  65.114  1.00  0.00    -0.174 F  
HETATM   15  F   UNL     1     -10.480  10.233  64.241  1.00  0.00    -0.380 F  
HETATM   16  C   UNL     1      -9.805   9.024  66.211  1.00  0.00    -0.291 A  
HETATM   17  F   UNL     1     -10.404  11.362  66.093  1.00  0.00    -0.252 F  
HETATM   18  C   UNL     1     -10.368   8.965  67.477  1.00  0.00    -0.328 A  
HETATM   19  C   UNL     1      -9.803   6.603  67.571  1.00  0.00    -0.158 A  
HETATM   20  N   UNL     1      -9.239   7.927  65.641  1.00  0.00     0.023 NA 
HETATM   21  C   UNL     1      -9.791   5.316  68.158  1.00  0.00    -0.198 A  
HETATM   22  C   UNL     1      -9.299   4.202  67.489  1.00  0.00    -0.204 A  
HETATM   23  C   UNL     1      -8.723   4.368  66.244  1.00  0.00    -0.113 A  
HETATM   24  C   UNL     1      -8.650   5.645  65.655  1.00  0.00    -0.150 A  
HETATM   25  C   UNL     1      -7.914   5.755  64.343  1.00  0.00    -0.126 C  
HETATM   26  F   UNL     1      -6.664   5.205  64.438  1.00  0.00    -0.042 F  
HETATM   27  F   UNL     1      -7.710   7.001  63.839  1.00  0.00    -0.093 F  
HETATM   28  F   UNL     1      -8.532   5.049  63.350  1.00  0.00    -0.109 F  
ENDBRANCH   2  11
TORSDOF 2
ENDMDL
MODEL      133
REMARK 921   NORMALIZED FREE ENERGY PREDICTED BY IDOCK:   -3.73 KCAL/MOL
REMARK 922        TOTAL FREE ENERGY PREDICTED BY IDOCK:   -4.91 KCAL/MOL
REMARK 923 INTER-LIGAND FREE ENERGY PREDICTED BY IDOCK:   -4.61 KCAL/MOL
REMARK 924 INTRA-LIGAND FREE ENERGY PREDICTED BY IDOCK:   -0.30 KCAL/MOL
REMARK 927      BINDING AFFINITY PREDICTED BY RF-SCORE:    0.00 PKD
ROOT
HETATM    1  O   UNL     1     -12.153  16.244  68.225  1.00  0.00    -0.088 OA 
HETATM    2  C   UNL     1     -11.626  15.232  69.107  1.00  0.00    -0.332 C  
HETATM    3  H   UNL     1     -11.426  16.729  67.852  1.00  0.00     0.000 HD 
ENDROOT
BRANCH   2   4
HETATM    4  C   UNL     1     -12.829  14.432  69.725  1.00  0.00     0.174 C  
HETATM    5  H   UNL     1     -14.737  14.760  70.454  1.00  0.00     0.000 HD 
HETATM    6  N   UNL     1     -13.857  15.272  70.384  1.00  0.00     0.098 NA 
HETATM    7  C   UNL     1     -12.406  13.303  70.685  1.00  0.00    -0.416 C  
HETATM    8  C   UNL     1     -11.989  13.822  72.061  1.00  0.00     0.637 C  
HETATM    9  C   UNL     1     -13.478  15.802  71.689  1.00  0.00    -0.302 C  
HETATM   10  C   UNL     1     -13.094  14.683  72.655  1.00  0.00    -0.549 C  
ENDBRANCH   2   4
BRANCH   2  11
HETATM   11  C   UNL     1     -10.656  14.384  68.279  1.00  0.00    -0.243 A  
HETATM   12  C   UNL     1      -6.911  13.617  68.319  1.00  0.00    -0.109 C  
HETATM   13  C   UNL     1     -10.065  12.800  66.514  1.00  0.00    -0.258 A  
HETATM   14  F   UNL     1      -6.445  12.390  68.688  1.00  0.00    -0.061 F  
HETATM   15  F   UNL     1      -6.103  14.037  67.302  1.00  0.00    -0.106 F  
HETATM   16  C   UNL     1      -8.386  13.611  67.938  1.00  0.00    -0.174 A  
HETATM   17  F   UNL     1      -6.626  14.443  69.369  1.00  0.00    -0.105 F  
HETATM   18  C   UNL     1      -9.295  14.392  68.636  1.00  0.00    -0.188 A  
HETATM   19  C   UNL     1     -11.053  13.585  67.165  1.00  0.00    -0.308 A  
HETATM   20  N   UNL     1      -8.784  12.824  66.903  1.00  0.00    -0.197 NA 
HETATM   21  C   UNL     1     -12.374  13.536  66.664  1.00  0.00    -0.351 A  
HETATM   22  C   UNL     1     -12.710  12.801  65.533  1.00  0.00    -0.118 A  
HETATM   23  C   UNL     1     -11.742  12.024  64.927  1.00  0.00    -0.321 A  
HETATM   24  C   UNL     1     -10.430  11.989  65.438  1.00  0.00    -0.313 A  
HETATM   25  C   UNL     1      -9.463  11.036  64.782  1.00  0.00    -0.230 C  
HETATM   26  F   UNL     1      -9.984   9.771  64.730  1.00  0.00    -0.377 F  
HETATM   27  F   UNL     1      -8.240  10.886  65.357  1.00  0.00    -0.162 F  
HETATM   28  F   UNL     1      -9.222  11.369  63.480  1.00  0.00    -0.214 F  
ENDBRANCH   2  11
TORSDOF 2
ENDMDL
MODEL      134
REMARK 921   NORMALIZED FREE ENERGY PREDICTED BY IDOCK:   -3.70 KCAL/MOL
REMARK 922        TOTAL FREE ENERGY PREDICTED BY IDOCK:   -4.88 KCAL/MOL
REMARK 923 INTER-LIGAND FREE ENERGY PREDICTED BY IDOCK:   -4.16 KCAL/MOL
REMARK 924 INTRA-LIGAND FREE ENERGY PREDICTED BY IDOCK:   -0.71 KCAL/MOL
REMARK 927      BINDING AFFINITY PREDICTED BY RF-SCORE:    0.00 PKD
ROOT
HETATM    1  O   UNL     1      -7.778   8.759  71.773  1.00  0.00    -0.233 OA 
HETATM    2  C   UNL     1      -8.702   8.449  70.711  1.00  0.00    -0.150 C  
HETATM    3  H   UNL     1      -6.903   8.515  71.494  1.00  0.00     0.000 HD 
ENDROOT
BRANCH   2   4
HETATM    4  C   UNL     1     -10.149   8.853  71.173  1.00  0.00    -0.271 C  
HETATM    5  H   UNL     1     -11.236   9.111  72.914  1.00  0.00     0.000 HD 
HETATM    6  N   UNL     1     -10.454   8.542  72.590  1.00  0.00    -0.246 NA 
HETATM    7  C   UNL     1     -11.273   8.296  70.279  1.00  0.00    -0.176 C  
HETATM    8  C   UNL     1     -11.556   6.816  70.538  1.00  0.00    -0.426 C  
HETATM    9  C   UNL     1     -10.706   7.133  72.872  1.00  0.00    -0.302 C  
HETATM   10  C   UNL     1     -11.844   6.587  72.014  1.00  0.00    -0.374 C  
ENDBRANCH   2   4
BRANCH   2  11
HETATM   11  C   UNL     1      -8.205   9.185  69.462  1.00  0.00    -0.120 A  
HETATM   12  C   UNL     1      -6.442  12.493  68.709  1.00  0.00    -0.084 C  
HETATM   13  C   UNL     1      -7.770   9.424  67.069  1.00  0.00    -0.091 A  
HETATM   14  F   UNL     1      -5.143  12.523  68.292  1.00  0.00    -0.051 F  
HETATM   15  F   UNL     1      -7.082  13.482  68.020  1.00  0.00    -0.078 F  
HETATM   16  C   UNL     1      -7.099  11.129  68.534  1.00  0.00    -0.080 A  
HETATM   17  F   UNL     1      -6.415  12.918  70.007  1.00  0.00    -0.118 F  
HETATM   18  C   UNL     1      -7.597  10.444  69.631  1.00  0.00    -0.158 A  
HETATM   19  C   UNL     1      -8.322   8.668  68.138  1.00  0.00    -0.127 A  
HETATM   20  N   UNL     1      -7.182  10.608  67.280  1.00  0.00    -0.088 NA 
HETATM   21  C   UNL     1      -8.965   7.449  67.824  1.00  0.00    -0.127 A  
HETATM   22  C   UNL     1      -9.123   7.011  66.514  1.00  0.00    -0.183 A  
HETATM   23  C   UNL     1      -8.558   7.746  65.489  1.00  0.00    -0.126 A  
HETATM   24  C   UNL     1      -7.848   8.929  65.766  1.00  0.00    -0.099 A  
HETATM   25  C   UNL     1      -7.175   9.614  64.603  1.00  0.00    -0.123 C  
HETATM   26  F   UNL     1      -6.383   8.737  63.912  1.00  0.00    -0.074 F  
HETATM   27  F   UNL     1      -6.367  10.672  64.878  1.00  0.00    -0.125 F  
HETATM   28  F   UNL     1      -8.079  10.066  63.684  1.00  0.00    -0.133 F  
ENDBRANCH   2  11
TORSDOF 2
ENDMDL
MODEL      135
REMARK 921   NORMALIZED FREE ENERGY PREDICTED BY IDOCK:   -3.69 KCAL/MOL
REMARK 922        TOTAL FREE ENERGY PREDICTED BY IDOCK:   -4.86 KCAL/MOL
REMARK 923 INTER-LIGAND FREE ENERGY PREDICTED BY IDOCK:   -5.02 KCAL/MOL
REMARK 924 INTRA-LIGAND FREE ENERGY PREDICTED BY IDOCK:    0.16 KCAL/MOL
REMARK 927      BINDING AFFINITY PREDICTED BY RF-SCORE:    0.00 PKD
ROOT
HETATM    1  O   UNL     1     -11.661   6.414  67.047  1.00  0.00    -0.696 OA 
HETATM    2  C   UNL     1     -10.228   6.322  67.180  1.00  0.00    -0.196 C  
HETATM    3  H   UNL     1     -12.025   5.537  67.074  1.00  0.00     0.000 HD 
ENDROOT
BRANCH   2   4
HETATM    4  C   UNL     1      -9.627   7.772  67.135  1.00  0.00    -0.170 C  
HETATM    5  H   UNL     1      -8.950   9.159  65.758  1.00  0.00     0.000 HD 
HETATM    6  N   UNL     1      -9.007   8.145  65.841  1.00  0.00    -0.170 NA 
HETATM    7  C   UNL     1      -8.638   8.079  68.276  1.00  0.00    -0.130 C  
HETATM    8  C   UNL     1      -7.261   7.454  68.050  1.00  0.00    -0.090 C  
HETATM    9  C   UNL     1      -7.702   7.544  65.586  1.00  0.00    -0.100 C  
HETATM   10  C   UNL     1      -6.709   7.877  66.696  1.00  0.00    -0.063 C  
ENDBRANCH   2   4
BRANCH   2  11
HETATM   11  C   UNL     1      -9.952   5.559  68.480  1.00  0.00    -0.211 A  
HETATM   12  C   UNL     1      -7.619   2.747  69.605  1.00  0.00    -0.043 C  
HETATM   13  C   UNL     1     -10.237   5.080  70.860  1.00  0.00    -0.217 A  
HETATM   14  F   UNL     1      -6.568   2.992  70.439  1.00  0.00    -0.029 F  
HETATM   15  F   UNL     1      -8.119   1.532  69.976  1.00  0.00    -0.042 F  
HETATM   16  C   UNL     1      -8.669   3.850  69.621  1.00  0.00    -0.077 A  
HETATM   17  F   UNL     1      -7.063   2.546  68.373  1.00  0.00    -0.045 F  
HETATM   18  C   UNL     1      -8.979   4.542  68.460  1.00  0.00    -0.145 A  
HETATM   19  C   UNL     1     -10.624   5.820  69.711  1.00  0.00    -0.388 A  
HETATM   20  N   UNL     1      -9.290   4.135  70.796  1.00  0.00    -0.138 NA 
HETATM   21  C   UNL     1     -11.663   6.768  69.854  1.00  0.00    -0.279 A  
HETATM   22  C   UNL     1     -12.344   6.946  71.052  1.00  0.00    -0.401 A  
HETATM   23  C   UNL     1     -11.938   6.235  72.166  1.00  0.00    -0.338 A  
HETATM   24  C   UNL     1     -10.860   5.333  72.083  1.00  0.00    -0.252 A  
HETATM   25  C   UNL     1     -10.414   4.677  73.365  1.00  0.00    -0.207 C  
HETATM   26  F   UNL     1     -10.173   5.614  74.334  1.00  0.00    -0.204 F  
HETATM   27  F   UNL     1      -9.286   3.920  73.325  1.00  0.00    -0.103 F  
HETATM   28  F   UNL     1     -11.383   3.872  73.891  1.00  0.00    -0.283 F  
ENDBRANCH   2  11
TORSDOF 2
ENDMDL
MODEL      136
REMARK 921   NORMALIZED FREE ENERGY PREDICTED BY IDOCK:   -3.68 KCAL/MOL
REMARK 922        TOTAL FREE ENERGY PREDICTED BY IDOCK:   -4.86 KCAL/MOL
REMARK 923 INTER-LIGAND FREE ENERGY PREDICTED BY IDOCK:   -5.12 KCAL/MOL
REMARK 924 INTRA-LIGAND FREE ENERGY PREDICTED BY IDOCK:    0.26 KCAL/MOL
REMARK 927      BINDING AFFINITY PREDICTED BY RF-SCORE:    0.00 PKD
ROOT
HETATM    1  O   UNL     1      -8.181   7.351  72.232  1.00  0.00    -0.099 OA 
HETATM    2  C   UNL     1      -8.923   6.175  71.851  1.00  0.00    -0.140 C  
HETATM    3  H   UNL     1      -7.375   7.377  71.730  1.00  0.00     0.000 HD 
ENDROOT
BRANCH   2   4
HETATM    4  C   UNL     1     -10.255   6.133  72.682  1.00  0.00    -0.182 C  
HETATM    5  H   UNL     1     -12.140   5.283  72.603  1.00  0.00     0.000 HD 
HETATM    6  N   UNL     1     -11.426   5.598  71.946  1.00  0.00    -0.161 NA 
HETATM    7  C   UNL     1     -10.636   7.479  73.329  1.00  0.00    -0.438 C  
HETATM    8  C   UNL     1     -11.239   8.466  72.330  1.00  0.00    -0.446 C  
HETATM    9  C   UNL     1     -12.008   6.510  70.967  1.00  0.00    -0.297 C  
HETATM   10  C   UNL     1     -12.421   7.831  71.613  1.00  0.00    -0.352 C  
ENDBRANCH   2   4
BRANCH   2  11
HETATM   11  C   UNL     1      -9.122   6.249  70.333  1.00  0.00    -0.157 A  
HETATM   12  C   UNL     1      -9.515   9.009  67.718  1.00  0.00    -0.141 C  
HETATM   13  C   UNL     1      -9.324   5.308  68.087  1.00  0.00    -0.118 A  
HETATM   14  F   UNL     1      -8.526   9.277  66.818  1.00  0.00    -0.121 F  
HETATM   15  F   UNL     1     -10.691   9.167  67.042  1.00  0.00    -0.330 F  
HETATM   16  C   UNL     1      -9.384   7.637  68.366  1.00  0.00    -0.146 A  
HETATM   17  F   UNL     1      -9.476  10.038  68.616  1.00  0.00    -0.141 F  
HETATM   18  C   UNL     1      -9.240   7.520  69.740  1.00  0.00    -0.147 A  
HETATM   19  C   UNL     1      -9.193   5.103  69.487  1.00  0.00    -0.163 A  
HETATM   20  N   UNL     1      -9.413   6.538  67.565  1.00  0.00    -0.124 NA 
HETATM   21  C   UNL     1      -9.151   3.771  69.960  1.00  0.00    -0.193 A  
HETATM   22  C   UNL     1      -9.295   2.680  69.112  1.00  0.00    -0.198 A  
HETATM   23  C   UNL     1      -9.396   2.896  67.751  1.00  0.00    -0.247 A  
HETATM   24  C   UNL     1      -9.370   4.205  67.232  1.00  0.00    -0.200 A  
HETATM   25  C   UNL     1      -9.381   4.349  65.731  1.00  0.00    -0.162 C  
HETATM   26  F   UNL     1      -8.390   3.595  65.162  1.00  0.00    -0.095 F  
HETATM   27  F   UNL     1      -9.208   5.596  65.217  1.00  0.00    -0.144 F  
HETATM   28  F   UNL     1     -10.539   3.877  65.181  1.00  0.00    -0.177 F  
ENDBRANCH   2  11
TORSDOF 2
ENDMDL
MODEL      137
REMARK 921   NORMALIZED FREE ENERGY PREDICTED BY IDOCK:   -3.66 KCAL/MOL
REMARK 922        TOTAL FREE ENERGY PREDICTED BY IDOCK:   -4.83 KCAL/MOL
REMARK 923 INTER-LIGAND FREE ENERGY PREDICTED BY IDOCK:   -4.65 KCAL/MOL
REMARK 924 INTRA-LIGAND FREE ENERGY PREDICTED BY IDOCK:   -0.18 KCAL/MOL
REMARK 927      BINDING AFFINITY PREDICTED BY RF-SCORE:    0.00 PKD
ROOT
HETATM    1  O   UNL     1     -10.938   5.240  69.372  1.00  0.00    -0.082 OA 
HETATM    2  C   UNL     1     -10.404   6.535  69.713  1.00  0.00    -0.195 C  
HETATM    3  H   UNL     1     -11.652   5.360  68.757  1.00  0.00     0.000 HD 
ENDROOT
BRANCH   2   4
HETATM    4  C   UNL     1      -9.222   6.337  70.729  1.00  0.00    -0.154 C  
HETATM    5  H   UNL     1      -8.815   6.576  72.744  1.00  0.00     0.000 HD 
HETATM    6  N   UNL     1      -9.416   7.004  72.039  1.00  0.00    -0.140 NA 
HETATM    7  C   UNL     1      -7.839   6.716  70.168  1.00  0.00    -0.107 C  
HETATM    8  C   UNL     1      -7.610   8.228  70.130  1.00  0.00    -0.075 C  
HETATM    9  C   UNL     1      -9.228   8.451  72.029  1.00  0.00    -0.234 C  
HETATM   10  C   UNL     1      -7.844   8.829  71.508  1.00  0.00    -0.147 C  
ENDBRANCH   2   4
BRANCH   2  11
HETATM   11  C   UNL     1     -10.003   7.210  68.396  1.00  0.00    -0.166 A  
HETATM   12  C   UNL     1      -8.067   6.226  65.251  1.00  0.00    -0.132 C  
HETATM   13  C   UNL     1      -9.972   9.039  66.776  1.00  0.00    -0.263 A  
HETATM   14  F   UNL     1      -8.703   6.038  64.059  1.00  0.00    -0.025 F  
HETATM   15  F   UNL     1      -6.875   6.819  64.952  1.00  0.00    -0.045 F  
HETATM   16  C   UNL     1      -8.891   7.024  66.253  1.00  0.00    -0.148 A  
HETATM   17  F   UNL     1      -7.745   4.972  65.689  1.00  0.00    -0.082 F  
HETATM   18  C   UNL     1      -9.245   6.467  67.473  1.00  0.00    -0.112 A  
HETATM   19  C   UNL     1     -10.356   8.548  68.052  1.00  0.00    -0.272 A  
HETATM   20  N   UNL     1      -9.266   8.288  65.921  1.00  0.00    -0.161 NA 
HETATM   21  C   UNL     1     -11.061   9.422  68.913  1.00  0.00    -0.003 A  
HETATM   22  C   UNL     1     -11.326  10.743  68.571  1.00  0.00    -0.360 A  
HETATM   23  C   UNL     1     -10.966  11.196  67.317  1.00  0.00    -0.354 A  
HETATM   24  C   UNL     1     -10.327  10.337  66.403  1.00  0.00    -0.262 A  
HETATM   25  C   UNL     1     -10.063  10.878  65.020  1.00  0.00    -0.300 C  
HETATM   26  F   UNL     1     -11.207  11.387  64.469  1.00  0.00    -0.384 F  
HETATM   27  F   UNL     1      -9.581  10.014  64.088  1.00  0.00    -0.310 F  
HETATM   28  F   UNL     1      -9.189  11.928  65.041  1.00  0.00    -0.138 F  
ENDBRANCH   2  11
TORSDOF 2
ENDMDL
MODEL      138
REMARK 921   NORMALIZED FREE ENERGY PREDICTED BY IDOCK:   -3.66 KCAL/MOL
REMARK 922        TOTAL FREE ENERGY PREDICTED BY IDOCK:   -4.83 KCAL/MOL
REMARK 923 INTER-LIGAND FREE ENERGY PREDICTED BY IDOCK:   -4.86 KCAL/MOL
REMARK 924 INTRA-LIGAND FREE ENERGY PREDICTED BY IDOCK:    0.03 KCAL/MOL
REMARK 927      BINDING AFFINITY PREDICTED BY RF-SCORE:    0.00 PKD
ROOT
HETATM    1  O   UNL     1      -7.073  15.034  66.336  1.00  0.00     0.187 OA 
HETATM    2  C   UNL     1      -6.674  14.235  67.468  1.00  0.00    -0.105 C  
HETATM    3  H   UNL     1      -7.350  14.453  65.638  1.00  0.00     0.000 HD 
ENDROOT
BRANCH   2   4
HETATM    4  C   UNL     1      -6.216  15.197  68.623  1.00  0.00    -0.089 C  
HETATM    5  H   UNL     1      -7.002  16.180  70.265  1.00  0.00     0.000 HD 
HETATM    6  N   UNL     1      -7.324  15.859  69.352  1.00  0.00    -0.224 NA 
HETATM    7  C   UNL     1      -5.190  16.261  68.187  1.00  0.00    -0.106 C  
HETATM    8  C   UNL     1      -5.829  17.418  67.418  1.00  0.00    -0.159 C  
HETATM    9  C   UNL     1      -7.969  16.952  68.633  1.00  0.00    -0.256 C  
HETATM   10  C   UNL     1      -6.962  18.027  68.231  1.00  0.00    -0.228 C  
ENDBRANCH   2   4
BRANCH   2  11
HETATM   11  C   UNL     1      -7.866  13.340  67.822  1.00  0.00    -0.157 A  
HETATM   12  C   UNL     1     -11.633  13.351  67.169  1.00  0.00    -0.358 C  
HETATM   13  C   UNL     1      -8.930  11.363  68.786  1.00  0.00    -0.080 A  
HETATM   14  F   UNL     1     -12.206  12.452  66.319  1.00  0.00    -0.451 F  
HETATM   15  F   UNL     1     -12.517  13.515  68.196  1.00  0.00    -0.315 F  
HETATM   16  C   UNL     1     -10.247  12.933  67.643  1.00  0.00    -0.220 A  
HETATM   17  F   UNL     1     -11.640  14.540  66.496  1.00  0.00    -0.338 F  
HETATM   18  C   UNL     1      -9.144  13.731  67.379  1.00  0.00    -0.221 A  
HETATM   19  C   UNL     1      -7.756  12.133  68.573  1.00  0.00    -0.119 A  
HETATM   20  N   UNL     1     -10.123  11.765  68.328  1.00  0.00    -0.192 NA 
HETATM   21  C   UNL     1      -6.544  11.660  69.128  1.00  0.00    -0.101 A  
HETATM   22  C   UNL     1      -6.488  10.516  69.915  1.00  0.00    -0.116 A  
HETATM   23  C   UNL     1      -7.635   9.765  70.092  1.00  0.00    -0.180 A  
HETATM   24  C   UNL     1      -8.847  10.163  69.496  1.00  0.00    -0.198 A  
HETATM   25  C   UNL     1     -10.025   9.235  69.650  1.00  0.00    -0.191 C  
HETATM   26  F   UNL     1      -9.700   7.965  69.258  1.00  0.00    -0.155 F  
HETATM   27  F   UNL     1     -11.157   9.534  68.959  1.00  0.00    -0.233 F  
HETATM   28  F   UNL     1     -10.409   9.110  70.955  1.00  0.00    -0.257 F  
ENDBRANCH   2  11
TORSDOF 2
ENDMDL
MODEL      139
REMARK 921   NORMALIZED FREE ENERGY PREDICTED BY IDOCK:   -3.66 KCAL/MOL
REMARK 922        TOTAL FREE ENERGY PREDICTED BY IDOCK:   -4.82 KCAL/MOL
REMARK 923 INTER-LIGAND FREE ENERGY PREDICTED BY IDOCK:   -4.60 KCAL/MOL
REMARK 924 INTRA-LIGAND FREE ENERGY PREDICTED BY IDOCK:   -0.22 KCAL/MOL
REMARK 927      BINDING AFFINITY PREDICTED BY RF-SCORE:    0.00 PKD
ROOT
HETATM    1  O   UNL     1      -9.450  14.815  67.829  1.00  0.00    -0.200 OA 
HETATM    2  C   UNL     1      -8.120  14.353  67.521  1.00  0.00    -0.190 C  
HETATM    3  H   UNL     1     -10.067  14.357  67.270  1.00  0.00     0.000 HD 
ENDROOT
BRANCH   2   4
HETATM    4  C   UNL     1      -7.099  15.110  68.445  1.00  0.00    -0.107 C  
HETATM    5  H   UNL     1      -7.090  16.403  70.059  1.00  0.00     0.000 HD 
HETATM    6  N   UNL     1      -7.694  16.192  69.265  1.00  0.00    -0.233 NA 
HETATM    7  C   UNL     1      -5.865  15.657  67.704  1.00  0.00    -0.146 C  
HETATM    8  C   UNL     1      -6.165  16.933  66.916  1.00  0.00    -0.226 C  
HETATM    9  C   UNL     1      -8.014  17.414  68.536  1.00  0.00    -0.266 C  
HETATM   10  C   UNL     1      -6.784  17.981  67.830  1.00  0.00    -0.191 C  
ENDBRANCH   2   4
BRANCH   2  11
HETATM   11  C   UNL     1      -8.128  12.830  67.696  1.00  0.00    -0.175 A  
HETATM   12  C   UNL     1      -6.689  10.317  70.192  1.00  0.00    -0.146 C  
HETATM   13  C   UNL     1      -8.780  10.547  67.118  1.00  0.00    -0.130 A  
HETATM   14  F   UNL     1      -7.496   9.641  71.059  1.00  0.00    -0.130 F  
HETATM   15  F   UNL     1      -5.721   9.433  69.811  1.00  0.00    -0.032 F  
HETATM   16  C   UNL     1      -7.442  10.915  69.010  1.00  0.00    -0.124 A  
HETATM   17  F   UNL     1      -6.044  11.252  70.952  1.00  0.00    -0.115 F  
HETATM   18  C   UNL     1      -7.432  12.284  68.791  1.00  0.00    -0.065 A  
HETATM   19  C   UNL     1      -8.801  11.934  66.814  1.00  0.00    -0.193 A  
HETATM   20  N   UNL     1      -8.120  10.075  68.184  1.00  0.00    -0.107 NA 
HETATM   21  C   UNL     1      -9.484  12.345  65.645  1.00  0.00    -0.046 A  
HETATM   22  C   UNL     1     -10.068  11.437  64.772  1.00  0.00    -0.326 A  
HETATM   23  C   UNL     1     -10.059  10.093  65.095  1.00  0.00    -0.329 A  
HETATM   24  C   UNL     1      -9.453   9.650  66.286  1.00  0.00    -0.255 A  
HETATM   25  C   UNL     1      -9.578   8.184  66.617  1.00  0.00    -0.229 C  
HETATM   26  F   UNL     1     -10.887   7.785  66.575  1.00  0.00    -0.338 F  
HETATM   27  F   UNL     1      -9.126   7.771  67.830  1.00  0.00    -0.132 F  
HETATM   28  F   UNL     1      -8.944   7.398  65.697  1.00  0.00    -0.167 F  
ENDBRANCH   2  11
TORSDOF 2
ENDMDL
MODEL      140
REMARK 921   NORMALIZED FREE ENERGY PREDICTED BY IDOCK:   -3.62 KCAL/MOL
REMARK 922        TOTAL FREE ENERGY PREDICTED BY IDOCK:   -4.78 KCAL/MOL
REMARK 923 INTER-LIGAND FREE ENERGY PREDICTED BY IDOCK:   -4.56 KCAL/MOL
REMARK 924 INTRA-LIGAND FREE ENERGY PREDICTED BY IDOCK:   -0.22 KCAL/MOL
REMARK 927      BINDING AFFINITY PREDICTED BY RF-SCORE:    0.00 PKD
ROOT
HETATM    1  O   UNL     1      -9.506   5.421  69.365  1.00  0.00    -0.121 OA 
HETATM    2  C   UNL     1      -9.768   6.542  70.232  1.00  0.00    -0.168 C  
HETATM    3  H   UNL     1     -10.072   5.487  68.604  1.00  0.00     0.000 HD 
ENDROOT
BRANCH   2   4
HETATM    4  C   UNL     1      -8.832   6.431  71.489  1.00  0.00    -0.137 C  
HETATM    5  H   UNL     1      -8.138   5.009  72.821  1.00  0.00     0.000 HD 
HETATM    6  N   UNL     1      -8.970   5.168  72.253  1.00  0.00    -0.128 NA 
HETATM    7  C   UNL     1      -8.937   7.623  72.459  1.00  0.00    -0.191 C  
HETATM    8  C   UNL     1     -10.190   7.566  73.333  1.00  0.00    -0.399 C  
HETATM    9  C   UNL     1     -10.169   5.074  73.078  1.00  0.00    -0.176 C  
HETATM   10  C   UNL     1     -10.258   6.235  74.067  1.00  0.00    -0.327 C  
ENDBRANCH   2   4
BRANCH   2  11
HETATM   11  C   UNL     1      -9.560   7.808  69.394  1.00  0.00    -0.156 A  
HETATM   12  C   UNL     1     -11.494  11.035  68.718  1.00  0.00    -0.305 C  
HETATM   13  C   UNL     1      -8.306   9.288  67.908  1.00  0.00    -0.116 A  
HETATM   14  F   UNL     1     -11.068  12.232  69.214  1.00  0.00    -0.264 F  
HETATM   15  F   UNL     1     -11.996  11.300  67.477  1.00  0.00    -0.290 F  
HETATM   16  C   UNL     1     -10.407   9.969  68.702  1.00  0.00    -0.190 A  
HETATM   17  F   UNL     1     -12.577  10.694  69.478  1.00  0.00    -0.351 F  
HETATM   18  C   UNL     1     -10.568   8.791  69.415  1.00  0.00    -0.218 A  
HETATM   19  C   UNL     1      -8.404   8.049  68.594  1.00  0.00    -0.127 A  
HETATM   20  N   UNL     1      -9.282  10.203  67.974  1.00  0.00    -0.137 NA 
HETATM   21  C   UNL     1      -7.349   7.120  68.436  1.00  0.00    -0.100 A  
HETATM   22  C   UNL     1      -6.272   7.360  67.593  1.00  0.00    -0.047 A  
HETATM   23  C   UNL     1      -6.181   8.581  66.952  1.00  0.00    -0.055 A  
HETATM   24  C   UNL     1      -7.174   9.562  67.139  1.00  0.00    -0.087 A  
HETATM   25  C   UNL     1      -6.946  10.902  66.488  1.00  0.00    -0.139 C  
HETATM   26  F   UNL     1      -5.717  11.404  66.821  1.00  0.00    -0.072 F  
HETATM   27  F   UNL     1      -7.821  11.901  66.780  1.00  0.00    -0.154 F  
HETATM   28  F   UNL     1      -6.928  10.811  65.125  1.00  0.00    -0.100 F  
ENDBRANCH   2  11
TORSDOF 2
ENDMDL
MODEL      141
REMARK 921   NORMALIZED FREE ENERGY PREDICTED BY IDOCK:   -3.55 KCAL/MOL
REMARK 922        TOTAL FREE ENERGY PREDICTED BY IDOCK:   -4.70 KCAL/MOL
REMARK 923 INTER-LIGAND FREE ENERGY PREDICTED BY IDOCK:   -4.75 KCAL/MOL
REMARK 924 INTRA-LIGAND FREE ENERGY PREDICTED BY IDOCK:    0.04 KCAL/MOL
REMARK 927      BINDING AFFINITY PREDICTED BY RF-SCORE:    0.00 PKD
ROOT
HETATM    1  O   UNL     1      -9.805   5.298  66.991  1.00  0.00    -0.140 OA 
HETATM    2  C   UNL     1      -9.293   5.776  68.251  1.00  0.00    -0.117 C  
HETATM    3  H   UNL     1     -10.754   5.347  67.012  1.00  0.00     0.000 HD 
ENDROOT
BRANCH   2   4
HETATM    4  C   UNL     1      -7.724   5.696  68.216  1.00  0.00    -0.089 C  
HETATM    5  H   UNL     1      -6.148   6.149  66.955  1.00  0.00     0.000 HD 
HETATM    6  N   UNL     1      -7.126   5.875  66.871  1.00  0.00    -0.069 NA 
HETATM    7  C   UNL     1      -7.144   4.424  68.863  1.00  0.00    -0.052 C  
HETATM    8  C   UNL     1      -7.270   3.193  67.964  1.00  0.00    -0.050 C  
HETATM    9  C   UNL     1      -7.252   4.725  65.982  1.00  0.00    -0.076 C  
HETATM   10  C   UNL     1      -6.645   3.470  66.604  1.00  0.00    -0.041 C  
ENDBRANCH   2   4
BRANCH   2  11
HETATM   11  C   UNL     1      -9.853   7.189  68.451  1.00  0.00    -0.157 A  
HETATM   12  C   UNL     1      -9.989  10.431  66.430  1.00  0.00    -0.221 C  
HETATM   13  C   UNL     1     -11.073   8.927  69.660  1.00  0.00    -0.046 A  
HETATM   14  F   UNL     1     -11.160  10.883  65.896  1.00  0.00    -0.249 F  
HETATM   15  F   UNL     1      -9.311  11.540  66.847  1.00  0.00    -0.169 F  
HETATM   16  C   UNL     1     -10.189   9.408  67.541  1.00  0.00    -0.231 A  
HETATM   17  F   UNL     1      -9.271   9.948  65.372  1.00  0.00    -0.181 F  
HETATM   18  C   UNL     1      -9.667   8.129  67.420  1.00  0.00    -0.221 A  
HETATM   19  C   UNL     1     -10.554   7.605  69.621  1.00  0.00    -0.243 A  
HETATM   20  N   UNL     1     -10.888   9.781  68.646  1.00  0.00    -0.213 NA 
HETATM   21  C   UNL     1     -10.755   6.781  70.753  1.00  0.00    -0.270 A  
HETATM   22  C   UNL     1     -11.381   7.245  71.904  1.00  0.00    -0.288 A  
HETATM   23  C   UNL     1     -11.901   8.525  71.916  1.00  0.00    -0.407 A  
HETATM   24  C   UNL     1     -11.785   9.353  70.783  1.00  0.00    -0.349 A  
HETATM   25  C   UNL     1     -12.471  10.695  70.840  1.00  0.00    -0.397 C  
HETATM   26  F   UNL     1     -13.786  10.556  71.192  1.00  0.00    -0.157 F  
HETATM   27  F   UNL     1     -12.491  11.441  69.704  1.00  0.00    -0.309 F  
HETATM   28  F   UNL     1     -11.935  11.501  71.804  1.00  0.00    -0.005 F  
ENDBRANCH   2  11
TORSDOF 2
ENDMDL
MODEL      142
REMARK 921   NORMALIZED FREE ENERGY PREDICTED BY IDOCK:   -3.54 KCAL/MOL
REMARK 922        TOTAL FREE ENERGY PREDICTED BY IDOCK:   -4.69 KCAL/MOL
REMARK 923 INTER-LIGAND FREE ENERGY PREDICTED BY IDOCK:   -3.82 KCAL/MOL
REMARK 924 INTRA-LIGAND FREE ENERGY PREDICTED BY IDOCK:   -0.87 KCAL/MOL
REMARK 927      BINDING AFFINITY PREDICTED BY RF-SCORE:    0.00 PKD
ROOT
HETATM    1  O   UNL     1     -10.139   3.917  67.690  1.00  0.00    -0.056 OA 
HETATM    2  C   UNL     1      -9.236   5.040  67.717  1.00  0.00    -0.118 C  
HETATM    3  H   UNL     1      -9.942   3.353  68.429  1.00  0.00     0.000 HD 
ENDROOT
BRANCH   2   4
HETATM    4  C   UNL     1      -9.561   5.973  66.495  1.00  0.00    -0.154 C  
HETATM    5  H   UNL     1      -9.789   5.865  64.442  1.00  0.00     0.000 HD 
HETATM    6  N   UNL     1      -9.261   5.382  65.169  1.00  0.00    -0.025 NA 
HETATM    7  C   UNL     1      -8.920   7.371  66.583  1.00  0.00    -0.168 C  
HETATM    8  C   UNL     1      -7.431   7.362  66.235  1.00  0.00    -0.083 C  
HETATM    9  C   UNL     1      -7.846   5.338  64.819  1.00  0.00    -0.097 C  
HETATM   10  C   UNL     1      -7.215   6.727  64.869  1.00  0.00    -0.075 C  
ENDBRANCH   2   4
BRANCH   2  11
HETATM   11  C   UNL     1      -9.398   5.707  69.087  1.00  0.00    -0.151 A  
HETATM   12  C   UNL     1     -12.290   7.064  71.187  1.00  0.00    -0.378 C  
HETATM   13  C   UNL     1      -8.602   6.542  71.242  1.00  0.00    -0.127 A  
HETATM   14  F   UNL     1     -12.705   6.422  72.317  1.00  0.00    -0.315 F  
HETATM   15  F   UNL     1     -12.392   8.399  71.453  1.00  0.00    -0.295 F  
HETATM   16  C   UNL     1     -10.892   6.654  70.741  1.00  0.00    -0.252 A  
HETATM   17  F   UNL     1     -13.253   6.809  70.252  1.00  0.00    -0.022 F  
HETATM   18  C   UNL     1     -10.692   6.081  69.494  1.00  0.00    -0.405 A  
HETATM   19  C   UNL     1      -8.313   5.970  69.975  1.00  0.00    -0.123 A  
HETATM   20  N   UNL     1      -9.854   6.864  71.594  1.00  0.00    -0.169 NA 
HETATM   21  C   UNL     1      -6.959   5.701  69.664  1.00  0.00    -0.063 A  
HETATM   22  C   UNL     1      -5.922   6.035  70.525  1.00  0.00    -0.029 A  
HETATM   23  C   UNL     1      -6.223   6.569  71.763  1.00  0.00    -0.042 A  
HETATM   24  C   UNL     1      -7.562   6.786  72.141  1.00  0.00    -0.094 A  
HETATM   25  C   UNL     1      -7.810   7.273  73.546  1.00  0.00    -0.102 C  
HETATM   26  F   UNL     1      -7.186   6.465  74.459  1.00  0.00    -0.097 F  
HETATM   27  F   UNL     1      -9.100   7.345  73.969  1.00  0.00    -0.215 F  
HETATM   28  F   UNL     1      -7.279   8.513  73.757  1.00  0.00    -0.167 F  
ENDBRANCH   2  11
TORSDOF 2
ENDMDL
MODEL      143
REMARK 921   NORMALIZED FREE ENERGY PREDICTED BY IDOCK:   -3.48 KCAL/MOL
REMARK 922        TOTAL FREE ENERGY PREDICTED BY IDOCK:   -4.63 KCAL/MOL
REMARK 923 INTER-LIGAND FREE ENERGY PREDICTED BY IDOCK:   -5.74 KCAL/MOL
REMARK 924 INTRA-LIGAND FREE ENERGY PREDICTED BY IDOCK:    1.10 KCAL/MOL
REMARK 927      BINDING AFFINITY PREDICTED BY RF-SCORE:    0.00 PKD
ROOT
HETATM    1  O   UNL     1     -11.543  12.969  68.305  1.00  0.00    -0.295 OA 
HETATM    2  C   UNL     1     -11.182  13.190  66.927  1.00  0.00    -0.296 C  
HETATM    3  H   UNL     1     -12.161  12.249  68.344  1.00  0.00     0.000 HD 
ENDROOT
BRANCH   2   4
HETATM    4  C   UNL     1     -10.160  14.382  66.862  1.00  0.00    -0.259 C  
HETATM    5  H   UNL     1      -8.126  14.710  66.682  1.00  0.00     0.000 HD 
HETATM    6  N   UNL     1      -8.744  13.993  67.062  1.00  0.00    -0.221 NA 
HETATM    7  C   UNL     1     -10.500  15.554  67.803  1.00  0.00    -0.273 C  
HETATM    8  C   UNL     1     -10.139  15.267  69.261  1.00  0.00    -0.252 C  
HETATM    9  C   UNL     1      -8.375  13.689  68.440  1.00  0.00    -0.147 C  
HETATM   10  C   UNL     1      -8.676  14.863  69.369  1.00  0.00    -0.048 C  
ENDBRANCH   2   4
BRANCH   2  11
HETATM   11  C   UNL     1     -10.642  11.860  66.392  1.00  0.00    -0.284 A  
HETATM   12  C   UNL     1      -8.983  10.632  63.174  1.00  0.00    -0.241 C  
HETATM   13  C   UNL     1     -10.071   9.489  66.547  1.00  0.00    -0.256 A  
HETATM   14  F   UNL     1      -7.664  10.286  63.145  1.00  0.00    -0.142 F  
HETATM   15  F   UNL     1      -9.623   9.747  62.354  1.00  0.00    -0.293 F  
HETATM   16  C   UNL     1      -9.567  10.664  64.580  1.00  0.00    -0.280 A  
HETATM   17  F   UNL     1      -9.055  11.835  62.529  1.00  0.00    -0.330 F  
HETATM   18  C   UNL     1     -10.101  11.837  65.092  1.00  0.00    -0.298 A  
HETATM   19  C   UNL     1     -10.654  10.643  67.135  1.00  0.00    -0.312 A  
HETATM   20  N   UNL     1      -9.551   9.519  65.314  1.00  0.00    -0.281 NA 
HETATM   21  C   UNL     1     -11.222  10.514  68.424  1.00  0.00    -0.339 A  
HETATM   22  C   UNL     1     -11.279   9.295  69.089  1.00  0.00     0.101 A  
HETATM   23  C   UNL     1     -10.686   8.188  68.513  1.00  0.00    -0.061 A  
HETATM   24  C   UNL     1     -10.046   8.290  67.262  1.00  0.00    -0.315 A  
HETATM   25  C   UNL     1      -9.334   7.062  66.753  1.00  0.00    -0.156 C  
HETATM   26  F   UNL     1      -8.463   6.579  67.692  1.00  0.00    -0.116 F  
HETATM   27  F   UNL     1      -8.592   7.189  65.621  1.00  0.00    -0.139 F  
HETATM   28  F   UNL     1     -10.199   6.032  66.516  1.00  0.00    -0.204 F  
ENDBRANCH   2  11
TORSDOF 2
ENDMDL
MODEL      144
REMARK 921   NORMALIZED FREE ENERGY PREDICTED BY IDOCK:   -3.46 KCAL/MOL
REMARK 922        TOTAL FREE ENERGY PREDICTED BY IDOCK:   -4.61 KCAL/MOL
REMARK 923 INTER-LIGAND FREE ENERGY PREDICTED BY IDOCK:   -5.69 KCAL/MOL
REMARK 924 INTRA-LIGAND FREE ENERGY PREDICTED BY IDOCK:    1.08 KCAL/MOL
REMARK 927      BINDING AFFINITY PREDICTED BY RF-SCORE:    0.00 PKD
ROOT
HETATM    1  O   UNL     1      -7.453   6.940  70.375  1.00  0.00    -0.082 OA 
HETATM    2  C   UNL     1      -7.187   8.331  70.108  1.00  0.00    -0.055 C  
HETATM    3  H   UNL     1      -7.940   6.874  71.188  1.00  0.00     0.000 HD 
ENDROOT
BRANCH   2   4
HETATM    4  C   UNL     1      -6.382   8.439  68.764  1.00  0.00    -0.049 C  
HETATM    5  H   UNL     1      -6.720   8.626  66.731  1.00  0.00     0.000 HD 
HETATM    6  N   UNL     1      -7.191   8.221  67.540  1.00  0.00    -0.087 NA 
HETATM    7  C   UNL     1      -5.129   7.545  68.708  1.00  0.00    -0.018 C  
HETATM    8  C   UNL     1      -5.460   6.076  68.442  1.00  0.00    -0.008 C  
HETATM    9  C   UNL     1      -7.543   6.830  67.274  1.00  0.00    -0.104 C  
HETATM   10  C   UNL     1      -6.301   5.948  67.181  1.00  0.00    -0.038 C  
ENDBRANCH   2   4
BRANCH   2  11
HETATM   11  C   UNL     1      -8.543   9.047  70.097  1.00  0.00    -0.169 A  
HETATM   12  C   UNL     1     -10.181  11.854  68.085  1.00  0.00    -0.199 C  
HETATM   13  C   UNL     1     -10.843   9.425  70.829  1.00  0.00    -0.305 A  
HETATM   14  F   UNL     1     -11.187  11.596  67.200  1.00  0.00    -0.289 F  
HETATM   15  F   UNL     1     -10.496  13.043  68.676  1.00  0.00    -0.237 F  
HETATM   16  C   UNL     1      -9.962  10.732  69.091  1.00  0.00    -0.187 A  
HETATM   17  F   UNL     1      -9.082  12.115  67.316  1.00  0.00    -0.162 F  
HETATM   18  C   UNL     1      -8.740  10.081  69.163  1.00  0.00    -0.168 A  
HETATM   19  C   UNL     1      -9.617   8.725  70.978  1.00  0.00    -0.290 A  
HETATM   20  N   UNL     1     -10.991  10.389  69.912  1.00  0.00    -0.286 NA 
HETATM   21  C   UNL     1      -9.530   7.752  72.001  1.00  0.00    -0.212 A  
HETATM   22  C   UNL     1     -10.574   7.514  72.887  1.00  0.00    -0.390 A  
HETATM   23  C   UNL     1     -11.768   8.187  72.712  1.00  0.00    -0.334 A  
HETATM   24  C   UNL     1     -11.920   9.112  71.661  1.00  0.00    -0.437 A  
HETATM   25  C   UNL     1     -13.285   9.724  71.477  1.00  0.00    -0.404 C  
HETATM   26  F   UNL     1     -14.248   8.754  71.396  1.00  0.00    -0.434 F  
HETATM   27  F   UNL     1     -13.483  10.503  70.381  1.00  0.00    -0.328 F  
HETATM   28  F   UNL     1     -13.651  10.490  72.547  1.00  0.00    -0.414 F  
ENDBRANCH   2  11
TORSDOF 2
ENDMDL
MODEL      145
REMARK 921   NORMALIZED FREE ENERGY PREDICTED BY IDOCK:   -3.41 KCAL/MOL
REMARK 922        TOTAL FREE ENERGY PREDICTED BY IDOCK:   -4.55 KCAL/MOL
REMARK 923 INTER-LIGAND FREE ENERGY PREDICTED BY IDOCK:   -4.57 KCAL/MOL
REMARK 924 INTRA-LIGAND FREE ENERGY PREDICTED BY IDOCK:    0.02 KCAL/MOL
REMARK 927      BINDING AFFINITY PREDICTED BY RF-SCORE:    0.00 PKD
ROOT
HETATM    1  O   UNL     1      -8.307  11.566  65.553  1.00  0.00    -0.374 OA 
HETATM    2  C   UNL     1      -8.290  11.700  66.988  1.00  0.00    -0.169 C  
HETATM    3  H   UNL     1      -9.078  12.008  65.216  1.00  0.00     0.000 HD 
ENDROOT
BRANCH   2   4
HETATM    4  C   UNL     1      -7.015  10.970  67.544  1.00  0.00    -0.086 C  
HETATM    5  H   UNL     1      -5.168  10.303  66.895  1.00  0.00     0.000 HD 
HETATM    6  N   UNL     1      -6.098  10.449  66.503  1.00  0.00    -0.066 NA 
HETATM    7  C   UNL     1      -7.324   9.848  68.554  1.00  0.00    -0.078 C  
HETATM    8  C   UNL     1      -7.818   8.566  67.883  1.00  0.00    -0.103 C  
HETATM    9  C   UNL     1      -6.555   9.239  65.827  1.00  0.00    -0.069 C  
HETATM   10  C   UNL     1      -6.826   8.113  66.822  1.00  0.00    -0.069 C  
ENDBRANCH   2   4
BRANCH   2  11
HETATM   11  C   UNL     1      -8.347  13.201  67.293  1.00  0.00    -0.182 A  
HETATM   12  C   UNL     1      -6.108  15.764  69.034  1.00  0.00    -0.116 C  
HETATM   13  C   UNL     1      -9.330  15.436  67.195  1.00  0.00    -0.214 A  
HETATM   14  F   UNL     1      -5.449  16.725  68.324  1.00  0.00    -0.107 F  
HETATM   15  F   UNL     1      -6.503  16.360  70.197  1.00  0.00    -0.192 F  
HETATM   16  C   UNL     1      -7.264  15.137  68.267  1.00  0.00    -0.110 A  
HETATM   17  F   UNL     1      -5.148  14.864  69.400  1.00  0.00    -0.089 F  
HETATM   18  C   UNL     1      -7.274  13.776  68.000  1.00  0.00    -0.137 A  
HETATM   19  C   UNL     1      -9.424  14.050  66.901  1.00  0.00    -0.271 A  
HETATM   20  N   UNL     1      -8.279  15.942  67.854  1.00  0.00    -0.143 NA 
HETATM   21  C   UNL     1     -10.588  13.590  66.242  1.00  0.00    -0.288 A  
HETATM   22  C   UNL     1     -11.649  14.435  65.939  1.00  0.00    -0.361 A  
HETATM   23  C   UNL     1     -11.531  15.785  66.210  1.00  0.00     0.280 A  
HETATM   24  C   UNL     1     -10.358  16.294  66.800  1.00  0.00    -0.296 A  
HETATM   25  C   UNL     1     -10.267  17.790  66.967  1.00  0.00    -0.346 C  
HETATM   26  F   UNL     1     -10.517  18.429  65.782  1.00  0.00    -0.411 F  
HETATM   27  F   UNL     1      -9.086  18.305  67.398  1.00  0.00    -0.248 F  
HETATM   28  F   UNL     1     -11.216  18.266  67.826  1.00  0.00    -0.324 F  
ENDBRANCH   2  11
TORSDOF 2
ENDMDL
MODEL      146
REMARK 921   NORMALIZED FREE ENERGY PREDICTED BY IDOCK:   -3.38 KCAL/MOL
REMARK 922        TOTAL FREE ENERGY PREDICTED BY IDOCK:   -4.52 KCAL/MOL
REMARK 923 INTER-LIGAND FREE ENERGY PREDICTED BY IDOCK:   -4.79 KCAL/MOL
REMARK 924 INTRA-LIGAND FREE ENERGY PREDICTED BY IDOCK:    0.27 KCAL/MOL
REMARK 927      BINDING AFFINITY PREDICTED BY RF-SCORE:    0.00 PKD
ROOT
HETATM    1  O   UNL     1     -10.336   9.382  66.080  1.00  0.00    -0.232 OA 
HETATM    2  C   UNL     1      -9.278   8.560  66.613  1.00  0.00    -0.177 C  
HETATM    3  H   UNL     1     -11.147   8.889  66.111  1.00  0.00     0.000 HD 
ENDROOT
BRANCH   2   4
HETATM    4  C   UNL     1      -7.936   9.376  66.563  1.00  0.00    -0.108 C  
HETATM    5  H   UNL     1      -6.297   9.795  67.752  1.00  0.00     0.000 HD 
HETATM    6  N   UNL     1      -7.285   9.576  67.879  1.00  0.00    -0.081 NA 
HETATM    7  C   UNL     1      -8.053  10.733  65.843  1.00  0.00    -0.148 C  
HETATM    8  C   UNL     1      -8.722  11.804  66.705  1.00  0.00    -0.192 C  
HETATM    9  C   UNL     1      -7.916  10.576  68.734  1.00  0.00    -0.127 C  
HETATM   10  C   UNL     1      -7.999  11.932  68.038  1.00  0.00    -0.147 C  
ENDBRANCH   2   4
BRANCH   2  11
HETATM   11  C   UNL     1      -9.712   8.136  68.021  1.00  0.00    -0.186 A  
HETATM   12  C   UNL     1     -11.998   9.522  70.753  1.00  0.00    -0.252 C  
HETATM   13  C   UNL     1      -9.792   6.632  69.945  1.00  0.00    -0.167 A  
HETATM   14  F   UNL     1     -13.187   8.923  71.051  1.00  0.00    -0.270 F  
HETATM   15  F   UNL     1     -11.483   9.948  71.943  1.00  0.00    -0.410 F  
HETATM   16  C   UNL     1     -11.044   8.616  69.986  1.00  0.00    -0.157 A  
HETATM   17  F   UNL     1     -12.327  10.661  70.075  1.00  0.00    -0.335 F  
HETATM   18  C   UNL     1     -10.596   8.976  68.724  1.00  0.00    -0.196 A  
HETATM   19  C   UNL     1      -9.272   6.939  68.659  1.00  0.00    -0.130 A  
HETATM   20  N   UNL     1     -10.648   7.452  70.568  1.00  0.00    -0.220 NA 
HETATM   21  C   UNL     1      -8.340   6.041  68.090  1.00  0.00    -0.113 A  
HETATM   22  C   UNL     1      -7.881   4.920  68.772  1.00  0.00    -0.077 A  
HETATM   23  C   UNL     1      -8.415   4.623  70.011  1.00  0.00    -0.089 A  
HETATM   24  C   UNL     1      -9.399   5.453  70.582  1.00  0.00    -0.204 A  
HETATM   25  C   UNL     1     -10.005   5.003  71.887  1.00  0.00    -0.187 C  
HETATM   26  F   UNL     1     -10.467   3.717  71.792  1.00  0.00    -0.197 F  
HETATM   27  F   UNL     1     -11.056   5.715  72.373  1.00  0.00    -0.263 F  
HETATM   28  F   UNL     1      -9.083   4.968  72.894  1.00  0.00    -0.121 F  
ENDBRANCH   2  11
TORSDOF 2
ENDMDL
MODEL      147
REMARK 921   NORMALIZED FREE ENERGY PREDICTED BY IDOCK:   -3.34 KCAL/MOL
REMARK 922        TOTAL FREE ENERGY PREDICTED BY IDOCK:   -4.47 KCAL/MOL
REMARK 923 INTER-LIGAND FREE ENERGY PREDICTED BY IDOCK:   -3.60 KCAL/MOL
REMARK 924 INTRA-LIGAND FREE ENERGY PREDICTED BY IDOCK:   -0.87 KCAL/MOL
REMARK 927      BINDING AFFINITY PREDICTED BY RF-SCORE:    0.00 PKD
ROOT
HETATM    1  O   UNL     1     -10.479   7.875  69.721  1.00  0.00    -0.224 OA 
HETATM    2  C   UNL     1      -9.184   7.998  69.099  1.00  0.00    -0.151 C  
HETATM    3  H   UNL     1     -10.486   8.400  70.513  1.00  0.00     0.000 HD 
ENDROOT
BRANCH   2   4
HETATM    4  C   UNL     1      -9.173   7.130  67.789  1.00  0.00    -0.125 C  
HETATM    5  H   UNL     1      -9.762   5.259  67.130  1.00  0.00     0.000 HD 
HETATM    6  N   UNL     1      -9.451   5.689  68.001  1.00  0.00    -0.108 NA 
HETATM    7  C   UNL     1      -7.893   7.280  66.946  1.00  0.00    -0.111 C  
HETATM    8  C   UNL     1      -6.709   6.502  67.523  1.00  0.00    -0.067 C  
HETATM    9  C   UNL     1      -8.348   4.926  68.574  1.00  0.00    -0.083 C  
HETATM   10  C   UNL     1      -7.087   5.042  67.720  1.00  0.00    -0.066 C  
ENDBRANCH   2   4
BRANCH   2  11
HETATM   11  C   UNL     1      -8.943   9.494  68.871  1.00  0.00    -0.141 A  
HETATM   12  C   UNL     1     -10.809  12.382  67.200  1.00  0.00    -0.245 C  
HETATM   13  C   UNL     1      -7.709  11.591  69.108  1.00  0.00     0.032 A  
HETATM   14  F   UNL     1     -11.374  13.380  67.938  1.00  0.00    -0.262 F  
HETATM   15  F   UNL     1     -10.307  12.981  66.080  1.00  0.00    -0.258 F  
HETATM   16  C   UNL     1      -9.759  11.587  67.966  1.00  0.00    -0.186 A  
HETATM   17  F   UNL     1     -11.854  11.619  66.762  1.00  0.00    -0.357 F  
HETATM   18  C   UNL     1      -9.917  10.224  68.164  1.00  0.00    -0.168 A  
HETATM   19  C   UNL     1      -7.788  10.191  69.335  1.00  0.00    -0.150 A  
HETATM   20  N   UNL     1      -8.672  12.247  68.447  1.00  0.00    -0.170 NA 
HETATM   21  C   UNL     1      -6.708   9.567  70.002  1.00  0.00    -0.070 A  
HETATM   22  C   UNL     1      -5.567  10.265  70.377  1.00  0.00    -0.068 A  
HETATM   23  C   UNL     1      -5.518  11.631  70.171  1.00  0.00    -0.113 A  
HETATM   24  C   UNL     1      -6.602  12.302  69.574  1.00  0.00    -0.052 A  
HETATM   25  C   UNL     1      -6.513  13.804  69.481  1.00  0.00    -0.105 C  
HETATM   26  F   UNL     1      -6.230  14.353  70.703  1.00  0.00    -0.164 F  
HETATM   27  F   UNL     1      -7.611  14.475  69.043  1.00  0.00    -0.116 F  
HETATM   28  F   UNL     1      -5.486  14.205  68.673  1.00  0.00    -0.077 F  
ENDBRANCH   2  11
TORSDOF 2
ENDMDL
MODEL      148
REMARK 921   NORMALIZED FREE ENERGY PREDICTED BY IDOCK:   -3.29 KCAL/MOL
REMARK 922        TOTAL FREE ENERGY PREDICTED BY IDOCK:   -4.42 KCAL/MOL
REMARK 923 INTER-LIGAND FREE ENERGY PREDICTED BY IDOCK:   -4.88 KCAL/MOL
REMARK 924 INTRA-LIGAND FREE ENERGY PREDICTED BY IDOCK:    0.46 KCAL/MOL
REMARK 927      BINDING AFFINITY PREDICTED BY RF-SCORE:    0.00 PKD
ROOT
HETATM    1  O   UNL     1      -8.822   6.234  72.857  1.00  0.00    -0.126 OA 
HETATM    2  C   UNL     1      -9.015   5.502  71.631  1.00  0.00    -0.136 C  
HETATM    3  H   UNL     1      -8.062   6.796  72.758  1.00  0.00     0.000 HD 
ENDROOT
BRANCH   2   4
HETATM    4  C   UNL     1     -10.272   4.573  71.795  1.00  0.00    -0.156 C  
HETATM    5  H   UNL     1     -12.053   4.498  72.844  1.00  0.00     0.000 HD 
HETATM    6  N   UNL     1     -11.117   4.880  72.974  1.00  0.00    -0.284 NA 
HETATM    7  C   UNL     1      -9.947   3.068  71.784  1.00  0.00    -0.192 C  
HETATM    8  C   UNL     1      -9.359   2.579  73.108  1.00  0.00    -0.114 C  
HETATM    9  C   UNL     1     -10.570   4.447  74.255  1.00  0.00    -0.258 C  
HETATM   10  C   UNL     1     -10.281   2.948  74.260  1.00  0.00    -0.200 C  
ENDBRANCH   2   4
BRANCH   2  11
HETATM   11  C   UNL     1      -9.134   6.540  70.509  1.00  0.00    -0.152 A  
HETATM   12  C   UNL     1      -7.683   7.016  67.005  1.00  0.00    -0.107 C  
HETATM   13  C   UNL     1     -10.026   8.557  69.456  1.00  0.00    -0.193 A  
HETATM   14  F   UNL     1      -8.458   6.870  65.893  1.00  0.00    -0.121 F  
HETATM   15  F   UNL     1      -6.831   8.049  66.738  1.00  0.00    -0.064 F  
HETATM   16  C   UNL     1      -8.491   7.229  68.278  1.00  0.00    -0.124 A  
HETATM   17  F   UNL     1      -6.893   5.901  67.044  1.00  0.00    -0.055 F  
HETATM   18  C   UNL     1      -8.387   6.336  69.334  1.00  0.00    -0.121 A  
HETATM   19  C   UNL     1      -9.960   7.700  70.587  1.00  0.00    -0.183 A  
HETATM   20  N   UNL     1      -9.311   8.311  68.351  1.00  0.00    -0.135 NA 
HETATM   21  C   UNL     1     -10.712   8.055  71.731  1.00  0.00    -0.296 A  
HETATM   22  C   UNL     1     -11.449   9.231  71.796  1.00  0.00    -0.448 A  
HETATM   23  C   UNL     1     -11.522  10.040  70.678  1.00  0.00    -0.425 A  
HETATM   24  C   UNL     1     -10.846   9.686  69.495  1.00  0.00    -0.253 A  
HETATM   25  C   UNL     1     -11.061  10.567  68.290  1.00  0.00    -0.284 C  
HETATM   26  F   UNL     1     -12.397  10.733  68.040  1.00  0.00    -0.017 F  
HETATM   27  F   UNL     1     -10.534  10.156  67.107  1.00  0.00    -0.244 F  
HETATM   28  F   UNL     1     -10.584  11.831  68.491  1.00  0.00    -0.187 F  
ENDBRANCH   2  11
TORSDOF 2
ENDMDL
MODEL      149
REMARK 921   NORMALIZED FREE ENERGY PREDICTED BY IDOCK:   -3.29 KCAL/MOL
REMARK 922        TOTAL FREE ENERGY PREDICTED BY IDOCK:   -4.41 KCAL/MOL
REMARK 923 INTER-LIGAND FREE ENERGY PREDICTED BY IDOCK:   -4.77 KCAL/MOL
REMARK 924 INTRA-LIGAND FREE ENERGY PREDICTED BY IDOCK:    0.35 KCAL/MOL
REMARK 927      BINDING AFFINITY PREDICTED BY RF-SCORE:    0.00 PKD
ROOT
HETATM    1  O   UNL     1     -10.121   9.493  64.463  1.00  0.00    -0.281 OA 
HETATM    2  C   UNL     1      -9.045  10.086  65.217  1.00  0.00    -0.200 C  
HETATM    3  H   UNL     1      -9.957   8.560  64.383  1.00  0.00     0.000 HD 
ENDROOT
BRANCH   2   4
HETATM    4  C   UNL     1      -9.317  11.628  65.348  1.00  0.00    -0.127 C  
HETATM    5  H   UNL     1      -9.916  13.011  66.764  1.00  0.00     0.000 HD 
HETATM    6  N   UNL     1     -10.066  12.022  66.565  1.00  0.00    -0.198 NA 
HETATM    7  C   UNL     1      -9.991  12.255  64.113  1.00  0.00    -0.261 C  
HETATM    8  C   UNL     1     -11.489  11.954  64.040  1.00  0.00    -0.480 C  
HETATM    9  C   UNL     1     -11.493  11.725  66.534  1.00  0.00    -0.255 C  
HETATM   10  C   UNL     1     -12.173  12.376  65.332  1.00  0.00    -0.386 C  
ENDBRANCH   2   4
BRANCH   2  11
HETATM   11  C   UNL     1      -8.974   9.337  66.552  1.00  0.00    -0.178 A  
HETATM   12  C   UNL     1     -10.812   6.417  68.196  1.00  0.00    -0.308 C  
HETATM   13  C   UNL     1      -8.038   8.839  68.754  1.00  0.00    -0.115 A  
HETATM   14  F   UNL     1     -10.203   5.210  68.377  1.00  0.00    -0.213 F  
HETATM   15  F   UNL     1     -11.589   6.616  69.301  1.00  0.00    -0.332 F  
HETATM   16  C   UNL     1      -9.830   7.555  67.951  1.00  0.00    -0.154 A  
HETATM   17  F   UNL     1     -11.692   6.228  67.168  1.00  0.00    -0.167 F  
HETATM   18  C   UNL     1      -9.882   8.285  66.772  1.00  0.00    -0.333 A  
HETATM   19  C   UNL     1      -8.039   9.645  67.585  1.00  0.00    -0.113 A  
HETATM   20  N   UNL     1      -8.909   7.834  68.911  1.00  0.00    -0.135 NA 
HETATM   21  C   UNL     1      -7.116  10.714  67.517  1.00  0.00    -0.089 A  
HETATM   22  C   UNL     1      -6.268  11.028  68.572  1.00  0.00    -0.042 A  
HETATM   23  C   UNL     1      -6.263  10.218  69.692  1.00  0.00    -0.056 A  
HETATM   24  C   UNL     1      -7.117   9.101  69.769  1.00  0.00    -0.061 A  
HETATM   25  C   UNL     1      -6.975   8.211  70.978  1.00  0.00    -0.047 C  
HETATM   26  F   UNL     1      -5.673   7.825  71.150  1.00  0.00    -0.033 F  
HETATM   27  F   UNL     1      -7.687   7.053  70.994  1.00  0.00    -0.086 F  
HETATM   28  F   UNL     1      -7.301   8.863  72.133  1.00  0.00    -0.116 F  
ENDBRANCH   2  11
TORSDOF 2
ENDMDL
MODEL      150
REMARK 921   NORMALIZED FREE ENERGY PREDICTED BY IDOCK:   -3.24 KCAL/MOL
REMARK 922        TOTAL FREE ENERGY PREDICTED BY IDOCK:   -4.36 KCAL/MOL
REMARK 923 INTER-LIGAND FREE ENERGY PREDICTED BY IDOCK:   -4.20 KCAL/MOL
REMARK 924 INTRA-LIGAND FREE ENERGY PREDICTED BY IDOCK:   -0.16 KCAL/MOL
REMARK 927      BINDING AFFINITY PREDICTED BY RF-SCORE:    0.00 PKD
ROOT
HETATM    1  O   UNL     1     -10.628   8.446  70.444  1.00  0.00    -0.214 OA 
HETATM    2  C   UNL     1      -9.420   7.669  70.318  1.00  0.00    -0.161 C  
HETATM    3  H   UNL     1     -10.522   9.254  69.955  1.00  0.00     0.000 HD 
ENDROOT
BRANCH   2   4
HETATM    4  C   UNL     1      -9.597   6.334  71.127  1.00  0.00    -0.175 C  
HETATM    5  H   UNL     1     -11.097   5.180  71.962  1.00  0.00     0.000 HD 
HETATM    6  N   UNL     1     -10.928   6.165  71.757  1.00  0.00    -0.254 NA 
HETATM    7  C   UNL     1      -8.502   6.089  72.183  1.00  0.00    -0.124 C  
HETATM    8  C   UNL     1      -8.698   6.930  73.445  1.00  0.00    -0.148 C  
HETATM    9  C   UNL     1     -11.153   6.974  72.950  1.00  0.00    -0.278 C  
HETATM   10  C   UNL     1     -10.091   6.706  74.014  1.00  0.00    -0.373 C  
ENDBRANCH   2   4
BRANCH   2  11
HETATM   11  C   UNL     1      -9.173   7.476  68.818  1.00  0.00    -0.145 A  
HETATM   12  C   UNL     1      -9.539   4.632  66.290  1.00  0.00    -0.184 C  
HETATM   13  C   UNL     1      -8.559   8.214  66.570  1.00  0.00    -0.138 A  
HETATM   14  F   UNL     1     -10.512   4.656  65.334  1.00  0.00    -0.235 F  
HETATM   15  F   UNL     1      -8.440   4.083  65.694  1.00  0.00    -0.107 F  
HETATM   16  C   UNL     1      -9.260   5.999  66.900  1.00  0.00    -0.126 A  
HETATM   17  F   UNL     1      -9.953   3.704  67.204  1.00  0.00    -0.230 F  
HETATM   18  C   UNL     1      -9.434   6.211  68.259  1.00  0.00    -0.117 A  
HETATM   19  C   UNL     1      -8.694   8.505  67.954  1.00  0.00    -0.138 A  
HETATM   20  N   UNL     1      -8.839   7.000  66.080  1.00  0.00    -0.150 NA 
HETATM   21  C   UNL     1      -8.334   9.799  68.396  1.00  0.00    -0.110 A  
HETATM   22  C   UNL     1      -7.804  10.754  67.537  1.00  0.00    -0.109 A  
HETATM   23  C   UNL     1      -7.703  10.463  66.190  1.00  0.00    -0.129 A  
HETATM   24  C   UNL     1      -8.117   9.210  65.698  1.00  0.00    -0.113 A  
HETATM   25  C   UNL     1      -8.072   9.011  64.204  1.00  0.00    -0.157 C  
HETATM   26  F   UNL     1      -8.737  10.017  63.557  1.00  0.00    -0.156 F  
HETATM   27  F   UNL     1      -8.605   7.864  63.706  1.00  0.00    -0.037 F  
HETATM   28  F   UNL     1      -6.796   9.068  63.720  1.00  0.00    -0.088 F  
ENDBRANCH   2  11
TORSDOF 2
ENDMDL
MODEL      151
REMARK 921   NORMALIZED FREE ENERGY PREDICTED BY IDOCK:   -3.22 KCAL/MOL
REMARK 922        TOTAL FREE ENERGY PREDICTED BY IDOCK:   -4.34 KCAL/MOL
REMARK 923 INTER-LIGAND FREE ENERGY PREDICTED BY IDOCK:   -5.37 KCAL/MOL
REMARK 924 INTRA-LIGAND FREE ENERGY PREDICTED BY IDOCK:    1.03 KCAL/MOL
REMARK 927      BINDING AFFINITY PREDICTED BY RF-SCORE:    0.00 PKD
ROOT
HETATM    1  O   UNL     1     -11.402   9.084  69.736  1.00  0.00    -0.428 OA 
HETATM    2  C   UNL     1     -10.635   8.802  70.924  1.00  0.00    -0.220 C  
HETATM    3  H   UNL     1     -10.814   9.089  68.990  1.00  0.00     0.000 HD 
ENDROOT
BRANCH   2   4
HETATM    4  C   UNL     1     -11.609   8.794  72.158  1.00  0.00    -0.364 C  
HETATM    5  H   UNL     1     -12.411   7.467  73.527  1.00  0.00     0.000 HD 
HETATM    6  N   UNL     1     -12.083   7.449  72.562  1.00  0.00    -0.143 NA 
HETATM    7  C   UNL     1     -12.820   9.734  72.009  1.00  0.00    -0.491 C  
HETATM    8  C   UNL     1     -13.904   9.162  71.095  1.00  0.00    -0.120 C  
HETATM    9  C   UNL     1     -13.101   6.867  71.694  1.00  0.00    -0.279 C  
HETATM   10  C   UNL     1     -14.319   7.779  71.575  1.00  0.00    -0.574 C  
ENDBRANCH   2   4
BRANCH   2  11
HETATM   11  C   UNL     1      -9.910   7.474  70.678  1.00  0.00    -0.179 A  
HETATM   12  C   UNL     1      -7.436   5.270  72.584  1.00  0.00    -0.096 C  
HETATM   13  C   UNL     1      -9.384   5.450  69.415  1.00  0.00    -0.124 A  
HETATM   14  F   UNL     1      -7.817   4.069  73.108  1.00  0.00    -0.077 F  
HETATM   15  F   UNL     1      -6.163   5.093  72.125  1.00  0.00    -0.025 F  
HETATM   16  C   UNL     1      -8.386   5.787  71.511  1.00  0.00    -0.127 A  
HETATM   17  F   UNL     1      -7.319   6.110  73.655  1.00  0.00    -0.086 F  
HETATM   18  C   UNL     1      -9.036   7.001  71.674  1.00  0.00    -0.134 A  
HETATM   19  C   UNL     1     -10.070   6.690  69.497  1.00  0.00    -0.197 A  
HETATM   20  N   UNL     1      -8.577   5.030  70.397  1.00  0.00    -0.106 NA 
HETATM   21  C   UNL     1     -10.868   7.080  68.396  1.00  0.00    -0.191 A  
HETATM   22  C   UNL     1     -10.944   6.324  67.233  1.00  0.00    -0.455 A  
HETATM   23  C   UNL     1     -10.290   5.108  67.179  1.00  0.00    -0.246 A  
HETATM   24  C   UNL     1      -9.543   4.650  68.282  1.00  0.00    -0.207 A  
HETATM   25  C   UNL     1      -8.947   3.268  68.181  1.00  0.00    -0.142 C  
HETATM   26  F   UNL     1      -9.903   2.348  67.841  1.00  0.00    -0.220 F  
HETATM   27  F   UNL     1      -8.351   2.757  69.290  1.00  0.00    -0.066 F  
HETATM   28  F   UNL     1      -8.015   3.186  67.186  1.00  0.00    -0.076 F  
ENDBRANCH   2  11
TORSDOF 2
ENDMDL
MODEL      152
REMARK 921   NORMALIZED FREE ENERGY PREDICTED BY IDOCK:   -3.15 KCAL/MOL
REMARK 922        TOTAL FREE ENERGY PREDICTED BY IDOCK:   -4.26 KCAL/MOL
REMARK 923 INTER-LIGAND FREE ENERGY PREDICTED BY IDOCK:   -5.14 KCAL/MOL
REMARK 924 INTRA-LIGAND FREE ENERGY PREDICTED BY IDOCK:    0.87 KCAL/MOL
REMARK 927      BINDING AFFINITY PREDICTED BY RF-SCORE:    0.00 PKD
ROOT
HETATM    1  O   UNL     1      -9.038  12.083  66.788  1.00  0.00    -0.187 OA 
HETATM    2  C   UNL     1     -10.186  11.227  66.951  1.00  0.00    -0.219 C  
HETATM    3  H   UNL     1      -8.342  11.768  67.353  1.00  0.00     0.000 HD 
ENDROOT
BRANCH   2   4
HETATM    4  C   UNL     1     -11.336  11.747  66.015  1.00  0.00    -0.273 C  
HETATM    5  H   UNL     1     -11.747  11.987  64.002  1.00  0.00     0.000 HD 
HETATM    6  N   UNL     1     -10.928  11.987  64.610  1.00  0.00    -0.305 NA 
HETATM    7  C   UNL     1     -12.066  12.993  66.550  1.00  0.00    -0.410 C  
HETATM    8  C   UNL     1     -11.263  14.280  66.352  1.00  0.00    -0.337 C  
HETATM    9  C   UNL     1     -10.140  13.195  64.394  1.00  0.00    -0.199 C  
HETATM   10  C   UNL     1     -10.877  14.437  64.889  1.00  0.00    -0.430 C  
ENDBRANCH   2   4
BRANCH   2  11
HETATM   11  C   UNL     1      -9.719   9.798  66.650  1.00  0.00    -0.257 A  
HETATM   12  C   UNL     1     -10.591   6.281  67.866  1.00  0.00    -0.262 C  
HETATM   13  C   UNL     1      -8.411   8.109  65.463  1.00  0.00    -0.159 A  
HETATM   14  F   UNL     1     -11.257   5.400  67.065  1.00  0.00    -0.184 F  
HETATM   15  F   UNL     1      -9.683   5.540  68.567  1.00  0.00    -0.127 F  
HETATM   16  C   UNL     1      -9.951   7.429  67.097  1.00  0.00    -0.215 A  
HETATM   17  F   UNL     1     -11.509   6.692  68.791  1.00  0.00    -0.280 F  
HETATM   18  C   UNL     1     -10.316   8.741  67.362  1.00  0.00    -0.349 A  
HETATM   19  C   UNL     1      -8.714   9.478  65.689  1.00  0.00    -0.173 A  
HETATM   20  N   UNL     1      -9.020   7.135  66.151  1.00  0.00    -0.158 NA 
HETATM   21  C   UNL     1      -7.994  10.446  64.952  1.00  0.00    -0.115 A  
HETATM   22  C   UNL     1      -6.973  10.100  64.076  1.00  0.00    -0.101 A  
HETATM   23  C   UNL     1      -6.707   8.763  63.850  1.00  0.00    -0.087 A  
HETATM   24  C   UNL     1      -7.451   7.765  64.510  1.00  0.00    -0.097 A  
HETATM   25  C   UNL     1      -7.170   6.334  64.129  1.00  0.00    -0.061 C  
HETATM   26  F   UNL     1      -7.251   6.165  62.773  1.00  0.00    -0.044 F  
HETATM   27  F   UNL     1      -7.979   5.374  64.649  1.00  0.00    -0.087 F  
HETATM   28  F   UNL     1      -5.896   5.961  64.451  1.00  0.00    -0.022 F  
ENDBRANCH   2  11
TORSDOF 2
ENDMDL
MODEL      153
REMARK 921   NORMALIZED FREE ENERGY PREDICTED BY IDOCK:   -3.09 KCAL/MOL
REMARK 922        TOTAL FREE ENERGY PREDICTED BY IDOCK:   -4.19 KCAL/MOL
REMARK 923 INTER-LIGAND FREE ENERGY PREDICTED BY IDOCK:   -5.70 KCAL/MOL
REMARK 924 INTRA-LIGAND FREE ENERGY PREDICTED BY IDOCK:    1.51 KCAL/MOL
REMARK 927      BINDING AFFINITY PREDICTED BY RF-SCORE:    0.00 PKD
ROOT
HETATM    1  O   UNL     1      -9.090   5.880  68.057  1.00  0.00    -0.118 OA 
HETATM    2  C   UNL     1      -9.385   6.320  69.399  1.00  0.00    -0.140 C  
HETATM    3  H   UNL     1      -9.904   5.832  67.569  1.00  0.00     0.000 HD 
ENDROOT
BRANCH   2   4
HETATM    4  C   UNL     1      -8.039   6.399  70.206  1.00  0.00    -0.120 C  
HETATM    5  H   UNL     1      -7.377   6.572  72.158  1.00  0.00     0.000 HD 
HETATM    6  N   UNL     1      -8.186   6.859  71.607  1.00  0.00    -0.109 NA 
HETATM    7  C   UNL     1      -6.938   7.225  69.514  1.00  0.00    -0.057 C  
HETATM    8  C   UNL     1      -7.157   8.732  69.648  1.00  0.00    -0.054 C  
HETATM    9  C   UNL     1      -8.421   8.290  71.766  1.00  0.00    -0.158 C  
HETATM   10  C   UNL     1      -7.311   9.112  71.113  1.00  0.00    -0.091 C  
ENDBRANCH   2   4
BRANCH   2  11
HETATM   11  C   UNL     1     -10.131   7.653  69.274  1.00  0.00    -0.190 A  
HETATM   12  C   UNL     1     -12.533   9.699  71.432  1.00  0.00    -0.373 C  
HETATM   13  C   UNL     1     -10.729   9.751  68.173  1.00  0.00    -0.233 A  
HETATM   14  F   UNL     1     -12.138  10.866  72.017  1.00  0.00    -0.157 F  
HETATM   15  F   UNL     1     -13.827   9.892  71.043  1.00  0.00    -0.370 F  
HETATM   16  C   UNL     1     -11.629   9.265  70.285  1.00  0.00    -0.114 A  
HETATM   17  F   UNL     1     -12.595   8.788  72.448  1.00  0.00    -0.391 F  
HETATM   18  C   UNL     1     -10.963   8.050  70.338  1.00  0.00    -0.248 A  
HETATM   19  C   UNL     1     -10.030   8.515  68.142  1.00  0.00    -0.214 A  
HETATM   20  N   UNL     1     -11.494  10.095  69.217  1.00  0.00    -0.159 NA 
HETATM   21  C   UNL     1      -9.280   8.207  66.983  1.00  0.00    -0.187 A  
HETATM   22  C   UNL     1      -9.263   9.040  65.871  1.00  0.00    -0.290 A  
HETATM   23  C   UNL     1      -9.929  10.249  65.927  1.00  0.00    -0.321 A  
HETATM   24  C   UNL     1     -10.628  10.626  67.090  1.00  0.00    -0.312 A  
HETATM   25  C   UNL     1     -11.239  12.004  67.108  1.00  0.00    -0.316 C  
HETATM   26  F   UNL     1     -10.307  12.955  66.788  1.00  0.00    -0.237 F  
HETATM   27  F   UNL     1     -11.788  12.434  68.275  1.00  0.00    -0.327 F  
HETATM   28  F   UNL     1     -12.216  12.142  66.164  1.00  0.00    -0.415 F  
ENDBRANCH   2  11
TORSDOF 2
ENDMDL
MODEL      154
REMARK 921   NORMALIZED FREE ENERGY PREDICTED BY IDOCK:   -2.99 KCAL/MOL
REMARK 922        TOTAL FREE ENERGY PREDICTED BY IDOCK:   -4.09 KCAL/MOL
REMARK 923 INTER-LIGAND FREE ENERGY PREDICTED BY IDOCK:   -4.30 KCAL/MOL
REMARK 924 INTRA-LIGAND FREE ENERGY PREDICTED BY IDOCK:    0.22 KCAL/MOL
REMARK 927      BINDING AFFINITY PREDICTED BY RF-SCORE:    0.00 PKD
ROOT
HETATM    1  O   UNL     1     -11.326   6.994  71.910  1.00  0.00    -0.242 OA 
HETATM    2  C   UNL     1     -10.597   8.131  71.406  1.00  0.00    -0.220 C  
HETATM    3  H   UNL     1     -11.995   6.758  71.277  1.00  0.00     0.000 HD 
ENDROOT
BRANCH   2   4
HETATM    4  C   UNL     1      -9.491   8.520  72.452  1.00  0.00    -0.280 C  
HETATM    5  H   UNL     1      -7.473   8.970  72.524  1.00  0.00     0.000 HD 
HETATM    6  N   UNL     1      -8.100   8.402  71.953  1.00  0.00    -0.138 NA 
HETATM    7  C   UNL     1      -9.610   7.780  73.798  1.00  0.00    -0.200 C  
HETATM    8  C   UNL     1      -9.100   6.340  73.729  1.00  0.00    -0.136 C  
HETATM    9  C   UNL     1      -7.593   7.038  71.854  1.00  0.00    -0.092 C  
HETATM   10  C   UNL     1      -7.675   6.313  73.195  1.00  0.00    -0.096 C  
ENDBRANCH   2   4
BRANCH   2  11
HETATM   11  C   UNL     1     -10.056   7.735  70.027  1.00  0.00    -0.201 A  
HETATM   12  C   UNL     1      -9.388   4.479  68.139  1.00  0.00    -0.140 C  
HETATM   13  C   UNL     1      -9.222   8.182  67.774  1.00  0.00    -0.134 A  
HETATM   14  F   UNL     1     -10.162   4.103  67.082  1.00  0.00    -0.210 F  
HETATM   15  F   UNL     1      -8.113   4.105  67.824  1.00  0.00    -0.090 F  
HETATM   16  C   UNL     1      -9.504   5.960  68.474  1.00  0.00    -0.121 A  
HETATM   17  F   UNL     1      -9.758   3.660  69.168  1.00  0.00    -0.241 F  
HETATM   18  C   UNL     1      -9.953   6.365  69.723  1.00  0.00    -0.196 A  
HETATM   19  C   UNL     1      -9.653   8.676  69.034  1.00  0.00    -0.163 A  
HETATM   20  N   UNL     1      -9.159   6.868  67.523  1.00  0.00    -0.118 NA 
HETATM   21  C   UNL     1      -9.648  10.076  69.233  1.00  0.00    -0.227 A  
HETATM   22  C   UNL     1      -9.181  10.959  68.267  1.00  0.00    -0.161 A  
HETATM   23  C   UNL     1      -8.788  10.463  67.038  1.00  0.00    -0.143 A  
HETATM   24  C   UNL     1      -8.846   9.081  66.775  1.00  0.00    -0.144 A  
HETATM   25  C   UNL     1      -8.500   8.633  65.377  1.00  0.00    -0.172 C  
HETATM   26  F   UNL     1      -9.233   9.323  64.448  1.00  0.00    -0.261 F  
HETATM   27  F   UNL     1      -8.693   7.323  65.070  1.00  0.00    -0.090 F  
HETATM   28  F   UNL     1      -7.198   8.901  65.063  1.00  0.00    -0.085 F  
ENDBRANCH   2  11
TORSDOF 2
ENDMDL
MODEL      155
REMARK 921   NORMALIZED FREE ENERGY PREDICTED BY IDOCK:   -2.95 KCAL/MOL
REMARK 922        TOTAL FREE ENERGY PREDICTED BY IDOCK:   -4.03 KCAL/MOL
REMARK 923 INTER-LIGAND FREE ENERGY PREDICTED BY IDOCK:   -4.30 KCAL/MOL
REMARK 924 INTRA-LIGAND FREE ENERGY PREDICTED BY IDOCK:    0.27 KCAL/MOL
REMARK 927      BINDING AFFINITY PREDICTED BY RF-SCORE:    0.00 PKD
ROOT
HETATM    1  O   UNL     1      -9.426  11.773  66.034  1.00  0.00    -0.225 OA 
HETATM    2  C   UNL     1     -10.132  13.019  66.199  1.00  0.00    -0.285 C  
HETATM    3  H   UNL     1      -8.575  11.955  65.652  1.00  0.00     0.000 HD 
ENDROOT
BRANCH   2   4
HETATM    4  C   UNL     1     -11.539  12.717  66.831  1.00  0.00    -0.366 C  
HETATM    5  H   UNL     1     -12.653  13.196  68.506  1.00  0.00     0.000 HD 
HETATM    6  N   UNL     1     -11.669  13.095  68.258  1.00  0.00    -0.330 NA 
HETATM    7  C   UNL     1     -12.012  11.263  66.647  1.00  0.00     0.890 C  
HETATM    8  C   UNL     1     -11.324  10.291  67.607  1.00  0.00    -0.088 C  
HETATM    9  C   UNL     1     -11.002  12.200  69.197  1.00  0.00    -0.161 C  
HETATM   10  C   UNL     1     -11.496  10.763  69.043  1.00  0.00    -0.368 C  
ENDBRANCH   2   4
BRANCH   2  11
HETATM   11  C   UNL     1      -9.236  13.928  67.047  1.00  0.00    -0.257 A  
HETATM   12  C   UNL     1      -6.502  13.456  69.676  1.00  0.00    -0.056 C  
HETATM   13  C   UNL     1      -8.341  16.081  67.779  1.00  0.00    -0.150 A  
HETATM   14  F   UNL     1      -5.196  13.737  69.397  1.00  0.00    -0.082 F  
HETATM   15  F   UNL     1      -6.703  13.846  70.969  1.00  0.00     0.062 F  
HETATM   16  C   UNL     1      -7.478  14.104  68.703  1.00  0.00    -0.125 A  
HETATM   17  F   UNL     1      -6.582  12.092  69.696  1.00  0.00    -0.110 F  
HETATM   18  C   UNL     1      -8.334  13.323  67.942  1.00  0.00    -0.163 A  
HETATM   19  C   UNL     1      -9.263  15.353  66.981  1.00  0.00    -0.242 A  
HETATM   20  N   UNL     1      -7.487  15.461  68.603  1.00  0.00    -0.123 NA 
HETATM   21  C   UNL     1     -10.161  16.086  66.171  1.00  0.00    -0.340 A  
HETATM   22  C   UNL     1     -10.206  17.475  66.186  1.00  0.00    -0.339 A  
HETATM   23  C   UNL     1      -9.286  18.167  66.950  1.00  0.00    -0.278 A  
HETATM   24  C   UNL     1      -8.327  17.475  67.715  1.00  0.00    -0.220 A  
HETATM   25  C   UNL     1      -7.295  18.305  68.436  1.00  0.00    -0.275 C  
HETATM   26  F   UNL     1      -6.678  19.172  67.575  1.00  0.00    -0.197 F  
HETATM   27  F   UNL     1      -6.280  17.647  69.056  1.00  0.00    -0.176 F  
HETATM   28  F   UNL     1      -7.858  19.103  69.391  1.00  0.00    -0.298 F  
ENDBRANCH   2  11
TORSDOF 2
ENDMDL
MODEL      156
REMARK 921   NORMALIZED FREE ENERGY PREDICTED BY IDOCK:   -2.94 KCAL/MOL
REMARK 922        TOTAL FREE ENERGY PREDICTED BY IDOCK:   -4.02 KCAL/MOL
REMARK 923 INTER-LIGAND FREE ENERGY PREDICTED BY IDOCK:   -4.98 KCAL/MOL
REMARK 924 INTRA-LIGAND FREE ENERGY PREDICTED BY IDOCK:    0.95 KCAL/MOL
REMARK 927      BINDING AFFINITY PREDICTED BY RF-SCORE:    0.00 PKD
ROOT
HETATM    1  O   UNL     1      -9.218   9.867  65.528  1.00  0.00    -0.172 OA 
HETATM    2  C   UNL     1      -8.308  10.407  66.508  1.00  0.00    -0.130 C  
HETATM    3  H   UNL     1      -8.928   8.993  65.295  1.00  0.00     0.000 HD 
ENDROOT
BRANCH   2   4
HETATM    4  C   UNL     1      -8.787  11.852  66.893  1.00  0.00    -0.197 C  
HETATM    5  H   UNL     1      -9.196  12.984  68.576  1.00  0.00     0.000 HD 
HETATM    6  N   UNL     1      -9.226  12.003  68.301  1.00  0.00    -0.194 NA 
HETATM    7  C   UNL     1      -9.871  12.425  65.961  1.00  0.00    -0.268 C  
HETATM    8  C   UNL     1     -11.258  11.844  66.239  1.00  0.00    -0.392 C  
HETATM    9  C   UNL     1     -10.537  11.436  68.603  1.00  0.00    -0.199 C  
HETATM   10  C   UNL     1     -11.620  12.029  67.705  1.00  0.00    -0.400 C  
ENDBRANCH   2   4
BRANCH   2  11
HETATM   11  C   UNL     1      -8.275   9.415  67.676  1.00  0.00    -0.114 A  
HETATM   12  C   UNL     1      -6.088   8.829  70.756  1.00  0.00    -0.037 C  
HETATM   13  C   UNL     1      -9.119   7.549  69.009  1.00  0.00    -0.140 A  
HETATM   14  F   UNL     1      -6.550   9.094  72.012  1.00  0.00    -0.073 F  
HETATM   15  F   UNL     1      -5.326   7.701  70.866  1.00  0.00    -0.026 F  
HETATM   16  C   UNL     1      -7.199   8.694  69.723  1.00  0.00    -0.051 A  
HETATM   17  F   UNL     1      -5.205   9.833  70.476  1.00  0.00    -0.032 F  
HETATM   18  C   UNL     1      -7.247   9.546  68.629  1.00  0.00    -0.074 A  
HETATM   19  C   UNL     1      -9.226   8.367  67.853  1.00  0.00    -0.144 A  
HETATM   20  N   UNL     1      -8.135   7.723  69.901  1.00  0.00    -0.118 NA 
HETATM   21  C   UNL     1     -10.268   8.088  66.939  1.00  0.00    -0.385 A  
HETATM   22  C   UNL     1     -11.134   7.014  67.109  1.00  0.00    -0.298 A  
HETATM   23  C   UNL     1     -11.030   6.243  68.251  1.00  0.00    -0.408 A  
HETATM   24  C   UNL     1     -10.052   6.532  69.222  1.00  0.00    -0.192 A  
HETATM   25  C   UNL     1     -10.073   5.710  70.485  1.00  0.00    -0.217 C  
HETATM   26  F   UNL     1     -11.319   5.720  71.052  1.00  0.00    -0.337 F  
HETATM   27  F   UNL     1      -9.231   6.074  71.488  1.00  0.00    -0.142 F  
HETATM   28  F   UNL     1      -9.812   4.392  70.241  1.00  0.00    -0.234 F  
ENDBRANCH   2  11
TORSDOF 2
ENDMDL
MODEL      157
REMARK 921   NORMALIZED FREE ENERGY PREDICTED BY IDOCK:   -2.87 KCAL/MOL
REMARK 922        TOTAL FREE ENERGY PREDICTED BY IDOCK:   -3.95 KCAL/MOL
REMARK 923 INTER-LIGAND FREE ENERGY PREDICTED BY IDOCK:   -4.02 KCAL/MOL
REMARK 924 INTRA-LIGAND FREE ENERGY PREDICTED BY IDOCK:    0.07 KCAL/MOL
REMARK 927      BINDING AFFINITY PREDICTED BY RF-SCORE:    0.00 PKD
ROOT
HETATM    1  O   UNL     1     -10.796  13.269  66.550  1.00  0.00    -0.278 OA 
HETATM    2  C   UNL     1     -11.123  11.948  67.027  1.00  0.00    -0.302 C  
HETATM    3  H   UNL     1     -10.623  13.827  67.299  1.00  0.00     0.000 HD 
ENDROOT
BRANCH   2   4
HETATM    4  C   UNL     1     -11.408  11.025  65.788  1.00  0.00     0.303 C  
HETATM    5  H   UNL     1     -10.584   9.402  64.805  1.00  0.00     0.000 HD 
HETATM    6  N   UNL     1     -10.258  10.194  65.359  1.00  0.00    -0.272 NA 
HETATM    7  C   UNL     1     -11.978  11.771  64.566  1.00  0.00    -0.200 C  
HETATM    8  C   UNL     1     -10.909  12.548  63.796  1.00  0.00    -0.489 C  
HETATM    9  C   UNL     1      -9.210  10.913  64.642  1.00  0.00    -0.197 C  
HETATM   10  C   UNL     1      -9.764  11.623  63.409  1.00  0.00    -0.369 C  
ENDBRANCH   2   4
BRANCH   2  11
HETATM   11  C   UNL     1      -9.952  11.492  67.904  1.00  0.00    -0.193 A  
HETATM   12  C   UNL     1      -6.328  12.567  68.474  1.00  0.00    -0.069 C  
HETATM   13  C   UNL     1      -8.889  10.119  69.624  1.00  0.00    -0.164 A  
HETATM   14  F   UNL     1      -5.945  13.175  69.634  1.00  0.00    -0.086 F  
HETATM   15  F   UNL     1      -5.294  11.750  68.117  1.00  0.00    -0.043 F  
HETATM   16  C   UNL     1      -7.654  11.827  68.592  1.00  0.00    -0.125 A  
HETATM   17  F   UNL     1      -6.343  13.559  67.534  1.00  0.00    -0.148 F  
HETATM   18  C   UNL     1      -8.730  12.181  67.792  1.00  0.00    -0.171 A  
HETATM   19  C   UNL     1     -10.029  10.408  68.828  1.00  0.00    -0.196 A  
HETATM   20  N   UNL     1      -7.753  10.816  69.497  1.00  0.00    -0.113 NA 
HETATM   21  C   UNL     1     -11.175   9.595  68.993  1.00  0.00    -0.030 A  
HETATM   22  C   UNL     1     -11.190   8.503  69.853  1.00  0.00    -0.035 A  
HETATM   23  C   UNL     1     -10.080   8.251  70.637  1.00  0.00    -0.212 A  
HETATM   24  C   UNL     1      -8.945   9.080  70.555  1.00  0.00    -0.249 A  
HETATM   25  C   UNL     1      -7.819   8.801  71.518  1.00  0.00    -0.104 C  
HETATM   26  F   UNL     1      -8.280   8.755  72.807  1.00  0.00    -0.187 F  
HETATM   27  F   UNL     1      -6.784   9.680  71.549  1.00  0.00    -0.030 F  
HETATM   28  F   UNL     1      -7.258   7.574  71.305  1.00  0.00    -0.060 F  
ENDBRANCH   2  11
TORSDOF 2
ENDMDL
MODEL      158
REMARK 921   NORMALIZED FREE ENERGY PREDICTED BY IDOCK:   -2.82 KCAL/MOL
REMARK 922        TOTAL FREE ENERGY PREDICTED BY IDOCK:   -3.90 KCAL/MOL
REMARK 923 INTER-LIGAND FREE ENERGY PREDICTED BY IDOCK:   -3.71 KCAL/MOL
REMARK 924 INTRA-LIGAND FREE ENERGY PREDICTED BY IDOCK:   -0.19 KCAL/MOL
REMARK 927      BINDING AFFINITY PREDICTED BY RF-SCORE:    0.00 PKD
ROOT
HETATM    1  O   UNL     1      -9.852  13.402  68.316  1.00  0.00    -0.228 OA 
HETATM    2  C   UNL     1      -8.633  12.895  67.737  1.00  0.00    -0.185 C  
HETATM    3  H   UNL     1     -10.589  12.987  67.881  1.00  0.00     0.000 HD 
ENDROOT
BRANCH   2   4
HETATM    4  C   UNL     1      -7.415  13.581  68.456  1.00  0.00    -0.122 C  
HETATM    5  H   UNL     1      -6.945  14.468  70.264  1.00  0.00     0.000 HD 
HETATM    6  N   UNL     1      -7.769  14.345  69.676  1.00  0.00     0.126 NA 
HETATM    7  C   UNL     1      -6.559  14.468  67.533  1.00  0.00    -0.106 C  
HETATM    8  C   UNL     1      -7.207  15.823  67.245  1.00  0.00    -0.254 C  
HETATM    9  C   UNL     1      -8.412  15.632  69.434  1.00  0.00    -0.244 C  
HETATM   10  C   UNL     1      -7.548  16.529  68.550  1.00  0.00    -0.200 C  
ENDBRANCH   2   4
BRANCH   2  11
HETATM   11  C   UNL     1      -8.677  11.370  67.876  1.00  0.00    -0.145 A  
HETATM   12  C   UNL     1     -10.160   8.850  70.339  1.00  0.00    -0.196 C  
HETATM   13  C   UNL     1      -8.239   9.076  67.156  1.00  0.00    -0.110 A  
HETATM   14  F   UNL     1     -11.226   8.071  69.997  1.00  0.00    -0.256 F  
HETATM   15  F   UNL     1      -9.349   8.064  71.105  1.00  0.00    -0.144 F  
HETATM   16  C   UNL     1      -9.441   9.448  69.137  1.00  0.00    -0.163 A  
HETATM   17  F   UNL     1     -10.660   9.791  71.195  1.00  0.00    -0.364 F  
HETATM   18  C   UNL     1      -9.344  10.823  68.989  1.00  0.00    -0.168 A  
HETATM   19  C   UNL     1      -8.080  10.471  66.943  1.00  0.00    -0.120 A  
HETATM   20  N   UNL     1      -8.901   8.602  68.220  1.00  0.00    -0.141 NA 
HETATM   21  C   UNL     1      -7.329  10.887  65.820  1.00  0.00     0.005 A  
HETATM   22  C   UNL     1      -6.703   9.983  64.971  1.00  0.00    -0.128 A  
HETATM   23  C   UNL     1      -6.888   8.629  65.179  1.00  0.00    -0.068 A  
HETATM   24  C   UNL     1      -7.688   8.173  66.245  1.00  0.00    -0.094 A  
HETATM   25  C   UNL     1      -7.925   6.687  66.339  1.00  0.00    -0.106 C  
HETATM   26  F   UNL     1      -8.392   6.191  65.151  1.00  0.00    -0.130 F  
HETATM   27  F   UNL     1      -8.811   6.249  67.272  1.00  0.00    -0.111 F  
HETATM   28  F   UNL     1      -6.768   6.000  66.573  1.00  0.00    -0.052 F  
ENDBRANCH   2  11
TORSDOF 2
ENDMDL
MODEL      159
REMARK 921   NORMALIZED FREE ENERGY PREDICTED BY IDOCK:   -2.79 KCAL/MOL
REMARK 922        TOTAL FREE ENERGY PREDICTED BY IDOCK:   -3.86 KCAL/MOL
REMARK 923 INTER-LIGAND FREE ENERGY PREDICTED BY IDOCK:   -3.40 KCAL/MOL
REMARK 924 INTRA-LIGAND FREE ENERGY PREDICTED BY IDOCK:   -0.45 KCAL/MOL
REMARK 927      BINDING AFFINITY PREDICTED BY RF-SCORE:    0.00 PKD
ROOT
HETATM    1  O   UNL     1      -8.486  15.618  66.940  1.00  0.00    -0.206 OA 
HETATM    2  C   UNL     1      -7.693  14.591  67.568  1.00  0.00    -0.188 C  
HETATM    3  H   UNL     1      -8.479  15.475  66.001  1.00  0.00     0.000 HD 
ENDROOT
BRANCH   2   4
HETATM    4  C   UNL     1      -7.704  14.828  69.121  1.00  0.00    -0.144 C  
HETATM    5  H   UNL     1      -8.152  16.315  70.487  1.00  0.00     0.000 HD 
HETATM    6  N   UNL     1      -7.814  16.249  69.527  1.00  0.00    -0.070 NA 
HETATM    7  C   UNL     1      -6.523  14.179  69.865  1.00  0.00    -0.119 C  
HETATM    8  C   UNL     1      -5.221  14.966  69.711  1.00  0.00    -0.094 C  
HETATM    9  C   UNL     1      -6.594  17.033  69.369  1.00  0.00    -0.225 C  
HETATM   10  C   UNL     1      -5.429  16.412  70.136  1.00  0.00    -0.188 C  
ENDBRANCH   2   4
BRANCH   2  11
HETATM   11  C   UNL     1      -8.280  13.246  67.126  1.00  0.00    -0.123 A  
HETATM   12  C   UNL     1     -11.649  11.979  65.838  1.00  0.00    -0.300 C  
HETATM   13  C   UNL     1      -8.183  10.858  66.617  1.00  0.00    -0.145 A  
HETATM   14  F   UNL     1     -11.809  11.592  64.540  1.00  0.00    -0.307 F  
HETATM   15  F   UNL     1     -12.400  11.117  66.583  1.00  0.00     0.719 F  
HETATM   16  C   UNL     1     -10.191  12.024  66.276  1.00  0.00    -0.222 A  
HETATM   17  F   UNL     1     -12.282  13.185  65.937  1.00  0.00    -0.415 F  
HETATM   18  C   UNL     1      -9.627  13.211  66.719  1.00  0.00    -0.249 A  
HETATM   19  C   UNL     1      -7.539  12.027  67.101  1.00  0.00    -0.146 A  
HETATM   20  N   UNL     1      -9.463  10.876  66.222  1.00  0.00    -0.188 NA 
HETATM   21  C   UNL     1      -6.200  11.911  67.541  1.00  0.00    -0.102 A  
HETATM   22  C   UNL     1      -5.533  10.693  67.568  1.00  0.00    -0.043 A  
HETATM   23  C   UNL     1      -6.166   9.570  67.071  1.00  0.00    -0.065 A  
HETATM   24  C   UNL     1      -7.475   9.656  66.557  1.00  0.00    -0.094 A  
HETATM   25  C   UNL     1      -8.053   8.409  65.939  1.00  0.00    -0.110 C  
HETATM   26  F   UNL     1      -7.207   7.896  64.993  1.00  0.00    -0.057 F  
HETATM   27  F   UNL     1      -9.254   8.517  65.310  1.00  0.00    -0.210 F  
HETATM   28  F   UNL     1      -8.202   7.407  66.855  1.00  0.00    -0.112 F  
ENDBRANCH   2  11
TORSDOF 2
ENDMDL
MODEL      160
REMARK 921   NORMALIZED FREE ENERGY PREDICTED BY IDOCK:   -2.77 KCAL/MOL
REMARK 922        TOTAL FREE ENERGY PREDICTED BY IDOCK:   -3.83 KCAL/MOL
REMARK 923 INTER-LIGAND FREE ENERGY PREDICTED BY IDOCK:   -4.94 KCAL/MOL
REMARK 924 INTRA-LIGAND FREE ENERGY PREDICTED BY IDOCK:    1.10 KCAL/MOL
REMARK 927      BINDING AFFINITY PREDICTED BY RF-SCORE:    0.00 PKD
ROOT
HETATM    1  O   UNL     1      -8.419  16.024  68.188  1.00  0.00    -0.164 OA 
HETATM    2  C   UNL     1      -8.578  14.848  69.007  1.00  0.00    -0.170 C  
HETATM    3  H   UNL     1      -7.745  15.852  67.540  1.00  0.00     0.000 HD 
ENDROOT
BRANCH   2   4
HETATM    4  C   UNL     1      -9.692  15.131  70.079  1.00  0.00     0.080 C  
HETATM    5  H   UNL     1     -11.215  14.146  71.072  1.00  0.00     0.000 HD 
HETATM    6  N   UNL     1     -10.740  14.088  70.172  1.00  0.00     0.386 NA 
HETATM    7  C   UNL     1     -10.362  16.511  69.939  1.00  0.00    -0.083 C  
HETATM    8  C   UNL     1     -11.383  16.561  68.802  1.00  0.00    -0.221 C  
HETATM    9  C   UNL     1     -11.715  14.094  69.087  1.00  0.00    -0.327 C  
HETATM   10  C   UNL     1     -12.409  15.449  68.970  1.00  0.00    -0.047 C  
ENDBRANCH   2   4
BRANCH   2  11
HETATM   11  C   UNL     1      -8.891  13.686  68.057  1.00  0.00    -0.187 A  
HETATM   12  C   UNL     1      -8.318   9.907  68.014  1.00  0.00    -0.113 C  
HETATM   13  C   UNL     1      -9.859  12.674  66.055  1.00  0.00    -0.254 A  
HETATM   14  F   UNL     1      -9.353   9.033  68.173  1.00  0.00    -0.139 F  
HETATM   15  F   UNL     1      -7.483   9.339  67.095  1.00  0.00    -0.087 F  
HETATM   16  C   UNL     1      -8.768  11.307  67.619  1.00  0.00    -0.131 A  
HETATM   17  F   UNL     1      -7.630   9.871  69.195  1.00  0.00    -0.071 F  
HETATM   18  C   UNL     1      -8.475  12.394  68.429  1.00  0.00    -0.131 A  
HETATM   19  C   UNL     1      -9.581  13.839  66.818  1.00  0.00    -0.283 A  
HETATM   20  N   UNL     1      -9.460  11.461  66.459  1.00  0.00    -0.195 NA 
HETATM   21  C   UNL     1      -9.998  15.086  66.299  1.00  0.00    -0.300 A  
HETATM   22  C   UNL     1     -10.605  15.204  65.054  1.00  0.00    -0.439 A  
HETATM   23  C   UNL     1     -10.890  14.058  64.336  1.00  0.00    -0.265 A  
HETATM   24  C   UNL     1     -10.555  12.791  64.850  1.00  0.00    -0.336 A  
HETATM   25  C   UNL     1     -10.994  11.588  64.053  1.00  0.00    -0.383 C  
HETATM   26  F   UNL     1     -12.334  11.649  63.777  1.00  0.00    -0.491 F  
HETATM   27  F   UNL     1     -10.808  10.362  64.610  1.00  0.00    -0.265 F  
HETATM   28  F   UNL     1     -10.388  11.538  62.831  1.00  0.00    -0.320 F  
ENDBRANCH   2  11
TORSDOF 2
ENDMDL
MODEL      161
REMARK 921   NORMALIZED FREE ENERGY PREDICTED BY IDOCK:   -2.63 KCAL/MOL
REMARK 922        TOTAL FREE ENERGY PREDICTED BY IDOCK:   -3.68 KCAL/MOL
REMARK 923 INTER-LIGAND FREE ENERGY PREDICTED BY IDOCK:   -4.08 KCAL/MOL
REMARK 924 INTRA-LIGAND FREE ENERGY PREDICTED BY IDOCK:    0.41 KCAL/MOL
REMARK 927      BINDING AFFINITY PREDICTED BY RF-SCORE:    0.00 PKD
ROOT
HETATM    1  O   UNL     1     -10.839   8.801  69.146  1.00  0.00    -0.380 OA 
HETATM    2  C   UNL     1     -10.343   8.005  70.241  1.00  0.00    -0.212 C  
HETATM    3  H   UNL     1     -10.100   9.103  68.631  1.00  0.00     0.000 HD 
ENDROOT
BRANCH   2   4
HETATM    4  C   UNL     1     -11.567   7.507  71.091  1.00  0.00    -0.282 C  
HETATM    5  H   UNL     1     -12.572   7.976  72.837  1.00  0.00     0.000 HD 
HETATM    6  N   UNL     1     -11.624   8.051  72.469  1.00  0.00    -0.390 NA 
HETATM    7  C   UNL     1     -11.712   5.974  71.146  1.00  0.00    -0.076 C  
HETATM    8  C   UNL     1     -10.720   5.320  72.109  1.00  0.00    -0.271 C  
HETATM    9  C   UNL     1     -10.672   7.462  73.405  1.00  0.00    -0.357 C  
HETATM   10  C   UNL     1     -10.838   5.947  73.490  1.00  0.00    -0.246 C  
ENDBRANCH   2   4
BRANCH   2  11
HETATM   11  C   UNL     1      -9.497   6.885  69.626  1.00  0.00    -0.147 A  
HETATM   12  C   UNL     1      -6.217   5.109  70.462  1.00  0.00    -0.022 C  
HETATM   13  C   UNL     1      -9.014   5.124  68.002  1.00  0.00    -0.110 A  
HETATM   14  F   UNL     1      -6.204   3.817  70.901  1.00  0.00    -0.016 F  
HETATM   15  F   UNL     1      -5.126   5.242  69.653  1.00  0.00    -0.003 F  
HETATM   16  C   UNL     1      -7.518   5.497  69.771  1.00  0.00    -0.070 A  
HETATM   17  F   UNL     1      -5.942   5.867  71.565  1.00  0.00    -0.026 F  
HETATM   18  C   UNL     1      -8.297   6.529  70.271  1.00  0.00    -0.127 A  
HETATM   19  C   UNL     1      -9.856   6.181  68.439  1.00  0.00    -0.142 A  
HETATM   20  N   UNL     1      -7.891   4.807  68.660  1.00  0.00    -0.076 NA 
HETATM   21  C   UNL     1     -11.000   6.479  67.662  1.00  0.00    -0.426 A  
HETATM   22  C   UNL     1     -11.280   5.819  66.473  1.00  0.00     0.180 A  
HETATM   23  C   UNL     1     -10.463   4.777  66.076  1.00  0.00    -0.332 A  
HETATM   24  C   UNL     1      -9.355   4.400  66.858  1.00  0.00    -0.167 A  
HETATM   25  C   UNL     1      -8.577   3.188  66.410  1.00  0.00    -0.119 C  
HETATM   26  F   UNL     1      -9.409   2.118  66.222  1.00  0.00    -0.116 F  
HETATM   27  F   UNL     1      -7.598   2.729  67.233  1.00  0.00    -0.065 F  
HETATM   28  F   UNL     1      -7.981   3.384  65.196  1.00  0.00    -0.083 F  
ENDBRANCH   2  11
TORSDOF 2
ENDMDL
MODEL      162
REMARK 921   NORMALIZED FREE ENERGY PREDICTED BY IDOCK:   -2.48 KCAL/MOL
REMARK 922        TOTAL FREE ENERGY PREDICTED BY IDOCK:   -3.51 KCAL/MOL
REMARK 923 INTER-LIGAND FREE ENERGY PREDICTED BY IDOCK:   -3.48 KCAL/MOL
REMARK 924 INTRA-LIGAND FREE ENERGY PREDICTED BY IDOCK:   -0.03 KCAL/MOL
REMARK 927      BINDING AFFINITY PREDICTED BY RF-SCORE:    0.00 PKD
ROOT
HETATM    1  O   UNL     1     -12.064   8.951  70.481  1.00  0.00    -0.477 OA 
HETATM    2  C   UNL     1     -10.648   8.981  70.751  1.00  0.00    -0.240 C  
HETATM    3  H   UNL     1     -12.319   9.786  70.107  1.00  0.00     0.000 HD 
ENDROOT
BRANCH   2   4
HETATM    4  C   UNL     1     -10.226   7.600  71.370  1.00  0.00    -0.185 C  
HETATM    5  H   UNL     1     -10.493   6.496  73.099  1.00  0.00     0.000 HD 
HETATM    6  N   UNL     1     -10.459   7.479  72.828  1.00  0.00    -0.264 NA 
HETATM    7  C   UNL     1      -8.777   7.185  71.052  1.00  0.00    -0.141 C  
HETATM    8  C   UNL     1      -7.748   7.929  71.904  1.00  0.00    -0.104 C  
HETATM    9  C   UNL     1      -9.507   8.199  73.667  1.00  0.00     0.062 C  
HETATM   10  C   UNL     1      -8.072   7.763  73.382  1.00  0.00    -0.208 C  
ENDBRANCH   2   4
BRANCH   2  11
HETATM   11  C   UNL     1      -9.952   9.325  69.430  1.00  0.00    -0.184 A  
HETATM   12  C   UNL     1      -7.839  12.208  68.075  1.00  0.00    -0.145 C  
HETATM   13  C   UNL     1      -9.234   8.885  67.136  1.00  0.00    -0.139 A  
HETATM   14  F   UNL     1      -6.504  12.056  67.839  1.00  0.00    -0.056 F  
HETATM   15  F   UNL     1      -8.310  13.007  67.074  1.00  0.00    -0.176 F  
HETATM   16  C   UNL     1      -8.586  10.885  68.178  1.00  0.00    -0.133 A  
HETATM   17  F   UNL     1      -7.921  12.967  69.209  1.00  0.00     0.137 F  
HETATM   18  C   UNL     1      -9.261  10.548  69.342  1.00  0.00    -0.128 A  
HETATM   19  C   UNL     1      -9.965   8.477  68.283  1.00  0.00    -0.211 A  
HETATM   20  N   UNL     1      -8.574  10.050  67.105  1.00  0.00    -0.128 NA 
HETATM   21  C   UNL     1     -10.671   7.253  68.217  1.00  0.00    -0.174 A  
HETATM   22  C   UNL     1     -10.718   6.487  67.059  1.00  0.00    -0.434 A  
HETATM   23  C   UNL     1      -9.981   6.887  65.960  1.00  0.00     0.334 A  
HETATM   24  C   UNL     1      -9.207   8.062  66.008  1.00  0.00    -0.179 A  
HETATM   25  C   UNL     1      -8.351   8.371  64.806  1.00  0.00    -0.141 C  
HETATM   26  F   UNL     1      -7.565   7.299  64.478  1.00  0.00    -0.078 F  
HETATM   27  F   UNL     1      -7.491   9.419  64.897  1.00  0.00    -0.098 F  
HETATM   28  F   UNL     1      -9.105   8.605  63.690  1.00  0.00     0.008 F  
ENDBRANCH   2  11
TORSDOF 2
ENDMDL
MODEL      163
REMARK 921   NORMALIZED FREE ENERGY PREDICTED BY IDOCK:   -2.44 KCAL/MOL
REMARK 922        TOTAL FREE ENERGY PREDICTED BY IDOCK:   -3.47 KCAL/MOL
REMARK 923 INTER-LIGAND FREE ENERGY PREDICTED BY IDOCK:   -3.13 KCAL/MOL
REMARK 924 INTRA-LIGAND FREE ENERGY PREDICTED BY IDOCK:   -0.33 KCAL/MOL
REMARK 927      BINDING AFFINITY PREDICTED BY RF-SCORE:    0.00 PKD
ROOT
HETATM    1  O   UNL     1      -8.122   7.393  72.288  1.00  0.00    -0.098 OA 
HETATM    2  C   UNL     1      -8.650   6.065  72.096  1.00  0.00    -0.128 C  
HETATM    3  H   UNL     1      -7.310   7.469  71.801  1.00  0.00     0.000 HD 
ENDROOT
BRANCH   2   4
HETATM    4  C   UNL     1      -9.993   5.939  72.902  1.00  0.00    -0.173 C  
HETATM    5  H   UNL     1     -10.650   5.672  74.845  1.00  0.00     0.000 HD 
HETATM    6  N   UNL     1      -9.840   5.416  74.280  1.00  0.00    -0.179 NA 
HETATM    7  C   UNL     1     -11.090   5.138  72.175  1.00  0.00    -0.129 C  
HETATM    8  C   UNL     1     -10.860   3.627  72.239  1.00  0.00     0.260 C  
HETATM    9  C   UNL     1      -9.596   3.981  74.372  1.00  0.00    -0.113 C  
HETATM   10  C   UNL     1     -10.700   3.182  73.685  1.00  0.00    -0.297 C  
ENDBRANCH   2   4
BRANCH   2  11
HETATM   11  C   UNL     1      -8.794   5.859  70.584  1.00  0.00    -0.144 A  
HETATM   12  C   UNL     1      -9.731   8.011  67.568  1.00  0.00    -0.161 C  
HETATM   13  C   UNL     1      -8.660   4.571  68.512  1.00  0.00    -0.093 A  
HETATM   14  F   UNL     1      -8.798   8.377  66.643  1.00  0.00    -0.123 F  
HETATM   15  F   UNL     1     -10.879   7.769  66.869  1.00  0.00    -0.408 F  
HETATM   16  C   UNL     1      -9.299   6.827  68.423  1.00  0.00    -0.124 A  
HETATM   17  F   UNL     1      -9.984   9.140  68.294  1.00  0.00    -0.164 F  
HETATM   18  C   UNL     1      -9.191   6.957  69.799  1.00  0.00    -0.147 A  
HETATM   19  C   UNL     1      -8.546   4.617  69.927  1.00  0.00    -0.096 A  
HETATM   20  N   UNL     1      -9.023   5.648  67.803  1.00  0.00    -0.109 NA 
HETATM   21  C   UNL     1      -8.202   3.424  70.602  1.00  0.00    -0.075 A  
HETATM   22  C   UNL     1      -8.038   2.216  69.935  1.00  0.00    -0.057 A  
HETATM   23  C   UNL     1      -8.128   2.194  68.556  1.00  0.00    -0.069 A  
HETATM   24  C   UNL     1      -8.399   3.376  67.839  1.00  0.00    -0.095 A  
HETATM   25  C   UNL     1      -8.377   3.286  66.334  1.00  0.00    -0.099 C  
HETATM   26  F   UNL     1      -7.209   2.723  65.896  1.00  0.00    -0.059 F  
HETATM   27  F   UNL     1      -8.491   4.445  65.633  1.00  0.00    -0.111 F  
HETATM   28  F   UNL     1      -9.360   2.465  65.858  1.00  0.00    -0.140 F  
ENDBRANCH   2  11
TORSDOF 2
ENDMDL
MODEL      164
REMARK 921   NORMALIZED FREE ENERGY PREDICTED BY IDOCK:   -2.41 KCAL/MOL
REMARK 922        TOTAL FREE ENERGY PREDICTED BY IDOCK:   -3.43 KCAL/MOL
REMARK 923 INTER-LIGAND FREE ENERGY PREDICTED BY IDOCK:   -3.91 KCAL/MOL
REMARK 924 INTRA-LIGAND FREE ENERGY PREDICTED BY IDOCK:    0.48 KCAL/MOL
REMARK 927      BINDING AFFINITY PREDICTED BY RF-SCORE:    0.00 PKD
ROOT
HETATM    1  O   UNL     1     -10.367   9.512  65.504  1.00  0.00    -0.238 OA 
HETATM    2  C   UNL     1      -9.096   9.532  66.185  1.00  0.00    -0.166 C  
HETATM    3  H   UNL     1     -10.366   8.792  64.884  1.00  0.00     0.000 HD 
ENDROOT
BRANCH   2   4
HETATM    4  C   UNL     1      -9.097  10.722  67.211  1.00  0.00    -0.144 C  
HETATM    5  H   UNL     1     -10.052  11.307  68.950  1.00  0.00     0.000 HD 
HETATM    6  N   UNL     1     -10.266  10.752  68.122  1.00  0.00    -0.166 NA 
HETATM    7  C   UNL     1      -8.923  12.109  66.564  1.00  0.00    -0.179 C  
HETATM    8  C   UNL     1     -10.205  12.620  65.905  1.00  0.00    -0.290 C  
HETATM    9  C   UNL     1     -11.510  11.212  67.514  1.00  0.00    -0.216 C  
HETATM   10  C   UNL     1     -11.352  12.603  66.905  1.00  0.00    -0.373 C  
ENDBRANCH   2   4
BRANCH   2  11
HETATM   11  C   UNL     1      -8.910   8.148  66.817  1.00  0.00    -0.156 A  
HETATM   12  C   UNL     1     -10.287   6.276  69.852  1.00  0.00    -0.196 C  
HETATM   13  C   UNL     1      -8.011   5.879  66.931  1.00  0.00    -0.102 A  
HETATM   14  F   UNL     1     -11.155   5.234  69.706  1.00  0.00    -0.328 F  
HETATM   15  F   UNL     1      -9.472   5.943  70.895  1.00  0.00    -0.164 F  
HETATM   16  C   UNL     1      -9.517   6.601  68.579  1.00  0.00    -0.123 A  
HETATM   17  F   UNL     1     -11.046   7.317  70.307  1.00  0.00    -0.254 F  
HETATM   18  C   UNL     1      -9.626   7.853  67.992  1.00  0.00    -0.168 A  
HETATM   19  C   UNL     1      -8.053   7.141  66.282  1.00  0.00    -0.118 A  
HETATM   20  N   UNL     1      -8.726   5.636  68.037  1.00  0.00    -0.101 NA 
HETATM   21  C   UNL     1      -7.233   7.329  65.145  1.00  0.00    -0.070 A  
HETATM   22  C   UNL     1      -6.357   6.348  64.694  1.00  0.00    -0.030 A  
HETATM   23  C   UNL     1      -6.347   5.118  65.323  1.00  0.00    -0.035 A  
HETATM   24  C   UNL     1      -7.200   4.866  66.414  1.00  0.00    -0.077 A  
HETATM   25  C   UNL     1      -7.203   3.466  66.976  1.00  0.00    -0.059 C  
HETATM   26  F   UNL     1      -7.416   2.544  65.986  1.00  0.00    -0.063 F  
HETATM   27  F   UNL     1      -8.125   3.173  67.930  1.00  0.00    -0.075 F  
HETATM   28  F   UNL     1      -5.993   3.130  67.512  1.00  0.00    -0.023 F  
ENDBRANCH   2  11
TORSDOF 2
ENDMDL
MODEL      165
REMARK 921   NORMALIZED FREE ENERGY PREDICTED BY IDOCK:   -2.40 KCAL/MOL
REMARK 922        TOTAL FREE ENERGY PREDICTED BY IDOCK:   -3.43 KCAL/MOL
REMARK 923 INTER-LIGAND FREE ENERGY PREDICTED BY IDOCK:   -3.18 KCAL/MOL
REMARK 924 INTRA-LIGAND FREE ENERGY PREDICTED BY IDOCK:   -0.24 KCAL/MOL
REMARK 927      BINDING AFFINITY PREDICTED BY RF-SCORE:    0.00 PKD
ROOT
HETATM    1  O   UNL     1     -11.842   7.344  69.366  1.00  0.00    -0.175 OA 
HETATM    2  C   UNL     1     -10.511   7.893  69.436  1.00  0.00    -0.220 C  
HETATM    3  H   UNL     1     -11.887   6.752  68.624  1.00  0.00     0.000 HD 
ENDROOT
BRANCH   2   4
HETATM    4  C   UNL     1     -10.437   8.872  70.663  1.00  0.00    -0.221 C  
HETATM    5  H   UNL     1     -11.591   9.483  72.267  1.00  0.00     0.000 HD 
HETATM    6  N   UNL     1     -11.739   9.141  71.318  1.00  0.00    -0.302 NA 
HETATM    7  C   UNL     1      -9.738  10.211  70.357  1.00  0.00     0.132 C  
HETATM    8  C   UNL     1     -10.630  11.181  69.581  1.00  0.00    -0.076 C  
HETATM    9  C   UNL     1     -12.622  10.044  70.589  1.00  0.00    -0.220 C  
HETATM   10  C   UNL     1     -11.946  11.386  70.317  1.00  0.00    -0.460 C  
ENDBRANCH   2   4
BRANCH   2  11
HETATM   11  C   UNL     1      -9.545   6.705  69.512  1.00  0.00    -0.150 A  
HETATM   12  C   UNL     1      -7.317   5.107  72.176  1.00  0.00    -0.091 C  
HETATM   13  C   UNL     1      -8.403   4.732  68.633  1.00  0.00    -0.082 A  
HETATM   14  F   UNL     1      -7.622   3.894  72.718  1.00  0.00    -0.064 F  
HETATM   15  F   UNL     1      -5.957   5.134  72.055  1.00  0.00    -0.020 F  
HETATM   16  C   UNL     1      -8.034   5.375  70.859  1.00  0.00    -0.104 A  
HETATM   17  F   UNL     1      -7.609   6.022  73.148  1.00  0.00    -0.094 F  
HETATM   18  C   UNL     1      -8.888   6.461  70.733  1.00  0.00    -0.144 A  
HETATM   19  C   UNL     1      -9.276   5.831  68.418  1.00  0.00    -0.121 A  
HETATM   20  N   UNL     1      -7.814   4.527  69.819  1.00  0.00    -0.057 NA 
HETATM   21  C   UNL     1      -9.821   6.000  67.123  1.00  0.00    -0.165 A  
HETATM   22  C   UNL     1      -9.480   5.170  66.063  1.00  0.00    -0.170 A  
HETATM   23  C   UNL     1      -8.648   4.091  66.296  1.00  0.00    -0.110 A  
HETATM   24  C   UNL     1      -8.141   3.845  67.586  1.00  0.00    -0.090 A  
HETATM   25  C   UNL     1      -7.328   2.590  67.778  1.00  0.00    -0.052 C  
HETATM   26  F   UNL     1      -8.008   1.494  67.320  1.00  0.00    -0.061 F  
HETATM   27  F   UNL     1      -6.958   2.267  69.045  1.00  0.00    -0.038 F  
HETATM   28  F   UNL     1      -6.174   2.614  67.048  1.00  0.00    -0.025 F  
ENDBRANCH   2  11
TORSDOF 2
ENDMDL
MODEL      166
REMARK 921   NORMALIZED FREE ENERGY PREDICTED BY IDOCK:   -2.24 KCAL/MOL
REMARK 922        TOTAL FREE ENERGY PREDICTED BY IDOCK:   -3.24 KCAL/MOL
REMARK 923 INTER-LIGAND FREE ENERGY PREDICTED BY IDOCK:   -4.54 KCAL/MOL
REMARK 924 INTRA-LIGAND FREE ENERGY PREDICTED BY IDOCK:    1.30 KCAL/MOL
REMARK 927      BINDING AFFINITY PREDICTED BY RF-SCORE:    0.00 PKD
ROOT
HETATM    1  O   UNL     1      -7.856   7.022  72.318  1.00  0.00    -0.091 OA 
HETATM    2  C   UNL     1      -8.772   6.102  71.691  1.00  0.00    -0.135 C  
HETATM    3  H   UNL     1      -7.004   6.927  71.910  1.00  0.00     0.000 HD 
ENDROOT
BRANCH   2   4
HETATM    4  C   UNL     1     -10.181   6.260  72.366  1.00  0.00    -0.187 C  
HETATM    5  H   UNL     1     -12.136   5.633  72.106  1.00  0.00     0.000 HD 
HETATM    6  N   UNL     1     -11.322   5.827  71.523  1.00  0.00    -0.187 NA 
HETATM    7  C   UNL     1     -10.463   7.672  72.912  1.00  0.00    -0.394 C  
HETATM    8  C   UNL     1     -10.830   8.670  71.813  1.00  0.00    -0.395 C  
HETATM    9  C   UNL     1     -11.680   6.748  70.450  1.00  0.00    -0.363 C  
HETATM   10  C   UNL     1     -11.996   8.140  70.991  1.00  0.00    -0.257 C  
ENDBRANCH   2   4
BRANCH   2  11
HETATM   11  C   UNL     1      -8.748   6.408  70.189  1.00  0.00    -0.139 A  
HETATM   12  C   UNL     1      -9.606   4.543  66.964  1.00  0.00    -0.190 C  
HETATM   13  C   UNL     1      -8.421   7.838  68.235  1.00  0.00    -0.124 A  
HETATM   14  F   UNL     1     -10.701   4.879  66.224  1.00  0.00    -0.305 F  
HETATM   15  F   UNL     1      -8.630   4.217  66.067  1.00  0.00    -0.112 F  
HETATM   16  C   UNL     1      -9.177   5.637  67.934  1.00  0.00    -0.106 A  
HETATM   17  F   UNL     1      -9.933   3.369  67.582  1.00  0.00    -0.196 F  
HETATM   18  C   UNL     1      -9.147   5.394  69.298  1.00  0.00    -0.133 A  
HETATM   19  C   UNL     1      -8.344   7.662  69.642  1.00  0.00    -0.130 A  
HETATM   20  N   UNL     1      -8.827   6.850  67.427  1.00  0.00    -0.118 NA 
HETATM   21  C   UNL     1      -7.863   8.741  70.419  1.00  0.00    -0.098 A  
HETATM   22  C   UNL     1      -7.412   9.923  69.844  1.00  0.00    -0.156 A  
HETATM   23  C   UNL     1      -7.516  10.087  68.476  1.00  0.00    -0.086 A  
HETATM   24  C   UNL     1      -8.057   9.064  67.674  1.00  0.00    -0.109 A  
HETATM   25  C   UNL     1      -8.232   9.362  66.206  1.00  0.00    -0.111 C  
HETATM   26  F   UNL     1      -8.931  10.525  66.025  1.00  0.00    -0.154 F  
HETATM   27  F   UNL     1      -8.886   8.441  65.450  1.00  0.00    -0.183 F  
HETATM   28  F   UNL     1      -7.036   9.573  65.582  1.00  0.00    -0.083 F  
ENDBRANCH   2  11
TORSDOF 2
ENDMDL
MODEL      167
REMARK 921   NORMALIZED FREE ENERGY PREDICTED BY IDOCK:   -2.05 KCAL/MOL
REMARK 922        TOTAL FREE ENERGY PREDICTED BY IDOCK:   -3.03 KCAL/MOL
REMARK 923 INTER-LIGAND FREE ENERGY PREDICTED BY IDOCK:   -2.88 KCAL/MOL
REMARK 924 INTRA-LIGAND FREE ENERGY PREDICTED BY IDOCK:   -0.16 KCAL/MOL
REMARK 927      BINDING AFFINITY PREDICTED BY RF-SCORE:    0.00 PKD
ROOT
HETATM    1  O   UNL     1      -8.961   7.779  71.672  1.00  0.00    -0.124 OA 
HETATM    2  C   UNL     1      -7.705   7.259  71.191  1.00  0.00    -0.092 C  
HETATM    3  H   UNL     1      -9.487   8.038  70.925  1.00  0.00     0.000 HD 
ENDROOT
BRANCH   2   4
HETATM    4  C   UNL     1      -6.834   6.830  72.427  1.00  0.00    -0.063 C  
HETATM    5  H   UNL     1      -7.068   6.260  74.402  1.00  0.00     0.000 HD 
HETATM    6  N   UNL     1      -7.551   6.850  73.724  1.00  0.00    -0.084 NA 
HETATM    7  C   UNL     1      -5.513   7.609  72.567  1.00  0.00    -0.036 C  
HETATM    8  C   UNL     1      -5.712   9.013  73.139  1.00  0.00    -0.065 C  
HETATM    9  C   UNL     1      -7.777   8.178  74.284  1.00  0.00    -0.226 C  
HETATM   10  C   UNL     1      -6.466   8.940  74.459  1.00  0.00    -0.104 C  
ENDBRANCH   2   4
BRANCH   2  11
HETATM   11  C   UNL     1      -8.039   6.119  70.223  1.00  0.00    -0.112 A  
HETATM   12  C   UNL     1      -8.451   2.325  70.440  1.00  0.00    -0.046 C  
HETATM   13  C   UNL     1      -8.667   5.179  68.056  1.00  0.00    -0.102 A  
HETATM   14  F   UNL     1      -9.677   1.739  70.326  1.00  0.00    -0.185 F  
HETATM   15  F   UNL     1      -7.575   1.491  69.806  1.00  0.00    -0.041 F  
HETATM   16  C   UNL     1      -8.411   3.748  69.898  1.00  0.00    -0.055 A  
HETATM   17  F   UNL     1      -8.132   2.240  71.766  1.00  0.00    -0.046 F  
HETATM   18  C   UNL     1      -8.077   4.806  70.730  1.00  0.00    -0.085 A  
HETATM   19  C   UNL     1      -8.315   6.312  68.837  1.00  0.00    -0.120 A  
HETATM   20  N   UNL     1      -8.710   3.950  68.587  1.00  0.00    -0.094 NA 
HETATM   21  C   UNL     1      -8.251   7.567  68.189  1.00  0.00    -0.125 A  
HETATM   22  C   UNL     1      -8.457   7.706  66.822  1.00  0.00    -0.127 A  
HETATM   23  C   UNL     1      -8.822   6.597  66.082  1.00  0.00    -0.160 A  
HETATM   24  C   UNL     1      -8.968   5.342  66.703  1.00  0.00    -0.117 A  
HETATM   25  C   UNL     1      -9.470   4.207  65.847  1.00  0.00    -0.178 C  
HETATM   26  F   UNL     1     -10.628   4.555  65.206  1.00  0.00    -0.253 F  
HETATM   27  F   UNL     1      -9.754   3.030  66.465  1.00  0.00    -0.130 F  
HETATM   28  F   UNL     1      -8.596   3.898  64.844  1.00  0.00    -0.108 F  
ENDBRANCH   2  11
TORSDOF 2
ENDMDL
MODEL      168
REMARK 921   NORMALIZED FREE ENERGY PREDICTED BY IDOCK:   -1.94 KCAL/MOL
REMARK 922        TOTAL FREE ENERGY PREDICTED BY IDOCK:   -2.91 KCAL/MOL
REMARK 923 INTER-LIGAND FREE ENERGY PREDICTED BY IDOCK:   -3.67 KCAL/MOL
REMARK 924 INTRA-LIGAND FREE ENERGY PREDICTED BY IDOCK:    0.76 KCAL/MOL
REMARK 927      BINDING AFFINITY PREDICTED BY RF-SCORE:    0.00 PKD
ROOT
HETATM    1  O   UNL     1     -11.078  11.149  69.928  1.00  0.00    -0.393 OA 
HETATM    2  C   UNL     1     -10.880  10.367  68.733  1.00  0.00    -0.232 C  
HETATM    3  H   UNL     1     -11.201  10.557  70.660  1.00  0.00     0.000 HD 
ENDROOT
BRANCH   2   4
HETATM    4  C   UNL     1     -10.677  11.346  67.521  1.00  0.00    -0.222 C  
HETATM    5  H   UNL     1     -11.148  11.491  65.512  1.00  0.00     0.000 HD 
HETATM    6  N   UNL     1     -10.967  10.754  66.193  1.00  0.00    -0.048 NA 
HETATM    7  C   UNL     1      -9.293  12.021  67.484  1.00  0.00    -0.179 C  
HETATM    8  C   UNL     1      -8.194  11.090  66.971  1.00  0.00    -0.138 C  
HETATM    9  C   UNL     1      -9.947   9.841  65.688  1.00  0.00    -0.282 C  
HETATM   10  C   UNL     1      -8.580  10.519  65.614  1.00  0.00    -0.182 C  
ENDBRANCH   2   4
BRANCH   2  11
HETATM   11  C   UNL     1      -9.693   9.436  69.004  1.00  0.00    -0.166 A  
HETATM   12  C   UNL     1      -6.280   9.716  70.703  1.00  0.00    -0.084 C  
HETATM   13  C   UNL     1      -8.520   7.293  68.975  1.00  0.00    -0.129 A  
HETATM   14  F   UNL     1      -6.032   9.103  71.896  1.00  0.00    -0.067 F  
HETATM   15  F   UNL     1      -5.129   9.606  69.977  1.00  0.00    -0.032 F  
HETATM   16  C   UNL     1      -7.494   9.150  69.977  1.00  0.00    -0.077 A  
HETATM   17  F   UNL     1      -6.395  11.045  70.996  1.00  0.00    -0.012 F  
HETATM   18  C   UNL     1      -8.576   9.964  69.677  1.00  0.00    -0.207 A  
HETATM   19  C   UNL     1      -9.656   8.064  68.614  1.00  0.00    -0.150 A  
HETATM   20  N   UNL     1      -7.487   7.834  69.634  1.00  0.00    -0.088 NA 
HETATM   21  C   UNL     1     -10.683   7.427  67.880  1.00  0.00    -0.217 A  
HETATM   22  C   UNL     1     -10.580   6.108  67.456  1.00  0.00    -0.344 A  
HETATM   23  C   UNL     1      -9.479   5.365  67.836  1.00  0.00    -0.137 A  
HETATM   24  C   UNL     1      -8.468   5.941  68.629  1.00  0.00    -0.111 A  
HETATM   25  C   UNL     1      -7.354   5.034  69.087  1.00  0.00    -0.057 C  
HETATM   26  F   UNL     1      -7.855   3.917  69.699  1.00  0.00    -0.052 F  
HETATM   27  F   UNL     1      -6.453   5.541  69.970  1.00  0.00    -0.029 F  
HETATM   28  F   UNL     1      -6.619   4.558  68.038  1.00  0.00    -0.038 F  
ENDBRANCH   2  11
TORSDOF 2
ENDMDL
MODEL      169
REMARK 921   NORMALIZED FREE ENERGY PREDICTED BY IDOCK:   -1.76 KCAL/MOL
REMARK 922        TOTAL FREE ENERGY PREDICTED BY IDOCK:   -2.71 KCAL/MOL
REMARK 923 INTER-LIGAND FREE ENERGY PREDICTED BY IDOCK:   -3.95 KCAL/MOL
REMARK 924 INTRA-LIGAND FREE ENERGY PREDICTED BY IDOCK:    1.24 KCAL/MOL
REMARK 927      BINDING AFFINITY PREDICTED BY RF-SCORE:    0.00 PKD
ROOT
HETATM    1  O   UNL     1      -8.426   9.683  64.996  1.00  0.00    -0.133 OA 
HETATM    2  C   UNL     1      -8.844  11.062  64.977  1.00  0.00    -0.083 C  
HETATM    3  H   UNL     1      -7.803   9.565  65.704  1.00  0.00     0.000 HD 
ENDROOT
BRANCH   2   4
HETATM    4  C   UNL     1      -9.875  11.256  63.807  1.00  0.00    -0.322 C  
HETATM    5  H   UNL     1     -10.460  12.694  62.440  1.00  0.00     0.000 HD 
HETATM    6  N   UNL     1     -10.069  12.663  63.382  1.00  0.00    -0.254 NA 
HETATM    7  C   UNL     1     -11.250  10.612  64.068  1.00  0.00     1.101 C  
HETATM    8  C   UNL     1     -12.116  11.432  65.025  1.00  0.00     0.718 C  
HETATM    9  C   UNL     1     -10.871  13.477  64.288  1.00  0.00    -0.322 C  
HETATM   10  C   UNL     1     -12.249  12.861  64.519  1.00  0.00    -0.489 C  
ENDBRANCH   2   4
BRANCH   2  11
HETATM   11  C   UNL     1      -9.397  11.377  66.371  1.00  0.00    -0.219 A  
HETATM   12  C   UNL     1      -9.844  14.493  68.540  1.00  0.00    -0.231 C  
HETATM   13  C   UNL     1     -10.480  10.824  68.491  1.00  0.00    -0.187 A  
HETATM   14  F   UNL     1     -11.081  15.014  68.783  1.00  0.00    -0.226 F  
HETATM   15  F   UNL     1      -9.138  14.644  69.698  1.00  0.00    -0.037 F  
HETATM   16  C   UNL     1      -9.883  13.050  68.053  1.00  0.00    -0.224 A  
HETATM   17  F   UNL     1      -9.261  15.350  67.649  1.00  0.00    -0.182 F  
HETATM   18  C   UNL     1      -9.361  12.713  66.814  1.00  0.00    -0.232 A  
HETATM   19  C   UNL     1      -9.948  10.394  67.246  1.00  0.00    -0.229 A  
HETATM   20  N   UNL     1     -10.441  12.110  68.862  1.00  0.00    -0.164 NA 
HETATM   21  C   UNL     1      -9.989   9.012  66.950  1.00  0.00    -0.313 A  
HETATM   22  C   UNL     1     -10.470   8.075  67.857  1.00  0.00    -0.259 A  
HETATM   23  C   UNL     1     -11.005   8.513  69.053  1.00  0.00     0.082 A  
HETATM   24  C   UNL     1     -11.049   9.887  69.356  1.00  0.00    -0.237 A  
HETATM   25  C   UNL     1     -11.743  10.288  70.633  1.00  0.00    -0.348 C  
HETATM   26  F   UNL     1     -13.001   9.749  70.694  1.00  0.00    -0.320 F  
HETATM   27  F   UNL     1     -11.921  11.615  70.863  1.00  0.00    -0.430 F  
HETATM   28  F   UNL     1     -11.102   9.802  71.737  1.00  0.00    -0.411 F  
ENDBRANCH   2  11
TORSDOF 2
ENDMDL
MODEL      170
REMARK 921   NORMALIZED FREE ENERGY PREDICTED BY IDOCK:   -1.65 KCAL/MOL
REMARK 922        TOTAL FREE ENERGY PREDICTED BY IDOCK:   -2.58 KCAL/MOL
REMARK 923 INTER-LIGAND FREE ENERGY PREDICTED BY IDOCK:   -2.58 KCAL/MOL
REMARK 924 INTRA-LIGAND FREE ENERGY PREDICTED BY IDOCK:   -0.00 KCAL/MOL
REMARK 927      BINDING AFFINITY PREDICTED BY RF-SCORE:    0.00 PKD
ROOT
HETATM    1  O   UNL     1      -7.570  11.032  69.608  1.00  0.00    -0.345 OA 
HETATM    2  C   UNL     1      -8.997  11.241  69.615  1.00  0.00     0.886 C  
HETATM    3  H   UNL     1      -7.304  10.731  70.469  1.00  0.00     0.000 HD 
ENDROOT
BRANCH   2   4
HETATM    4  C   UNL     1      -9.436  11.739  68.191  1.00  0.00    -0.193 C  
HETATM    5  H   UNL     1      -8.636  12.040  66.307  1.00  0.00     0.000 HD 
HETATM    6  N   UNL     1      -8.315  12.058  67.275  1.00  0.00    -0.169 NA 
HETATM    7  C   UNL     1     -10.421  12.923  68.215  1.00  0.00    -0.250 C  
HETATM    8  C   UNL     1      -9.738  14.257  68.518  1.00  0.00    -0.225 C  
HETATM    9  C   UNL     1      -7.627  13.313  67.554  1.00  0.00    -0.164 C  
HETATM   10  C   UNL     1      -8.595  14.494  67.542  1.00  0.00    -0.198 C  
ENDBRANCH   2   4
BRANCH   2  11
HETATM   11  C   UNL     1      -9.636   9.918  70.051  1.00  0.00    -0.260 A  
HETATM   12  C   UNL     1      -8.432   6.369  70.802  1.00  0.00    -0.135 C  
HETATM   13  C   UNL     1     -11.491   8.494  70.762  1.00  0.00    -0.253 A  
HETATM   14  F   UNL     1      -8.416   5.883  72.077  1.00  0.00    -0.121 F  
HETATM   15  F   UNL     1      -8.802   5.324  70.005  1.00  0.00    -0.111 F  
HETATM   16  C   UNL     1      -9.330   7.588  70.634  1.00  0.00    -0.163 A  
HETATM   17  F   UNL     1      -7.124   6.613  70.491  1.00  0.00    -0.061 F  
HETATM   18  C   UNL     1      -8.801   8.796  70.206  1.00  0.00    -0.171 A  
HETATM   19  C   UNL     1     -11.030   9.759  70.309  1.00  0.00    -0.352 A  
HETATM   20  N   UNL     1     -10.655   7.459  70.914  1.00  0.00    -0.222 NA 
HETATM   21  C   UNL     1     -11.986  10.787  70.132  1.00  0.00    -0.432 A  
HETATM   22  C   UNL     1     -13.345  10.575  70.326  1.00  0.00     0.275 A  
HETATM   23  C   UNL     1     -13.773   9.345  70.790  1.00  0.00     0.160 A  
HETATM   24  C   UNL     1     -12.846   8.317  71.047  1.00  0.00     0.013 A  
HETATM   25  C   UNL     1     -13.382   7.044  71.650  1.00  0.00    -0.285 C  
HETATM   26  F   UNL     1     -14.120   7.308  72.773  1.00  0.00     0.203 F  
HETATM   27  F   UNL     1     -12.482   6.103  72.038  1.00  0.00    -0.384 F  
HETATM   28  F   UNL     1     -14.247   6.405  70.807  1.00  0.00     0.373 F  
ENDBRANCH   2  11
TORSDOF 2
ENDMDL
MODEL      171
REMARK 921   NORMALIZED FREE ENERGY PREDICTED BY IDOCK:   -1.53 KCAL/MOL
REMARK 922        TOTAL FREE ENERGY PREDICTED BY IDOCK:   -2.45 KCAL/MOL
REMARK 923 INTER-LIGAND FREE ENERGY PREDICTED BY IDOCK:   -3.49 KCAL/MOL
REMARK 924 INTRA-LIGAND FREE ENERGY PREDICTED BY IDOCK:    1.05 KCAL/MOL
REMARK 927      BINDING AFFINITY PREDICTED BY RF-SCORE:    0.00 PKD
ROOT
HETATM    1  O   UNL     1      -7.742   5.818  69.345  1.00  0.00    -0.089 OA 
HETATM    2  C   UNL     1      -8.242   4.693  68.593  1.00  0.00    -0.082 C  
HETATM    3  H   UNL     1      -6.891   6.059  68.998  1.00  0.00     0.000 HD 
ENDROOT
BRANCH   2   4
HETATM    4  C   UNL     1      -9.649   4.294  69.166  1.00  0.00    -0.179 C  
HETATM    5  H   UNL     1     -11.442   5.174  69.704  1.00  0.00     0.000 HD 
HETATM    6  N   UNL     1     -10.456   5.431  69.670  1.00  0.00    -0.295 NA 
HETATM    7  C   UNL     1      -9.601   3.192  70.241  1.00  0.00    -0.180 C  
HETATM    8  C   UNL     1      -9.146   3.715  71.605  1.00  0.00    -0.171 C  
HETATM    9  C   UNL     1     -10.030   5.968  70.958  1.00  0.00    -0.187 C  
HETATM   10  C   UNL     1     -10.017   4.886  72.035  1.00  0.00    -0.245 C  
ENDBRANCH   2   4
BRANCH   2  11
HETATM   11  C   UNL     1      -8.251   5.115  67.120  1.00  0.00    -0.107 A  
HETATM   12  C   UNL     1      -9.312   3.554  63.795  1.00  0.00    -0.124 C  
HETATM   13  C   UNL     1      -7.914   6.676  65.270  1.00  0.00    -0.123 A  
HETATM   14  F   UNL     1     -10.412   4.001  63.123  1.00  0.00    -0.185 F  
HETATM   15  F   UNL     1      -8.385   3.252  62.840  1.00  0.00    -0.074 F  
HETATM   16  C   UNL     1      -8.795   4.546  64.829  1.00  0.00    -0.149 A  
HETATM   17  F   UNL     1      -9.680   2.353  64.332  1.00  0.00    -0.142 F  
HETATM   18  C   UNL     1      -8.733   4.195  66.169  1.00  0.00    -0.115 A  
HETATM   19  C   UNL     1      -7.801   6.386  66.655  1.00  0.00    -0.104 A  
HETATM   20  N   UNL     1      -8.398   5.775  64.404  1.00  0.00    -0.111 NA 
HETATM   21  C   UNL     1      -7.238   7.376  67.495  1.00  0.00    -0.094 A  
HETATM   22  C   UNL     1      -6.744   8.575  66.996  1.00  0.00    -0.062 A  
HETATM   23  C   UNL     1      -6.885   8.850  65.650  1.00  0.00    -0.076 A  
HETATM   24  C   UNL     1      -7.505   7.922  64.792  1.00  0.00    -0.095 A  
HETATM   25  C   UNL     1      -7.712   8.343  63.359  1.00  0.00    -0.141 C  
HETATM   26  F   UNL     1      -8.355   9.550  63.293  1.00  0.00    -0.139 F  
HETATM   27  F   UNL     1      -8.438   7.518  62.559  1.00  0.00    -0.138 F  
HETATM   28  F   UNL     1      -6.528   8.542  62.709  1.00  0.00    -0.088 F  
ENDBRANCH   2  11
TORSDOF 2
ENDMDL
MODEL      172
REMARK 921   NORMALIZED FREE ENERGY PREDICTED BY IDOCK:   -1.27 KCAL/MOL
REMARK 922        TOTAL FREE ENERGY PREDICTED BY IDOCK:   -2.16 KCAL/MOL
REMARK 923 INTER-LIGAND FREE ENERGY PREDICTED BY IDOCK:   -2.87 KCAL/MOL
REMARK 924 INTRA-LIGAND FREE ENERGY PREDICTED BY IDOCK:    0.71 KCAL/MOL
REMARK 927      BINDING AFFINITY PREDICTED BY RF-SCORE:    0.00 PKD
ROOT
HETATM    1  O   UNL     1     -11.336  14.232  70.823  1.00  0.00    -0.518 OA 
HETATM    2  C   UNL     1     -11.394  14.148  69.384  1.00  0.00    -0.272 C  
HETATM    3  H   UNL     1     -11.215  13.357  71.172  1.00  0.00     0.000 HD 
ENDROOT
BRANCH   2   4
HETATM    4  C   UNL     1     -11.593  15.595  68.806  1.00  0.00    -0.384 C  
HETATM    5  H   UNL     1     -12.043  16.534  67.018  1.00  0.00     0.000 HD 
HETATM    6  N   UNL     1     -11.585  15.676  67.326  1.00  0.00    -0.041 NA 
HETATM    7  C   UNL     1     -10.615  16.640  69.376  1.00  0.00    -0.333 C  
HETATM    8  C   UNL     1      -9.218  16.540  68.761  1.00  0.00    -0.252 C  
HETATM    9  C   UNL     1     -10.268  15.559  66.709  1.00  0.00    -0.280 C  
HETATM   10  C   UNL     1      -9.306  16.617  67.244  1.00  0.00    -0.234 C  
ENDBRANCH   2   4
BRANCH   2  11
HETATM   11  C   UNL     1     -10.107  13.453  68.928  1.00  0.00    -0.010 A  
HETATM   12  C   UNL     1      -6.427  13.471  69.964  1.00  0.00     0.025 C  
HETATM   13  C   UNL     1      -8.806  11.888  67.574  1.00  0.00    -0.169 A  
HETATM   14  F   UNL     1      -5.863  12.397  70.588  1.00  0.00    -0.156 F  
HETATM   15  F   UNL     1      -5.470  13.965  69.126  1.00  0.00    -0.076 F  
HETATM   16  C   UNL     1      -7.727  13.134  69.244  1.00  0.00     0.445 A  
HETATM   17  F   UNL     1      -6.576  14.418  70.938  1.00  0.00    -0.167 F  
HETATM   18  C   UNL     1      -8.909  13.766  69.598  1.00  0.00     1.305 A  
HETATM   19  C   UNL     1     -10.052  12.505  67.863  1.00  0.00    -0.214 A  
HETATM   20  N   UNL     1      -7.695  12.204  68.253  1.00  0.00    -0.128 NA 
HETATM   21  C   UNL     1     -11.167  12.148  67.070  1.00  0.00    -0.370 A  
HETATM   22  C   UNL     1     -11.061  11.274  65.995  1.00  0.00    -0.181 A  
HETATM   23  C   UNL     1      -9.847  10.664  65.743  1.00  0.00    -0.296 A  
HETATM   24  C   UNL     1      -8.729  10.938  66.555  1.00  0.00    -0.165 A  
HETATM   25  C   UNL     1      -7.471  10.154  66.278  1.00  0.00    -0.112 C  
HETATM   26  F   UNL     1      -7.728   8.809  66.263  1.00  0.00    -0.092 F  
HETATM   27  F   UNL     1      -6.434  10.302  67.143  1.00  0.00    -0.064 F  
HETATM   28  F   UNL     1      -6.963  10.425  65.039  1.00  0.00    -0.130 F  
ENDBRANCH   2  11
TORSDOF 2
ENDMDL
MODEL      173
REMARK 921   NORMALIZED FREE ENERGY PREDICTED BY IDOCK:   -1.19 KCAL/MOL
REMARK 922        TOTAL FREE ENERGY PREDICTED BY IDOCK:   -2.07 KCAL/MOL
REMARK 923 INTER-LIGAND FREE ENERGY PREDICTED BY IDOCK:   -2.35 KCAL/MOL
REMARK 924 INTRA-LIGAND FREE ENERGY PREDICTED BY IDOCK:    0.28 KCAL/MOL
REMARK 927      BINDING AFFINITY PREDICTED BY RF-SCORE:    0.00 PKD
ROOT
HETATM    1  O   UNL     1     -10.357   9.562  65.496  1.00  0.00    -0.238 OA 
HETATM    2  C   UNL     1      -9.130   9.904  66.171  1.00  0.00    -0.158 C  
HETATM    3  H   UNL     1     -10.293   8.665  65.190  1.00  0.00     0.000 HD 
ENDROOT
BRANCH   2   4
HETATM    4  C   UNL     1      -9.234  11.388  66.678  1.00  0.00    -0.181 C  
HETATM    5  H   UNL     1      -8.385  12.638  68.091  1.00  0.00     0.000 HD 
HETATM    6  N   UNL     1      -8.580  11.642  67.984  1.00  0.00    -0.146 NA 
HETATM    7  C   UNL     1     -10.672  11.940  66.716  1.00  0.00    -0.282 C  
HETATM    8  C   UNL     1     -11.471  11.428  67.915  1.00  0.00    -0.361 C  
HETATM    9  C   UNL     1      -9.308  11.144  69.146  1.00  0.00     0.039 C  
HETATM   10  C   UNL     1     -10.721  11.718  69.207  1.00  0.00    -0.117 C  
ENDBRANCH   2   4
BRANCH   2  11
HETATM   11  C   UNL     1      -8.930   8.866  67.281  1.00  0.00    -0.140 A  
HETATM   12  C   UNL     1     -11.174   6.804  69.588  1.00  0.00    -0.292 C  
HETATM   13  C   UNL     1      -7.603   7.393  68.710  1.00  0.00    -0.107 A  
HETATM   14  F   UNL     1     -11.311   5.457  69.423  1.00  0.00    -0.208 F  
HETATM   15  F   UNL     1     -11.174   7.021  70.936  1.00  0.00    -0.264 F  
HETATM   16  C   UNL     1      -9.942   7.374  68.898  1.00  0.00    -0.169 A  
HETATM   17  F   UNL     1     -12.346   7.344  69.138  1.00  0.00     1.011 F  
HETATM   18  C   UNL     1     -10.072   8.342  67.914  1.00  0.00    -0.254 A  
HETATM   19  C   UNL     1      -7.651   8.399  67.709  1.00  0.00    -0.102 A  
HETATM   20  N   UNL     1      -8.719   6.909  69.270  1.00  0.00    -0.135 NA 
HETATM   21  C   UNL     1      -6.425   8.888  67.201  1.00  0.00    -0.061 A  
HETATM   22  C   UNL     1      -5.198   8.460  67.693  1.00  0.00    -0.034 A  
HETATM   23  C   UNL     1      -5.169   7.462  68.649  1.00  0.00    -0.021 A  
HETATM   24  C   UNL     1      -6.366   6.899  69.129  1.00  0.00    -0.028 A  
HETATM   25  C   UNL     1      -6.245   5.745  70.092  1.00  0.00    -0.027 C  
HETATM   26  F   UNL     1      -5.433   4.768  69.583  1.00  0.00    -0.006 F  
HETATM   27  F   UNL     1      -7.386   5.099  70.449  1.00  0.00    -0.055 F  
HETATM   28  F   UNL     1      -5.648   6.119  71.263  1.00  0.00    -0.019 F  
ENDBRANCH   2  11
TORSDOF 2
ENDMDL
MODEL      174
REMARK 921   NORMALIZED FREE ENERGY PREDICTED BY IDOCK:   -1.12 KCAL/MOL
REMARK 922        TOTAL FREE ENERGY PREDICTED BY IDOCK:   -1.99 KCAL/MOL
REMARK 923 INTER-LIGAND FREE ENERGY PREDICTED BY IDOCK:   -3.36 KCAL/MOL
REMARK 924 INTRA-LIGAND FREE ENERGY PREDICTED BY IDOCK:    1.37 KCAL/MOL
REMARK 927      BINDING AFFINITY PREDICTED BY RF-SCORE:    0.00 PKD
ROOT
HETATM    1  O   UNL     1     -10.139  14.532  65.162  1.00  0.00    -0.406 OA 
HETATM    2  C   UNL     1     -10.602  13.825  66.330  1.00  0.00    -0.289 C  
HETATM    3  H   UNL     1      -9.686  15.318  65.443  1.00  0.00     0.000 HD 
ENDROOT
BRANCH   2   4
HETATM    4  C   UNL     1     -11.352  12.525  65.864  1.00  0.00    -0.340 C  
HETATM    5  H   UNL     1     -11.051  10.878  64.649  1.00  0.00     0.000 HD 
HETATM    6  N   UNL     1     -10.748  11.851  64.690  1.00  0.00    -0.292 NA 
HETATM    7  C   UNL     1     -12.859  12.723  65.615  1.00  0.00     0.254 C  
HETATM    8  C   UNL     1     -13.153  13.420  64.286  1.00  0.00     0.525 C  
HETATM    9  C   UNL     1     -10.991  12.507  63.409  1.00  0.00    -0.333 C  
HETATM   10  C   UNL     1     -12.485  12.672  63.142  1.00  0.00    -0.215 C  
ENDBRANCH   2   4
BRANCH   2  11
HETATM   11  C   UNL     1      -9.373  13.570  67.209  1.00  0.00    -0.233 A  
HETATM   12  C   UNL     1      -6.512  15.655  68.650  1.00  0.00    -0.107 C  
HETATM   13  C   UNL     1      -7.898  12.198  68.593  1.00  0.00    -0.078 A  
HETATM   14  F   UNL     1      -6.441  15.933  69.984  1.00  0.00    -0.181 F  
HETATM   15  F   UNL     1      -5.226  15.452  68.239  1.00  0.00    -0.084 F  
HETATM   16  C   UNL     1      -7.429  14.482  68.327  1.00  0.00    -0.120 A  
HETATM   17  F   UNL     1      -6.898  16.824  68.057  1.00  0.00    -0.133 F  
HETATM   18  C   UNL     1      -8.531  14.658  67.506  1.00  0.00    -0.200 A  
HETATM   19  C   UNL     1      -9.034  12.292  67.745  1.00  0.00    -0.177 A  
HETATM   20  N   UNL     1      -7.137  13.267  68.864  1.00  0.00    -0.099 NA 
HETATM   21  C   UNL     1      -9.758  11.108  67.475  1.00  0.00    -0.193 A  
HETATM   22  C   UNL     1      -9.356   9.868  67.958  1.00  0.00    -0.140 A  
HETATM   23  C   UNL     1      -8.263   9.799  68.801  1.00  0.00    -0.108 A  
HETATM   24  C   UNL     1      -7.558  10.966  69.153  1.00  0.00    -0.133 A  
HETATM   25  C   UNL     1      -6.444  10.818  70.159  1.00  0.00    -0.155 C  
HETATM   26  F   UNL     1      -6.885  10.174  71.284  1.00  0.00     0.060 F  
HETATM   27  F   UNL     1      -5.854  11.953  70.616  1.00  0.00    -0.146 F  
HETATM   28  F   UNL     1      -5.429  10.036  69.685  1.00  0.00    -0.037 F  
ENDBRANCH   2  11
TORSDOF 2
ENDMDL
MODEL      175
REMARK 921   NORMALIZED FREE ENERGY PREDICTED BY IDOCK:   -1.07 KCAL/MOL
REMARK 922        TOTAL FREE ENERGY PREDICTED BY IDOCK:   -1.94 KCAL/MOL
REMARK 923 INTER-LIGAND FREE ENERGY PREDICTED BY IDOCK:   -2.69 KCAL/MOL
REMARK 924 INTRA-LIGAND FREE ENERGY PREDICTED BY IDOCK:    0.75 KCAL/MOL
REMARK 927      BINDING AFFINITY PREDICTED BY RF-SCORE:    0.00 PKD
ROOT
HETATM    1  O   UNL     1      -8.712   8.666  72.377  1.00  0.00    -0.336 OA 
HETATM    2  C   UNL     1      -7.630   8.327  71.486  1.00  0.00    -0.092 C  
HETATM    3  H   UNL     1      -9.466   8.917  71.855  1.00  0.00     0.000 HD 
ENDROOT
BRANCH   2   4
HETATM    4  C   UNL     1      -6.384   7.911  72.349  1.00  0.00    -0.057 C  
HETATM    5  H   UNL     1      -5.933   7.255  74.258  1.00  0.00     0.000 HD 
HETATM    6  N   UNL     1      -6.639   7.836  73.807  1.00  0.00    -0.084 NA 
HETATM    7  C   UNL     1      -5.130   8.769  72.097  1.00  0.00    -0.042 C  
HETATM    8  C   UNL     1      -5.201  10.135  72.781  1.00  0.00     0.139 C  
HETATM    9  C   UNL     1      -6.737   9.125  74.483  1.00  0.00     0.149 C  
HETATM   10  C   UNL     1      -5.480   9.964  74.267  1.00  0.00     0.084 C  
ENDBRANCH   2   4
BRANCH   2  11
HETATM   11  C   UNL     1      -8.152   7.229  70.552  1.00  0.00    -0.109 A  
HETATM   12  C   UNL     1     -10.038   7.079  67.231  1.00  0.00    -0.204 C  
HETATM   13  C   UNL     1      -8.465   4.917  69.825  1.00  0.00    -0.083 A  
HETATM   14  F   UNL     1      -9.418   6.678  66.084  1.00  0.00    -0.188 F  
HETATM   15  F   UNL     1     -11.305   6.574  67.171  1.00  0.00    -0.434 F  
HETATM   16  C   UNL     1      -9.294   6.663  68.493  1.00  0.00    -0.125 A  
HETATM   17  F   UNL     1     -10.184   8.432  67.109  1.00  0.00    -0.249 F  
HETATM   18  C   UNL     1      -8.836   7.620  69.386  1.00  0.00    -0.139 A  
HETATM   19  C   UNL     1      -7.983   5.834  70.797  1.00  0.00    -0.113 A  
HETATM   20  N   UNL     1      -9.093   5.337  68.719  1.00  0.00    -0.110 NA 
HETATM   21  C   UNL     1      -7.371   5.307  71.957  1.00  0.00    -0.088 A  
HETATM   22  C   UNL     1      -7.288   3.940  72.194  1.00  0.00    -0.056 A  
HETATM   23  C   UNL     1      -7.740   3.063  71.227  1.00  0.00    -0.047 A  
HETATM   24  C   UNL     1      -8.291   3.547  70.025  1.00  0.00    -0.080 A  
HETATM   25  C   UNL     1      -8.662   2.526  68.980  1.00  0.00    -0.084 C  
HETATM   26  F   UNL     1      -7.609   1.693  68.715  1.00  0.00    -0.042 F  
HETATM   27  F   UNL     1      -9.057   2.986  67.763  1.00  0.00    -0.136 F  
HETATM   28  F   UNL     1      -9.662   1.699  69.406  1.00  0.00    -0.167 F  
ENDBRANCH   2  11
TORSDOF 2
ENDMDL
MODEL      176
REMARK 921   NORMALIZED FREE ENERGY PREDICTED BY IDOCK:    1.14 KCAL/MOL
REMARK 922        TOTAL FREE ENERGY PREDICTED BY IDOCK:    0.54 KCAL/MOL
REMARK 923 INTER-LIGAND FREE ENERGY PREDICTED BY IDOCK:   -0.63 KCAL/MOL
REMARK 924 INTRA-LIGAND FREE ENERGY PREDICTED BY IDOCK:    1.17 KCAL/MOL
REMARK 927      BINDING AFFINITY PREDICTED BY RF-SCORE:    0.00 PKD
ROOT
HETATM    1  O   UNL     1      -9.530  11.345  62.637  1.00  0.00    -0.501 OA 
HETATM    2  C   UNL     1      -9.119  12.061  63.818  1.00  0.00     0.532 C  
HETATM    3  H   UNL     1      -8.847  10.726  62.405  1.00  0.00     0.000 HD 
ENDROOT
BRANCH   2   4
HETATM    4  C   UNL     1     -10.247  13.085  64.201  1.00  0.00    -0.239 C  
HETATM    5  H   UNL     1     -11.401  13.629  65.830  1.00  0.00     0.000 HD 
HETATM    6  N   UNL     1     -10.945  12.788  65.474  1.00  0.00    -0.275 NA 
HETATM    7  C   UNL     1     -11.292  13.313  63.092  1.00  0.00     0.511 C  
HETATM    8  C   UNL     1     -12.303  12.171  62.988  1.00  0.00    -0.150 C  
HETATM    9  C   UNL     1     -11.900  11.687  65.412  1.00  0.00     0.200 C  
HETATM   10  C   UNL     1     -12.959  11.926  64.339  1.00  0.00     0.193 C  
ENDBRANCH   2   4
BRANCH   2  11
HETATM   11  C   UNL     1      -8.823  11.010  64.894  1.00  0.00    -0.066 A  
HETATM   12  C   UNL     1      -8.732   7.194  65.091  1.00  0.00     0.160 C  
HETATM   13  C   UNL     1      -8.151  10.262  67.121  1.00  0.00    -0.121 A  
HETATM   14  F   UNL     1      -7.552   6.520  65.213  1.00  0.00    -0.071 F  
HETATM   15  F   UNL     1      -9.635   6.513  65.856  1.00  0.00    -0.134 F  
HETATM   16  C   UNL     1      -8.626   8.666  65.468  1.00  0.00    -0.175 A  
HETATM   17  F   UNL     1      -9.131   6.992  63.800  1.00  0.00     0.655 F  
HETATM   18  C   UNL     1      -8.920   9.651  64.539  1.00  0.00    -0.278 A  
HETATM   19  C   UNL     1      -8.454  11.329  66.234  1.00  0.00    -0.156 A  
HETATM   20  N   UNL     1      -8.238   8.983  66.732  1.00  0.00    -0.114 NA 
HETATM   21  C   UNL     1      -8.381  12.649  66.737  1.00  0.00    -0.011 A  
HETATM   22  C   UNL     1      -8.087  12.918  68.068  1.00  0.00    -0.159 A  
HETATM   23  C   UNL     1      -7.771  11.870  68.911  1.00  0.00    -0.016 A  
HETATM   24  C   UNL     1      -7.762  10.546  68.432  1.00  0.00    -0.104 A  
HETATM   25  C   UNL     1      -7.306   9.472  69.387  1.00  0.00    -0.084 C  
HETATM   26  F   UNL     1      -6.089   9.787  69.929  1.00  0.00    -0.037 F  
HETATM   27  F   UNL     1      -7.153   8.215  68.894  1.00  0.00    -0.060 F  
HETATM   28  F   UNL     1      -8.144   9.352  70.459  1.00  0.00    -0.128 F  
ENDBRANCH   2  11
TORSDOF 2
ENDMDL
MODEL      177
REMARK 921   NORMALIZED FREE ENERGY PREDICTED BY IDOCK:    1.21 KCAL/MOL
REMARK 922        TOTAL FREE ENERGY PREDICTED BY IDOCK:    0.61 KCAL/MOL
REMARK 923 INTER-LIGAND FREE ENERGY PREDICTED BY IDOCK:   -0.72 KCAL/MOL
REMARK 924 INTRA-LIGAND FREE ENERGY PREDICTED BY IDOCK:    1.33 KCAL/MOL
REMARK 927      BINDING AFFINITY PREDICTED BY RF-SCORE:    0.00 PKD
ROOT
HETATM    1  O   UNL     1      -8.140   8.437  63.563  1.00  0.00    -0.157 OA 
HETATM    2  C   UNL     1      -7.698   9.769  63.895  1.00  0.00    -0.136 C  
HETATM    3  H   UNL     1      -7.664   7.817  64.102  1.00  0.00     0.000 HD 
ENDROOT
BRANCH   2   4
HETATM    4  C   UNL     1      -8.486  10.794  63.003  1.00  0.00    -0.125 C  
HETATM    5  H   UNL     1      -8.767  12.835  62.817  1.00  0.00     0.000 HD 
HETATM    6  N   UNL     1      -8.560  12.167  63.558  1.00  0.00     1.076 NA 
HETATM    7  C   UNL     1      -9.902  10.330  62.612  1.00  0.00     0.009 C  
HETATM    8  C   UNL     1     -10.910  10.480  63.751  1.00  0.00     0.771 C  
HETATM    9  C   UNL     1      -9.497  12.335  64.664  1.00  0.00     0.241 C  
HETATM   10  C   UNL     1     -10.909  11.911  64.268  1.00  0.00    -0.396 C  
ENDBRANCH   2   4
BRANCH   2  11
HETATM   11  C   UNL     1      -7.909   9.943  65.403  1.00  0.00    -0.132 A  
HETATM   12  C   UNL     1      -6.556  12.234  68.147  1.00  0.00    -0.067 C  
HETATM   13  C   UNL     1      -8.960   9.452  67.554  1.00  0.00    -0.121 A  
HETATM   14  F   UNL     1      -7.338  13.197  68.714  1.00  0.00    -0.100 F  
HETATM   15  F   UNL     1      -5.785  11.733  69.156  1.00  0.00    -0.053 F  
HETATM   16  C   UNL     1      -7.355  11.159  67.423  1.00  0.00    -0.108 A  
HETATM   17  F   UNL     1      -5.688  12.906  67.333  1.00  0.00    -0.127 F  
HETATM   18  C   UNL     1      -7.170  10.940  66.066  1.00  0.00    -0.071 A  
HETATM   19  C   UNL     1      -8.814   9.154  66.173  1.00  0.00    -0.187 A  
HETATM   20  N   UNL     1      -8.248  10.424  68.138  1.00  0.00    -0.113 NA 
HETATM   21  C   UNL     1      -9.570   8.082  65.644  1.00  0.00     0.325 A  
HETATM   22  C   UNL     1     -10.388   7.289  66.440  1.00  0.00     0.068 A  
HETATM   23  C   UNL     1     -10.537   7.609  67.776  1.00  0.00    -0.265 A  
HETATM   24  C   UNL     1      -9.857   8.712  68.326  1.00  0.00    -0.186 A  
HETATM   25  C   UNL     1     -10.156   9.055  69.764  1.00  0.00    -0.200 C  
HETATM   26  F   UNL     1     -11.504   9.181  69.966  1.00  0.00    -0.237 F  
HETATM   27  F   UNL     1      -9.620  10.201  70.262  1.00  0.00    -0.263 F  
HETATM   28  F   UNL     1      -9.766   8.062  70.617  1.00  0.00    -0.170 F  
ENDBRANCH   2  11
TORSDOF 2
ENDMDL
MODEL      178
REMARK 921   NORMALIZED FREE ENERGY PREDICTED BY IDOCK:    1.24 KCAL/MOL
REMARK 922        TOTAL FREE ENERGY PREDICTED BY IDOCK:    0.64 KCAL/MOL
REMARK 923 INTER-LIGAND FREE ENERGY PREDICTED BY IDOCK:    0.42 KCAL/MOL
REMARK 924 INTRA-LIGAND FREE ENERGY PREDICTED BY IDOCK:    0.23 KCAL/MOL
REMARK 927      BINDING AFFINITY PREDICTED BY RF-SCORE:    0.00 PKD
ROOT
HETATM    1  O   UNL     1      -9.487   6.065  72.094  1.00  0.00    -0.149 OA 
HETATM    2  C   UNL     1      -8.276   6.375  71.376  1.00  0.00    -0.121 C  
HETATM    3  H   UNL     1      -9.657   6.762  72.717  1.00  0.00     0.000 HD 
ENDROOT
BRANCH   2   4
HETATM    4  C   UNL     1      -7.996   5.223  70.346  1.00  0.00    -0.091 C  
HETATM    5  H   UNL     1      -8.882   3.498  69.626  1.00  0.00     0.000 HD 
HETATM    6  N   UNL     1      -8.873   4.036  70.492  1.00  0.00    -0.079 NA 
HETATM    7  C   UNL     1      -6.526   4.763  70.301  1.00  0.00    -0.034 C  
HETATM    8  C   UNL     1      -6.151   3.861  71.477  1.00  0.00    -0.014 C  
HETATM    9  C   UNL     1      -8.555   3.169  71.621  1.00  0.00    -0.069 C  
HETATM   10  C   UNL     1      -7.109   2.682  71.560  1.00  0.00    -0.032 C  
ENDBRANCH   2   4
BRANCH   2  11
HETATM   11  C   UNL     1      -8.478   7.757  70.744  1.00  0.00    -0.121 A  
HETATM   12  C   UNL     1      -6.393  10.929  70.287  1.00  0.00    -0.135 C  
HETATM   13  C   UNL     1      -9.721   9.453  69.500  1.00  0.00    -0.183 A  
HETATM   14  F   UNL     1      -5.925  11.296  69.060  1.00  0.00    -0.041 F  
HETATM   15  F   UNL     1      -6.739  12.088  70.921  1.00  0.00     0.634 F  
HETATM   16  C   UNL     1      -7.539   9.927  70.219  1.00  0.00    -0.158 A  
HETATM   17  F   UNL     1      -5.303  10.461  70.965  1.00  0.00    -0.058 F  
HETATM   18  C   UNL     1      -7.415   8.678  70.809  1.00  0.00    -0.080 A  
HETATM   19  C   UNL     1      -9.680   8.164  70.094  1.00  0.00    -0.175 A  
HETATM   20  N   UNL     1      -8.677  10.289  69.569  1.00  0.00    -0.167 NA 
HETATM   21  C   UNL     1     -10.842   7.361  70.014  1.00  0.00    -0.266 A  
HETATM   22  C   UNL     1     -12.019   7.818  69.435  1.00  0.00     1.274 A  
HETATM   23  C   UNL     1     -12.034   9.066  68.840  1.00  0.00     1.770 A  
HETATM   24  C   UNL     1     -10.876   9.868  68.834  1.00  0.00    -0.239 A  
HETATM   25  C   UNL     1     -10.945  11.168  68.074  1.00  0.00    -0.252 C  
HETATM   26  F   UNL     1     -11.384  10.962  66.794  1.00  0.00    -0.317 F  
HETATM   27  F   UNL     1      -9.796  11.880  67.938  1.00  0.00    -0.172 F  
HETATM   28  F   UNL     1     -11.854  12.030  68.619  1.00  0.00    -0.309 F  
ENDBRANCH   2  11
TORSDOF 2
ENDMDL
MODEL      179
REMARK 921   NORMALIZED FREE ENERGY PREDICTED BY IDOCK:    2.30 KCAL/MOL
REMARK 922        TOTAL FREE ENERGY PREDICTED BY IDOCK:    1.83 KCAL/MOL
REMARK 923 INTER-LIGAND FREE ENERGY PREDICTED BY IDOCK:   -1.22 KCAL/MOL
REMARK 924 INTRA-LIGAND FREE ENERGY PREDICTED BY IDOCK:    3.04 KCAL/MOL
REMARK 927      BINDING AFFINITY PREDICTED BY RF-SCORE:    0.00 PKD
ROOT
HETATM    1  O   UNL     1     -10.356  14.537  65.734  1.00  0.00    -0.298 OA 
HETATM    2  C   UNL     1     -10.765  14.223  67.080  1.00  0.00    -0.290 C  
HETATM    3  H   UNL     1      -9.474  14.889  65.760  1.00  0.00     0.000 HD 
ENDROOT
BRANCH   2   4
HETATM    4  C   UNL     1     -12.224  13.642  67.037  1.00  0.00    -0.329 C  
HETATM    5  H   UNL     1     -13.199  11.818  67.056  1.00  0.00     0.000 HD 
HETATM    6  N   UNL     1     -12.304  12.192  66.743  1.00  0.00    -0.178 NA 
HETATM    7  C   UNL     1     -13.176  14.402  66.094  1.00  0.00     0.972 C  
HETATM    8  C   UNL     1     -12.950  14.059  64.621  1.00  0.00     0.172 C  
HETATM    9  C   UNL     1     -12.068  11.830  65.349  1.00  0.00     0.328 C  
HETATM   10  C   UNL     1     -13.034  12.554  64.414  1.00  0.00    -0.248 C  
ENDBRANCH   2   4
BRANCH   2  11
HETATM   11  C   UNL     1      -9.715  13.262  67.649  1.00  0.00    -0.219 A  
HETATM   12  C   UNL     1      -5.913  12.900  67.493  1.00  0.00    -0.128 C  
HETATM   13  C   UNL     1      -8.958  11.372  69.000  1.00  0.00     0.090 A  
HETATM   14  F   UNL     1      -5.133  13.160  68.581  1.00  0.00    -0.063 F  
HETATM   15  F   UNL     1      -5.340  11.831  66.866  1.00  0.00    -0.083 F  
HETATM   16  C   UNL     1      -7.377  12.665  67.845  1.00  0.00    -0.116 A  
HETATM   17  F   UNL     1      -5.721  13.957  66.649  1.00  0.00     1.041 F  
HETATM   18  C   UNL     1      -8.364  13.486  67.323  1.00  0.00    -0.188 A  
HETATM   19  C   UNL     1     -10.028  12.155  68.492  1.00  0.00    -0.180 A  
HETATM   20  N   UNL     1      -7.685  11.635  68.678  1.00  0.00    -0.136 NA 
HETATM   21  C   UNL     1     -11.346  11.783  68.845  1.00  0.00    -0.326 A  
HETATM   22  C   UNL     1     -11.617  10.655  69.610  1.00  0.00    -0.368 A  
HETATM   23  C   UNL     1     -10.562   9.919  70.117  1.00  0.00    -0.350 A  
HETATM   24  C   UNL     1      -9.233  10.298  69.848  1.00  0.00    -0.020 A  
HETATM   25  C   UNL     1      -8.143   9.504  70.523  1.00  0.00    -0.166 C  
HETATM   26  F   UNL     1      -8.352   9.440  71.874  1.00  0.00     0.053 F  
HETATM   27  F   UNL     1      -6.865   9.949  70.389  1.00  0.00    -0.085 F  
HETATM   28  F   UNL     1      -8.128   8.203  70.110  1.00  0.00    -0.102 F  
ENDBRANCH   2  11
TORSDOF 2
ENDMDL
MODEL      180
REMARK 921   NORMALIZED FREE ENERGY PREDICTED BY IDOCK:    3.35 KCAL/MOL
REMARK 922        TOTAL FREE ENERGY PREDICTED BY IDOCK:    3.00 KCAL/MOL
REMARK 923 INTER-LIGAND FREE ENERGY PREDICTED BY IDOCK:    2.01 KCAL/MOL
REMARK 924 INTRA-LIGAND FREE ENERGY PREDICTED BY IDOCK:    0.99 KCAL/MOL
REMARK 927      BINDING AFFINITY PREDICTED BY RF-SCORE:    0.00 PKD
ROOT
HETATM    1  O   UNL     1     -11.312  13.350  67.547  1.00  0.00    -0.273 OA 
HETATM    2  C   UNL     1     -11.529  14.672  67.015  1.00  0.00    -0.368 C  
HETATM    3  H   UNL     1     -10.708  12.889  66.976  1.00  0.00     0.000 HD 
ENDROOT
BRANCH   2   4
HETATM    4  C   UNL     1     -12.527  15.434  67.959  1.00  0.00     0.852 C  
HETATM    5  H   UNL     1     -12.739  17.276  68.875  1.00  0.00     0.000 HD 
HETATM    6  N   UNL     1     -11.979  16.669  68.569  1.00  0.00     0.390 NA 
HETATM    7  C   UNL     1     -13.145  14.555  69.062  1.00  0.00     1.609 C  
HETATM    8  C   UNL     1     -12.181  14.294  70.220  1.00  0.00    -0.407 C  
HETATM    9  C   UNL     1     -11.037  16.452  69.661  1.00  0.00    -0.306 C  
HETATM   10  C   UNL     1     -11.658  15.612  70.775  1.00  0.00    -0.412 C  
ENDBRANCH   2   4
BRANCH   2  11
HETATM   11  C   UNL     1     -10.150  15.329  66.884  1.00  0.00    -0.257 A  
HETATM   12  C   UNL     1      -6.532  14.360  67.648  1.00  0.00    -0.131 C  
HETATM   13  C   UNL     1      -8.609  17.108  66.230  1.00  0.00    -0.241 A  
HETATM   14  F   UNL     1      -5.643  14.103  66.646  1.00  0.00     1.129 F  
HETATM   15  F   UNL     1      -5.827  15.009  68.620  1.00  0.00    -0.082 F  
HETATM   16  C   UNL     1      -7.754  15.141  67.181  1.00  0.00    -0.188 A  
HETATM   17  F   UNL     1      -6.839  13.140  68.181  1.00  0.00    -0.075 F  
HETATM   18  C   UNL     1      -9.025  14.602  67.314  1.00  0.00    -0.216 A  
HETATM   19  C   UNL     1      -9.942  16.635  66.350  1.00  0.00    -0.316 A  
HETATM   20  N   UNL     1      -7.566  16.372  66.635  1.00  0.00    -0.251 NA 
HETATM   21  C   UNL     1     -10.989  17.493  65.940  1.00  0.00     0.198 A  
HETATM   22  C   UNL     1     -10.752  18.787  65.490  1.00  0.00    -0.016 A  
HETATM   23  C   UNL     1      -9.447  19.222  65.357  1.00  0.00     1.032 A  
HETATM   24  C   UNL     1      -8.373  18.373  65.687  1.00  0.00     0.556 A  
HETATM   25  C   UNL     1      -6.982  18.886  65.414  1.00  0.00    -0.102 C  
HETATM   26  F   UNL     1      -6.866  19.315  64.119  1.00  0.00     0.282 F  
HETATM   27  F   UNL     1      -5.947  18.024  65.590  1.00  0.00    -0.202 F  
HETATM   28  F   UNL     1      -6.685  19.983  66.172  1.00  0.00    -0.198 F  
ENDBRANCH   2  11
TORSDOF 2
ENDMDL
MODEL      181
REMARK 921   NORMALIZED FREE ENERGY PREDICTED BY IDOCK:    3.60 KCAL/MOL
REMARK 922        TOTAL FREE ENERGY PREDICTED BY IDOCK:    3.28 KCAL/MOL
REMARK 923 INTER-LIGAND FREE ENERGY PREDICTED BY IDOCK:    3.22 KCAL/MOL
REMARK 924 INTRA-LIGAND FREE ENERGY PREDICTED BY IDOCK:    0.06 KCAL/MOL
REMARK 927      BINDING AFFINITY PREDICTED BY RF-SCORE:    0.00 PKD
ROOT
HETATM    1  O   UNL     1      -8.522  12.171  65.693  1.00  0.00    -0.165 OA 
HETATM    2  C   UNL     1      -9.026  12.164  67.044  1.00  0.00    -0.201 C  
HETATM    3  H   UNL     1      -9.084  12.723  65.163  1.00  0.00     0.000 HD 
ENDROOT
BRANCH   2   4
HETATM    4  C   UNL     1      -8.095  11.251  67.920  1.00  0.00    -0.121 C  
HETATM    5  H   UNL     1      -6.091  11.008  68.370  1.00  0.00     0.000 HD 
HETATM    6  N   UNL     1      -6.654  11.335  67.585  1.00  0.00    -0.068 NA 
HETATM    7  C   UNL     1      -8.521   9.771  67.958  1.00  0.00    -0.118 C  
HETATM    8  C   UNL     1      -8.140   9.013  66.686  1.00  0.00    -0.107 C  
HETATM    9  C   UNL     1      -6.263  10.640  66.362  1.00  0.00    -0.108 C  
HETATM   10  C   UNL     1      -6.651   9.164  66.411  1.00  0.00    -0.067 C  
ENDBRANCH   2   4
BRANCH   2  11
HETATM   11  C   UNL     1      -9.093  13.626  67.499  1.00  0.00    -0.213 A  
HETATM   12  C   UNL     1      -6.873  16.725  67.218  1.00  0.00    -0.171 C  
HETATM   13  C   UNL     1     -10.159  15.567  68.533  1.00  0.00    -0.211 A  
HETATM   14  F   UNL     1      -7.218  17.772  66.415  1.00  0.00    -0.218 F  
HETATM   15  F   UNL     1      -6.300  17.275  68.329  1.00  0.00    -0.148 F  
HETATM   16  C   UNL     1      -8.043  15.808  67.548  1.00  0.00    -0.159 A  
HETATM   17  F   UNL     1      -5.853  16.090  66.566  1.00  0.00     0.163 F  
HETATM   18  C   UNL     1      -8.010  14.469  67.189  1.00  0.00    -0.167 A  
HETATM   19  C   UNL     1     -10.192  14.182  68.218  1.00  0.00    -0.243 A  
HETATM   20  N   UNL     1      -9.114  16.335  68.200  1.00  0.00    -0.186 NA 
HETATM   21  C   UNL     1     -11.313  13.433  68.645  1.00  0.00    -0.322 A  
HETATM   22  C   UNL     1     -12.332  13.994  69.406  1.00  0.00    -0.247 A  
HETATM   23  C   UNL     1     -12.296  15.347  69.683  1.00  0.00    -0.250 A  
HETATM   24  C   UNL     1     -11.233  16.143  69.214  1.00  0.00    -0.337 A  
HETATM   25  C   UNL     1     -11.322  17.627  69.469  1.00  0.00     1.760 C  
HETATM   26  F   UNL     1     -12.518  18.127  69.029  1.00  0.00     4.396 F  
HETATM   27  F   UNL     1     -10.380  18.422  68.897  1.00  0.00    -0.375 F  
HETATM   28  F   UNL     1     -11.293  17.918  70.804  1.00  0.00     1.105 F  
ENDBRANCH   2  11
TORSDOF 2
ENDMDL
MODEL      182
REMARK 921   NORMALIZED FREE ENERGY PREDICTED BY IDOCK:    4.68 KCAL/MOL
REMARK 922        TOTAL FREE ENERGY PREDICTED BY IDOCK:    4.48 KCAL/MOL
REMARK 923 INTER-LIGAND FREE ENERGY PREDICTED BY IDOCK:    3.16 KCAL/MOL
REMARK 924 INTRA-LIGAND FREE ENERGY PREDICTED BY IDOCK:    1.32 KCAL/MOL
REMARK 927      BINDING AFFINITY PREDICTED BY RF-SCORE:    0.00 PKD
ROOT
HETATM    1  O   UNL     1      -8.845   7.849  64.500  1.00  0.00    -0.362 OA 
HETATM    2  C   UNL     1      -8.766   8.560  65.752  1.00  0.00    -0.179 C  
HETATM    3  H   UNL     1      -8.064   7.316  64.404  1.00  0.00     0.000 HD 
ENDROOT
BRANCH   2   4
HETATM    4  C   UNL     1     -10.057   9.441  65.909  1.00  0.00    -0.173 C  
HETATM    5  H   UNL     1     -10.668  11.202  66.807  1.00  0.00     0.000 HD 
HETATM    6  N   UNL     1      -9.977  10.470  66.974  1.00  0.00    -0.193 NA 
HETATM    7  C   UNL     1     -11.355   8.630  66.086  1.00  0.00     3.472 C  
HETATM    8  C   UNL     1     -11.513   8.068  67.499  1.00  0.00     1.334 C  
HETATM    9  C   UNL     1     -10.101   9.960  68.335  1.00  0.00    -0.167 C  
HETATM   10  C   UNL     1     -11.404   9.187  68.524  1.00  0.00     0.439 C  
ENDBRANCH   2   4
BRANCH   2  11
HETATM   11  C   UNL     1      -8.578   7.506  66.848  1.00  0.00    -0.124 A  
HETATM   12  C   UNL     1      -7.133   7.412  70.386  1.00  0.00    -0.064 C  
HETATM   13  C   UNL     1      -8.811   5.282  67.833  1.00  0.00    -0.105 A  
HETATM   14  F   UNL     1      -7.941   7.275  71.477  1.00  0.00    -0.096 F  
HETATM   15  F   UNL     1      -6.006   6.693  70.660  1.00  0.00    -0.024 F  
HETATM   16  C   UNL     1      -7.802   6.992  69.084  1.00  0.00    -0.114 A  
HETATM   17  F   UNL     1      -6.735   8.720  70.394  1.00  0.00    -0.036 F  
HETATM   18  C   UNL     1      -7.961   7.902  68.050  1.00  0.00    -0.128 A  
HETATM   19  C   UNL     1      -8.992   6.147  66.722  1.00  0.00    -0.125 A  
HETATM   20  N   UNL     1      -8.237   5.708  68.965  1.00  0.00    -0.100 NA 
HETATM   21  C   UNL     1      -9.567   5.606  65.548  1.00  0.00     0.157 A  
HETATM   22  C   UNL     1      -9.893   4.260  65.437  1.00  0.00    -0.218 A  
HETATM   23  C   UNL     1      -9.733   3.438  66.536  1.00  0.00     0.015 A  
HETATM   24  C   UNL     1      -9.231   3.953  67.747  1.00  0.00    -0.206 A  
HETATM   25  C   UNL     1      -9.186   3.016  68.927  1.00  0.00    -0.163 C  
HETATM   26  F   UNL     1     -10.407   2.430  69.131  1.00  0.00     0.481 F  
HETATM   27  F   UNL     1      -8.843   3.538  70.133  1.00  0.00    -0.100 F  
HETATM   28  F   UNL     1      -8.330   1.972  68.717  1.00  0.00    -0.063 F  
ENDBRANCH   2  11
TORSDOF 2
ENDMDL
MODEL      183
REMARK 921   NORMALIZED FREE ENERGY PREDICTED BY IDOCK:    6.32 KCAL/MOL
REMARK 922        TOTAL FREE ENERGY PREDICTED BY IDOCK:    6.32 KCAL/MOL
REMARK 923 INTER-LIGAND FREE ENERGY PREDICTED BY IDOCK:    5.27 KCAL/MOL
REMARK 924 INTRA-LIGAND FREE ENERGY PREDICTED BY IDOCK:    1.05 KCAL/MOL
REMARK 927      BINDING AFFINITY PREDICTED BY RF-SCORE:    0.00 PKD
ROOT
HETATM    1  O   UNL     1      -7.733  12.833  67.011  1.00  0.00    -0.352 OA 
HETATM    2  C   UNL     1      -8.457  13.979  66.519  1.00  0.00     0.308 C  
HETATM    3  H   UNL     1      -6.830  13.087  67.162  1.00  0.00     0.000 HD 
ENDROOT
BRANCH   2   4
HETATM    4  C   UNL     1      -9.950  13.559  66.269  1.00  0.00    -0.298 C  
HETATM    5  H   UNL     1     -11.717  13.312  67.315  1.00  0.00     0.000 HD 
HETATM    6  N   UNL     1     -10.716  13.241  67.497  1.00  0.00    -0.248 NA 
HETATM    7  C   UNL     1     -10.119  12.412  65.255  1.00  0.00    -0.285 C  
HETATM    8  C   UNL     1      -9.788  11.043  65.850  1.00  0.00    -0.278 C  
HETATM    9  C   UNL     1     -10.405  11.950  68.102  1.00  0.00    -0.199 C  
HETATM   10  C   UNL     1     -10.607  10.807  67.111  1.00  0.00    -0.306 C  
ENDBRANCH   2   4
BRANCH   2  11
HETATM   11  C   UNL     1      -8.275  15.095  67.555  1.00  0.00    -0.196 A  
HETATM   12  C   UNL     1     -10.003  18.396  68.408  1.00  0.00    -0.379 C  
HETATM   13  C   UNL     1      -7.236  16.154  69.497  1.00  0.00    -0.136 A  
HETATM   14  F   UNL     1     -10.750  18.531  69.542  1.00  0.00     0.097 F  
HETATM   15  F   UNL     1      -9.355  19.586  68.240  1.00  0.00    -0.353 F  
HETATM   16  C   UNL     1      -9.054  17.206  68.451  1.00  0.00    -0.263 A  
HETATM   17  F   UNL     1     -10.907  18.332  67.385  1.00  0.00    -0.412 F  
HETATM   18  C   UNL     1      -9.157  16.191  67.512  1.00  0.00    -0.207 A  
HETATM   19  C   UNL     1      -7.264  15.086  68.560  1.00  0.00    -0.115 A  
HETATM   20  N   UNL     1      -8.109  17.167  69.428  1.00  0.00     0.138 NA 
HETATM   21  C   UNL     1      -6.278  14.078  68.676  1.00  0.00    -0.088 A  
HETATM   22  C   UNL     1      -5.265  14.140  69.625  1.00  0.00    -0.091 A  
HETATM   23  C   UNL     1      -5.267  15.172  70.543  1.00  0.00    -0.129 A  
HETATM   24  C   UNL     1      -6.273  16.157  70.508  1.00  0.00     0.303 A  
HETATM   25  C   UNL     1      -6.264  17.189  71.607  1.00  0.00     2.595 C  
HETATM   26  F   UNL     1      -6.231  16.590  72.838  1.00  0.00     1.952 F  
HETATM   27  F   UNL     1      -7.310  18.054  71.668  1.00  0.00     4.475 F  
HETATM   28  F   UNL     1      -5.141  17.966  71.568  1.00  0.00    -0.263 F  
ENDBRANCH   2  11
TORSDOF 2
ENDMDL
MODEL      184
REMARK 921   NORMALIZED FREE ENERGY PREDICTED BY IDOCK:    6.88 KCAL/MOL
REMARK 922        TOTAL FREE ENERGY PREDICTED BY IDOCK:    6.95 KCAL/MOL
REMARK 923 INTER-LIGAND FREE ENERGY PREDICTED BY IDOCK:    5.30 KCAL/MOL
REMARK 924 INTRA-LIGAND FREE ENERGY PREDICTED BY IDOCK:    1.65 KCAL/MOL
REMARK 927      BINDING AFFINITY PREDICTED BY RF-SCORE:    0.00 PKD
ROOT
HETATM    1  O   UNL     1      -9.723   6.564  64.522  1.00  0.00     1.286 OA 
HETATM    2  C   UNL     1      -9.508   7.008  65.877  1.00  0.00     0.193 C  
HETATM    3  H   UNL     1     -10.422   7.083  64.141  1.00  0.00     0.000 HD 
ENDROOT
BRANCH   2   4
HETATM    4  C   UNL     1      -8.352   6.150  66.507  1.00  0.00    -0.113 C  
HETATM    5  H   UNL     1      -6.366   6.337  67.055  1.00  0.00     0.000 HD 
HETATM    6  N   UNL     1      -6.998   6.736  66.362  1.00  0.00    -0.061 NA 
HETATM    7  C   UNL     1      -8.324   4.686  66.031  1.00  0.00    -0.114 C  
HETATM    8  C   UNL     1      -7.732   4.531  64.629  1.00  0.00    -0.081 C  
HETATM    9  C   UNL     1      -6.418   6.626  65.028  1.00  0.00    -0.042 C  
HETATM   10  C   UNL     1      -6.353   5.171  64.567  1.00  0.00    -0.034 C  
ENDBRANCH   2   4
BRANCH   2  11
HETATM   11  C   UNL     1      -9.220   8.512  65.810  1.00  0.00    -0.210 A  
HETATM   12  C   UNL     1      -6.319  10.734  64.688  1.00  0.00     0.218 C  
HETATM   13  C   UNL     1      -9.784  10.878  66.048  1.00  0.00    -0.224 A  
HETATM   14  F   UNL     1      -6.405  11.490  63.556  1.00  0.00     0.802 F  
HETATM   15  F   UNL     1      -5.628  11.487  65.593  1.00  0.00    -0.069 F  
HETATM   16  C   UNL     1      -7.675  10.278  65.211  1.00  0.00    -0.144 A  
HETATM   17  F   UNL     1      -5.485   9.700  64.369  1.00  0.00    -0.056 F  
HETATM   18  C   UNL     1      -7.966   8.927  65.324  1.00  0.00    -0.116 A  
HETATM   19  C   UNL     1     -10.151   9.516  66.212  1.00  0.00    -0.327 A  
HETATM   20  N   UNL     1      -8.585  11.226  65.562  1.00  0.00    -0.053 NA 
HETATM   21  C   UNL     1     -11.417   9.234  66.774  1.00  0.00     1.982 A  
HETATM   22  C   UNL     1     -12.269  10.238  67.220  1.00  0.00     3.605 A  
HETATM   23  C   UNL     1     -11.906  11.558  67.030  1.00  0.00     0.065 A  
HETATM   24  C   UNL     1     -10.685  11.881  66.409  1.00  0.00    -0.303 A  
HETATM   25  C   UNL     1     -10.413  13.341  66.145  1.00  0.00    -0.293 C  
HETATM   26  F   UNL     1     -11.455  13.917  65.469  1.00  0.00    -0.306 F  
HETATM   27  F   UNL     1      -9.309  13.654  65.417  1.00  0.00    -0.056 F  
HETATM   28  F   UNL     1     -10.310  14.058  67.303  1.00  0.00    -0.254 F  
ENDBRANCH   2  11
TORSDOF 2
ENDMDL
MODEL      185
REMARK 921   NORMALIZED FREE ENERGY PREDICTED BY IDOCK:    9.12 KCAL/MOL
REMARK 922        TOTAL FREE ENERGY PREDICTED BY IDOCK:    9.45 KCAL/MOL
REMARK 923 INTER-LIGAND FREE ENERGY PREDICTED BY IDOCK:    7.48 KCAL/MOL
REMARK 924 INTRA-LIGAND FREE ENERGY PREDICTED BY IDOCK:    1.97 KCAL/MOL
REMARK 927      BINDING AFFINITY PREDICTED BY RF-SCORE:    0.00 PKD
ROOT
HETATM    1  O   UNL     1      -9.729  15.399  68.557  1.00  0.00    -0.196 OA 
HETATM    2  C   UNL     1      -8.578  14.539  68.681  1.00  0.00    -0.168 C  
HETATM    3  H   UNL     1      -9.695  15.832  67.712  1.00  0.00     0.000 HD 
ENDROOT
BRANCH   2   4
HETATM    4  C   UNL     1      -8.635  13.824  70.078  1.00  0.00     2.272 C  
HETATM    5  H   UNL     1      -7.529  13.671  71.820  1.00  0.00     0.000 HD 
HETATM    6  N   UNL     1      -7.356  13.830  70.827  1.00  0.00     1.597 NA 
HETATM    7  C   UNL     1      -9.186  12.387  70.028  1.00  0.00     3.427 C  
HETATM    8  C   UNL     1      -8.162  11.378  69.505  1.00  0.00     0.549 C  
HETATM    9  C   UNL     1      -6.350  12.894  70.337  1.00  0.00     0.220 C  
HETATM   10  C   UNL     1      -6.880  11.463  70.320  1.00  0.00     0.493 C  
ENDBRANCH   2   4
BRANCH   2  11
HETATM   11  C   UNL     1      -8.605  13.589  67.479  1.00  0.00    -0.193 A  
HETATM   12  C   UNL     1      -6.248  11.009  65.929  1.00  0.00    -0.037 C  
HETATM   13  C   UNL     1      -9.633  12.513  65.540  1.00  0.00    -0.043 A  
HETATM   14  F   UNL     1      -6.515   9.673  66.003  1.00  0.00    -0.070 F  
HETATM   15  F   UNL     1      -5.701  11.216  64.696  1.00  0.00    -0.032 F  
HETATM   16  C   UNL     1      -7.469  11.882  66.190  1.00  0.00     0.575 A  
HETATM   17  F   UNL     1      -5.229  11.223  66.814  1.00  0.00    -0.053 F  
HETATM   18  C   UNL     1      -7.475  12.783  67.244  1.00  0.00    -0.101 A  
HETATM   19  C   UNL     1      -9.710  13.473  66.584  1.00  0.00    -0.281 A  
HETATM   20  N   UNL     1      -8.543  11.754  65.367  1.00  0.00     0.332 NA 
HETATM   21  C   UNL     1     -10.878  14.266  66.669  1.00  0.00    -0.301 A  
HETATM   22  C   UNL     1     -11.904  14.174  65.737  1.00  0.00    -0.385 A  
HETATM   23  C   UNL     1     -11.824  13.218  64.742  1.00  0.00    -0.411 A  
HETATM   24  C   UNL     1     -10.710  12.360  64.665  1.00  0.00    -0.339 A  
HETATM   25  C   UNL     1     -10.748  11.278  63.616  1.00  0.00    -0.367 C  
HETATM   26  F   UNL     1     -11.903  10.548  63.710  1.00  0.00     1.029 F  
HETATM   27  F   UNL     1      -9.750  10.355  63.627  1.00  0.00    -0.292 F  
HETATM   28  F   UNL     1     -10.764  11.793  62.351  1.00  0.00     0.251 F  
ENDBRANCH   2  11
TORSDOF 2
ENDMDL
MODEL      186
REMARK 921   NORMALIZED FREE ENERGY PREDICTED BY IDOCK:    9.65 KCAL/MOL
REMARK 922        TOTAL FREE ENERGY PREDICTED BY IDOCK:   10.03 KCAL/MOL
REMARK 923 INTER-LIGAND FREE ENERGY PREDICTED BY IDOCK:    2.41 KCAL/MOL
REMARK 924 INTRA-LIGAND FREE ENERGY PREDICTED BY IDOCK:    7.63 KCAL/MOL
REMARK 927      BINDING AFFINITY PREDICTED BY RF-SCORE:    0.00 PKD
ROOT
HETATM    1  O   UNL     1      -6.315  13.221  70.954  1.00  0.00    -0.495 OA 
HETATM    2  C   UNL     1      -7.663  13.093  70.461  1.00  0.00     3.738 C  
HETATM    3  H   UNL     1      -6.104  12.448  71.464  1.00  0.00     0.000 HD 
ENDROOT
BRANCH   2   4
HETATM    4  C   UNL     1      -8.012  14.371  69.617  1.00  0.00     0.335 C  
HETATM    5  H   UNL     1      -9.548  15.736  69.379  1.00  0.00     0.000 HD 
HETATM    6  N   UNL     1      -9.443  14.755  69.640  1.00  0.00     0.084 NA 
HETATM    7  C   UNL     1      -7.527  14.312  68.156  1.00  0.00    -0.131 C  
HETATM    8  C   UNL     1      -8.415  13.435  67.273  1.00  0.00    -0.205 C  
HETATM    9  C   UNL     1     -10.320  13.921  68.825  1.00  0.00    -0.206 C  
HETATM   10  C   UNL     1      -9.864  13.890  67.368  1.00  0.00    -0.237 C  
ENDBRANCH   2   4
BRANCH   2  11
HETATM   11  C   UNL     1      -7.725  11.777  69.677  1.00  0.00     0.722 A  
HETATM   12  C   UNL     1      -9.329  10.556  66.429  1.00  0.00    -0.168 C  
HETATM   13  C   UNL     1      -7.159   9.440  69.242  1.00  0.00    -0.058 A  
HETATM   14  F   UNL     1      -8.573  10.272  65.330  1.00  0.00    -0.140 F  
HETATM   15  F   UNL     1     -10.326   9.623  66.452  1.00  0.00    -0.307 F  
HETATM   16  C   UNL     1      -8.523  10.592  67.721  1.00  0.00    -0.116 A  
HETATM   17  F   UNL     1      -9.952  11.738  66.144  1.00  0.00    -0.220 F  
HETATM   18  C   UNL     1      -8.470  11.750  68.482  1.00  0.00    -0.125 A  
HETATM   19  C   UNL     1      -7.070  10.578  70.087  1.00  0.00    -0.078 A  
HETATM   20  N   UNL     1      -7.863   9.467  68.104  1.00  0.00    -0.087 NA 
HETATM   21  C   UNL     1      -6.343  10.452  71.294  1.00  0.00     0.412 A  
HETATM   22  C   UNL     1      -5.778   9.248  71.695  1.00  0.00    -0.074 A  
HETATM   23  C   UNL     1      -5.853   8.157  70.850  1.00  0.00    -0.033 A  
HETATM   24  C   UNL     1      -6.506   8.260  69.606  1.00  0.00    -0.037 A  
HETATM   25  C   UNL     1      -6.452   7.057  68.700  1.00  0.00    -0.036 C  
HETATM   26  F   UNL     1      -5.161   6.637  68.523  1.00  0.00    -0.009 F  
HETATM   27  F   UNL     1      -6.950   7.193  67.443  1.00  0.00    -0.067 F  
HETATM   28  F   UNL     1      -7.097   5.981  69.241  1.00  0.00    -0.057 F  
ENDBRANCH   2  11
TORSDOF 2
ENDMDL
MODEL      187
REMARK 921   NORMALIZED FREE ENERGY PREDICTED BY IDOCK:   11.42 KCAL/MOL
REMARK 922        TOTAL FREE ENERGY PREDICTED BY IDOCK:   12.02 KCAL/MOL
REMARK 923 INTER-LIGAND FREE ENERGY PREDICTED BY IDOCK:   11.42 KCAL/MOL
REMARK 924 INTRA-LIGAND FREE ENERGY PREDICTED BY IDOCK:    0.60 KCAL/MOL
REMARK 927      BINDING AFFINITY PREDICTED BY RF-SCORE:    0.00 PKD
ROOT
HETATM    1  O   UNL     1     -10.577  13.901  66.383  1.00  0.00    -0.276 OA 
HETATM    2  C   UNL     1      -9.726  15.013  66.042  1.00  0.00    -0.328 C  
HETATM    3  H   UNL     1     -10.040  13.214  66.762  1.00  0.00     0.000 HD 
ENDROOT
BRANCH   2   4
HETATM    4  C   UNL     1     -10.613  16.149  65.415  1.00  0.00    -0.380 C  
HETATM    5  H   UNL     1     -12.199  17.375  65.924  1.00  0.00     0.000 HD 
HETATM    6  N   UNL     1     -11.857  16.445  66.165  1.00  0.00     1.241 NA 
HETATM    7  C   UNL     1     -10.957  15.930  63.930  1.00  0.00     1.285 C  
HETATM    8  C   UNL     1     -12.063  14.893  63.724  1.00  0.00     0.225 C  
HETATM    9  C   UNL     1     -12.922  15.460  66.008  1.00  0.00     1.927 C  
HETATM   10  C   UNL     1     -13.292  15.269  64.539  1.00  0.00     1.755 C  
ENDBRANCH   2   4
BRANCH   2  11
HETATM   11  C   UNL     1      -8.988  15.417  67.323  1.00  0.00    -0.213 A  
HETATM   12  C   UNL     1      -8.291  18.663  69.217  1.00  0.00     0.185 C  
HETATM   13  C   UNL     1      -7.732  14.984  69.374  1.00  0.00    -0.190 A  
HETATM   14  F   UNL     1      -8.897  18.930  70.410  1.00  0.00     1.305 F  
HETATM   15  F   UNL     1      -7.019  19.148  69.325  1.00  0.00    -0.330 F  
HETATM   16  C   UNL     1      -8.332  17.188  68.838  1.00  0.00    -0.183 A  
HETATM   17  F   UNL     1      -8.909  19.474  68.308  1.00  0.00    -0.337 F  
HETATM   18  C   UNL     1      -8.956  16.781  67.669  1.00  0.00    -0.210 A  
HETATM   19  C   UNL     1      -8.333  14.489  68.186  1.00  0.00    -0.147 A  
HETATM   20  N   UNL     1      -7.744  16.290  69.673  1.00  0.00     0.041 NA 
HETATM   21  C   UNL     1      -8.237  13.103  67.924  1.00  0.00    -0.162 A  
HETATM   22  C   UNL     1      -7.530  12.240  68.752  1.00  0.00    -0.065 A  
HETATM   23  C   UNL     1      -6.972  12.734  69.916  1.00  0.00     0.529 A  
HETATM   24  C   UNL     1      -7.106  14.095  70.250  1.00  0.00     0.413 A  
HETATM   25  C   UNL     1      -6.561  14.531  71.587  1.00  0.00     1.045 C  
HETATM   26  F   UNL     1      -7.053  13.746  72.594  1.00  0.00     2.165 F  
HETATM   27  F   UNL     1      -6.813  15.807  71.984  1.00  0.00     2.246 F  
HETATM   28  F   UNL     1      -5.205  14.381  71.658  1.00  0.00    -0.122 F  
ENDBRANCH   2  11
TORSDOF 2
ENDMDL
MODEL      188
REMARK 921   NORMALIZED FREE ENERGY PREDICTED BY IDOCK:   12.28 KCAL/MOL
REMARK 922        TOTAL FREE ENERGY PREDICTED BY IDOCK:   12.98 KCAL/MOL
REMARK 923 INTER-LIGAND FREE ENERGY PREDICTED BY IDOCK:   13.01 KCAL/MOL
REMARK 924 INTRA-LIGAND FREE ENERGY PREDICTED BY IDOCK:   -0.03 KCAL/MOL
REMARK 927      BINDING AFFINITY PREDICTED BY RF-SCORE:    0.00 PKD
ROOT
HETATM    1  O   UNL     1      -8.292  13.806  66.505  1.00  0.00    -0.387 OA 
HETATM    2  C   UNL     1      -7.738  14.230  67.766  1.00  0.00    -0.163 C  
HETATM    3  H   UNL     1      -9.005  14.391  66.275  1.00  0.00     0.000 HD 
ENDROOT
BRANCH   2   4
HETATM    4  C   UNL     1      -6.560  13.262  68.146  1.00  0.00    -0.115 C  
HETATM    5  H   UNL     1      -4.943  12.321  67.264  1.00  0.00     0.000 HD 
HETATM    6  N   UNL     1      -5.870  12.646  66.988  1.00  0.00    -0.292 NA 
HETATM    7  C   UNL     1      -6.950  12.160  69.149  1.00  0.00    -0.053 C  
HETATM    8  C   UNL     1      -7.735  11.019  68.499  1.00  0.00    -0.122 C  
HETATM    9  C   UNL     1      -6.605  11.570  66.332  1.00  0.00     0.042 C  
HETATM   10  C   UNL     1      -6.961  10.457  67.316  1.00  0.00    -0.086 C  
ENDBRANCH   2   4
BRANCH   2  11
HETATM   11  C   UNL     1      -7.327  15.697  67.599  1.00  0.00    -0.190 A  
HETATM   12  C   UNL     1      -6.579  18.054  64.684  1.00  0.00     1.773 C  
HETATM   13  C   UNL     1      -6.807  17.946  68.400  1.00  0.00    -0.227 A  
HETATM   14  F   UNL     1      -7.433  19.066  64.356  1.00  0.00     1.294 F  
HETATM   15  F   UNL     1      -5.321  18.546  64.490  1.00  0.00    -0.208 F  
HETATM   16  C   UNL     1      -6.795  17.517  66.093  1.00  0.00    -0.276 A  
HETATM   17  F   UNL     1      -6.749  17.108  63.712  1.00  0.00     5.647 F  
HETATM   18  C   UNL     1      -7.131  16.187  66.295  1.00  0.00     0.653 A  
HETATM   19  C   UNL     1      -7.132  16.595  68.690  1.00  0.00    -0.183 A  
HETATM   20  N   UNL     1      -6.650  18.373  67.140  1.00  0.00    -0.183 NA 
HETATM   21  C   UNL     1      -7.236  16.216  70.049  1.00  0.00     0.486 A  
HETATM   22  C   UNL     1      -6.969  17.101  71.086  1.00  0.00     4.053 A  
HETATM   23  C   UNL     1      -6.678  18.418  70.786  1.00  0.00     1.670 A  
HETATM   24  C   UNL     1      -6.635  18.853  69.448  1.00  0.00    -0.293 A  
HETATM   25  C   UNL     1      -6.414  20.326  69.210  1.00  0.00    -0.258 C  
HETATM   26  F   UNL     1      -7.311  21.075  69.923  1.00  0.00     0.982 F  
HETATM   27  F   UNL     1      -6.517  20.780  67.934  1.00  0.00    -0.287 F  
HETATM   28  F   UNL     1      -5.188  20.735  69.653  1.00  0.00    -0.270 F  
ENDBRANCH   2  11
TORSDOF 2
ENDMDL
MODEL      189
REMARK 921   NORMALIZED FREE ENERGY PREDICTED BY IDOCK:   17.38 KCAL/MOL
REMARK 922        TOTAL FREE ENERGY PREDICTED BY IDOCK:   18.68 KCAL/MOL
REMARK 923 INTER-LIGAND FREE ENERGY PREDICTED BY IDOCK:   18.07 KCAL/MOL
REMARK 924 INTRA-LIGAND FREE ENERGY PREDICTED BY IDOCK:    0.60 KCAL/MOL
REMARK 927      BINDING AFFINITY PREDICTED BY RF-SCORE:    0.00 PKD
ROOT
HETATM    1  O   UNL     1     -10.122   7.701  63.880  1.00  0.00     4.121 OA 
HETATM    2  C   UNL     1      -9.345   8.259  64.958  1.00  0.00     0.669 C  
HETATM    3  H   UNL     1      -9.657   6.952  63.527  1.00  0.00     0.000 HD 
ENDROOT
BRANCH   2   4
HETATM    4  C   UNL     1     -10.114   9.498  65.542  1.00  0.00    -0.002 C  
HETATM    5  H   UNL     1      -9.742  11.429  66.185  1.00  0.00     0.000 HD 
HETATM    6  N   UNL     1      -9.245  10.540  66.141  1.00  0.00    -0.165 NA 
HETATM    7  C   UNL     1     -11.229   9.133  66.541  1.00  0.00     1.305 C  
HETATM    8  C   UNL     1     -10.687   8.764  67.922  1.00  0.00    -0.171 C  
HETATM    9  C   UNL     1      -8.694  10.206  67.449  1.00  0.00    -0.125 C  
HETATM   10  C   UNL     1      -9.798   9.879  68.453  1.00  0.00    -0.166 C  
ENDBRANCH   2   4
BRANCH   2  11
HETATM   11  C   UNL     1      -9.106   7.128  65.964  1.00  0.00    -0.108 A  
HETATM   12  C   UNL     1     -11.148   4.256  67.446  1.00  0.00     3.054 C  
HETATM   13  C   UNL     1      -7.752   5.786  67.493  1.00  0.00    -0.097 A  
HETATM   14  F   UNL     1     -10.893   2.960  67.109  1.00  0.00     2.401 F  
HETATM   15  F   UNL     1     -11.472   4.243  68.772  1.00  0.00     2.784 F  
HETATM   16  C   UNL     1      -9.994   5.199  67.128  1.00  0.00    -0.191 A  
HETATM   17  F   UNL     1     -12.306   4.578  66.797  1.00  0.00     5.210 F  
HETATM   18  C   UNL     1     -10.175   6.259  66.252  1.00  0.00     0.021 A  
HETATM   19  C   UNL     1      -7.861   6.904  66.625  1.00  0.00    -0.107 A  
HETATM   20  N   UNL     1      -8.792   4.974  67.722  1.00  0.00    -0.103 NA 
HETATM   21  C   UNL     1      -6.729   7.737  66.473  1.00  0.00    -0.062 A  
HETATM   22  C   UNL     1      -5.555   7.529  67.187  1.00  0.00    -0.031 A  
HETATM   23  C   UNL     1      -5.458   6.422  68.009  1.00  0.00    -0.008 A  
HETATM   24  C   UNL     1      -6.538   5.528  68.133  1.00  0.00    -0.049 A  
HETATM   25  C   UNL     1      -6.314   4.291  68.967  1.00  0.00    -0.032 C  
HETATM   26  F   UNL     1      -5.191   3.624  68.557  1.00  0.00    -0.009 F  
HETATM   27  F   UNL     1      -7.295   3.351  68.975  1.00  0.00    -0.048 F  
HETATM   28  F   UNL     1      -6.080   4.595  70.278  1.00  0.00    -0.018 F  
ENDBRANCH   2  11
TORSDOF 2
ENDMDL
MODEL      190
REMARK 921   NORMALIZED FREE ENERGY PREDICTED BY IDOCK:   25.85 KCAL/MOL
REMARK 922        TOTAL FREE ENERGY PREDICTED BY IDOCK:   28.13 KCAL/MOL
REMARK 923 INTER-LIGAND FREE ENERGY PREDICTED BY IDOCK:   26.72 KCAL/MOL
REMARK 924 INTRA-LIGAND FREE ENERGY PREDICTED BY IDOCK:    1.41 KCAL/MOL
REMARK 927      BINDING AFFINITY PREDICTED BY RF-SCORE:    0.00 PKD
ROOT
HETATM    1  O   UNL     1     -12.676  16.399  68.395  1.00  0.00     0.639 OA 
HETATM    2  C   UNL     1     -11.642  15.691  69.109  1.00  0.00    -0.383 C  
HETATM    3  H   UNL     1     -12.380  16.547  67.504  1.00  0.00     0.000 HD 
ENDROOT
BRANCH   2   4
HETATM    4  C   UNL     1     -12.131  15.445  70.582  1.00  0.00    -0.369 C  
HETATM    5  H   UNL     1     -12.511  16.505  72.317  1.00  0.00     0.000 HD 
HETATM    6  N   UNL     1     -11.894  16.577  71.508  1.00  0.00    -0.227 NA 
HETATM    7  C   UNL     1     -11.588  14.150  71.216  1.00  0.00     0.205 C  
HETATM    8  C   UNL     1     -10.135  14.279  71.674  1.00  0.00     4.430 C  
HETATM    9  C   UNL     1     -10.511  16.741  71.943  1.00  0.00     3.380 C  
HETATM   10  C   UNL     1      -9.982  15.471  72.607  1.00  0.00     4.936 C  
ENDBRANCH   2   4
BRANCH   2  11
HETATM   11  C   UNL     1     -11.350  14.413  68.314  1.00  0.00    -0.311 A  
HETATM   12  C   UNL     1      -8.804  11.566  68.477  1.00  0.00    -0.139 C  
HETATM   13  C   UNL     1     -11.779  12.752  66.574  1.00  0.00    -0.400 A  
HETATM   14  F   UNL     1      -9.171  10.311  68.864  1.00  0.00    -0.140 F  
HETATM   15  F   UNL     1      -7.881  11.399  67.485  1.00  0.00    -0.109 F  
HETATM   16  C   UNL     1      -9.982  12.432  68.049  1.00  0.00    -0.207 A  
HETATM   17  F   UNL     1      -8.108  12.082  69.533  1.00  0.00     0.271 F  
HETATM   18  C   UNL     1     -10.262  13.616  68.716  1.00  0.00    -0.155 A  
HETATM   19  C   UNL     1     -12.118  13.985  67.191  1.00  0.00    -0.436 A  
HETATM   20  N   UNL     1     -10.746  12.016  67.004  1.00  0.00    -0.233 NA 
HETATM   21  C   UNL     1     -13.196  14.722  66.648  1.00  0.00     2.398 A  
HETATM   22  C   UNL     1     -13.876  14.309  65.509  1.00  0.00     2.289 A  
HETATM   23  C   UNL     1     -13.549  13.094  64.936  1.00  0.00     1.413 A  
HETATM   24  C   UNL     1     -12.530  12.295  65.489  1.00  0.00     0.089 A  
HETATM   25  C   UNL     1     -12.306  10.940  64.868  1.00  0.00     3.019 C  
HETATM   26  F   UNL     1     -13.477  10.234  64.802  1.00  0.00     6.280 F  
HETATM   27  F   UNL     1     -11.429  10.103  65.482  1.00  0.00     0.639 F  
HETATM   28  F   UNL     1     -11.883  11.036  63.572  1.00  0.00    -0.158 F  
ENDBRANCH   2  11
TORSDOF 2
ENDMDL
MODEL      191
REMARK 921   NORMALIZED FREE ENERGY PREDICTED BY IDOCK:   51.53 KCAL/MOL
REMARK 922        TOTAL FREE ENERGY PREDICTED BY IDOCK:   56.81 KCAL/MOL
REMARK 923 INTER-LIGAND FREE ENERGY PREDICTED BY IDOCK:   55.59 KCAL/MOL
REMARK 924 INTRA-LIGAND FREE ENERGY PREDICTED BY IDOCK:    1.23 KCAL/MOL
REMARK 927      BINDING AFFINITY PREDICTED BY RF-SCORE:    0.00 PKD
ROOT
HETATM    1  O   UNL     1     -12.535   4.186  69.925  1.00  0.00    12.523 OA 
HETATM    2  C   UNL     1     -12.920   5.532  70.267  1.00  0.00     6.747 C  
HETATM    3  H   UNL     1     -12.756   4.029  69.014  1.00  0.00     0.000 HD 
ENDROOT
BRANCH   2   4
HETATM    4  C   UNL     1     -12.553   5.791  71.773  1.00  0.00     0.908 C  
HETATM    5  H   UNL     1     -11.167   6.826  72.906  1.00  0.00     0.000 HD 
HETATM    6  N   UNL     1     -11.211   6.380  71.990  1.00  0.00    -0.266 NA 
HETATM    7  C   UNL     1     -12.718   4.557  72.680  1.00  0.00     1.453 C  
HETATM    8  C   UNL     1     -11.573   3.554  72.529  1.00  0.00     0.990 C  
HETATM    9  C   UNL     1     -10.096   5.452  71.828  1.00  0.00    -0.196 C  
HETATM   10  C   UNL     1     -10.236   4.246  72.754  1.00  0.00    -0.227 C  
ENDBRANCH   2   4
BRANCH   2  11
HETATM   11  C   UNL     1     -12.213   6.461  69.273  1.00  0.00     1.565 A  
HETATM   12  C   UNL     1     -12.889   9.885  67.714  1.00  0.00     7.935 C  
HETATM   13  C   UNL     1     -10.382   7.131  67.800  1.00  0.00    -0.202 A  
HETATM   14  F   UNL     1     -12.152  10.979  68.063  1.00  0.00    -0.300 F  
HETATM   15  F   UNL     1     -13.132  10.006  66.376  1.00  0.00     8.156 F  
HETATM   16  C   UNL     1     -12.218   8.567  68.077  1.00  0.00     5.127 A  
HETATM   17  F   UNL     1     -14.103  10.060  68.317  1.00  0.00     6.816 F  
HETATM   18  C   UNL     1     -12.837   7.679  68.943  1.00  0.00     5.957 A  
HETATM   19  C   UNL     1     -10.959   6.162  68.662  1.00  0.00    -0.415 A  
HETATM   20  N   UNL     1     -11.004   8.287  67.531  1.00  0.00     0.003 NA 
HETATM   21  C   UNL     1     -10.258   4.949  68.858  1.00  0.00    -0.137 A  
HETATM   22  C   UNL     1      -9.073   4.664  68.191  1.00  0.00    -0.148 A  
HETATM   23  C   UNL     1      -8.514   5.628  67.375  1.00  0.00    -0.106 A  
HETATM   24  C   UNL     1      -9.143   6.877  67.209  1.00  0.00    -0.127 A  
HETATM   25  C   UNL     1      -8.415   7.909  66.386  1.00  0.00    -0.138 C  
HETATM   26  F   UNL     1      -7.136   8.082  66.841  1.00  0.00    -0.073 F  
HETATM   27  F   UNL     1      -8.941   9.162  66.340  1.00  0.00    -0.137 F  
HETATM   28  F   UNL     1      -8.273   7.518  65.085  1.00  0.00    -0.120 F  
ENDBRANCH   2  11
TORSDOF 2
ENDMDL
MODEL      192
REMARK 921   NORMALIZED FREE ENERGY PREDICTED BY IDOCK:   69.92 KCAL/MOL
REMARK 922        TOTAL FREE ENERGY PREDICTED BY IDOCK:   77.36 KCAL/MOL
REMARK 923 INTER-LIGAND FREE ENERGY PREDICTED BY IDOCK:   77.86 KCAL/MOL
REMARK 924 INTRA-LIGAND FREE ENERGY PREDICTED BY IDOCK:   -0.50 KCAL/MOL
REMARK 927      BINDING AFFINITY PREDICTED BY RF-SCORE:    0.00 PKD
ROOT
HETATM    1  O   UNL     1     -12.589  18.620  71.154  1.00  0.00    12.563 OA 
HETATM    2  C   UNL     1     -12.187  17.936  69.950  1.00  0.00     7.935 C  
HETATM    3  H   UNL     1     -13.288  18.125  71.565  1.00  0.00     0.000 HD 
ENDROOT
BRANCH   2   4
HETATM    4  C   UNL     1     -11.031  18.754  69.271  1.00  0.00     1.683 C  
HETATM    5  H   UNL     1      -9.985  20.521  69.528  1.00  0.00     0.000 HD 
HETATM    6  N   UNL     1     -10.918  20.160  69.729  1.00  0.00     1.177 NA 
HETATM    7  C   UNL     1     -11.059  18.724  67.732  1.00  0.00    -0.020 C  
HETATM    8  C   UNL     1     -12.121  19.652  67.141  1.00  0.00     2.461 C  
HETATM    9  C   UNL     1     -11.933  21.065  69.201  1.00  0.00     4.306 C  
HETATM   10  C   UNL     1     -11.939  21.066  67.674  1.00  0.00     5.561 C  
ENDBRANCH   2   4
BRANCH   2  11
HETATM   11  C   UNL     1     -11.802  16.510  70.359  1.00  0.00     0.395 A  
HETATM   12  C   UNL     1      -9.447  14.892  72.899  1.00  0.00     7.350 C  
HETATM   13  C   UNL     1     -11.961  14.072  70.276  1.00  0.00    -0.339 A  
HETATM   14  F   UNL     1      -9.930  14.243  73.997  1.00  0.00     3.242 F  
HETATM   15  F   UNL     1      -8.361  14.176  72.485  1.00  0.00     4.602 F  
HETATM   16  C   UNL     1     -10.488  15.076  71.802  1.00  0.00     1.339 A  
HETATM   17  F   UNL     1      -8.942  16.071  73.369  1.00  0.00     9.763 F  
HETATM   18  C   UNL     1     -10.841  16.346  71.374  1.00  0.00     0.703 A  
HETATM   19  C   UNL     1     -12.361  15.337  69.769  1.00  0.00    -0.288 A  
HETATM   20  N   UNL     1     -11.057  13.967  71.258  1.00  0.00     1.456 NA 
HETATM   21  C   UNL     1     -13.287  15.360  68.700  1.00  0.00     3.078 A  
HETATM   22  C   UNL     1     -13.757  14.196  68.104  1.00  0.00     7.049 A  
HETATM   23  C   UNL     1     -13.376  12.974  68.625  1.00  0.00     4.130 A  
HETATM   24  C   UNL     1     -12.512  12.909  69.735  1.00  0.00     0.027 A  
HETATM   25  C   UNL     1     -12.230  11.543  70.307  1.00  0.00    -0.332 C  
HETATM   26  F   UNL     1     -13.395  10.876  70.575  1.00  0.00    -0.257 F  
HETATM   27  F   UNL     1     -11.517  11.479  71.463  1.00  0.00     0.538 F  
HETATM   28  F   UNL     1     -11.567  10.744  69.418  1.00  0.00    -0.263 F  
ENDBRANCH   2  11
TORSDOF 2
ENDMDL
