MODEL        1
REMARK 921   NORMALIZED FREE ENERGY PREDICTED BY IDOCK:   -6.13 KCAL/MOL
REMARK 922        TOTAL FREE ENERGY PREDICTED BY IDOCK:   -8.51 KCAL/MOL
REMARK 923 INTER-LIGAND FREE ENERGY PREDICTED BY IDOCK:   -7.92 KCAL/MOL
REMARK 924 INTRA-LIGAND FREE ENERGY PREDICTED BY IDOCK:   -0.59 KCAL/MOL
REMARK 927      BINDING AFFINITY PREDICTED BY RF-SCORE:    0.00 PKD
ROOT
HETATM    1  N   UNL     1     -12.427  14.084  63.331  1.00  0.00    -1.123 NA 
HETATM    2  CA  UNL     1     -11.879  14.209  64.723  1.00  0.00    -0.417 C  
HETATM    3  H1  UNL     1     -13.141  14.777  63.104  1.00  0.00     0.000 HD 
HETATM    4  H2  UNL     1     -12.779  13.140  63.167  1.00  0.00     0.000 HD 
HETATM    5  C   UNL     1     -11.277  15.616  64.864  1.00  0.00    -0.369 C  
HETATM    6  O   UNL     1     -11.554  16.382  63.774  1.00  0.00    -1.055 OA 
HETATM    7  OXT UNL     1     -10.639  16.020  65.822  1.00  0.00    -0.343 OA 
ENDROOT
BRANCH   2   8
HETATM    8  C   UNL     1     -10.801  13.162  65.066  1.00  0.00    -0.331 C  
BRANCH   8   9
HETATM    9  C   UNL     1     -11.081  12.405  66.343  1.00  0.00    -0.343 A  
HETATM   10  C   UNL     1     -11.701  13.031  67.428  1.00  0.00    -0.427 A  
HETATM   11  C   UNL     1     -11.863  12.360  68.648  1.00  0.00    -0.348 A  
HETATM   12  C   UNL     1     -11.414  11.046  68.835  1.00  0.00    -0.296 A  
HETATM   13  C   UNL     1     -10.879  10.408  67.702  1.00  0.00    -0.361 A  
HETATM   14  C   UNL     1     -10.700  11.072  66.482  1.00  0.00    -0.298 A  
BRANCH  12  15
HETATM   15  N   UNL     1     -11.461  10.398  70.067  1.00  0.00    -0.285 NA 
BRANCH  15  16
HETATM   16  C   UNL     1     -10.287   9.712  70.642  1.00  0.00    -0.297 C  
HETATM   17 CL   UNL     1     -10.774   7.413  69.201  1.00  0.00    -0.207 Cl 
HETATM   18  C   UNL     1     -10.482   8.200  70.778  1.00  0.00    -0.202 C  
ENDBRANCH  15  16
BRANCH  15  19
HETATM   19  C   UNL     1     -12.781   9.972  70.587  1.00  0.00    -0.206 C  
HETATM   20  C   UNL     1     -13.145  10.580  71.949  1.00  0.00    -0.462 C  
HETATM   21 CL   UNL     1     -13.275  12.359  71.892  1.00  0.00    -0.550 Cl 
ENDBRANCH  15  19
ENDBRANCH  12  15
ENDBRANCH   8   9
ENDBRANCH   2   8
TORSDOF 5
ENDMDL
MODEL        2
REMARK 921   NORMALIZED FREE ENERGY PREDICTED BY IDOCK:   -5.74 KCAL/MOL
REMARK 922        TOTAL FREE ENERGY PREDICTED BY IDOCK:   -8.01 KCAL/MOL
REMARK 923 INTER-LIGAND FREE ENERGY PREDICTED BY IDOCK:   -7.35 KCAL/MOL
REMARK 924 INTRA-LIGAND FREE ENERGY PREDICTED BY IDOCK:   -0.66 KCAL/MOL
REMARK 927      BINDING AFFINITY PREDICTED BY RF-SCORE:    0.00 PKD
ROOT
HETATM    1  N   UNL     1     -12.514  14.090  63.437  1.00  0.00    -1.123 NA 
HETATM    2  CA  UNL     1     -11.561  13.559  64.469  1.00  0.00    -0.381 C  
HETATM    3  H1  UNL     1     -12.242  13.881  62.476  1.00  0.00     0.000 HD 
HETATM    4  H2  UNL     1     -12.654  15.093  63.560  1.00  0.00     0.000 HD 
HETATM    5  C   UNL     1     -11.479  12.035  64.289  1.00  0.00    -0.361 C  
HETATM    6  O   UNL     1     -12.145  11.634  63.173  1.00  0.00    -0.334 OA 
HETATM    7  OXT UNL     1     -10.891  11.266  65.032  1.00  0.00    -0.282 OA 
ENDROOT
BRANCH   2   8
HETATM    8  C   UNL     1     -11.971  13.875  65.920  1.00  0.00    -0.429 C  
BRANCH   8   9
HETATM    9  C   UNL     1     -11.134  14.957  66.562  1.00  0.00    -0.341 A  
HETATM   10  C   UNL     1     -11.381  15.372  67.873  1.00  0.00    -0.328 A  
HETATM   11  C   UNL     1     -10.677  16.449  68.430  1.00  0.00    -0.327 A  
HETATM   12  C   UNL     1      -9.704  17.151  67.705  1.00  0.00    -0.271 A  
HETATM   13  C   UNL     1      -9.410  16.654  66.423  1.00  0.00    -0.309 A  
HETATM   14  C   UNL     1     -10.116  15.588  65.851  1.00  0.00    -0.374 A  
BRANCH  12  15
HETATM   15  N   UNL     1      -9.071  18.291  68.195  1.00  0.00    -0.290 NA 
BRANCH  15  16
HETATM   16  C   UNL     1      -9.810  19.533  68.499  1.00  0.00    -0.429 C  
HETATM   17 CL   UNL     1     -10.470  19.932  65.853  1.00  0.00    -0.607 Cl 
HETATM   18  C   UNL     1      -9.753  20.558  67.364  1.00  0.00    -0.446 C  
ENDBRANCH  15  16
BRANCH  15  19
HETATM   19  C   UNL     1      -7.616  18.441  67.964  1.00  0.00    -0.259 C  
HETATM   20  C   UNL     1      -6.741  17.908  69.107  1.00  0.00    -0.239 C  
HETATM   21 CL   UNL     1      -6.943  16.154  69.364  1.00  0.00    -0.219 Cl 
ENDBRANCH  15  19
ENDBRANCH  12  15
ENDBRANCH   8   9
ENDBRANCH   2   8
TORSDOF 5
ENDMDL
MODEL        3
REMARK 921   NORMALIZED FREE ENERGY PREDICTED BY IDOCK:   -5.72 KCAL/MOL
REMARK 922        TOTAL FREE ENERGY PREDICTED BY IDOCK:   -7.98 KCAL/MOL
REMARK 923 INTER-LIGAND FREE ENERGY PREDICTED BY IDOCK:   -7.34 KCAL/MOL
REMARK 924 INTRA-LIGAND FREE ENERGY PREDICTED BY IDOCK:   -0.63 KCAL/MOL
REMARK 927      BINDING AFFINITY PREDICTED BY RF-SCORE:    0.00 PKD
ROOT
HETATM    1  N   UNL     1     -13.114  12.223  64.388  1.00  0.00    -0.777 NA 
HETATM    2  CA  UNL     1     -12.330  13.036  65.379  1.00  0.00    -0.486 C  
HETATM    3  H1  UNL     1     -13.963  12.682  64.057  1.00  0.00     0.000 HD 
HETATM    4  H2  UNL     1     -13.330  11.302  64.771  1.00  0.00     0.000 HD 
HETATM    5  C   UNL     1     -11.954  14.363  64.700  1.00  0.00    -0.464 C  
HETATM    6  O   UNL     1     -12.563  14.487  63.490  1.00  0.00    -0.746 OA 
HETATM    7  OXT UNL     1     -11.216  15.212  65.170  1.00  0.00    -0.366 OA 
ENDROOT
BRANCH   2   8
HETATM    8  C   UNL     1     -11.048  12.343  65.879  1.00  0.00    -0.349 C  
BRANCH   8   9
HETATM    9  C   UNL     1     -11.238  11.584  67.171  1.00  0.00    -0.365 A  
HETATM   10  C   UNL     1     -11.907  12.164  68.253  1.00  0.00    -0.361 A  
HETATM   11  C   UNL     1     -11.989  11.501  69.486  1.00  0.00    -0.402 A  
HETATM   12  C   UNL     1     -11.409  10.242  69.689  1.00  0.00    -0.257 A  
HETATM   13  C   UNL     1     -10.824   9.641  68.560  1.00  0.00    -0.202 A  
HETATM   14  C   UNL     1     -10.725  10.298  67.327  1.00  0.00    -0.323 A  
BRANCH  12  15
HETATM   15  N   UNL     1     -11.379   9.613  70.931  1.00  0.00    -0.329 NA 
BRANCH  15  16
HETATM   16  C   UNL     1     -12.422   9.837  71.952  1.00  0.00    -0.366 C  
HETATM   17 CL   UNL     1     -13.602   7.396  71.453  1.00  0.00    -0.441 Cl 
HETATM   18  C   UNL     1     -13.755   9.169  71.603  1.00  0.00    -0.373 C  
ENDBRANCH  15  16
BRANCH  15  19
HETATM   19  C   UNL     1     -10.082   9.102  71.430  1.00  0.00    -0.322 C  
HETATM   20  C   UNL     1     -10.114   7.632  71.872  1.00  0.00    -0.178 C  
HETATM   21 CL   UNL     1     -10.512   6.522  70.533  1.00  0.00    -0.238 Cl 
ENDBRANCH  15  19
ENDBRANCH  12  15
ENDBRANCH   8   9
ENDBRANCH   2   8
TORSDOF 5
ENDMDL
MODEL        4
REMARK 921   NORMALIZED FREE ENERGY PREDICTED BY IDOCK:   -5.71 KCAL/MOL
REMARK 922        TOTAL FREE ENERGY PREDICTED BY IDOCK:   -7.97 KCAL/MOL
REMARK 923 INTER-LIGAND FREE ENERGY PREDICTED BY IDOCK:   -7.30 KCAL/MOL
REMARK 924 INTRA-LIGAND FREE ENERGY PREDICTED BY IDOCK:   -0.67 KCAL/MOL
REMARK 927      BINDING AFFINITY PREDICTED BY RF-SCORE:    0.00 PKD
ROOT
HETATM    1  N   UNL     1     -10.381  16.156  66.128  1.00  0.00    -0.324 NA 
HETATM    2  CA  UNL     1     -11.037  14.910  65.605  1.00  0.00    -0.348 C  
HETATM    3  H1  UNL     1      -9.781  16.625  65.448  1.00  0.00     0.000 HD 
HETATM    4  H2  UNL     1      -9.864  15.957  66.984  1.00  0.00     0.000 HD 
HETATM    5  C   UNL     1     -11.876  15.304  64.379  1.00  0.00    -0.281 C  
HETATM    6  O   UNL     1     -11.659  16.600  64.028  1.00  0.00    -1.197 OA 
HETATM    7  OXT UNL     1     -12.637  14.565  63.776  1.00  0.00    -0.825 OA 
ENDROOT
BRANCH   2   8
HETATM    8  C   UNL     1     -11.943  14.203  66.631  1.00  0.00    -0.470 C  
BRANCH   8   9
HETATM    9  C   UNL     1     -11.554  12.766  66.888  1.00  0.00    -0.428 A  
HETATM   10  C   UNL     1     -11.870  12.143  68.099  1.00  0.00    -0.362 A  
HETATM   11  C   UNL     1     -11.415  10.847  68.380  1.00  0.00    -0.374 A  
HETATM   12  C   UNL     1     -10.631  10.125  67.470  1.00  0.00    -0.273 A  
HETATM   13  C   UNL     1     -10.407  10.737  66.224  1.00  0.00    -0.303 A  
HETATM   14  C   UNL     1     -10.845  12.036  65.937  1.00  0.00    -0.329 A  
BRANCH  12  15
HETATM   15  N   UNL     1     -10.074   8.883  67.769  1.00  0.00    -0.197 NA 
BRANCH  15  16
HETATM   16  C   UNL     1      -8.672   8.734  68.206  1.00  0.00    -0.135 C  
HETATM   17 CL   UNL     1      -9.312   9.246  70.838  1.00  0.00    -0.324 Cl 
HETATM   18  C   UNL     1      -8.319   9.622  69.402  1.00  0.00    -0.145 C  
ENDBRANCH  15  16
BRANCH  15  19
HETATM   19  C   UNL     1     -10.711   7.673  67.201  1.00  0.00    -0.290 C  
HETATM   20  C   UNL     1     -10.556   6.416  68.068  1.00  0.00    -0.254 C  
HETATM   21 CL   UNL     1     -11.336   6.585  69.664  1.00  0.00    -0.444 Cl 
ENDBRANCH  15  19
ENDBRANCH  12  15
ENDBRANCH   8   9
ENDBRANCH   2   8
TORSDOF 5
ENDMDL
MODEL        5
REMARK 921   NORMALIZED FREE ENERGY PREDICTED BY IDOCK:   -5.70 KCAL/MOL
REMARK 922        TOTAL FREE ENERGY PREDICTED BY IDOCK:   -7.95 KCAL/MOL
REMARK 923 INTER-LIGAND FREE ENERGY PREDICTED BY IDOCK:   -7.32 KCAL/MOL
REMARK 924 INTRA-LIGAND FREE ENERGY PREDICTED BY IDOCK:   -0.63 KCAL/MOL
REMARK 927      BINDING AFFINITY PREDICTED BY RF-SCORE:    0.00 PKD
ROOT
HETATM    1  N   UNL     1     -13.808   8.855  71.341  1.00  0.00    -0.534 NA 
HETATM    2  CA  UNL     1     -12.500   9.503  70.985  1.00  0.00    -0.267 C  
HETATM    3  H1  UNL     1     -13.830   7.849  71.174  1.00  0.00     0.000 HD 
HETATM    4  H2  UNL     1     -14.579   9.316  70.857  1.00  0.00     0.000 HD 
HETATM    5  C   UNL     1     -11.402   8.829  71.822  1.00  0.00    -0.339 C  
HETATM    6  O   UNL     1     -11.889   7.757  72.504  1.00  0.00    -0.335 OA 
HETATM    7  OXT UNL     1     -10.236   9.185  71.877  1.00  0.00    -0.332 OA 
ENDROOT
BRANCH   2   8
HETATM    8  C   UNL     1     -12.467  11.023  71.237  1.00  0.00    -0.475 C  
BRANCH   8   9
HETATM    9  C   UNL     1     -12.128  11.831  70.006  1.00  0.00    -0.387 A  
HETATM   10  C   UNL     1     -12.141  13.228  70.039  1.00  0.00    -0.385 A  
HETATM   11  C   UNL     1     -11.933  13.976  68.871  1.00  0.00    -0.387 A  
HETATM   12  C   UNL     1     -11.707  13.364  67.631  1.00  0.00    -0.359 A  
HETATM   13  C   UNL     1     -11.606  11.961  67.643  1.00  0.00    -0.382 A  
HETATM   14  C   UNL     1     -11.825  11.203  68.800  1.00  0.00    -0.388 A  
BRANCH  12  15
HETATM   15  N   UNL     1     -11.609  14.079  66.440  1.00  0.00    -0.352 NA 
BRANCH  15  16
HETATM   16  C   UNL     1     -12.615  13.960  65.365  1.00  0.00    -0.507 C  
HETATM   17 CL   UNL     1     -11.297  11.835  64.204  1.00  0.00    -0.430 Cl 
HETATM   18  C   UNL     1     -12.024  13.459  64.045  1.00  0.00    -0.464 C  
ENDBRANCH  15  16
BRANCH  15  19
HETATM   19  C   UNL     1     -10.280  14.588  66.033  1.00  0.00    -0.315 C  
HETATM   20  C   UNL     1     -10.204  16.116  65.909  1.00  0.00    -0.360 C  
HETATM   21 CL   UNL     1     -10.509  16.945  67.459  1.00  0.00    -0.326 Cl 
ENDBRANCH  15  19
ENDBRANCH  12  15
ENDBRANCH   8   9
ENDBRANCH   2   8
TORSDOF 5
ENDMDL
MODEL        6
REMARK 921   NORMALIZED FREE ENERGY PREDICTED BY IDOCK:   -5.67 KCAL/MOL
REMARK 922        TOTAL FREE ENERGY PREDICTED BY IDOCK:   -7.92 KCAL/MOL
REMARK 923 INTER-LIGAND FREE ENERGY PREDICTED BY IDOCK:   -7.36 KCAL/MOL
REMARK 924 INTRA-LIGAND FREE ENERGY PREDICTED BY IDOCK:   -0.55 KCAL/MOL
REMARK 927      BINDING AFFINITY PREDICTED BY RF-SCORE:    0.00 PKD
ROOT
HETATM    1  N   UNL     1     -10.547  14.469  64.629  1.00  0.00    -0.594 NA 
HETATM    2  CA  UNL     1     -11.303  13.318  65.229  1.00  0.00    -0.295 C  
HETATM    3  H1  UNL     1     -10.211  14.294  63.681  1.00  0.00     0.000 HD 
HETATM    4  H2  UNL     1      -9.776  14.747  65.237  1.00  0.00     0.000 HD 
HETATM    5  C   UNL     1     -12.503  13.021  64.315  1.00  0.00    -0.315 C  
HETATM    6  O   UNL     1     -12.445  13.754  63.171  1.00  0.00    -0.786 OA 
HETATM    7  OXT UNL     1     -13.398  12.229  64.559  1.00  0.00    -0.769 OA 
ENDROOT
BRANCH   2   8
HETATM    8  C   UNL     1     -11.811  13.582  66.660  1.00  0.00    -0.450 C  
BRANCH   8   9
HETATM    9  C   UNL     1     -11.638  12.403  67.588  1.00  0.00    -0.421 A  
HETATM   10  C   UNL     1     -11.931  12.513  68.950  1.00  0.00    -0.282 A  
HETATM   11  C   UNL     1     -11.668  11.453  69.829  1.00  0.00    -0.418 A  
HETATM   12  C   UNL     1     -11.103  10.249  69.388  1.00  0.00    -0.252 A  
HETATM   13  C   UNL     1     -10.906  10.130  68.001  1.00  0.00    -0.320 A  
HETATM   14  C   UNL     1     -11.152  11.186  67.115  1.00  0.00    -0.352 A  
BRANCH  12  15
HETATM   15  N   UNL     1     -10.729   9.225  70.255  1.00  0.00    -0.228 NA 
BRANCH  15  16
HETATM   16  C   UNL     1     -11.082   9.239  71.689  1.00  0.00    -0.368 C  
HETATM   17 CL   UNL     1     -12.872   7.164  71.393  1.00  0.00    -0.432 Cl 
HETATM   18  C   UNL     1     -12.532   8.825  71.954  1.00  0.00    -0.372 C  
ENDBRANCH  15  16
BRANCH  15  19
HETATM   19  C   UNL     1      -9.584   8.366  69.877  1.00  0.00    -0.171 C  
HETATM   20  C   UNL     1      -9.927   6.873  69.773  1.00  0.00    -0.178 C  
HETATM   21 CL   UNL     1     -11.137   6.534  68.506  1.00  0.00    -0.359 Cl 
ENDBRANCH  15  19
ENDBRANCH  12  15
ENDBRANCH   8   9
ENDBRANCH   2   8
TORSDOF 5
ENDMDL
MODEL        7
REMARK 921   NORMALIZED FREE ENERGY PREDICTED BY IDOCK:   -5.64 KCAL/MOL
REMARK 922        TOTAL FREE ENERGY PREDICTED BY IDOCK:   -7.89 KCAL/MOL
REMARK 923 INTER-LIGAND FREE ENERGY PREDICTED BY IDOCK:   -7.28 KCAL/MOL
REMARK 924 INTRA-LIGAND FREE ENERGY PREDICTED BY IDOCK:   -0.61 KCAL/MOL
REMARK 927      BINDING AFFINITY PREDICTED BY RF-SCORE:    0.00 PKD
ROOT
HETATM    1  N   UNL     1     -12.238  11.485  63.109  1.00  0.00    -0.932 NA 
HETATM    2  CA  UNL     1     -11.515  12.420  64.036  1.00  0.00    -0.408 C  
HETATM    3  H1  UNL     1     -11.644  11.077  62.387  1.00  0.00     0.000 HD 
HETATM    4  H2  UNL     1     -13.045  11.948  62.691  1.00  0.00     0.000 HD 
HETATM    5  C   UNL     1     -10.379  11.629  64.704  1.00  0.00    -0.292 C  
HETATM    6  O   UNL     1     -10.252  10.390  64.158  1.00  0.00    -0.296 OA 
HETATM    7  OXT UNL     1      -9.664  12.042  65.603  1.00  0.00    -0.241 OA 
ENDROOT
BRANCH   2   8
HETATM    8  C   UNL     1     -12.411  13.036  65.127  1.00  0.00    -0.552 C  
BRANCH   8   9
HETATM    9  C   UNL     1     -11.803  14.248  65.793  1.00  0.00    -0.377 A  
HETATM   10  C   UNL     1     -11.194  15.253  65.036  1.00  0.00    -0.409 A  
HETATM   11  C   UNL     1     -10.535  16.322  65.659  1.00  0.00    -0.386 A  
HETATM   12  C   UNL     1     -10.456  16.431  67.054  1.00  0.00    -0.291 A  
HETATM   13  C   UNL     1     -11.157  15.459  67.791  1.00  0.00    -0.320 A  
HETATM   14  C   UNL     1     -11.807  14.379  67.180  1.00  0.00    -0.437 A  
BRANCH  12  15
HETATM   15  N   UNL     1      -9.715  17.420  67.696  1.00  0.00    -0.264 NA 
BRANCH  15  16
HETATM   16  C   UNL     1      -8.397  17.146  68.303  1.00  0.00    -0.232 C  
HETATM   17 CL   UNL     1      -7.049  18.026  66.066  1.00  0.00    -0.324 Cl 
HETATM   18  C   UNL     1      -7.336  16.744  67.276  1.00  0.00    -0.175 C  
ENDBRANCH  15  16
BRANCH  15  19
HETATM   19  C   UNL     1     -10.427  18.617  68.199  1.00  0.00    -0.315 C  
HETATM   20  C   UNL     1     -10.091  19.911  67.444  1.00  0.00    -0.430 C  
HETATM   21 CL   UNL     1     -10.560  19.841  65.724  1.00  0.00    -0.597 Cl 
ENDBRANCH  15  19
ENDBRANCH  12  15
ENDBRANCH   8   9
ENDBRANCH   2   8
TORSDOF 5
ENDMDL
MODEL        8
REMARK 921   NORMALIZED FREE ENERGY PREDICTED BY IDOCK:   -5.64 KCAL/MOL
REMARK 922        TOTAL FREE ENERGY PREDICTED BY IDOCK:   -7.88 KCAL/MOL
REMARK 923 INTER-LIGAND FREE ENERGY PREDICTED BY IDOCK:   -7.30 KCAL/MOL
REMARK 924 INTRA-LIGAND FREE ENERGY PREDICTED BY IDOCK:   -0.58 KCAL/MOL
REMARK 927      BINDING AFFINITY PREDICTED BY RF-SCORE:    0.00 PKD
ROOT
HETATM    1  N   UNL     1     -14.364  15.345  71.063  1.00  0.00    -0.848 NA 
HETATM    2  CA  UNL     1     -12.922  15.200  71.458  1.00  0.00    -0.382 C  
HETATM    3  H1  UNL     1     -15.020  14.951  71.739  1.00  0.00     0.000 HD 
HETATM    4  H2  UNL     1     -14.524  14.950  70.136  1.00  0.00     0.000 HD 
HETATM    5  C   UNL     1     -12.736  15.903  72.811  1.00  0.00    -0.467 C  
HETATM    6  O   UNL     1     -13.928  16.301  73.330  1.00  0.00    -0.511 OA 
HETATM    7  OXT UNL     1     -11.667  16.084  73.372  1.00  0.00    -0.332 OA 
ENDROOT
BRANCH   2   8
HETATM    8  C   UNL     1     -11.933  15.795  70.438  1.00  0.00    -0.385 C  
BRANCH   8   9
HETATM    9  C   UNL     1     -11.745  14.937  69.208  1.00  0.00    -0.344 A  
HETATM   10  C   UNL     1     -11.919  13.552  69.267  1.00  0.00    -0.378 A  
HETATM   11  C   UNL     1     -11.639  12.745  68.155  1.00  0.00    -0.380 A  
HETATM   12  C   UNL     1     -11.177  13.284  66.947  1.00  0.00    -0.305 A  
HETATM   13  C   UNL     1     -11.101  14.688  66.885  1.00  0.00    -0.333 A  
HETATM   14  C   UNL     1     -11.364  15.502  67.994  1.00  0.00    -0.332 A  
BRANCH  12  15
HETATM   15  N   UNL     1     -10.787  12.498  65.866  1.00  0.00    -0.263 NA 
BRANCH  15  16
HETATM   16  C   UNL     1     -10.193  11.157  66.041  1.00  0.00    -0.250 C  
HETATM   17 CL   UNL     1      -8.014  12.167  67.393  1.00  0.00    -0.159 Cl 
HETATM   18  C   UNL     1      -8.663  11.176  66.056  1.00  0.00    -0.183 C  
ENDBRANCH  15  16
BRANCH  15  19
HETATM   19  C   UNL     1     -10.513  13.166  64.573  1.00  0.00    -0.405 C  
HETATM   20  C   UNL     1     -10.828  12.304  63.342  1.00  0.00    -0.403 C  
HETATM   21 CL   UNL     1     -12.557  11.877  63.231  1.00  0.00    -0.635 Cl 
ENDBRANCH  15  19
ENDBRANCH  12  15
ENDBRANCH   8   9
ENDBRANCH   2   8
TORSDOF 5
ENDMDL
MODEL        9
REMARK 921   NORMALIZED FREE ENERGY PREDICTED BY IDOCK:   -5.62 KCAL/MOL
REMARK 922        TOTAL FREE ENERGY PREDICTED BY IDOCK:   -7.86 KCAL/MOL
REMARK 923 INTER-LIGAND FREE ENERGY PREDICTED BY IDOCK:   -7.28 KCAL/MOL
REMARK 924 INTRA-LIGAND FREE ENERGY PREDICTED BY IDOCK:   -0.58 KCAL/MOL
REMARK 927      BINDING AFFINITY PREDICTED BY RF-SCORE:    0.00 PKD
ROOT
HETATM    1  N   UNL     1     -12.638  14.478  63.612  1.00  0.00    -0.992 NA 
HETATM    2  CA  UNL     1     -11.714  13.752  64.547  1.00  0.00    -0.407 C  
HETATM    3  H1  UNL     1     -12.477  14.270  62.626  1.00  0.00     0.000 HD 
HETATM    4  H2  UNL     1     -12.598  15.484  63.777  1.00  0.00     0.000 HD 
HETATM    5  C   UNL     1     -11.903  12.244  64.312  1.00  0.00    -0.403 C  
HETATM    6  O   UNL     1     -12.707  12.009  63.240  1.00  0.00    -0.685 OA 
HETATM    7  OXT UNL     1     -11.400  11.357  64.980  1.00  0.00    -0.161 OA 
ENDROOT
BRANCH   2   8
HETATM    8  C   UNL     1     -11.958  14.065  66.035  1.00  0.00    -0.434 C  
BRANCH   8   9
HETATM    9  C   UNL     1     -11.031  15.123  66.588  1.00  0.00    -0.318 A  
HETATM   10  C   UNL     1     -11.233  15.658  67.863  1.00  0.00    -0.328 A  
HETATM   11  C   UNL     1     -10.440  16.714  68.333  1.00  0.00    -0.323 A  
HETATM   12  C   UNL     1      -9.421  17.278  67.553  1.00  0.00    -0.245 A  
HETATM   13  C   UNL     1      -9.178  16.660  66.313  1.00  0.00    -0.328 A  
HETATM   14  C   UNL     1      -9.972  15.613  65.828  1.00  0.00    -0.390 A  
BRANCH  12  15
HETATM   15  N   UNL     1      -8.694  18.397  67.950  1.00  0.00    -0.278 NA 
BRANCH  15  16
HETATM   16  C   UNL     1      -7.318  18.297  68.477  1.00  0.00    -0.286 C  
HETATM   17 CL   UNL     1      -6.308  19.909  66.482  1.00  0.00    -0.189 Cl 
HETATM   18  C   UNL     1      -6.251  18.368  67.382  1.00  0.00    -0.180 C  
ENDBRANCH  15  16
BRANCH  15  19
HETATM   19  C   UNL     1      -9.437  19.629  68.303  1.00  0.00    -0.368 C  
HETATM   20  C   UNL     1      -9.622  20.607  67.135  1.00  0.00    -0.393 C  
HETATM   21 CL   UNL     1     -10.583  19.910  65.803  1.00  0.00    -0.575 Cl 
ENDBRANCH  15  19
ENDBRANCH  12  15
ENDBRANCH   8   9
ENDBRANCH   2   8
TORSDOF 5
ENDMDL
MODEL       10
REMARK 921   NORMALIZED FREE ENERGY PREDICTED BY IDOCK:   -5.61 KCAL/MOL
REMARK 922        TOTAL FREE ENERGY PREDICTED BY IDOCK:   -7.84 KCAL/MOL
REMARK 923 INTER-LIGAND FREE ENERGY PREDICTED BY IDOCK:   -7.19 KCAL/MOL
REMARK 924 INTRA-LIGAND FREE ENERGY PREDICTED BY IDOCK:   -0.65 KCAL/MOL
REMARK 927      BINDING AFFINITY PREDICTED BY RF-SCORE:    0.00 PKD
ROOT
HETATM    1  N   UNL     1     -12.011  11.494  63.192  1.00  0.00    -0.917 NA 
HETATM    2  CA  UNL     1     -11.933  12.136  64.548  1.00  0.00    -0.337 C  
HETATM    3  H1  UNL     1     -12.904  11.634  62.719  1.00  0.00     0.000 HD 
HETATM    4  H2  UNL     1     -11.790  10.500  63.253  1.00  0.00     0.000 HD 
HETATM    5  C   UNL     1     -12.176  13.642  64.366  1.00  0.00    -0.390 C  
HETATM    6  O   UNL     1     -12.546  13.932  63.090  1.00  0.00    -0.775 OA 
HETATM    7  OXT UNL     1     -12.066  14.486  65.240  1.00  0.00    -0.372 OA 
ENDROOT
BRANCH   2   8
HETATM    8  C   UNL     1     -10.585  11.924  65.263  1.00  0.00    -0.320 C  
BRANCH   8   9
HETATM    9  C   UNL     1     -10.727  11.427  66.683  1.00  0.00    -0.316 A  
HETATM   10  C   UNL     1     -10.002  10.319  67.131  1.00  0.00    -0.243 A  
HETATM   11  C   UNL     1     -10.215   9.792  68.413  1.00  0.00    -0.210 A  
HETATM   12  C   UNL     1     -11.155  10.344  69.293  1.00  0.00    -0.253 A  
HETATM   13  C   UNL     1     -11.802  11.513  68.853  1.00  0.00    -0.406 A  
HETATM   14  C   UNL     1     -11.608  12.041  67.571  1.00  0.00    -0.401 A  
BRANCH  12  15
HETATM   15  N   UNL     1     -11.465   9.775  70.526  1.00  0.00    -0.281 NA 
BRANCH  15  16
HETATM   16  C   UNL     1     -10.518   8.902  71.250  1.00  0.00    -0.287 C  
HETATM   17 CL   UNL     1     -11.299   6.673  69.828  1.00  0.00    -0.412 Cl 
HETATM   18  C   UNL     1     -11.026   7.466  71.405  1.00  0.00    -0.235 C  
ENDBRANCH  15  16
BRANCH  15  19
HETATM   19  C   UNL     1     -12.891   9.636  70.898  1.00  0.00    -0.192 C  
HETATM   20  C   UNL     1     -13.280  10.380  72.183  1.00  0.00    -0.312 C  
HETATM   21 CL   UNL     1     -13.056  12.145  72.047  1.00  0.00    -0.528 Cl 
ENDBRANCH  15  19
ENDBRANCH  12  15
ENDBRANCH   8   9
ENDBRANCH   2   8
TORSDOF 5
ENDMDL
MODEL       11
REMARK 921   NORMALIZED FREE ENERGY PREDICTED BY IDOCK:   -5.59 KCAL/MOL
REMARK 922        TOTAL FREE ENERGY PREDICTED BY IDOCK:   -7.81 KCAL/MOL
REMARK 923 INTER-LIGAND FREE ENERGY PREDICTED BY IDOCK:   -7.22 KCAL/MOL
REMARK 924 INTRA-LIGAND FREE ENERGY PREDICTED BY IDOCK:   -0.60 KCAL/MOL
REMARK 927      BINDING AFFINITY PREDICTED BY RF-SCORE:    0.00 PKD
ROOT
HETATM    1  N   UNL     1      -9.955  13.137  63.963  1.00  0.00    -0.763 NA 
HETATM    2  CA  UNL     1     -10.968  12.418  64.808  1.00  0.00    -0.301 C  
HETATM    3  H1  UNL     1     -10.073  12.988  62.961  1.00  0.00     0.000 HD 
HETATM    4  H2  UNL     1      -9.008  12.892  64.254  1.00  0.00     0.000 HD 
HETATM    5  C   UNL     1     -12.361  12.910  64.386  1.00  0.00    -0.398 C  
HETATM    6  O   UNL     1     -12.291  13.708  63.286  1.00  0.00    -0.743 OA 
HETATM    7  OXT UNL     1     -13.409  12.628  64.943  1.00  0.00    -0.741 OA 
ENDROOT
BRANCH   2   8
HETATM    8  C   UNL     1     -10.791  12.643  66.322  1.00  0.00    -0.300 C  
BRANCH   8   9
HETATM    9  C   UNL     1     -10.300  14.028  66.673  1.00  0.00    -0.278 A  
HETATM   10  C   UNL     1      -8.934  14.296  66.796  1.00  0.00    -0.249 A  
HETATM   11  C   UNL     1      -8.483  15.551  67.227  1.00  0.00    -0.216 A  
HETATM   12  C   UNL     1      -9.373  16.584  67.553  1.00  0.00    -0.218 A  
HETATM   13  C   UNL     1     -10.736  16.320  67.330  1.00  0.00    -0.287 A  
HETATM   14  C   UNL     1     -11.198  15.065  66.913  1.00  0.00    -0.323 A  
BRANCH  12  15
HETATM   15  N   UNL     1      -8.957  17.801  68.088  1.00  0.00    -0.264 NA 
BRANCH  15  16
HETATM   16  C   UNL     1      -9.914  18.834  68.531  1.00  0.00    -0.400 C  
HETATM   17 CL   UNL     1     -10.500  19.573  65.940  1.00  0.00    -0.600 Cl 
HETATM   18  C   UNL     1      -9.979  20.036  67.585  1.00  0.00    -0.428 C  
ENDBRANCH  15  16
BRANCH  15  19
HETATM   19  C   UNL     1      -7.587  18.273  67.782  1.00  0.00    -0.227 C  
HETATM   20  C   UNL     1      -6.672  18.382  69.009  1.00  0.00    -0.267 C  
HETATM   21 CL   UNL     1      -6.401  16.808  69.804  1.00  0.00    -0.217 Cl 
ENDBRANCH  15  19
ENDBRANCH  12  15
ENDBRANCH   8   9
ENDBRANCH   2   8
TORSDOF 5
ENDMDL
MODEL       12
REMARK 921   NORMALIZED FREE ENERGY PREDICTED BY IDOCK:   -5.56 KCAL/MOL
REMARK 922        TOTAL FREE ENERGY PREDICTED BY IDOCK:   -7.77 KCAL/MOL
REMARK 923 INTER-LIGAND FREE ENERGY PREDICTED BY IDOCK:   -7.10 KCAL/MOL
REMARK 924 INTRA-LIGAND FREE ENERGY PREDICTED BY IDOCK:   -0.68 KCAL/MOL
REMARK 927      BINDING AFFINITY PREDICTED BY RF-SCORE:    0.00 PKD
ROOT
HETATM    1  N   UNL     1     -12.121  11.682  63.183  1.00  0.00    -0.950 NA 
HETATM    2  CA  UNL     1     -11.337  12.489  64.177  1.00  0.00    -0.380 C  
HETATM    3  H1  UNL     1     -11.570  11.355  62.388  1.00  0.00     0.000 HD 
HETATM    4  H2  UNL     1     -12.938  12.203  62.863  1.00  0.00     0.000 HD 
HETATM    5  C   UNL     1     -10.186  11.608  64.689  1.00  0.00    -0.281 C  
HETATM    6  O   UNL     1     -10.110  10.442  63.994  1.00  0.00    -0.307 OA 
HETATM    7  OXT UNL     1      -9.422  11.900  65.595  1.00  0.00    -0.228 OA 
ENDROOT
BRANCH   2   8
HETATM    8  C   UNL     1     -12.168  12.982  65.377  1.00  0.00    -0.520 C  
BRANCH   8   9
HETATM    9  C   UNL     1     -11.639  14.256  65.994  1.00  0.00    -0.362 A  
HETATM   10  C   UNL     1     -10.921  15.179  65.230  1.00  0.00    -0.405 A  
HETATM   11  C   UNL     1     -10.337  16.306  65.826  1.00  0.00    -0.393 A  
HETATM   12  C   UNL     1     -10.445  16.555  67.200  1.00  0.00    -0.300 A  
HETATM   13  C   UNL     1     -11.251  15.662  67.929  1.00  0.00    -0.328 A  
HETATM   14  C   UNL     1     -11.827  14.526  67.348  1.00  0.00    -0.416 A  
BRANCH  12  15
HETATM   15  N   UNL     1      -9.783  17.604  67.834  1.00  0.00    -0.285 NA 
BRANCH  15  16
HETATM   16  C   UNL     1     -10.483  18.832  68.262  1.00  0.00    -0.266 C  
HETATM   17 CL   UNL     1     -10.613  19.799  65.684  1.00  0.00    -0.556 Cl 
HETATM   18  C   UNL     1     -10.149  20.046  67.391  1.00  0.00    -0.428 C  
ENDBRANCH  15  16
BRANCH  15  19
HETATM   19  C   UNL     1      -8.317  17.718  67.660  1.00  0.00    -0.228 C  
HETATM   20  C   UNL     1      -7.505  17.332  68.904  1.00  0.00    -0.240 C  
HETATM   21 CL   UNL     1      -7.736  15.626  69.370  1.00  0.00    -0.223 Cl 
ENDBRANCH  15  19
ENDBRANCH  12  15
ENDBRANCH   8   9
ENDBRANCH   2   8
TORSDOF 5
ENDMDL
MODEL       13
REMARK 921   NORMALIZED FREE ENERGY PREDICTED BY IDOCK:   -5.55 KCAL/MOL
REMARK 922        TOTAL FREE ENERGY PREDICTED BY IDOCK:   -7.76 KCAL/MOL
REMARK 923 INTER-LIGAND FREE ENERGY PREDICTED BY IDOCK:   -6.94 KCAL/MOL
REMARK 924 INTRA-LIGAND FREE ENERGY PREDICTED BY IDOCK:   -0.82 KCAL/MOL
REMARK 927      BINDING AFFINITY PREDICTED BY RF-SCORE:    0.00 PKD
ROOT
HETATM    1  N   UNL     1     -14.168   8.862  72.862  1.00  0.00    -1.123 NA 
HETATM    2  CA  UNL     1     -13.282   8.797  71.651  1.00  0.00    -0.357 C  
HETATM    3  H1  UNL     1     -15.049   8.358  72.758  1.00  0.00     0.000 HD 
HETATM    4  H2  UNL     1     -14.339   9.832  73.128  1.00  0.00     0.000 HD 
HETATM    5  C   UNL     1     -12.984   7.315  71.370  1.00  0.00    -0.373 C  
HETATM    6  O   UNL     1     -13.721   6.503  72.175  1.00  0.00    -0.048 OA 
HETATM    7  OXT UNL     1     -12.200   6.898  70.534  1.00  0.00    -0.340 OA 
ENDROOT
BRANCH   2   8
HETATM    8  C   UNL     1     -11.952   9.558  71.807  1.00  0.00    -0.443 C  
BRANCH   8   9
HETATM    9  C   UNL     1     -11.602  10.412  70.611  1.00  0.00    -0.440 A  
HETATM   10  C   UNL     1     -10.578  10.038  69.737  1.00  0.00    -0.301 A  
HETATM   11  C   UNL     1     -10.181  10.883  68.691  1.00  0.00    -0.201 A  
HETATM   12  C   UNL     1     -10.785  12.129  68.477  1.00  0.00    -0.232 A  
HETATM   13  C   UNL     1     -11.874  12.440  69.312  1.00  0.00    -0.361 A  
HETATM   14  C   UNL     1     -12.270  11.610  70.368  1.00  0.00    -0.434 A  
BRANCH  12  15
HETATM   15  N   UNL     1     -10.337  13.033  67.518  1.00  0.00    -0.223 NA 
BRANCH  15  16
HETATM   16  C   UNL     1     -10.327  12.712  66.076  1.00  0.00    -0.270 C  
HETATM   17 CL   UNL     1     -12.774  13.913  65.669  1.00  0.00    -0.560 Cl 
HETATM   18  C   UNL     1     -11.727  12.475  65.505  1.00  0.00    -0.409 C  
ENDBRANCH  15  16
BRANCH  15  19
HETATM   19  C   UNL     1      -9.429  14.122  67.947  1.00  0.00    -0.211 C  
HETATM   20  C   UNL     1      -9.968  15.533  67.675  1.00  0.00    -0.233 C  
HETATM   21 CL   UNL     1     -11.475  15.874  68.567  1.00  0.00    -0.381 Cl 
ENDBRANCH  15  19
ENDBRANCH  12  15
ENDBRANCH   8   9
ENDBRANCH   2   8
TORSDOF 5
ENDMDL
MODEL       14
REMARK 921   NORMALIZED FREE ENERGY PREDICTED BY IDOCK:   -5.51 KCAL/MOL
REMARK 922        TOTAL FREE ENERGY PREDICTED BY IDOCK:   -7.72 KCAL/MOL
REMARK 923 INTER-LIGAND FREE ENERGY PREDICTED BY IDOCK:   -7.19 KCAL/MOL
REMARK 924 INTRA-LIGAND FREE ENERGY PREDICTED BY IDOCK:   -0.53 KCAL/MOL
REMARK 927      BINDING AFFINITY PREDICTED BY RF-SCORE:    0.00 PKD
ROOT
HETATM    1  N   UNL     1     -10.078  13.200  63.777  1.00  0.00    -0.710 NA 
HETATM    2  CA  UNL     1     -10.967  11.999  63.927  1.00  0.00    -0.401 C  
HETATM    3  H1  UNL     1     -10.121  13.634  62.854  1.00  0.00     0.000 HD 
HETATM    4  H2  UNL     1      -9.115  12.966  64.018  1.00  0.00     0.000 HD 
HETATM    5  C   UNL     1     -12.410  12.448  63.648  1.00  0.00    -0.548 C  
HETATM    6  O   UNL     1     -12.449  13.730  63.195  1.00  0.00    -0.786 OA 
HETATM    7  OXT UNL     1     -13.406  11.760  63.797  1.00  0.00    -0.503 OA 
ENDROOT
BRANCH   2   8
HETATM    8  C   UNL     1     -10.903  11.344  65.320  1.00  0.00    -0.297 C  
BRANCH   8   9
HETATM    9  C   UNL     1     -10.854  12.342  66.454  1.00  0.00    -0.299 A  
HETATM   10  C   UNL     1     -12.021  12.944  66.930  1.00  0.00    -0.402 A  
HETATM   11  C   UNL     1     -11.965  13.949  67.906  1.00  0.00    -0.393 A  
HETATM   12  C   UNL     1     -10.748  14.392  68.442  1.00  0.00    -0.245 A  
HETATM   13  C   UNL     1      -9.597  13.706  68.014  1.00  0.00    -0.216 A  
HETATM   14  C   UNL     1      -9.640  12.710  67.030  1.00  0.00    -0.219 A  
BRANCH  12  15
HETATM   15  N   UNL     1     -10.656  15.463  69.328  1.00  0.00    -0.237 NA 
BRANCH  15  16
HETATM   16  C   UNL     1     -10.667  15.276  70.792  1.00  0.00    -0.131 C  
HETATM   17 CL   UNL     1     -13.415  15.444  70.914  1.00  0.00    -0.490 Cl 
HETATM   18  C   UNL     1     -11.819  16.010  71.482  1.00  0.00    -0.486 C  
ENDBRANCH  15  16
BRANCH  15  19
HETATM   19  C   UNL     1     -11.027  16.811  68.842  1.00  0.00    -0.259 C  
HETATM   20  C   UNL     1      -9.833  17.748  68.616  1.00  0.00    -0.359 C  
HETATM   21 CL   UNL     1      -8.719  17.146  67.358  1.00  0.00    -0.206 Cl 
ENDBRANCH  15  19
ENDBRANCH  12  15
ENDBRANCH   8   9
ENDBRANCH   2   8
TORSDOF 5
ENDMDL
MODEL       15
REMARK 921   NORMALIZED FREE ENERGY PREDICTED BY IDOCK:   -5.51 KCAL/MOL
REMARK 922        TOTAL FREE ENERGY PREDICTED BY IDOCK:   -7.71 KCAL/MOL
REMARK 923 INTER-LIGAND FREE ENERGY PREDICTED BY IDOCK:   -7.24 KCAL/MOL
REMARK 924 INTRA-LIGAND FREE ENERGY PREDICTED BY IDOCK:   -0.47 KCAL/MOL
REMARK 927      BINDING AFFINITY PREDICTED BY RF-SCORE:    0.00 PKD
ROOT
HETATM    1  N   UNL     1     -12.647  14.449  63.791  1.00  0.00    -0.973 NA 
HETATM    2  CA  UNL     1     -11.798  14.601  65.021  1.00  0.00    -0.377 C  
HETATM    3  H1  UNL     1     -13.305  15.215  63.645  1.00  0.00     0.000 HD 
HETATM    4  H2  UNL     1     -13.137  13.554  63.803  1.00  0.00     0.000 HD 
HETATM    5  C   UNL     1     -11.016  15.918  64.887  1.00  0.00    -0.411 C  
HETATM    6  O   UNL     1     -11.429  16.629  63.804  1.00  0.00    -1.015 OA 
HETATM    7  OXT UNL     1     -10.141  16.300  65.647  1.00  0.00    -0.409 OA 
ENDROOT
BRANCH   2   8
HETATM    8  C   UNL     1     -10.805  13.444  65.242  1.00  0.00    -0.318 C  
BRANCH   8   9
HETATM    9  C   UNL     1     -11.169  12.551  66.405  1.00  0.00    -0.353 A  
HETATM   10  C   UNL     1     -11.772  13.076  67.551  1.00  0.00    -0.421 A  
HETATM   11  C   UNL     1     -12.010  12.268  68.672  1.00  0.00    -0.276 A  
HETATM   12  C   UNL     1     -11.657  10.913  68.695  1.00  0.00    -0.303 A  
HETATM   13  C   UNL     1     -11.139  10.388  67.498  1.00  0.00    -0.336 A  
HETATM   14  C   UNL     1     -10.884  11.188  66.377  1.00  0.00    -0.284 A  
BRANCH  12  15
HETATM   15  N   UNL     1     -11.780  10.117  69.832  1.00  0.00    -0.214 NA 
BRANCH  15  16
HETATM   16  C   UNL     1     -13.072   9.925  70.522  1.00  0.00     0.006 C  
HETATM   17 CL   UNL     1     -12.965  12.425  71.677  1.00  0.00    -0.461 Cl 
HETATM   18  C   UNL     1     -13.150  10.658  71.863  1.00  0.00    -0.458 C  
ENDBRANCH  15  16
BRANCH  15  19
HETATM   19  C   UNL     1     -10.567   9.849  70.637  1.00  0.00    -0.271 C  
HETATM   20  C   UNL     1     -10.299   8.359  70.891  1.00  0.00    -0.194 C  
HETATM   21 CL   UNL     1     -10.007   7.449  69.384  1.00  0.00    -0.173 Cl 
ENDBRANCH  15  19
ENDBRANCH  12  15
ENDBRANCH   8   9
ENDBRANCH   2   8
TORSDOF 5
ENDMDL
MODEL       16
REMARK 921   NORMALIZED FREE ENERGY PREDICTED BY IDOCK:   -5.49 KCAL/MOL
REMARK 922        TOTAL FREE ENERGY PREDICTED BY IDOCK:   -7.69 KCAL/MOL
REMARK 923 INTER-LIGAND FREE ENERGY PREDICTED BY IDOCK:   -7.02 KCAL/MOL
REMARK 924 INTRA-LIGAND FREE ENERGY PREDICTED BY IDOCK:   -0.67 KCAL/MOL
REMARK 927      BINDING AFFINITY PREDICTED BY RF-SCORE:    0.00 PKD
ROOT
HETATM    1  N   UNL     1     -13.807   8.341  71.561  1.00  0.00    -0.510 NA 
HETATM    2  CA  UNL     1     -12.608   9.175  71.212  1.00  0.00    -0.288 C  
HETATM    3  H1  UNL     1     -13.711   7.355  71.314  1.00  0.00     0.000 HD 
HETATM    4  H2  UNL     1     -14.651   8.735  71.145  1.00  0.00     0.000 HD 
HETATM    5  C   UNL     1     -11.397   8.584  71.952  1.00  0.00    -0.329 C  
HETATM    6  O   UNL     1     -11.715   7.411  72.561  1.00  0.00    -0.286 OA 
HETATM    7  OXT UNL     1     -10.283   9.081  71.993  1.00  0.00    -0.339 OA 
ENDROOT
BRANCH   2   8
HETATM    8  C   UNL     1     -12.751  10.663  71.586  1.00  0.00    -0.531 C  
BRANCH   8   9
HETATM    9  C   UNL     1     -12.353  11.605  70.473  1.00  0.00    -0.410 A  
HETATM   10  C   UNL     1     -12.356  12.988  70.669  1.00  0.00    -0.391 A  
HETATM   11  C   UNL     1     -12.093  13.865  69.607  1.00  0.00    -0.404 A  
HETATM   12  C   UNL     1     -11.819  13.399  68.314  1.00  0.00    -0.358 A  
HETATM   13  C   UNL     1     -11.730  12.003  68.165  1.00  0.00    -0.398 A  
HETATM   14  C   UNL     1     -12.004  11.118  69.215  1.00  0.00    -0.421 A  
BRANCH  12  15
HETATM   15  N   UNL     1     -11.665  14.248  67.220  1.00  0.00    -0.377 NA 
BRANCH  15  16
HETATM   16  C   UNL     1     -11.104  15.607  67.352  1.00  0.00    -0.260 C  
HETATM   17 CL   UNL     1      -8.552  14.740  66.771  1.00  0.00    -0.255 Cl 
HETATM   18  C   UNL     1      -9.662  15.614  67.865  1.00  0.00    -0.211 C  
ENDBRANCH  15  16
BRANCH  15  19
HETATM   19  C   UNL     1     -12.488  13.998  66.015  1.00  0.00    -0.455 C  
HETATM   20  C   UNL     1     -11.722  14.138  64.692  1.00  0.00    -0.417 C  
HETATM   21 CL   UNL     1     -10.395  12.956  64.540  1.00  0.00    -0.379 Cl 
ENDBRANCH  15  19
ENDBRANCH  12  15
ENDBRANCH   8   9
ENDBRANCH   2   8
TORSDOF 5
ENDMDL
MODEL       17
REMARK 921   NORMALIZED FREE ENERGY PREDICTED BY IDOCK:   -5.49 KCAL/MOL
REMARK 922        TOTAL FREE ENERGY PREDICTED BY IDOCK:   -7.69 KCAL/MOL
REMARK 923 INTER-LIGAND FREE ENERGY PREDICTED BY IDOCK:   -6.99 KCAL/MOL
REMARK 924 INTRA-LIGAND FREE ENERGY PREDICTED BY IDOCK:   -0.70 KCAL/MOL
REMARK 927      BINDING AFFINITY PREDICTED BY RF-SCORE:    0.00 PKD
ROOT
HETATM    1  N   UNL     1     -14.193   8.755  72.872  1.00  0.00    -1.095 NA 
HETATM    2  CA  UNL     1     -13.320   8.685  71.652  1.00  0.00    -0.350 C  
HETATM    3  H1  UNL     1     -15.071   8.241  72.783  1.00  0.00     0.000 HD 
HETATM    4  H2  UNL     1     -14.371   9.725  73.131  1.00  0.00     0.000 HD 
HETATM    5  C   UNL     1     -13.013   7.204  71.382  1.00  0.00    -0.368 C  
HETATM    6  O   UNL     1     -13.733   6.393  72.202  1.00  0.00    -0.003 OA 
HETATM    7  OXT UNL     1     -12.234   6.786  70.541  1.00  0.00    -0.363 OA 
ENDROOT
BRANCH   2   8
HETATM    8  C   UNL     1     -11.995   9.460  71.787  1.00  0.00    -0.452 C  
BRANCH   8   9
HETATM    9  C   UNL     1     -11.811  10.527  70.733  1.00  0.00    -0.465 A  
HETATM   10  C   UNL     1     -11.003  10.299  69.616  1.00  0.00    -0.314 A  
HETATM   11  C   UNL     1     -10.745  11.325  68.695  1.00  0.00    -0.241 A  
HETATM   12  C   UNL     1     -11.277  12.611  68.852  1.00  0.00    -0.280 A  
HETATM   13  C   UNL     1     -12.161  12.787  69.932  1.00  0.00    -0.329 A  
HETATM   14  C   UNL     1     -12.415  11.775  70.866  1.00  0.00    -0.416 A  
BRANCH  12  15
HETATM   15  N   UNL     1     -10.948  13.675  68.015  1.00  0.00    -0.244 NA 
BRANCH  15  16
HETATM   16  C   UNL     1      -9.722  14.475  68.206  1.00  0.00    -0.218 C  
HETATM   17 CL   UNL     1     -10.930  16.102  70.074  1.00  0.00    -0.350 Cl 
HETATM   18  C   UNL     1     -10.009  15.938  68.553  1.00  0.00    -0.216 C  
ENDBRANCH  15  16
BRANCH  15  19
HETATM   19  C   UNL     1     -12.031  14.319  67.238  1.00  0.00    -0.405 C  
HETATM   20  C   UNL     1     -11.934  14.095  65.722  1.00  0.00    -0.402 C  
HETATM   21 CL   UNL     1     -12.070  12.373  65.275  1.00  0.00    -0.482 Cl 
ENDBRANCH  15  19
ENDBRANCH  12  15
ENDBRANCH   8   9
ENDBRANCH   2   8
TORSDOF 5
ENDMDL
MODEL       18
REMARK 921   NORMALIZED FREE ENERGY PREDICTED BY IDOCK:   -5.48 KCAL/MOL
REMARK 922        TOTAL FREE ENERGY PREDICTED BY IDOCK:   -7.68 KCAL/MOL
REMARK 923 INTER-LIGAND FREE ENERGY PREDICTED BY IDOCK:   -7.00 KCAL/MOL
REMARK 924 INTRA-LIGAND FREE ENERGY PREDICTED BY IDOCK:   -0.68 KCAL/MOL
REMARK 927      BINDING AFFINITY PREDICTED BY RF-SCORE:    0.00 PKD
ROOT
HETATM    1  N   UNL     1     -10.262  14.058  64.527  1.00  0.00    -0.689 NA 
HETATM    2  CA  UNL     1     -11.147  13.013  65.143  1.00  0.00    -0.292 C  
HETATM    3  H1  UNL     1      -9.987  13.853  63.566  1.00  0.00     0.000 HD 
HETATM    4  H2  UNL     1      -9.439  14.220  65.108  1.00  0.00     0.000 HD 
HETATM    5  C   UNL     1     -12.408  12.896  64.271  1.00  0.00    -0.385 C  
HETATM    6  O   UNL     1     -12.290  13.631  63.133  1.00  0.00    -0.729 OA 
HETATM    7  OXT UNL     1     -13.393  12.229  64.540  1.00  0.00    -0.769 OA 
ENDROOT
BRANCH   2   8
HETATM    8  C   UNL     1     -11.563  13.322  66.594  1.00  0.00    -0.408 C  
BRANCH   8   9
HETATM    9  C   UNL     1     -11.432  12.139  67.524  1.00  0.00    -0.410 A  
HETATM   10  C   UNL     1     -11.763  12.250  68.877  1.00  0.00    -0.380 A  
HETATM   11  C   UNL     1     -11.539  11.185  69.761  1.00  0.00    -0.409 A  
HETATM   12  C   UNL     1     -10.978   9.974  69.333  1.00  0.00    -0.244 A  
HETATM   13  C   UNL     1     -10.743   9.855  67.952  1.00  0.00    -0.316 A  
HETATM   14  C   UNL     1     -10.950  10.916  67.062  1.00  0.00    -0.310 A  
BRANCH  12  15
HETATM   15  N   UNL     1     -10.643   8.943  70.208  1.00  0.00    -0.210 NA 
BRANCH  15  16
HETATM   16  C   UNL     1     -11.482   7.738  70.363  1.00  0.00    -0.158 C  
HETATM   17 CL   UNL     1     -13.106   8.960  72.226  1.00  0.00    -0.461 Cl 
HETATM   18  C   UNL     1     -12.058   7.586  71.773  1.00  0.00    -0.308 C  
ENDBRANCH  15  16
BRANCH  15  19
HETATM   19  C   UNL     1      -9.725   9.244  71.330  1.00  0.00    -0.199 C  
HETATM   20  C   UNL     1      -8.239   9.059  70.992  1.00  0.00    -0.176 C  
HETATM   21 CL   UNL     1      -7.689  10.158  69.699  1.00  0.00    -0.149 Cl 
ENDBRANCH  15  19
ENDBRANCH  12  15
ENDBRANCH   8   9
ENDBRANCH   2   8
TORSDOF 5
ENDMDL
MODEL       19
REMARK 921   NORMALIZED FREE ENERGY PREDICTED BY IDOCK:   -5.48 KCAL/MOL
REMARK 922        TOTAL FREE ENERGY PREDICTED BY IDOCK:   -7.68 KCAL/MOL
REMARK 923 INTER-LIGAND FREE ENERGY PREDICTED BY IDOCK:   -7.00 KCAL/MOL
REMARK 924 INTRA-LIGAND FREE ENERGY PREDICTED BY IDOCK:   -0.67 KCAL/MOL
REMARK 927      BINDING AFFINITY PREDICTED BY RF-SCORE:    0.00 PKD
ROOT
HETATM    1  N   UNL     1      -9.767  12.166  65.363  1.00  0.00    -0.375 NA 
HETATM    2  CA  UNL     1     -11.242  11.931  65.204  1.00  0.00    -0.289 C  
HETATM    3  H1  UNL     1      -9.184  11.482  64.880  1.00  0.00     0.000 HD 
HETATM    4  H2  UNL     1      -9.516  12.217  66.350  1.00  0.00     0.000 HD 
HETATM    5  C   UNL     1     -11.561  11.967  63.701  1.00  0.00    -0.486 C  
HETATM    6  O   UNL     1     -10.425  12.035  62.957  1.00  0.00    -0.323 OA 
HETATM    7  OXT UNL     1     -12.680  11.933  63.216  1.00  0.00    -0.654 OA 
ENDROOT
BRANCH   2   8
HETATM    8  C   UNL     1     -12.121  12.965  65.933  1.00  0.00    -0.503 C  
BRANCH   8   9
HETATM    9  C   UNL     1     -11.476  14.325  66.057  1.00  0.00    -0.347 A  
HETATM   10  C   UNL     1     -11.363  15.169  64.948  1.00  0.00    -0.402 A  
HETATM   11  C   UNL     1     -10.668  16.383  65.037  1.00  0.00    -0.279 A  
HETATM   12  C   UNL     1     -10.061  16.802  66.228  1.00  0.00    -0.326 A  
HETATM   13  C   UNL     1     -10.270  15.981  67.351  1.00  0.00    -0.273 A  
HETATM   14  C   UNL     1     -10.950  14.759  67.271  1.00  0.00    -0.318 A  
BRANCH  12  15
HETATM   15  N   UNL     1      -9.273  17.947  66.315  1.00  0.00    -0.449 NA 
BRANCH  15  16
HETATM   16  C   UNL     1      -9.831  19.303  66.138  1.00  0.00    -0.367 C  
HETATM   17 CL   UNL     1     -10.061  19.692  68.858  1.00  0.00    -0.531 Cl 
HETATM   18  C   UNL     1     -10.820  19.691  67.241  1.00  0.00    -0.395 C  
ENDBRANCH  15  16
BRANCH  15  19
HETATM   19  C   UNL     1      -7.813  17.813  66.104  1.00  0.00    -0.227 C  
HETATM   20  C   UNL     1      -6.959  18.434  67.218  1.00  0.00    -0.199 C  
HETATM   21 CL   UNL     1      -7.223  17.652  68.800  1.00  0.00    -0.261 Cl 
ENDBRANCH  15  19
ENDBRANCH  12  15
ENDBRANCH   8   9
ENDBRANCH   2   8
TORSDOF 5
ENDMDL
MODEL       20
REMARK 921   NORMALIZED FREE ENERGY PREDICTED BY IDOCK:   -5.46 KCAL/MOL
REMARK 922        TOTAL FREE ENERGY PREDICTED BY IDOCK:   -7.64 KCAL/MOL
REMARK 923 INTER-LIGAND FREE ENERGY PREDICTED BY IDOCK:   -6.98 KCAL/MOL
REMARK 924 INTRA-LIGAND FREE ENERGY PREDICTED BY IDOCK:   -0.66 KCAL/MOL
REMARK 927      BINDING AFFINITY PREDICTED BY RF-SCORE:    0.00 PKD
ROOT
HETATM    1  N   UNL     1     -10.495  14.465  64.596  1.00  0.00    -0.569 NA 
HETATM    2  CA  UNL     1     -11.276  13.320  65.173  1.00  0.00    -0.302 C  
HETATM    3  H1  UNL     1     -10.171  14.306  63.641  1.00  0.00     0.000 HD 
HETATM    4  H2  UNL     1      -9.712  14.708  65.204  1.00  0.00     0.000 HD 
HETATM    5  C   UNL     1     -12.491  13.077  64.263  1.00  0.00    -0.315 C  
HETATM    6  O   UNL     1     -12.423  13.837  63.137  1.00  0.00    -0.786 OA 
HETATM    7  OXT UNL     1     -13.404  12.302  64.494  1.00  0.00    -0.769 OA 
ENDROOT
BRANCH   2   8
HETATM    8  C   UNL     1     -11.765  13.560  66.614  1.00  0.00    -0.425 C  
BRANCH   8   9
HETATM    9  C   UNL     1     -11.609  12.355  67.512  1.00  0.00    -0.431 A  
HETATM   10  C   UNL     1     -11.909  12.432  68.875  1.00  0.00    -0.350 A  
HETATM   11  C   UNL     1     -11.661  11.348  69.728  1.00  0.00    -0.418 A  
HETATM   12  C   UNL     1     -11.106  10.150  69.259  1.00  0.00    -0.225 A  
HETATM   13  C   UNL     1     -10.900  10.065  67.870  1.00  0.00    -0.323 A  
HETATM   14  C   UNL     1     -11.131  11.146  67.011  1.00  0.00    -0.339 A  
BRANCH  12  15
HETATM   15  N   UNL     1     -10.747   9.100  70.102  1.00  0.00    -0.224 NA 
BRANCH  15  16
HETATM   16  C   UNL     1      -9.838   9.288  71.250  1.00  0.00    -0.248 C  
HETATM   17 CL   UNL     1      -7.713   9.933  69.617  1.00  0.00    -0.131 Cl 
HETATM   18  C   UNL     1      -8.385   8.927  70.930  1.00  0.00    -0.182 C  
ENDBRANCH  15  16
BRANCH  15  19
HETATM   19  C   UNL     1     -10.874   7.716  69.593  1.00  0.00    -0.191 C  
HETATM   20  C   UNL     1     -11.366   6.705  70.638  1.00  0.00    -0.347 C  
HETATM   21 CL   UNL     1     -13.005   7.080  71.234  1.00  0.00    -0.406 Cl 
ENDBRANCH  15  19
ENDBRANCH  12  15
ENDBRANCH   8   9
ENDBRANCH   2   8
TORSDOF 5
ENDMDL
MODEL       21
REMARK 921   NORMALIZED FREE ENERGY PREDICTED BY IDOCK:   -5.45 KCAL/MOL
REMARK 922        TOTAL FREE ENERGY PREDICTED BY IDOCK:   -7.63 KCAL/MOL
REMARK 923 INTER-LIGAND FREE ENERGY PREDICTED BY IDOCK:   -6.95 KCAL/MOL
REMARK 924 INTRA-LIGAND FREE ENERGY PREDICTED BY IDOCK:   -0.68 KCAL/MOL
REMARK 927      BINDING AFFINITY PREDICTED BY RF-SCORE:    0.00 PKD
ROOT
HETATM    1  N   UNL     1     -13.933   8.967  72.661  1.00  0.00    -0.847 NA 
HETATM    2  CA  UNL     1     -12.829   9.458  71.770  1.00  0.00    -0.399 C  
HETATM    3  H1  UNL     1     -14.077   7.957  72.624  1.00  0.00     0.000 HD 
HETATM    4  H2  UNL     1     -14.803   9.461  72.459  1.00  0.00     0.000 HD 
HETATM    5  C   UNL     1     -11.534   8.749  72.197  1.00  0.00    -0.351 C  
HETATM    6  O   UNL     1     -11.782   7.784  73.123  1.00  0.00    -0.226 OA 
HETATM    7  OXT UNL     1     -10.419   8.996  71.769  1.00  0.00    -0.332 OA 
ENDROOT
BRANCH   2   8
HETATM    8  C   UNL     1     -12.612  10.983  71.827  1.00  0.00    -0.311 C  
BRANCH   8   9
HETATM    9  C   UNL     1     -12.374  11.608  70.472  1.00  0.00    -0.410 A  
HETATM   10  C   UNL     1     -12.221  10.814  69.332  1.00  0.00    -0.242 A  
HETATM   11  C   UNL     1     -11.893  11.388  68.095  1.00  0.00    -0.288 A  
HETATM   12  C   UNL     1     -11.702  12.768  67.948  1.00  0.00    -0.357 A  
HETATM   13  C   UNL     1     -11.953  13.553  69.088  1.00  0.00    -0.378 A  
HETATM   14  C   UNL     1     -12.269  12.990  70.331  1.00  0.00    -0.386 A  
BRANCH  12  15
HETATM   15  N   UNL     1     -11.268  13.350  66.759  1.00  0.00    -0.302 NA 
BRANCH  15  16
HETATM   16  C   UNL     1      -9.869  13.780  66.559  1.00  0.00    -0.290 C  
HETATM   17 CL   UNL     1      -9.127  11.318  65.566  1.00  0.00    -0.209 Cl 
HETATM   18  C   UNL     1      -8.861  12.642  66.735  1.00  0.00    -0.168 C  
ENDBRANCH  15  16
BRANCH  15  19
HETATM   19  C   UNL     1     -12.275  13.980  65.875  1.00  0.00    -0.456 C  
HETATM   20  C   UNL     1     -11.978  13.829  64.377  1.00  0.00    -0.445 C  
HETATM   21 CL   UNL     1     -11.970  12.125  63.849  1.00  0.00    -0.548 Cl 
ENDBRANCH  15  19
ENDBRANCH  12  15
ENDBRANCH   8   9
ENDBRANCH   2   8
TORSDOF 5
ENDMDL
MODEL       22
REMARK 921   NORMALIZED FREE ENERGY PREDICTED BY IDOCK:   -5.44 KCAL/MOL
REMARK 922        TOTAL FREE ENERGY PREDICTED BY IDOCK:   -7.62 KCAL/MOL
REMARK 923 INTER-LIGAND FREE ENERGY PREDICTED BY IDOCK:   -7.20 KCAL/MOL
REMARK 924 INTRA-LIGAND FREE ENERGY PREDICTED BY IDOCK:   -0.41 KCAL/MOL
REMARK 927      BINDING AFFINITY PREDICTED BY RF-SCORE:    0.00 PKD
ROOT
HETATM    1  N   UNL     1     -12.506  13.705  63.010  1.00  0.00    -0.973 NA 
HETATM    2  CA  UNL     1     -11.813  13.808  64.338  1.00  0.00    -0.427 C  
HETATM    3  H1  UNL     1     -13.405  14.188  62.974  1.00  0.00     0.000 HD 
HETATM    4  H2  UNL     1     -12.613  12.728  62.736  1.00  0.00     0.000 HD 
HETATM    5  C   UNL     1     -11.597  15.300  64.638  1.00  0.00    -0.333 C  
HETATM    6  O   UNL     1     -12.225  16.083  63.721  1.00  0.00    -0.895 OA 
HETATM    7  OXT UNL     1     -10.957  15.747  65.576  1.00  0.00    -0.322 OA 
ENDROOT
BRANCH   2   8
HETATM    8  C   UNL     1     -10.457  13.079  64.393  1.00  0.00    -0.426 C  
BRANCH   8   9
HETATM    9  C   UNL     1     -10.483  11.817  65.223  1.00  0.00    -0.320 A  
HETATM   10  C   UNL     1     -11.207  11.759  66.417  1.00  0.00    -0.382 A  
HETATM   11  C   UNL     1     -11.144  10.627  67.242  1.00  0.00    -0.313 A  
HETATM   12  C   UNL     1     -10.360   9.514  66.911  1.00  0.00    -0.237 A  
HETATM   13  C   UNL     1      -9.717   9.560  65.661  1.00  0.00    -0.361 A  
HETATM   14  C   UNL     1      -9.761  10.691  64.836  1.00  0.00    -0.341 A  
BRANCH  12  15
HETATM   15  N   UNL     1     -10.192   8.425  67.763  1.00  0.00    -0.211 NA 
BRANCH  15  16
HETATM   16  C   UNL     1      -9.114   8.372  68.770  1.00  0.00    -0.143 C  
HETATM   17 CL   UNL     1     -10.675   9.601  70.681  1.00  0.00    -0.362 Cl 
HETATM   18  C   UNL     1      -9.151   9.547  69.750  1.00  0.00    -0.205 C  
ENDBRANCH  15  16
BRANCH  15  19
HETATM   19  C   UNL     1     -10.770   7.122  67.361  1.00  0.00    -0.298 C  
HETATM   20  C   UNL     1     -10.800   6.076  68.483  1.00  0.00    -0.286 C  
HETATM   21 CL   UNL     1     -11.820   6.576  69.859  1.00  0.00    -0.368 Cl 
ENDBRANCH  15  19
ENDBRANCH  12  15
ENDBRANCH   8   9
ENDBRANCH   2   8
TORSDOF 5
ENDMDL
MODEL       23
REMARK 921   NORMALIZED FREE ENERGY PREDICTED BY IDOCK:   -5.41 KCAL/MOL
REMARK 922        TOTAL FREE ENERGY PREDICTED BY IDOCK:   -7.58 KCAL/MOL
REMARK 923 INTER-LIGAND FREE ENERGY PREDICTED BY IDOCK:   -6.89 KCAL/MOL
REMARK 924 INTRA-LIGAND FREE ENERGY PREDICTED BY IDOCK:   -0.69 KCAL/MOL
REMARK 927      BINDING AFFINITY PREDICTED BY RF-SCORE:    0.00 PKD
ROOT
HETATM    1  N   UNL     1     -12.013  16.028  63.806  1.00  0.00    -1.339 NA 
HETATM    2  CA  UNL     1     -11.312  14.993  64.639  1.00  0.00    -0.352 C  
HETATM    3  H1  UNL     1     -11.900  15.896  62.800  1.00  0.00     0.000 HD 
HETATM    4  H2  UNL     1     -11.720  16.966  64.079  1.00  0.00     0.000 HD 
HETATM    5  C   UNL     1     -11.875  13.618  64.244  1.00  0.00    -0.425 C  
HETATM    6  O   UNL     1     -12.702  13.713  63.169  1.00  0.00    -0.737 OA 
HETATM    7  OXT UNL     1     -11.619  12.563  64.803  1.00  0.00    -0.314 OA 
ENDROOT
BRANCH   2   8
HETATM    8  C   UNL     1     -11.482  15.192  66.157  1.00  0.00    -0.157 C  
BRANCH   8   9
HETATM    9  C   UNL     1     -10.414  16.065  66.774  1.00  0.00    -0.308 A  
HETATM   10  C   UNL     1      -9.147  16.165  66.195  1.00  0.00    -0.382 A  
HETATM   11  C   UNL     1      -8.123  16.887  66.825  1.00  0.00    -0.276 A  
HETATM   12  C   UNL     1      -8.322  17.533  68.052  1.00  0.00    -0.241 A  
HETATM   13  C   UNL     1      -9.631  17.495  68.566  1.00  0.00    -0.305 A  
HETATM   14  C   UNL     1     -10.657  16.766  67.953  1.00  0.00    -0.350 A  
BRANCH  12  15
HETATM   15  N   UNL     1      -7.295  18.161  68.753  1.00  0.00    -0.281 NA 
BRANCH  15  16
HETATM   16  C   UNL     1      -7.391  19.566  69.199  1.00  0.00    -0.329 C  
HETATM   17 CL   UNL     1      -6.897  20.530  66.664  1.00  0.00    -0.299 Cl 
HETATM   18  C   UNL     1      -6.487  20.510  68.402  1.00  0.00    -0.289 C  
ENDBRANCH  15  16
BRANCH  15  19
HETATM   19  C   UNL     1      -5.927  17.606  68.642  1.00  0.00    -0.179 C  
HETATM   20  C   UNL     1      -5.591  16.548  69.701  1.00  0.00    -0.165 C  
HETATM   21 CL   UNL     1      -6.635  15.105  69.583  1.00  0.00    -0.160 Cl 
ENDBRANCH  15  19
ENDBRANCH  12  15
ENDBRANCH   8   9
ENDBRANCH   2   8
TORSDOF 5
ENDMDL
MODEL       24
REMARK 921   NORMALIZED FREE ENERGY PREDICTED BY IDOCK:   -5.41 KCAL/MOL
REMARK 922        TOTAL FREE ENERGY PREDICTED BY IDOCK:   -7.58 KCAL/MOL
REMARK 923 INTER-LIGAND FREE ENERGY PREDICTED BY IDOCK:   -6.92 KCAL/MOL
REMARK 924 INTRA-LIGAND FREE ENERGY PREDICTED BY IDOCK:   -0.66 KCAL/MOL
REMARK 927      BINDING AFFINITY PREDICTED BY RF-SCORE:    0.00 PKD
ROOT
HETATM    1  N   UNL     1     -13.895   7.641  71.204  1.00  0.00    -0.630 NA 
HETATM    2  CA  UNL     1     -12.719   8.569  71.311  1.00  0.00    -0.201 C  
HETATM    3  H1  UNL     1     -13.676   6.745  70.768  1.00  0.00     0.000 HD 
HETATM    4  H2  UNL     1     -14.667   8.097  70.717  1.00  0.00     0.000 HD 
HETATM    5  C   UNL     1     -11.637   7.857  72.139  1.00  0.00    -0.328 C  
HETATM    6  O   UNL     1     -11.978   6.565  72.389  1.00  0.00    -0.255 OA 
HETATM    7  OXT UNL     1     -10.596   8.363  72.525  1.00  0.00    -0.328 OA 
ENDROOT
BRANCH   2   8
HETATM    8  C   UNL     1     -13.049   9.923  71.969  1.00  0.00    -0.545 C  
BRANCH   8   9
HETATM    9  C   UNL     1     -12.613  11.114  71.148  1.00  0.00    -0.513 A  
HETATM   10  C   UNL     1     -12.947  12.414  71.537  1.00  0.00    -0.385 A  
HETATM   11  C   UNL     1     -12.637  13.511  70.719  1.00  0.00    -0.382 A  
HETATM   12  C   UNL     1     -11.988  13.355  69.487  1.00  0.00    -0.319 A  
HETATM   13  C   UNL     1     -11.580  12.048  69.164  1.00  0.00    -0.370 A  
HETATM   14  C   UNL     1     -11.896  10.944  69.966  1.00  0.00    -0.428 A  
BRANCH  12  15
HETATM   15  N   UNL     1     -11.769  14.412  68.608  1.00  0.00    -0.316 NA 
BRANCH  15  16
HETATM   16  C   UNL     1     -11.862  15.823  69.033  1.00  0.00    -0.355 C  
HETATM   17 CL   UNL     1      -9.122  16.113  69.089  1.00  0.00    -0.252 Cl 
HETATM   18  C   UNL     1     -10.695  16.259  69.922  1.00  0.00    -0.322 C  
ENDBRANCH  15  16
BRANCH  15  19
HETATM   19  C   UNL     1     -11.915  14.160  67.156  1.00  0.00    -0.426 C  
HETATM   20  C   UNL     1     -10.684  14.546  66.324  1.00  0.00    -0.309 C  
HETATM   21 CL   UNL     1      -9.236  13.602  66.766  1.00  0.00    -0.258 Cl 
ENDBRANCH  15  19
ENDBRANCH  12  15
ENDBRANCH   8   9
ENDBRANCH   2   8
TORSDOF 5
ENDMDL
MODEL       25
REMARK 921   NORMALIZED FREE ENERGY PREDICTED BY IDOCK:   -5.39 KCAL/MOL
REMARK 922        TOTAL FREE ENERGY PREDICTED BY IDOCK:   -7.56 KCAL/MOL
REMARK 923 INTER-LIGAND FREE ENERGY PREDICTED BY IDOCK:   -7.03 KCAL/MOL
REMARK 924 INTRA-LIGAND FREE ENERGY PREDICTED BY IDOCK:   -0.53 KCAL/MOL
REMARK 927      BINDING AFFINITY PREDICTED BY RF-SCORE:    0.00 PKD
ROOT
HETATM    1  N   UNL     1     -11.057  11.939  65.752  1.00  0.00    -0.316 NA 
HETATM    2  CA  UNL     1     -12.242  12.568  65.078  1.00  0.00    -0.456 C  
HETATM    3  H1  UNL     1     -10.713  11.098  65.286  1.00  0.00     0.000 HD 
HETATM    4  H2  UNL     1     -11.263  11.746  66.733  1.00  0.00     0.000 HD 
HETATM    5  C   UNL     1     -11.827  12.922  63.641  1.00  0.00    -0.532 C  
HETATM    6  O   UNL     1     -10.595  12.429  63.347  1.00  0.00    -0.436 OA 
HETATM    7  OXT UNL     1     -12.503  13.555  62.846  1.00  0.00    -0.601 OA 
ENDROOT
BRANCH   2   8
HETATM    8  C   UNL     1     -12.761  13.836  65.782  1.00  0.00    -0.494 C  
BRANCH   8   9
HETATM    9  C   UNL     1     -11.659  14.743  66.280  1.00  0.00    -0.298 A  
HETATM   10  C   UNL     1     -11.426  14.903  67.648  1.00  0.00    -0.366 A  
HETATM   11  C   UNL     1     -10.477  15.825  68.112  1.00  0.00    -0.263 A  
HETATM   12  C   UNL     1      -9.729  16.622  67.235  1.00  0.00    -0.245 A  
HETATM   13  C   UNL     1      -9.917  16.374  65.863  1.00  0.00    -0.358 A  
HETATM   14  C   UNL     1     -10.870  15.466  65.388  1.00  0.00    -0.403 A  
BRANCH  12  15
HETATM   15  N   UNL     1      -8.864  17.622  67.671  1.00  0.00    -0.234 NA 
BRANCH  15  16
HETATM   16  C   UNL     1      -7.436  17.363  67.944  1.00  0.00    -0.191 C  
HETATM   17 CL   UNL     1      -6.633  18.739  65.694  1.00  0.00    -0.295 Cl 
HETATM   18  C   UNL     1      -6.595  17.244  66.670  1.00  0.00    -0.232 C  
ENDBRANCH  15  16
BRANCH  15  19
HETATM   19  C   UNL     1      -9.443  18.819  68.323  1.00  0.00    -0.349 C  
HETATM   20  C   UNL     1      -9.385  20.091  67.466  1.00  0.00    -0.367 C  
HETATM   21 CL   UNL     1     -10.325  19.944  65.957  1.00  0.00    -0.598 Cl 
ENDBRANCH  15  19
ENDBRANCH  12  15
ENDBRANCH   8   9
ENDBRANCH   2   8
TORSDOF 5
ENDMDL
MODEL       26
REMARK 921   NORMALIZED FREE ENERGY PREDICTED BY IDOCK:   -5.38 KCAL/MOL
REMARK 922        TOTAL FREE ENERGY PREDICTED BY IDOCK:   -7.55 KCAL/MOL
REMARK 923 INTER-LIGAND FREE ENERGY PREDICTED BY IDOCK:   -7.00 KCAL/MOL
REMARK 924 INTRA-LIGAND FREE ENERGY PREDICTED BY IDOCK:   -0.55 KCAL/MOL
REMARK 927      BINDING AFFINITY PREDICTED BY RF-SCORE:    0.00 PKD
ROOT
HETATM    1  N   UNL     1     -12.443  14.621  63.705  1.00  0.00    -1.068 NA 
HETATM    2  CA  UNL     1     -11.784  13.979  64.892  1.00  0.00    -0.380 C  
HETATM    3  H1  UNL     1     -12.287  14.125  62.827  1.00  0.00     0.000 HD 
HETATM    4  H2  UNL     1     -12.158  15.597  63.621  1.00  0.00     0.000 HD 
HETATM    5  C   UNL     1     -12.335  12.550  65.016  1.00  0.00    -0.453 C  
HETATM    6  O   UNL     1     -13.114  12.227  63.950  1.00  0.00    -0.772 OA 
HETATM    7  OXT UNL     1     -12.109  11.783  65.938  1.00  0.00    -0.381 OA 
ENDROOT
BRANCH   2   8
HETATM    8  C   UNL     1     -12.019  14.728  66.218  1.00  0.00    -0.168 C  
BRANCH   8   9
HETATM    9  C   UNL     1     -10.802  15.474  66.714  1.00  0.00    -0.291 A  
HETATM   10  C   UNL     1     -10.839  16.192  67.912  1.00  0.00    -0.332 A  
HETATM   11  C   UNL     1      -9.746  16.972  68.316  1.00  0.00    -0.275 A  
HETATM   12  C   UNL     1      -8.580  17.067  67.545  1.00  0.00    -0.205 A  
HETATM   13  C   UNL     1      -8.533  16.262  66.393  1.00  0.00    -0.365 A  
HETATM   14  C   UNL     1      -9.623  15.490  65.972  1.00  0.00    -0.380 A  
BRANCH  12  15
HETATM   15  N   UNL     1      -7.527  17.920  67.867  1.00  0.00    -0.212 NA 
BRANCH  15  16
HETATM   16  C   UNL     1      -6.152  17.425  68.087  1.00  0.00    -0.158 C  
HETATM   17 CL   UNL     1      -7.007  15.466  69.828  1.00  0.00    -0.177 Cl 
HETATM   18  C   UNL     1      -5.937  16.857  69.492  1.00  0.00    -0.213 C  
ENDBRANCH  15  16
BRANCH  15  19
HETATM   19  C   UNL     1      -7.846  19.238  68.461  1.00  0.00    -0.348 C  
HETATM   20  C   UNL     1      -8.039  20.360  67.432  1.00  0.00    -0.321 C  
HETATM   21 CL   UNL     1      -9.413  20.055  66.336  1.00  0.00    -0.502 Cl 
ENDBRANCH  15  19
ENDBRANCH  12  15
ENDBRANCH   8   9
ENDBRANCH   2   8
TORSDOF 5
ENDMDL
MODEL       27
REMARK 921   NORMALIZED FREE ENERGY PREDICTED BY IDOCK:   -5.36 KCAL/MOL
REMARK 922        TOTAL FREE ENERGY PREDICTED BY IDOCK:   -7.52 KCAL/MOL
REMARK 923 INTER-LIGAND FREE ENERGY PREDICTED BY IDOCK:   -6.76 KCAL/MOL
REMARK 924 INTRA-LIGAND FREE ENERGY PREDICTED BY IDOCK:   -0.77 KCAL/MOL
REMARK 927      BINDING AFFINITY PREDICTED BY RF-SCORE:    0.00 PKD
ROOT
HETATM    1  N   UNL     1     -10.822  14.526  64.894  1.00  0.00    -0.420 NA 
HETATM    2  CA  UNL     1     -11.392  13.161  65.157  1.00  0.00    -0.296 C  
HETATM    3  H1  UNL     1     -10.460  14.648  63.948  1.00  0.00     0.000 HD 
HETATM    4  H2  UNL     1     -10.106  14.754  65.584  1.00  0.00     0.000 HD 
HETATM    5  C   UNL     1     -12.528  12.928  64.149  1.00  0.00    -0.335 C  
HETATM    6  O   UNL     1     -12.581  13.925  63.226  1.00  0.00    -0.824 OA 
HETATM    7  OXT UNL     1     -13.289  11.974  64.150  1.00  0.00    -0.725 OA 
ENDROOT
BRANCH   2   8
HETATM    8  C   UNL     1     -11.939  12.977  66.586  1.00  0.00    -0.453 C  
BRANCH   8   9
HETATM    9  C   UNL     1     -11.348  11.790  67.309  1.00  0.00    -0.379 A  
HETATM   10  C   UNL     1     -10.459  10.926  66.664  1.00  0.00    -0.307 A  
HETATM   11  C   UNL     1      -9.997   9.764  67.298  1.00  0.00    -0.242 A  
HETATM   12  C   UNL     1     -10.401   9.419  68.595  1.00  0.00    -0.203 A  
HETATM   13  C   UNL     1     -11.221  10.352  69.256  1.00  0.00    -0.304 A  
HETATM   14  C   UNL     1     -11.700  11.508  68.627  1.00  0.00    -0.389 A  
BRANCH  12  15
HETATM   15  N   UNL     1     -10.046   8.219  69.205  1.00  0.00    -0.197 NA 
BRANCH  15  16
HETATM   16  C   UNL     1      -8.703   7.993  69.776  1.00  0.00    -0.136 C  
HETATM   17 CL   UNL     1      -9.557   8.591  72.328  1.00  0.00    -0.370 Cl 
HETATM   18  C   UNL     1      -8.411   8.880  70.989  1.00  0.00    -0.198 C  
ENDBRANCH  15  16
BRANCH  15  19
HETATM   19  C   UNL     1     -10.822   7.003  68.869  1.00  0.00    -0.167 C  
HETATM   20  C   UNL     1     -11.319   6.218  70.091  1.00  0.00    -0.406 C  
HETATM   21 CL   UNL     1     -12.446   7.164  71.100  1.00  0.00    -0.406 Cl 
ENDBRANCH  15  19
ENDBRANCH  12  15
ENDBRANCH   8   9
ENDBRANCH   2   8
TORSDOF 5
ENDMDL
MODEL       28
REMARK 921   NORMALIZED FREE ENERGY PREDICTED BY IDOCK:   -5.34 KCAL/MOL
REMARK 922        TOTAL FREE ENERGY PREDICTED BY IDOCK:   -7.49 KCAL/MOL
REMARK 923 INTER-LIGAND FREE ENERGY PREDICTED BY IDOCK:   -6.84 KCAL/MOL
REMARK 924 INTRA-LIGAND FREE ENERGY PREDICTED BY IDOCK:   -0.64 KCAL/MOL
REMARK 927      BINDING AFFINITY PREDICTED BY RF-SCORE:    0.00 PKD
ROOT
HETATM    1  N   UNL     1     -13.080  15.878  71.120  1.00  0.00    -0.581 NA 
HETATM    2  CA  UNL     1     -13.215  14.404  70.866  1.00  0.00    -0.288 C  
HETATM    3  H1  UNL     1     -13.917  16.309  71.515  1.00  0.00     0.000 HD 
HETATM    4  H2  UNL     1     -12.795  16.364  70.269  1.00  0.00     0.000 HD 
HETATM    5  C   UNL     1     -13.545  13.728  72.206  1.00  0.00    -0.559 C  
HETATM    6  O   UNL     1     -13.777  14.649  73.179  1.00  0.00    -0.530 OA 
HETATM    7  OXT UNL     1     -13.604  12.524  72.394  1.00  0.00    -0.521 OA 
ENDROOT
BRANCH   2   8
HETATM    8  C   UNL     1     -11.951  13.755  70.269  1.00  0.00    -0.397 C  
BRANCH   8   9
HETATM    9  C   UNL     1     -11.188  14.666  69.338  1.00  0.00    -0.307 A  
HETATM   10  C   UNL     1     -10.105  15.420  69.799  1.00  0.00    -0.266 A  
HETATM   11  C   UNL     1      -9.465  16.346  68.963  1.00  0.00    -0.258 A  
HETATM   12  C   UNL     1      -9.879  16.558  67.641  1.00  0.00    -0.247 A  
HETATM   13  C   UNL     1     -10.909  15.721  67.174  1.00  0.00    -0.289 A  
HETATM   14  C   UNL     1     -11.563  14.802  68.003  1.00  0.00    -0.367 A  
BRANCH  12  15
HETATM   15  N   UNL     1      -9.335  17.548  66.827  1.00  0.00    -0.257 NA 
BRANCH  15  16
HETATM   16  C   UNL     1     -10.175  18.533  66.117  1.00  0.00    -0.398 C  
HETATM   17 CL   UNL     1      -9.749  20.463  68.038  1.00  0.00    -0.414 Cl 
HETATM   18  C   UNL     1     -10.893  19.501  67.061  1.00  0.00    -0.427 C  
ENDBRANCH  15  16
BRANCH  15  19
HETATM   19  C   UNL     1      -7.975  17.340  66.280  1.00  0.00    -0.295 C  
HETATM   20  C   UNL     1      -6.974  18.443  66.648  1.00  0.00    -0.205 C  
HETATM   21 CL   UNL     1      -6.701  18.560  68.408  1.00  0.00    -0.240 Cl 
ENDBRANCH  15  19
ENDBRANCH  12  15
ENDBRANCH   8   9
ENDBRANCH   2   8
TORSDOF 5
ENDMDL
MODEL       29
REMARK 921   NORMALIZED FREE ENERGY PREDICTED BY IDOCK:   -5.31 KCAL/MOL
REMARK 922        TOTAL FREE ENERGY PREDICTED BY IDOCK:   -7.46 KCAL/MOL
REMARK 923 INTER-LIGAND FREE ENERGY PREDICTED BY IDOCK:   -6.73 KCAL/MOL
REMARK 924 INTRA-LIGAND FREE ENERGY PREDICTED BY IDOCK:   -0.72 KCAL/MOL
REMARK 927      BINDING AFFINITY PREDICTED BY RF-SCORE:    0.00 PKD
ROOT
HETATM    1  N   UNL     1      -8.920   8.889  71.808  1.00  0.00    -0.353 NA 
HETATM    2  CA  UNL     1     -10.334   9.169  71.386  1.00  0.00    -0.338 C  
HETATM    3  H1  UNL     1      -8.714   9.159  72.770  1.00  0.00     0.000 HD 
HETATM    4  H2  UNL     1      -8.261   9.327  71.164  1.00  0.00     0.000 HD 
HETATM    5  C   UNL     1     -11.265   8.399  72.337  1.00  0.00    -0.368 C  
HETATM    6  O   UNL     1     -10.569   7.834  73.359  1.00  0.00    -0.348 OA 
HETATM    7  OXT UNL     1     -12.475   8.301  72.214  1.00  0.00    -0.341 OA 
ENDROOT
BRANCH   2   8
HETATM    8  C   UNL     1     -10.645   8.761  69.933  1.00  0.00    -0.230 C  
BRANCH   8   9
HETATM    9  C   UNL     1     -10.875   9.937  69.013  1.00  0.00    -0.242 A  
HETATM   10  C   UNL     1     -11.583  11.061  69.448  1.00  0.00    -0.383 A  
HETATM   11  C   UNL     1     -11.890  12.104  68.563  1.00  0.00    -0.365 A  
HETATM   12  C   UNL     1     -11.506  12.067  67.216  1.00  0.00    -0.335 A  
HETATM   13  C   UNL     1     -10.714  10.971  66.828  1.00  0.00    -0.319 A  
HETATM   14  C   UNL     1     -10.414   9.917  67.699  1.00  0.00    -0.296 A  
BRANCH  12  15
HETATM   15  N   UNL     1     -11.892  13.035  66.292  1.00  0.00    -0.390 NA 
BRANCH  15  16
HETATM   16  C   UNL     1     -12.051  14.456  66.659  1.00  0.00    -0.367 C  
HETATM   17 CL   UNL     1      -9.558  15.112  65.682  1.00  0.00    -0.350 Cl 
HETATM   18  C   UNL     1     -10.728  15.130  67.031  1.00  0.00    -0.307 C  
ENDBRANCH  15  16
BRANCH  15  19
HETATM   19  C   UNL     1     -12.607  12.596  65.071  1.00  0.00    -0.430 C  
HETATM   20  C   UNL     1     -11.926  13.012  63.761  1.00  0.00    -0.518 C  
HETATM   21 CL   UNL     1     -10.304  12.292  63.573  1.00  0.00    -0.454 Cl 
ENDBRANCH  15  19
ENDBRANCH  12  15
ENDBRANCH   8   9
ENDBRANCH   2   8
TORSDOF 5
ENDMDL
MODEL       30
REMARK 921   NORMALIZED FREE ENERGY PREDICTED BY IDOCK:   -5.31 KCAL/MOL
REMARK 922        TOTAL FREE ENERGY PREDICTED BY IDOCK:   -7.46 KCAL/MOL
REMARK 923 INTER-LIGAND FREE ENERGY PREDICTED BY IDOCK:   -7.14 KCAL/MOL
REMARK 924 INTRA-LIGAND FREE ENERGY PREDICTED BY IDOCK:   -0.32 KCAL/MOL
REMARK 927      BINDING AFFINITY PREDICTED BY RF-SCORE:    0.00 PKD
ROOT
HETATM    1  N   UNL     1     -14.024  15.397  70.819  1.00  0.00    -0.859 NA 
HETATM    2  CA  UNL     1     -12.996  14.737  71.693  1.00  0.00    -0.334 C  
HETATM    3  H1  UNL     1     -14.979  15.316  71.170  1.00  0.00     0.000 HD 
HETATM    4  H2  UNL     1     -13.962  15.044  69.864  1.00  0.00     0.000 HD 
HETATM    5  C   UNL     1     -13.079  15.387  73.083  1.00  0.00    -0.530 C  
HETATM    6  O   UNL     1     -14.140  16.233  73.170  1.00  0.00    -0.403 OA 
HETATM    7  OXT UNL     1     -12.310  15.179  74.007  1.00  0.00    -0.583 OA 
ENDROOT
BRANCH   2   8
HETATM    8  C   UNL     1     -11.554  14.858  71.163  1.00  0.00    -0.347 C  
BRANCH   8   9
HETATM    9  C   UNL     1     -11.327  14.128  69.861  1.00  0.00    -0.232 A  
HETATM   10  C   UNL     1     -10.529  14.683  68.857  1.00  0.00    -0.248 A  
HETATM   11  C   UNL     1     -10.406  14.058  67.608  1.00  0.00    -0.242 A  
HETATM   12  C   UNL     1     -11.072  12.861  67.311  1.00  0.00    -0.274 A  
HETATM   13  C   UNL     1     -11.792  12.276  68.369  1.00  0.00    -0.358 A  
HETATM   14  C   UNL     1     -11.933  12.898  69.615  1.00  0.00    -0.358 A  
BRANCH  12  15
HETATM   15  N   UNL     1     -11.057  12.279  66.046  1.00  0.00    -0.296 NA 
BRANCH  15  16
HETATM   16  C   UNL     1     -12.217  12.344  65.135  1.00  0.00    -0.384 C  
HETATM   17 CL   UNL     1     -11.742  14.990  64.526  1.00  0.00    -0.407 Cl 
HETATM   18  C   UNL     1     -12.870  13.728  65.095  1.00  0.00    -0.340 C  
ENDBRANCH  15  16
BRANCH  15  19
HETATM   19  C   UNL     1     -10.085  11.192  65.784  1.00  0.00    -0.249 C  
HETATM   20  C   UNL     1     -10.124  10.648  64.350  1.00  0.00    -0.349 C  
HETATM   21 CL   UNL     1      -9.702  11.885  63.136  1.00  0.00    -0.344 Cl 
ENDBRANCH  15  19
ENDBRANCH  12  15
ENDBRANCH   8   9
ENDBRANCH   2   8
TORSDOF 5
ENDMDL
MODEL       31
REMARK 921   NORMALIZED FREE ENERGY PREDICTED BY IDOCK:   -5.31 KCAL/MOL
REMARK 922        TOTAL FREE ENERGY PREDICTED BY IDOCK:   -7.45 KCAL/MOL
REMARK 923 INTER-LIGAND FREE ENERGY PREDICTED BY IDOCK:   -6.95 KCAL/MOL
REMARK 924 INTRA-LIGAND FREE ENERGY PREDICTED BY IDOCK:   -0.51 KCAL/MOL
REMARK 927      BINDING AFFINITY PREDICTED BY RF-SCORE:    0.00 PKD
ROOT
HETATM    1  N   UNL     1     -10.859  15.398  65.726  1.00  0.00    -0.339 NA 
HETATM    2  CA  UNL     1     -11.417  14.021  65.946  1.00  0.00    -0.330 C  
HETATM    3  H1  UNL     1     -10.478  15.545  64.790  1.00  0.00     0.000 HD 
HETATM    4  H2  UNL     1     -10.160  15.619  66.436  1.00  0.00     0.000 HD 
HETATM    5  C   UNL     1     -12.529  13.797  64.909  1.00  0.00    -0.386 C  
HETATM    6  O   UNL     1     -12.575  14.814  64.008  1.00  0.00    -0.822 OA 
HETATM    7  OXT UNL     1     -13.278  12.835  64.873  1.00  0.00    -0.808 OA 
ENDROOT
BRANCH   2   8
HETATM    8  C   UNL     1     -11.992  13.799  67.359  1.00  0.00    -0.423 C  
BRANCH   8   9
HETATM    9  C   UNL     1     -11.587  12.479  67.973  1.00  0.00    -0.395 A  
HETATM   10  C   UNL     1     -11.073  11.448  67.183  1.00  0.00    -0.366 A  
HETATM   11  C   UNL     1     -10.800  10.188  67.734  1.00  0.00    -0.346 A  
HETATM   12  C   UNL     1     -11.030   9.907  69.087  1.00  0.00    -0.200 A  
HETATM   13  C   UNL     1     -11.458  10.988  69.879  1.00  0.00    -0.400 A  
HETATM   14  C   UNL     1     -11.747  12.246  69.337  1.00  0.00    -0.392 A  
BRANCH  12  15
HETATM   15  N   UNL     1     -10.873   8.636  69.634  1.00  0.00    -0.201 NA 
BRANCH  15  16
HETATM   16  C   UNL     1     -11.471   8.257  70.930  1.00  0.00    -0.274 C  
HETATM   17 CL   UNL     1      -9.141   8.794  72.300  1.00  0.00    -0.267 Cl 
HETATM   18  C   UNL     1     -10.457   7.654  71.905  1.00  0.00    -0.215 C  
ENDBRANCH  15  16
BRANCH  15  19
HETATM   19  C   UNL     1      -9.729   7.811  69.181  1.00  0.00    -0.161 C  
HETATM   20  C   UNL     1     -10.134   6.493  68.507  1.00  0.00    -0.160 C  
HETATM   21 CL   UNL     1     -11.079   6.749  67.015  1.00  0.00    -0.460 Cl 
ENDBRANCH  15  19
ENDBRANCH  12  15
ENDBRANCH   8   9
ENDBRANCH   2   8
TORSDOF 5
ENDMDL
MODEL       32
REMARK 921   NORMALIZED FREE ENERGY PREDICTED BY IDOCK:   -5.30 KCAL/MOL
REMARK 922        TOTAL FREE ENERGY PREDICTED BY IDOCK:   -7.44 KCAL/MOL
REMARK 923 INTER-LIGAND FREE ENERGY PREDICTED BY IDOCK:   -7.28 KCAL/MOL
REMARK 924 INTRA-LIGAND FREE ENERGY PREDICTED BY IDOCK:   -0.16 KCAL/MOL
REMARK 927      BINDING AFFINITY PREDICTED BY RF-SCORE:    0.00 PKD
ROOT
HETATM    1  N   UNL     1     -12.467  13.859  63.206  1.00  0.00    -1.112 NA 
HETATM    2  CA  UNL     1     -11.929  12.832  64.161  1.00  0.00    -0.427 C  
HETATM    3  H1  UNL     1     -13.476  13.802  63.063  1.00  0.00     0.000 HD 
HETATM    4  H2  UNL     1     -11.975  13.811  62.314  1.00  0.00     0.000 HD 
HETATM    5  C   UNL     1     -12.642  13.029  65.509  1.00  0.00    -0.362 C  
HETATM    6  O   UNL     1     -13.645  13.941  65.407  1.00  0.00    -0.571 OA 
HETATM    7  OXT UNL     1     -12.366  12.448  66.545  1.00  0.00    -0.511 OA 
ENDROOT
BRANCH   2   8
HETATM    8  C   UNL     1     -10.406  12.918  64.378  1.00  0.00    -0.393 C  
BRANCH   8   9
HETATM    9  C   UNL     1      -9.982  14.102  65.215  1.00  0.00    -0.295 A  
HETATM   10  C   UNL     1      -9.171  13.931  66.340  1.00  0.00    -0.174 A  
HETATM   11  C   UNL     1      -8.867  15.014  67.179  1.00  0.00    -0.233 A  
HETATM   12  C   UNL     1      -9.359  16.302  66.930  1.00  0.00    -0.224 A  
HETATM   13  C   UNL     1     -10.094  16.465  65.741  1.00  0.00    -0.352 A  
HETATM   14  C   UNL     1     -10.415  15.389  64.904  1.00  0.00    -0.323 A  
BRANCH  12  15
HETATM   15  N   UNL     1      -9.166  17.368  67.804  1.00  0.00    -0.245 NA 
BRANCH  15  16
HETATM   16  C   UNL     1      -7.942  17.506  68.620  1.00  0.00    -0.268 C  
HETATM   17 CL   UNL     1      -6.692  19.044  66.704  1.00  0.00    -0.201 Cl 
HETATM   18  C   UNL     1      -6.669  17.616  67.778  1.00  0.00    -0.183 C  
ENDBRANCH  15  16
BRANCH  15  19
HETATM   19  C   UNL     1     -10.355  18.107  68.287  1.00  0.00    -0.363 C  
HETATM   20  C   UNL     1     -10.317  19.614  68.002  1.00  0.00    -0.453 C  
HETATM   21 CL   UNL     1     -10.282  19.980  66.256  1.00  0.00    -0.589 Cl 
ENDBRANCH  15  19
ENDBRANCH  12  15
ENDBRANCH   8   9
ENDBRANCH   2   8
TORSDOF 5
ENDMDL
MODEL       33
REMARK 921   NORMALIZED FREE ENERGY PREDICTED BY IDOCK:   -5.30 KCAL/MOL
REMARK 922        TOTAL FREE ENERGY PREDICTED BY IDOCK:   -7.44 KCAL/MOL
REMARK 923 INTER-LIGAND FREE ENERGY PREDICTED BY IDOCK:   -7.03 KCAL/MOL
REMARK 924 INTRA-LIGAND FREE ENERGY PREDICTED BY IDOCK:   -0.40 KCAL/MOL
REMARK 927      BINDING AFFINITY PREDICTED BY RF-SCORE:    0.00 PKD
ROOT
HETATM    1  N   UNL     1     -10.859  14.819  70.913  1.00  0.00    -0.510 NA 
HETATM    2  CA  UNL     1     -12.265  14.321  71.089  1.00  0.00    -0.356 C  
HETATM    3  H1  UNL     1     -10.756  15.825  71.051  1.00  0.00     0.000 HD 
HETATM    4  H2  UNL     1     -10.492  14.543  70.002  1.00  0.00     0.000 HD 
HETATM    5  C   UNL     1     -12.714  14.683  72.514  1.00  0.00    -0.363 C  
HETATM    6  O   UNL     1     -11.797  15.474  73.134  1.00  0.00    -0.447 OA 
HETATM    7  OXT UNL     1     -13.756  14.327  73.038  1.00  0.00    -0.613 OA 
ENDROOT
BRANCH   2   8
HETATM    8  C   UNL     1     -12.421  12.803  70.880  1.00  0.00    -0.373 C  
BRANCH   8   9
HETATM    9  C   UNL     1     -12.032  12.341  69.496  1.00  0.00    -0.333 A  
HETATM   10  C   UNL     1     -11.752  10.996  69.240  1.00  0.00    -0.397 A  
HETATM   11  C   UNL     1     -11.285  10.585  67.983  1.00  0.00    -0.361 A  
HETATM   12  C   UNL     1     -11.079  11.495  66.937  1.00  0.00    -0.307 A  
HETATM   13  C   UNL     1     -11.457  12.826  67.192  1.00  0.00    -0.394 A  
HETATM   14  C   UNL     1     -11.911  13.250  68.447  1.00  0.00    -0.395 A  
BRANCH  12  15
HETATM   15  N   UNL     1     -10.513  11.132  65.718  1.00  0.00    -0.254 NA 
BRANCH  15  16
HETATM   16  C   UNL     1      -9.773   9.866  65.539  1.00  0.00    -0.302 C  
HETATM   17 CL   UNL     1      -7.537  10.854  66.814  1.00  0.00    -0.128 Cl 
HETATM   18  C   UNL     1      -8.264  10.071  65.383  1.00  0.00    -0.149 C  
ENDBRANCH  15  16
BRANCH  15  19
HETATM   19  C   UNL     1     -10.225  12.198  64.731  1.00  0.00    -0.281 C  
HETATM   20  C   UNL     1     -10.840  11.954  63.346  1.00  0.00    -0.399 C  
HETATM   21 CL   UNL     1     -12.623  11.898  63.389  1.00  0.00    -0.674 Cl 
ENDBRANCH  15  19
ENDBRANCH  12  15
ENDBRANCH   8   9
ENDBRANCH   2   8
TORSDOF 5
ENDMDL
MODEL       34
REMARK 921   NORMALIZED FREE ENERGY PREDICTED BY IDOCK:   -5.28 KCAL/MOL
REMARK 922        TOTAL FREE ENERGY PREDICTED BY IDOCK:   -7.41 KCAL/MOL
REMARK 923 INTER-LIGAND FREE ENERGY PREDICTED BY IDOCK:   -6.85 KCAL/MOL
REMARK 924 INTRA-LIGAND FREE ENERGY PREDICTED BY IDOCK:   -0.56 KCAL/MOL
REMARK 927      BINDING AFFINITY PREDICTED BY RF-SCORE:    0.00 PKD
ROOT
HETATM    1  N   UNL     1      -9.937  15.450  66.437  1.00  0.00    -0.263 NA 
HETATM    2  CA  UNL     1     -10.958  14.550  65.803  1.00  0.00    -0.319 C  
HETATM    3  H1  UNL     1      -9.211  15.769  65.795  1.00  0.00     0.000 HD 
HETATM    4  H2  UNL     1      -9.522  15.001  67.254  1.00  0.00     0.000 HD 
HETATM    5  C   UNL     1     -11.612  15.326  64.648  1.00  0.00    -0.333 C  
HETATM    6  O   UNL     1     -10.981  16.512  64.432  1.00  0.00    -0.872 OA 
HETATM    7  OXT UNL     1     -12.566  14.945  63.992  1.00  0.00    -0.832 OA 
ENDROOT
BRANCH   2   8
HETATM    8  C   UNL     1     -12.055  14.068  66.772  1.00  0.00    -0.480 C  
BRANCH   8   9
HETATM    9  C   UNL     1     -11.682  12.814  67.528  1.00  0.00    -0.422 A  
HETATM   10  C   UNL     1     -11.724  12.779  68.924  1.00  0.00    -0.370 A  
HETATM   11  C   UNL     1     -11.275  11.653  69.629  1.00  0.00    -0.249 A  
HETATM   12  C   UNL     1     -10.768  10.524  68.973  1.00  0.00    -0.225 A  
HETATM   13  C   UNL     1     -10.824  10.548  67.567  1.00  0.00    -0.357 A  
HETATM   14  C   UNL     1     -11.258  11.672  66.853  1.00  0.00    -0.376 A  
BRANCH  12  15
HETATM   15  N   UNL     1     -10.214   9.440  69.649  1.00  0.00    -0.200 NA 
BRANCH  15  16
HETATM   16  C   UNL     1     -10.346   9.272  71.110  1.00  0.00    -0.322 C  
HETATM   17 CL   UNL     1     -12.345   7.394  70.834  1.00  0.00    -0.281 Cl 
HETATM   18  C   UNL     1     -11.772   8.929  71.547  1.00  0.00    -0.324 C  
ENDBRANCH  15  16
BRANCH  15  19
HETATM   19  C   UNL     1      -9.095   8.710  69.010  1.00  0.00    -0.145 C  
HETATM   20  C   UNL     1      -9.395   7.233  68.718  1.00  0.00    -0.143 C  
HETATM   21 CL   UNL     1     -10.740   7.022  67.566  1.00  0.00    -0.338 Cl 
ENDBRANCH  15  19
ENDBRANCH  12  15
ENDBRANCH   8   9
ENDBRANCH   2   8
TORSDOF 5
ENDMDL
MODEL       35
REMARK 921   NORMALIZED FREE ENERGY PREDICTED BY IDOCK:   -5.26 KCAL/MOL
REMARK 922        TOTAL FREE ENERGY PREDICTED BY IDOCK:   -7.39 KCAL/MOL
REMARK 923 INTER-LIGAND FREE ENERGY PREDICTED BY IDOCK:   -6.94 KCAL/MOL
REMARK 924 INTRA-LIGAND FREE ENERGY PREDICTED BY IDOCK:   -0.45 KCAL/MOL
REMARK 927      BINDING AFFINITY PREDICTED BY RF-SCORE:    0.00 PKD
ROOT
HETATM    1  N   UNL     1     -10.450  15.809  66.347  1.00  0.00    -0.297 NA 
HETATM    2  CA  UNL     1     -11.193  14.688  65.679  1.00  0.00    -0.342 C  
HETATM    3  H1  UNL     1      -9.731  16.236  65.762  1.00  0.00     0.000 HD 
HETATM    4  H2  UNL     1     -10.051  15.497  67.233  1.00  0.00     0.000 HD 
HETATM    5  C   UNL     1     -11.848  15.255  64.409  1.00  0.00    -0.281 C  
HETATM    6  O   UNL     1     -11.442  16.531  64.171  1.00  0.00    -1.059 OA 
HETATM    7  OXT UNL     1     -12.627  14.654  63.687  1.00  0.00    -0.773 OA 
ENDROOT
BRANCH   2   8
HETATM    8  C   UNL     1     -12.279  14.044  66.563  1.00  0.00    -0.485 C  
BRANCH   8   9
HETATM    9  C   UNL     1     -11.740  13.003  67.516  1.00  0.00    -0.421 A  
HETATM   10  C   UNL     1     -10.964  11.938  67.052  1.00  0.00    -0.326 A  
HETATM   11  C   UNL     1     -10.557  10.914  67.918  1.00  0.00    -0.246 A  
HETATM   12  C   UNL     1     -10.906  10.911  69.275  1.00  0.00    -0.241 A  
HETATM   13  C   UNL     1     -11.607  12.040  69.736  1.00  0.00    -0.348 A  
HETATM   14  C   UNL     1     -12.031  13.062  68.877  1.00  0.00    -0.303 A  
BRANCH  12  15
HETATM   15  N   UNL     1     -10.610   9.853  70.132  1.00  0.00    -0.278 NA 
BRANCH  15  16
HETATM   16  C   UNL     1      -9.221   9.464  70.450  1.00  0.00    -0.257 C  
HETATM   17 CL   UNL     1      -9.077   7.757  68.290  1.00  0.00    -0.131 Cl 
HETATM   18  C   UNL     1      -8.895   8.024  70.047  1.00  0.00    -0.143 C  
ENDBRANCH  15  16
BRANCH  15  19
HETATM   19  C   UNL     1     -11.642   8.815  70.350  1.00  0.00    -0.088 C  
HETATM   20  C   UNL     1     -12.277   8.845  71.747  1.00  0.00    -0.359 C  
HETATM   21 CL   UNL     1     -13.146  10.369  72.073  1.00  0.00    -0.560 Cl 
ENDBRANCH  15  19
ENDBRANCH  12  15
ENDBRANCH   8   9
ENDBRANCH   2   8
TORSDOF 5
ENDMDL
MODEL       36
REMARK 921   NORMALIZED FREE ENERGY PREDICTED BY IDOCK:   -5.25 KCAL/MOL
REMARK 922        TOTAL FREE ENERGY PREDICTED BY IDOCK:   -7.38 KCAL/MOL
REMARK 923 INTER-LIGAND FREE ENERGY PREDICTED BY IDOCK:   -6.67 KCAL/MOL
REMARK 924 INTRA-LIGAND FREE ENERGY PREDICTED BY IDOCK:   -0.71 KCAL/MOL
REMARK 927      BINDING AFFINITY PREDICTED BY RF-SCORE:    0.00 PKD
ROOT
HETATM    1  N   UNL     1     -11.003  15.213  65.680  1.00  0.00    -0.345 NA 
HETATM    2  CA  UNL     1     -11.436  13.789  65.885  1.00  0.00    -0.322 C  
HETATM    3  H1  UNL     1     -10.630  15.402  64.749  1.00  0.00     0.000 HD 
HETATM    4  H2  UNL     1     -10.333  15.490  66.398  1.00  0.00     0.000 HD 
HETATM    5  C   UNL     1     -12.514  13.474  64.835  1.00  0.00    -0.384 C  
HETATM    6  O   UNL     1     -12.645  14.491  63.942  1.00  0.00    -0.827 OA 
HETATM    7  OXT UNL     1     -13.173  12.448  64.785  1.00  0.00    -0.784 OA 
ENDROOT
BRANCH   2   8
HETATM    8  C   UNL     1     -11.999  13.503  67.290  1.00  0.00    -0.408 C  
BRANCH   8   9
HETATM    9  C   UNL     1     -11.452  12.240  67.913  1.00  0.00    -0.390 A  
HETATM   10  C   UNL     1     -10.669  11.354  67.168  1.00  0.00    -0.292 A  
HETATM   11  C   UNL     1     -10.252  10.130  67.712  1.00  0.00    -0.232 A  
HETATM   12  C   UNL     1     -10.601   9.743  69.013  1.00  0.00    -0.219 A  
HETATM   13  C   UNL     1     -11.309  10.692  69.772  1.00  0.00    -0.371 A  
HETATM   14  C   UNL     1     -11.741  11.911  69.235  1.00  0.00    -0.389 A  
BRANCH  12  15
HETATM   15  N   UNL     1     -10.295   8.490  69.538  1.00  0.00    -0.215 NA 
BRANCH  15  16
HETATM   16  C   UNL     1      -9.306   7.592  68.908  1.00  0.00    -0.145 C  
HETATM   17 CL   UNL     1     -11.138   6.666  67.069  1.00  0.00    -0.473 Cl 
HETATM   18  C   UNL     1      -9.931   6.317  68.338  1.00  0.00    -0.140 C  
ENDBRANCH  15  16
BRANCH  15  19
HETATM   19  C   UNL     1     -11.282   7.843  70.433  1.00  0.00    -0.234 C  
HETATM   20  C   UNL     1     -10.678   7.272  71.724  1.00  0.00    -0.218 C  
HETATM   21 CL   UNL     1      -9.946   8.531  72.753  1.00  0.00    -0.281 Cl 
ENDBRANCH  15  19
ENDBRANCH  12  15
ENDBRANCH   8   9
ENDBRANCH   2   8
TORSDOF 5
ENDMDL
MODEL       37
REMARK 921   NORMALIZED FREE ENERGY PREDICTED BY IDOCK:   -5.22 KCAL/MOL
REMARK 922        TOTAL FREE ENERGY PREDICTED BY IDOCK:   -7.34 KCAL/MOL
REMARK 923 INTER-LIGAND FREE ENERGY PREDICTED BY IDOCK:   -6.71 KCAL/MOL
REMARK 924 INTRA-LIGAND FREE ENERGY PREDICTED BY IDOCK:   -0.63 KCAL/MOL
REMARK 927      BINDING AFFINITY PREDICTED BY RF-SCORE:    0.00 PKD
ROOT
HETATM    1  N   UNL     1      -9.302   8.858  71.939  1.00  0.00    -0.352 NA 
HETATM    2  CA  UNL     1     -10.593   9.333  71.337  1.00  0.00    -0.347 C  
HETATM    3  H1  UNL     1      -9.211   9.060  72.935  1.00  0.00     0.000 HD 
HETATM    4  H2  UNL     1      -8.506   9.234  71.423  1.00  0.00     0.000 HD 
HETATM    5  C   UNL     1     -11.741   8.649  72.097  1.00  0.00    -0.371 C  
HETATM    6  O   UNL     1     -11.279   7.959  73.173  1.00  0.00    -0.382 OA 
HETATM    7  OXT UNL     1     -12.922   8.711  71.797  1.00  0.00    -0.328 OA 
ENDROOT
BRANCH   2   8
HETATM    8  C   UNL     1     -10.731   9.028  69.833  1.00  0.00    -0.240 C  
BRANCH   8   9
HETATM    9  C   UNL     1     -11.102  10.236  69.005  1.00  0.00    -0.277 A  
HETATM   10  C   UNL     1     -10.963  10.223  67.614  1.00  0.00    -0.356 A  
HETATM   11  C   UNL     1     -11.203  11.378  66.857  1.00  0.00    -0.331 A  
HETATM   12  C   UNL     1     -11.588  12.587  67.453  1.00  0.00    -0.370 A  
HETATM   13  C   UNL     1     -11.811  12.548  68.841  1.00  0.00    -0.346 A  
HETATM   14  C   UNL     1     -11.561  11.404  69.609  1.00  0.00    -0.399 A  
BRANCH  12  15
HETATM   15  N   UNL     1     -11.724  13.774  66.738  1.00  0.00    -0.369 NA 
BRANCH  15  16
HETATM   16  C   UNL     1     -12.763  13.956  65.704  1.00  0.00    -0.495 C  
HETATM   17 CL   UNL     1     -11.172  12.856  63.741  1.00  0.00    -0.464 Cl 
HETATM   18  C   UNL     1     -12.184  14.213  64.311  1.00  0.00    -0.420 C  
ENDBRANCH  15  16
BRANCH  15  19
HETATM   19  C   UNL     1     -10.557  14.682  66.654  1.00  0.00    -0.289 C  
HETATM   20  C   UNL     1     -10.843  16.116  67.119  1.00  0.00    -0.216 C  
HETATM   21 CL   UNL     1     -11.309  16.198  68.840  1.00  0.00    -0.355 Cl 
ENDBRANCH  15  19
ENDBRANCH  12  15
ENDBRANCH   8   9
ENDBRANCH   2   8
TORSDOF 5
ENDMDL
MODEL       38
REMARK 921   NORMALIZED FREE ENERGY PREDICTED BY IDOCK:   -5.20 KCAL/MOL
REMARK 922        TOTAL FREE ENERGY PREDICTED BY IDOCK:   -7.32 KCAL/MOL
REMARK 923 INTER-LIGAND FREE ENERGY PREDICTED BY IDOCK:   -6.76 KCAL/MOL
REMARK 924 INTRA-LIGAND FREE ENERGY PREDICTED BY IDOCK:   -0.56 KCAL/MOL
REMARK 927      BINDING AFFINITY PREDICTED BY RF-SCORE:    0.00 PKD
ROOT
HETATM    1  N   UNL     1     -13.207   8.760  72.458  1.00  0.00    -0.594 NA 
HETATM    2  CA  UNL     1     -12.413   8.814  71.184  1.00  0.00    -0.193 C  
HETATM    3  H1  UNL     1     -13.861   7.977  72.505  1.00  0.00     0.000 HD 
HETATM    4  H2  UNL     1     -13.693   9.643  72.615  1.00  0.00     0.000 HD 
HETATM    5  C   UNL     1     -11.632   7.496  71.065  1.00  0.00    -0.283 C  
HETATM    6  O   UNL     1     -11.999   6.615  72.033  1.00  0.00    -0.311 OA 
HETATM    7  OXT UNL     1     -10.793   7.246  70.215  1.00  0.00    -0.234 OA 
ENDROOT
BRANCH   2   8
HETATM    8  C   UNL     1     -11.426   9.995  71.112  1.00  0.00    -0.432 C  
BRANCH   8   9
HETATM    9  C   UNL     1     -11.542  10.800  69.839  1.00  0.00    -0.410 A  
HETATM   10  C   UNL     1     -11.279  10.219  68.596  1.00  0.00    -0.263 A  
HETATM   11  C   UNL     1     -11.280  10.992  67.426  1.00  0.00    -0.355 A  
HETATM   12  C   UNL     1     -11.540  12.369  67.450  1.00  0.00    -0.365 A  
HETATM   13  C   UNL     1     -11.893  12.910  68.700  1.00  0.00    -0.347 A  
HETATM   14  C   UNL     1     -11.882  12.151  69.876  1.00  0.00    -0.392 A  
BRANCH  12  15
HETATM   15  N   UNL     1     -11.438  13.179  66.322  1.00  0.00    -0.320 NA 
BRANCH  15  16
HETATM   16  C   UNL     1     -12.312  13.004  65.145  1.00  0.00    -0.484 C  
HETATM   17 CL   UNL     1     -10.528  11.295  63.923  1.00  0.00    -0.420 Cl 
HETATM   18  C   UNL     1     -11.533  12.769  63.849  1.00  0.00    -0.444 C  
ENDBRANCH  15  16
BRANCH  15  19
HETATM   19  C   UNL     1     -10.164  13.896  66.084  1.00  0.00    -0.301 C  
HETATM   20  C   UNL     1     -10.312  15.419  65.972  1.00  0.00    -0.324 C  
HETATM   21 CL   UNL     1     -10.931  16.159  67.473  1.00  0.00    -0.284 Cl 
ENDBRANCH  15  19
ENDBRANCH  12  15
ENDBRANCH   8   9
ENDBRANCH   2   8
TORSDOF 5
ENDMDL
MODEL       39
REMARK 921   NORMALIZED FREE ENERGY PREDICTED BY IDOCK:   -5.20 KCAL/MOL
REMARK 922        TOTAL FREE ENERGY PREDICTED BY IDOCK:   -7.31 KCAL/MOL
REMARK 923 INTER-LIGAND FREE ENERGY PREDICTED BY IDOCK:   -6.54 KCAL/MOL
REMARK 924 INTRA-LIGAND FREE ENERGY PREDICTED BY IDOCK:   -0.78 KCAL/MOL
REMARK 927      BINDING AFFINITY PREDICTED BY RF-SCORE:    0.00 PKD
ROOT
HETATM    1  N   UNL     1     -12.447   6.967  70.385  1.00  0.00    -0.601 NA 
HETATM    2  CA  UNL     1     -11.497   7.795  71.203  1.00  0.00    -0.274 C  
HETATM    3  H1  UNL     1     -12.097   6.034  70.163  1.00  0.00     0.000 HD 
HETATM    4  H2  UNL     1     -12.711   7.463  69.533  1.00  0.00     0.000 HD 
HETATM    5  C   UNL     1     -11.224   7.035  72.511  1.00  0.00    -0.275 C  
HETATM    6  O   UNL     1     -11.773   5.791  72.483  1.00  0.00    -0.309 OA 
HETATM    7  OXT UNL     1     -10.593   7.467  73.461  1.00  0.00    -0.373 OA 
ENDROOT
BRANCH   2   8
HETATM    8  C   UNL     1     -12.025   9.203  71.538  1.00  0.00    -0.422 C  
BRANCH   8   9
HETATM    9  C   UNL     1     -11.513  10.276  70.605  1.00  0.00    -0.435 A  
HETATM   10  C   UNL     1     -12.179  11.498  70.483  1.00  0.00    -0.469 A  
HETATM   11  C   UNL     1     -11.768  12.449  69.539  1.00  0.00    -0.388 A  
HETATM   12  C   UNL     1     -10.683  12.220  68.682  1.00  0.00    -0.233 A  
HETATM   13  C   UNL     1      -9.973  11.024  68.890  1.00  0.00    -0.201 A  
HETATM   14  C   UNL     1     -10.382  10.061  69.820  1.00  0.00    -0.290 A  
BRANCH  12  15
HETATM   15  N   UNL     1     -10.324  13.099  67.663  1.00  0.00    -0.220 NA 
BRANCH  15  16
HETATM   16  C   UNL     1     -10.302  12.692  66.244  1.00  0.00    -0.252 C  
HETATM   17 CL   UNL     1     -12.723  13.907  65.734  1.00  0.00    -0.535 Cl 
HETATM   18  C   UNL     1     -11.699  12.445  65.670  1.00  0.00    -0.414 C  
ENDBRANCH  15  16
BRANCH  15  19
HETATM   19  C   UNL     1      -9.507  14.284  68.012  1.00  0.00    -0.204 C  
HETATM   20  C   UNL     1     -10.176  15.626  67.684  1.00  0.00    -0.261 C  
HETATM   21 CL   UNL     1     -11.687  15.880  68.597  1.00  0.00    -0.382 Cl 
ENDBRANCH  15  19
ENDBRANCH  12  15
ENDBRANCH   8   9
ENDBRANCH   2   8
TORSDOF 5
ENDMDL
MODEL       40
REMARK 921   NORMALIZED FREE ENERGY PREDICTED BY IDOCK:   -5.20 KCAL/MOL
REMARK 922        TOTAL FREE ENERGY PREDICTED BY IDOCK:   -7.31 KCAL/MOL
REMARK 923 INTER-LIGAND FREE ENERGY PREDICTED BY IDOCK:   -6.66 KCAL/MOL
REMARK 924 INTRA-LIGAND FREE ENERGY PREDICTED BY IDOCK:   -0.64 KCAL/MOL
REMARK 927      BINDING AFFINITY PREDICTED BY RF-SCORE:    0.00 PKD
ROOT
HETATM    1  N   UNL     1      -9.340   8.885  72.031  1.00  0.00    -0.370 NA 
HETATM    2  CA  UNL     1     -10.692   9.128  71.423  1.00  0.00    -0.343 C  
HETATM    3  H1  UNL     1      -9.280   9.132  73.019  1.00  0.00     0.000 HD 
HETATM    4  H2  UNL     1      -8.616   9.365  71.496  1.00  0.00     0.000 HD 
HETATM    5  C   UNL     1     -11.715   8.297  72.214  1.00  0.00    -0.388 C  
HETATM    6  O   UNL     1     -11.146   7.726  73.309  1.00  0.00    -0.373 OA 
HETATM    7  OXT UNL     1     -12.892   8.161  71.922  1.00  0.00    -0.320 OA 
ENDROOT
BRANCH   2   8
HETATM    8  C   UNL     1     -10.783   8.755  69.931  1.00  0.00    -0.228 C  
BRANCH   8   9
HETATM    9  C   UNL     1     -10.990   9.946  69.024  1.00  0.00    -0.223 A  
HETATM   10  C   UNL     1     -10.584   9.908  67.687  1.00  0.00    -0.325 A  
HETATM   11  C   UNL     1     -10.676  11.048  66.876  1.00  0.00    -0.325 A  
HETATM   12  C   UNL     1     -11.172  12.265  67.363  1.00  0.00    -0.301 A  
HETATM   13  C   UNL     1     -11.661  12.249  68.682  1.00  0.00    -0.372 A  
HETATM   14  C   UNL     1     -11.562  11.121  69.506  1.00  0.00    -0.392 A  
BRANCH  12  15
HETATM   15  N   UNL     1     -11.171  13.438  66.613  1.00  0.00    -0.302 NA 
BRANCH  15  16
HETATM   16  C   UNL     1     -10.166  14.501  66.816  1.00  0.00    -0.266 C  
HETATM   17 CL   UNL     1     -11.682  15.732  68.761  1.00  0.00    -0.401 Cl 
HETATM   18  C   UNL     1     -10.784  15.841  67.221  1.00  0.00    -0.313 C  
ENDBRANCH  15  16
BRANCH  15  19
HETATM   19  C   UNL     1     -12.430  13.852  65.953  1.00  0.00    -0.481 C  
HETATM   20  C   UNL     1     -12.359  13.868  64.420  1.00  0.00    -0.361 C  
HETATM   21 CL   UNL     1     -12.041  12.253  63.732  1.00  0.00    -0.577 Cl 
ENDBRANCH  15  19
ENDBRANCH  12  15
ENDBRANCH   8   9
ENDBRANCH   2   8
TORSDOF 5
ENDMDL
MODEL       41
REMARK 921   NORMALIZED FREE ENERGY PREDICTED BY IDOCK:   -5.18 KCAL/MOL
REMARK 922        TOTAL FREE ENERGY PREDICTED BY IDOCK:   -7.28 KCAL/MOL
REMARK 923 INTER-LIGAND FREE ENERGY PREDICTED BY IDOCK:   -6.55 KCAL/MOL
REMARK 924 INTRA-LIGAND FREE ENERGY PREDICTED BY IDOCK:   -0.73 KCAL/MOL
REMARK 927      BINDING AFFINITY PREDICTED BY RF-SCORE:    0.00 PKD
ROOT
HETATM    1  N   UNL     1      -9.283  11.573  62.355  1.00  0.00    -0.470 NA 
HETATM    2  CA  UNL     1      -9.694  11.618  63.799  1.00  0.00    -0.254 C  
HETATM    3  H1  UNL     1      -8.345  11.199  62.203  1.00  0.00     0.000 HD 
HETATM    4  H2  UNL     1      -9.374  12.495  61.927  1.00  0.00     0.000 HD 
HETATM    5  C   UNL     1      -9.629  10.184  64.347  1.00  0.00    -0.302 C  
HETATM    6  O   UNL     1      -9.075   9.334  63.442  1.00  0.00    -0.142 OA 
HETATM    7  OXT UNL     1     -10.011   9.831  65.451  1.00  0.00    -0.320 OA 
ENDROOT
BRANCH   2   8
HETATM    8  C   UNL     1     -11.109  12.183  64.028  1.00  0.00    -0.449 C  
BRANCH   8   9
HETATM    9  C   UNL     1     -11.164  13.258  65.089  1.00  0.00    -0.322 A  
HETATM   10  C   UNL     1     -10.683  14.544  64.832  1.00  0.00    -0.448 A  
HETATM   11  C   UNL     1     -10.634  15.509  65.848  1.00  0.00    -0.350 A  
HETATM   12  C   UNL     1     -11.059  15.230  67.154  1.00  0.00    -0.323 A  
HETATM   13  C   UNL     1     -11.625  13.959  67.362  1.00  0.00    -0.398 A  
HETATM   14  C   UNL     1     -11.667  12.984  66.359  1.00  0.00    -0.444 A  
BRANCH  12  15
HETATM   15  N   UNL     1     -10.918  16.133  68.206  1.00  0.00    -0.327 NA 
BRANCH  15  16
HETATM   16  C   UNL     1     -10.774  17.585  67.983  1.00  0.00    -0.341 C  
HETATM   17 CL   UNL     1      -8.098  17.347  67.365  1.00  0.00    -0.207 Cl 
HETATM   18  C   UNL     1      -9.383  18.112  68.342  1.00  0.00    -0.309 C  
ENDBRANCH  15  16
BRANCH  15  19
HETATM   19  C   UNL     1     -10.432  15.624  69.508  1.00  0.00    -0.270 C  
HETATM   20  C   UNL     1     -11.307  16.022  70.704  1.00  0.00    -0.399 C  
HETATM   21 CL   UNL     1     -12.961  15.363  70.593  1.00  0.00    -0.478 Cl 
ENDBRANCH  15  19
ENDBRANCH  12  15
ENDBRANCH   8   9
ENDBRANCH   2   8
TORSDOF 5
ENDMDL
MODEL       42
REMARK 921   NORMALIZED FREE ENERGY PREDICTED BY IDOCK:   -5.18 KCAL/MOL
REMARK 922        TOTAL FREE ENERGY PREDICTED BY IDOCK:   -7.28 KCAL/MOL
REMARK 923 INTER-LIGAND FREE ENERGY PREDICTED BY IDOCK:   -6.78 KCAL/MOL
REMARK 924 INTRA-LIGAND FREE ENERGY PREDICTED BY IDOCK:   -0.51 KCAL/MOL
REMARK 927      BINDING AFFINITY PREDICTED BY RF-SCORE:    0.00 PKD
ROOT
HETATM    1  N   UNL     1     -13.266  15.835  70.283  1.00  0.00    -0.695 NA 
HETATM    2  CA  UNL     1     -13.372  14.380  70.641  1.00  0.00    -0.056 C  
HETATM    3  H1  UNL     1     -14.158  16.330  70.294  1.00  0.00     0.000 HD 
HETATM    4  H2  UNL     1     -12.803  15.950  69.381  1.00  0.00     0.000 HD 
HETATM    5  C   UNL     1     -13.984  14.289  72.048  1.00  0.00    -0.504 C  
HETATM    6  O   UNL     1     -14.395  15.509  72.487  1.00  0.00    -0.523 OA 
HETATM    7  OXT UNL     1     -14.103  13.266  72.702  1.00  0.00    -0.744 OA 
ENDROOT
BRANCH   2   8
HETATM    8  C   UNL     1     -12.025  13.633  70.625  1.00  0.00    -0.328 C  
BRANCH   8   9
HETATM    9  C   UNL     1     -11.653  13.089  69.266  1.00  0.00    -0.367 A  
HETATM   10  C   UNL     1     -11.761  11.725  68.984  1.00  0.00    -0.390 A  
HETATM   11  C   UNL     1     -11.314  11.206  67.761  1.00  0.00    -0.364 A  
HETATM   12  C   UNL     1     -10.742  12.022  66.776  1.00  0.00    -0.243 A  
HETATM   13  C   UNL     1     -10.731  13.403  67.046  1.00  0.00    -0.271 A  
HETATM   14  C   UNL     1     -11.163  13.931  68.269  1.00  0.00    -0.298 A  
BRANCH  12  15
HETATM   15  N   UNL     1     -10.190  11.518  65.601  1.00  0.00    -0.238 NA 
BRANCH  15  16
HETATM   16  C   UNL     1     -10.250  12.255  64.323  1.00  0.00    -0.330 C  
HETATM   17 CL   UNL     1     -13.005  12.183  64.272  1.00  0.00    -0.343 Cl 
HETATM   18  C   UNL     1     -11.449  11.859  63.458  1.00  0.00    -0.430 C  
ENDBRANCH  15  16
BRANCH  15  19
HETATM   19  C   UNL     1      -9.967  10.058  65.499  1.00  0.00    -0.296 C  
HETATM   20  C   UNL     1      -8.799   9.663  64.585  1.00  0.00    -0.219 C  
HETATM   21 CL   UNL     1      -7.232  10.282  65.170  1.00  0.00    -0.140 Cl 
ENDBRANCH  15  19
ENDBRANCH  12  15
ENDBRANCH   8   9
ENDBRANCH   2   8
TORSDOF 5
ENDMDL
MODEL       43
REMARK 921   NORMALIZED FREE ENERGY PREDICTED BY IDOCK:   -5.17 KCAL/MOL
REMARK 922        TOTAL FREE ENERGY PREDICTED BY IDOCK:   -7.28 KCAL/MOL
REMARK 923 INTER-LIGAND FREE ENERGY PREDICTED BY IDOCK:   -6.53 KCAL/MOL
REMARK 924 INTRA-LIGAND FREE ENERGY PREDICTED BY IDOCK:   -0.75 KCAL/MOL
REMARK 927      BINDING AFFINITY PREDICTED BY RF-SCORE:    0.00 PKD
ROOT
HETATM    1  N   UNL     1     -12.535  14.527  63.591  1.00  0.00    -1.078 NA 
HETATM    2  CA  UNL     1     -11.568  14.525  64.740  1.00  0.00    -0.413 C  
HETATM    3  H1  UNL     1     -13.289  15.208  63.686  1.00  0.00     0.000 HD 
HETATM    4  H2  UNL     1     -12.914  13.592  63.440  1.00  0.00     0.000 HD 
HETATM    5  C   UNL     1     -10.964  15.935  64.843  1.00  0.00    -0.411 C  
HETATM    6  O   UNL     1     -11.583  16.800  63.996  1.00  0.00    -1.195 OA 
HETATM    7  OXT UNL     1     -10.054  16.261  65.588  1.00  0.00    -0.409 OA 
ENDROOT
BRANCH   2   8
HETATM    8  C   UNL     1     -10.429  13.497  64.596  1.00  0.00    -0.439 C  
BRANCH   8   9
HETATM    9  C   UNL     1     -10.366  12.505  65.734  1.00  0.00    -0.288 A  
HETATM   10  C   UNL     1     -11.410  11.603  65.957  1.00  0.00    -0.261 A  
HETATM   11  C   UNL     1     -11.402  10.757  67.075  1.00  0.00    -0.046 A  
HETATM   12  C   UNL     1     -10.359  10.779  68.011  1.00  0.00    -0.182 A  
HETATM   13  C   UNL     1      -9.278  11.628  67.714  1.00  0.00    -0.178 A  
HETATM   14  C   UNL     1      -9.282  12.486  66.607  1.00  0.00    -0.223 A  
BRANCH  12  15
HETATM   15  N   UNL     1     -10.381  10.031  69.186  1.00  0.00    -0.202 NA 
BRANCH  15  16
HETATM   16  C   UNL     1     -11.626   9.784  69.940  1.00  0.00    -0.079 C  
HETATM   17 CL   UNL     1     -12.070  12.477  70.323  1.00  0.00    -0.416 Cl 
HETATM   18  C   UNL     1     -11.895  10.840  71.015  1.00  0.00    -0.247 C  
ENDBRANCH  15  16
BRANCH  15  19
HETATM   19  C   UNL     1      -9.120   9.883  69.948  1.00  0.00    -0.210 C  
HETATM   20  C   UNL     1      -8.453   8.509  69.797  1.00  0.00    -0.129 C  
HETATM   21 CL   UNL     1      -7.964   8.166  68.116  1.00  0.00    -0.125 Cl 
ENDBRANCH  15  19
ENDBRANCH  12  15
ENDBRANCH   8   9
ENDBRANCH   2   8
TORSDOF 5
ENDMDL
MODEL       44
REMARK 921   NORMALIZED FREE ENERGY PREDICTED BY IDOCK:   -5.13 KCAL/MOL
REMARK 922        TOTAL FREE ENERGY PREDICTED BY IDOCK:   -7.23 KCAL/MOL
REMARK 923 INTER-LIGAND FREE ENERGY PREDICTED BY IDOCK:   -6.50 KCAL/MOL
REMARK 924 INTRA-LIGAND FREE ENERGY PREDICTED BY IDOCK:   -0.73 KCAL/MOL
REMARK 927      BINDING AFFINITY PREDICTED BY RF-SCORE:    0.00 PKD
ROOT
HETATM    1  N   UNL     1     -13.216  12.552  64.525  1.00  0.00    -0.779 NA 
HETATM    2  CA  UNL     1     -11.959  13.087  65.149  1.00  0.00    -0.402 C  
HETATM    3  H1  UNL     1     -14.042  13.125  64.703  1.00  0.00     0.000 HD 
HETATM    4  H2  UNL     1     -13.379  11.588  64.816  1.00  0.00     0.000 HD 
HETATM    5  C   UNL     1     -11.724  14.498  64.589  1.00  0.00    -0.431 C  
HETATM    6  O   UNL     1     -12.778  14.913  63.837  1.00  0.00    -0.789 OA 
HETATM    7  OXT UNL     1     -10.732  15.181  64.786  1.00  0.00    -0.403 OA 
ENDROOT
BRANCH   2   8
HETATM    8  C   UNL     1     -10.712  12.222  64.881  1.00  0.00    -0.335 C  
BRANCH   8   9
HETATM    9  C   UNL     1     -10.534  11.098  65.874  1.00  0.00    -0.310 A  
HETATM   10  C   UNL     1      -9.905   9.906  65.503  1.00  0.00    -0.381 A  
HETATM   11  C   UNL     1      -9.836   8.823  66.391  1.00  0.00    -0.352 A  
HETATM   12  C   UNL     1     -10.390   8.884  67.676  1.00  0.00    -0.251 A  
HETATM   13  C   UNL     1     -10.933  10.125  68.057  1.00  0.00    -0.326 A  
HETATM   14  C   UNL     1     -11.020  11.209  67.175  1.00  0.00    -0.350 A  
BRANCH  12  15
HETATM   15  N   UNL     1     -10.434   7.789  68.535  1.00  0.00    -0.194 NA 
BRANCH  15  16
HETATM   16  C   UNL     1     -11.152   7.828  69.825  1.00  0.00    -0.089 C  
HETATM   17 CL   UNL     1      -9.131   9.254  71.043  1.00  0.00    -0.293 Cl 
HETATM   18  C   UNL     1     -10.213   7.832  71.034  1.00  0.00    -0.197 C  
ENDBRANCH  15  16
BRANCH  15  19
HETATM   19  C   UNL     1      -9.384   6.752  68.407  1.00  0.00    -0.124 C  
HETATM   20  C   UNL     1      -9.917   5.363  68.031  1.00  0.00    -0.154 C  
HETATM   21 CL   UNL     1     -10.716   5.344  66.436  1.00  0.00    -0.340 Cl 
ENDBRANCH  15  19
ENDBRANCH  12  15
ENDBRANCH   8   9
ENDBRANCH   2   8
TORSDOF 5
ENDMDL
MODEL       45
REMARK 921   NORMALIZED FREE ENERGY PREDICTED BY IDOCK:   -5.11 KCAL/MOL
REMARK 922        TOTAL FREE ENERGY PREDICTED BY IDOCK:   -7.20 KCAL/MOL
REMARK 923 INTER-LIGAND FREE ENERGY PREDICTED BY IDOCK:   -6.83 KCAL/MOL
REMARK 924 INTRA-LIGAND FREE ENERGY PREDICTED BY IDOCK:   -0.37 KCAL/MOL
REMARK 927      BINDING AFFINITY PREDICTED BY RF-SCORE:    0.00 PKD
ROOT
HETATM    1  N   UNL     1     -13.087  13.991  65.118  1.00  0.00    -0.759 NA 
HETATM    2  CA  UNL     1     -11.697  13.917  64.553  1.00  0.00    -0.410 C  
HETATM    3  H1  UNL     1     -13.820  14.037  64.409  1.00  0.00     0.000 HD 
HETATM    4  H2  UNL     1     -13.168  14.773  65.769  1.00  0.00     0.000 HD 
HETATM    5  C   UNL     1     -11.620  12.664  63.666  1.00  0.00    -0.503 C  
HETATM    6  O   UNL     1     -12.843  12.089  63.517  1.00  0.00    -0.749 OA 
HETATM    7  OXT UNL     1     -10.607  12.229  63.145  1.00  0.00    -0.364 OA 
ENDROOT
BRANCH   2   8
HETATM    8  C   UNL     1     -10.591  13.847  65.623  1.00  0.00    -0.306 C  
BRANCH   8   9
HETATM    9  C   UNL     1      -9.944  15.182  65.910  1.00  0.00    -0.355 A  
HETATM   10  C   UNL     1      -8.671  15.255  66.481  1.00  0.00    -0.314 A  
HETATM   11  C   UNL     1      -8.117  16.490  66.847  1.00  0.00    -0.254 A  
HETATM   12  C   UNL     1      -8.808  17.695  66.660  1.00  0.00    -0.263 A  
HETATM   13  C   UNL     1     -10.045  17.602  65.998  1.00  0.00    -0.263 A  
HETATM   14  C   UNL     1     -10.615  16.374  65.641  1.00  0.00    -0.337 A  
BRANCH  12  15
HETATM   15  N   UNL     1      -8.328  18.921  67.114  1.00  0.00    -0.270 NA 
BRANCH  15  16
HETATM   16  C   UNL     1      -8.415  19.323  68.533  1.00  0.00    -0.366 C  
HETATM   17 CL   UNL     1      -5.721  19.893  68.661  1.00  0.00    -0.249 Cl 
HETATM   18  C   UNL     1      -7.136  19.026  69.320  1.00  0.00    -0.243 C  
ENDBRANCH  15  16
BRANCH  15  19
HETATM   19  C   UNL     1      -8.170  20.021  66.136  1.00  0.00    -0.272 C  
HETATM   20  C   UNL     1      -6.735  20.200  65.620  1.00  0.00    -0.266 C  
HETATM   21 CL   UNL     1      -6.141  18.769  64.736  1.00  0.00    -0.285 Cl 
ENDBRANCH  15  19
ENDBRANCH  12  15
ENDBRANCH   8   9
ENDBRANCH   2   8
TORSDOF 5
ENDMDL
MODEL       46
REMARK 921   NORMALIZED FREE ENERGY PREDICTED BY IDOCK:   -5.11 KCAL/MOL
REMARK 922        TOTAL FREE ENERGY PREDICTED BY IDOCK:   -7.19 KCAL/MOL
REMARK 923 INTER-LIGAND FREE ENERGY PREDICTED BY IDOCK:   -6.47 KCAL/MOL
REMARK 924 INTRA-LIGAND FREE ENERGY PREDICTED BY IDOCK:   -0.72 KCAL/MOL
REMARK 927      BINDING AFFINITY PREDICTED BY RF-SCORE:    0.00 PKD
ROOT
HETATM    1  N   UNL     1     -12.526  14.215  63.326  1.00  0.00    -1.098 NA 
HETATM    2  CA  UNL     1     -11.651  14.218  64.546  1.00  0.00    -0.387 C  
HETATM    3  H1  UNL     1     -13.331  14.837  63.392  1.00  0.00     0.000 HD 
HETATM    4  H2  UNL     1     -12.824  13.265  63.102  1.00  0.00     0.000 HD 
HETATM    5  C   UNL     1     -11.158  15.658  64.763  1.00  0.00    -0.412 C  
HETATM    6  O   UNL     1     -11.771  16.523  63.911  1.00  0.00    -1.148 OA 
HETATM    7  OXT UNL     1     -10.333  16.005  65.592  1.00  0.00    -0.352 OA 
ENDROOT
BRANCH   2   8
HETATM    8  C   UNL     1     -10.434  13.278  64.446  1.00  0.00    -0.424 C  
BRANCH   8   9
HETATM    9  C   UNL     1     -10.292  12.348  65.629  1.00  0.00    -0.284 A  
HETATM   10  C   UNL     1      -9.075  11.719  65.905  1.00  0.00    -0.128 A  
HETATM   11  C   UNL     1      -8.972  10.774  66.935  1.00  0.00    -0.147 A  
HETATM   12  C   UNL     1     -10.073  10.418  67.726  1.00  0.00    -0.181 A  
HETATM   13  C   UNL     1     -11.261  11.133  67.488  1.00  0.00    -0.369 A  
HETATM   14  C   UNL     1     -11.379  12.070  66.454  1.00  0.00    -0.411 A  
BRANCH  12  15
HETATM   15  N   UNL     1     -10.025   9.404  68.679  1.00  0.00    -0.167 NA 
BRANCH  15  16
HETATM   16  C   UNL     1     -10.781   8.145  68.528  1.00  0.00    -0.014 C  
HETATM   17 CL   UNL     1      -8.805   7.004  66.982  1.00  0.00    -0.121 Cl 
HETATM   18  C   UNL     1     -10.522   7.448  67.190  1.00  0.00    -0.333 C  
ENDBRANCH  15  16
BRANCH  15  19
HETATM   19  C   UNL     1      -9.616   9.755  70.058  1.00  0.00    -0.241 C  
HETATM   20  C   UNL     1      -9.061   8.575  70.868  1.00  0.00    -0.172 C  
HETATM   21 CL   UNL     1      -7.575   7.894  70.154  1.00  0.00    -0.082 Cl 
ENDBRANCH  15  19
ENDBRANCH  12  15
ENDBRANCH   8   9
ENDBRANCH   2   8
TORSDOF 5
ENDMDL
MODEL       47
REMARK 921   NORMALIZED FREE ENERGY PREDICTED BY IDOCK:   -5.08 KCAL/MOL
REMARK 922        TOTAL FREE ENERGY PREDICTED BY IDOCK:   -7.15 KCAL/MOL
REMARK 923 INTER-LIGAND FREE ENERGY PREDICTED BY IDOCK:   -6.50 KCAL/MOL
REMARK 924 INTRA-LIGAND FREE ENERGY PREDICTED BY IDOCK:   -0.66 KCAL/MOL
REMARK 927      BINDING AFFINITY PREDICTED BY RF-SCORE:    0.00 PKD
ROOT
HETATM    1  N   UNL     1     -13.038  13.876  65.529  1.00  0.00    -0.682 NA 
HETATM    2  CA  UNL     1     -11.728  13.643  64.833  1.00  0.00    -0.360 C  
HETATM    3  H1  UNL     1     -13.800  14.134  64.901  1.00  0.00     0.000 HD 
HETATM    4  H2  UNL     1     -12.932  14.572  66.269  1.00  0.00     0.000 HD 
HETATM    5  C   UNL     1     -11.938  12.518  63.807  1.00  0.00    -0.517 C  
HETATM    6  O   UNL     1     -13.252  12.179  63.710  1.00  0.00    -0.763 OA 
HETATM    7  OXT UNL     1     -11.058  11.988  63.149  1.00  0.00    -0.329 OA 
ENDROOT
BRANCH   2   8
HETATM    8  C   UNL     1     -10.577  13.254  65.780  1.00  0.00    -0.291 C  
BRANCH   8   9
HETATM    9  C   UNL     1      -9.768  14.436  66.263  1.00  0.00    -0.330 A  
HETATM   10  C   UNL     1     -10.015  15.722  65.774  1.00  0.00    -0.389 A  
HETATM   11  C   UNL     1      -9.195  16.799  66.139  1.00  0.00    -0.284 A  
HETATM   12  C   UNL     1      -8.101  16.637  66.999  1.00  0.00    -0.195 A  
HETATM   13  C   UNL     1      -7.931  15.354  67.550  1.00  0.00    -0.192 A  
HETATM   14  C   UNL     1      -8.735  14.268  67.182  1.00  0.00    -0.243 A  
BRANCH  12  15
HETATM   15  N   UNL     1      -7.206  17.665  67.289  1.00  0.00    -0.178 NA 
BRANCH  15  16
HETATM   16  C   UNL     1      -5.978  17.886  66.499  1.00  0.00    -0.172 C  
HETATM   17 CL   UNL     1      -7.010  20.145  65.302  1.00  0.00    -0.331 Cl 
HETATM   18  C   UNL     1      -6.249  18.537  65.140  1.00  0.00    -0.212 C  
ENDBRANCH  15  16
BRANCH  15  19
HETATM   19  C   UNL     1      -7.213  18.239  68.653  1.00  0.00    -0.282 C  
HETATM   20  C   UNL     1      -7.829  19.642  68.741  1.00  0.00    -0.297 C  
HETATM   21 CL   UNL     1      -9.551  19.664  68.273  1.00  0.00    -0.451 Cl 
ENDBRANCH  15  19
ENDBRANCH  12  15
ENDBRANCH   8   9
ENDBRANCH   2   8
TORSDOF 5
ENDMDL
MODEL       48
REMARK 921   NORMALIZED FREE ENERGY PREDICTED BY IDOCK:   -5.06 KCAL/MOL
REMARK 922        TOTAL FREE ENERGY PREDICTED BY IDOCK:   -7.14 KCAL/MOL
REMARK 923 INTER-LIGAND FREE ENERGY PREDICTED BY IDOCK:   -6.39 KCAL/MOL
REMARK 924 INTRA-LIGAND FREE ENERGY PREDICTED BY IDOCK:   -0.75 KCAL/MOL
REMARK 927      BINDING AFFINITY PREDICTED BY RF-SCORE:    0.00 PKD
ROOT
HETATM    1  N   UNL     1     -10.247  15.071  69.966  1.00  0.00    -0.487 NA 
HETATM    2  CA  UNL     1     -10.949  14.029  69.143  1.00  0.00    -0.230 C  
HETATM    3  H1  UNL     1      -9.494  15.551  69.472  1.00  0.00     0.000 HD 
HETATM    4  H2  UNL     1      -9.903  14.667  70.838  1.00  0.00     0.000 HD 
HETATM    5  C   UNL     1     -11.526  14.727  67.901  1.00  0.00    -0.342 C  
HETATM    6  O   UNL     1     -11.107  16.018  67.821  1.00  0.00    -0.327 OA 
HETATM    7  OXT UNL     1     -12.260  14.208  67.076  1.00  0.00    -0.432 OA 
ENDROOT
BRANCH   2   8
HETATM    8  C   UNL     1     -12.085  13.304  69.889  1.00  0.00    -0.377 C  
BRANCH   8   9
HETATM    9  C   UNL     1     -11.812  11.837  70.124  1.00  0.00    -0.408 A  
HETATM   10  C   UNL     1     -10.919  11.134  69.311  1.00  0.00    -0.300 A  
HETATM   11  C   UNL     1     -10.747   9.750  69.460  1.00  0.00    -0.255 A  
HETATM   12  C   UNL     1     -11.457   9.016  70.420  1.00  0.00    -0.173 A  
HETATM   13  C   UNL     1     -12.278   9.761  71.286  1.00  0.00    -0.465 A  
HETATM   14  C   UNL     1     -12.467  11.141  71.138  1.00  0.00    -0.498 A  
BRANCH  12  15
HETATM   15  N   UNL     1     -11.389   7.628  70.514  1.00  0.00    -0.271 NA 
BRANCH  15  16
HETATM   16  C   UNL     1     -12.228   6.861  71.456  1.00  0.00    -0.371 C  
HETATM   17 CL   UNL     1     -10.577   7.440  73.586  1.00  0.00    -0.390 Cl 
HETATM   18  C   UNL     1     -11.424   6.223  72.592  1.00  0.00    -0.218 C  
ENDBRANCH  15  16
BRANCH  15  19
HETATM   19  C   UNL     1     -10.162   6.951  70.037  1.00  0.00    -0.196 C  
HETATM   20  C   UNL     1     -10.419   5.831  69.019  1.00  0.00    -0.266 C  
HETATM   21 CL   UNL     1     -11.173   6.430  67.517  1.00  0.00    -0.383 Cl 
ENDBRANCH  15  19
ENDBRANCH  12  15
ENDBRANCH   8   9
ENDBRANCH   2   8
TORSDOF 5
ENDMDL
MODEL       49
REMARK 921   NORMALIZED FREE ENERGY PREDICTED BY IDOCK:   -5.05 KCAL/MOL
REMARK 922        TOTAL FREE ENERGY PREDICTED BY IDOCK:   -7.11 KCAL/MOL
REMARK 923 INTER-LIGAND FREE ENERGY PREDICTED BY IDOCK:   -6.52 KCAL/MOL
REMARK 924 INTRA-LIGAND FREE ENERGY PREDICTED BY IDOCK:   -0.59 KCAL/MOL
REMARK 927      BINDING AFFINITY PREDICTED BY RF-SCORE:    0.00 PKD
ROOT
HETATM    1  N   UNL     1      -7.787  18.699  68.792  1.00  0.00    -0.313 NA 
HETATM    2  CA  UNL     1      -8.776  18.516  67.676  1.00  0.00    -0.267 C  
HETATM    3  H1  UNL     1      -6.851  18.956  68.478  1.00  0.00     0.000 HD 
HETATM    4  H2  UNL     1      -7.752  17.865  69.379  1.00  0.00     0.000 HD 
HETATM    5  C   UNL     1      -8.851  19.840  66.898  1.00  0.00    -0.335 C  
HETATM    6  O   UNL     1      -7.907  20.719  67.328  1.00  0.00    -0.337 OA 
HETATM    7  OXT UNL     1      -9.641  20.089  66.002  1.00  0.00    -0.409 OA 
ENDROOT
BRANCH   2   8
HETATM    8  C   UNL     1     -10.189  18.127  68.150  1.00  0.00    -0.400 C  
BRANCH   8   9
HETATM    9  C   UNL     1     -10.692  16.835  67.550  1.00  0.00    -0.275 A  
HETATM   10  C   UNL     1     -11.313  15.869  68.346  1.00  0.00    -0.361 A  
HETATM   11  C   UNL     1     -11.681  14.625  67.812  1.00  0.00    -0.386 A  
HETATM   12  C   UNL     1     -11.443  14.298  66.470  1.00  0.00    -0.360 A  
HETATM   13  C   UNL     1     -10.903  15.321  65.670  1.00  0.00    -0.371 A  
HETATM   14  C   UNL     1     -10.520  16.561  66.195  1.00  0.00    -0.301 A  
BRANCH  12  15
HETATM   15  N   UNL     1     -11.697  13.034  65.943  1.00  0.00    -0.373 NA 
BRANCH  15  16
HETATM   16  C   UNL     1     -12.714  12.806  64.897  1.00  0.00    -0.404 C  
HETATM   17 CL   UNL     1     -10.852  11.787  63.139  1.00  0.00    -0.350 Cl 
HETATM   18  C   UNL     1     -12.159  12.956  63.479  1.00  0.00    -0.555 C  
ENDBRANCH  15  16
BRANCH  15  19
HETATM   19  C   UNL     1     -11.309  11.848  66.742  1.00  0.00    -0.330 C  
HETATM   20  C   UNL     1      -9.890  11.337  66.459  1.00  0.00    -0.208 C  
HETATM   21 CL   UNL     1      -8.635  12.539  66.865  1.00  0.00    -0.186 Cl 
ENDBRANCH  15  19
ENDBRANCH  12  15
ENDBRANCH   8   9
ENDBRANCH   2   8
TORSDOF 5
ENDMDL
MODEL       50
REMARK 921   NORMALIZED FREE ENERGY PREDICTED BY IDOCK:   -5.03 KCAL/MOL
REMARK 922        TOTAL FREE ENERGY PREDICTED BY IDOCK:   -7.09 KCAL/MOL
REMARK 923 INTER-LIGAND FREE ENERGY PREDICTED BY IDOCK:   -6.40 KCAL/MOL
REMARK 924 INTRA-LIGAND FREE ENERGY PREDICTED BY IDOCK:   -0.68 KCAL/MOL
REMARK 927      BINDING AFFINITY PREDICTED BY RF-SCORE:    0.00 PKD
ROOT
HETATM    1  N   UNL     1     -10.584  14.985  68.172  1.00  0.00    -0.244 NA 
HETATM    2  CA  UNL     1     -11.070  13.564  68.155  1.00  0.00    -0.257 C  
HETATM    3  H1  UNL     1      -9.927  15.206  67.423  1.00  0.00     0.000 HD 
HETATM    4  H2  UNL     1     -10.182  15.215  69.081  1.00  0.00     0.000 HD 
HETATM    5  C   UNL     1     -11.751  13.320  66.799  1.00  0.00    -0.385 C  
HETATM    6  O   UNL     1     -11.577  14.378  65.962  1.00  0.00    -0.350 OA 
HETATM    7  OXT UNL     1     -12.365  12.313  66.487  1.00  0.00    -0.504 OA 
ENDROOT
BRANCH   2   8
HETATM    8  C   UNL     1     -12.062  13.229  69.286  1.00  0.00    -0.291 C  
BRANCH   8   9
HETATM    9  C   UNL     1     -11.797  11.895  69.944  1.00  0.00    -0.418 A  
HETATM   10  C   UNL     1     -10.746  11.080  69.517  1.00  0.00    -0.231 A  
HETATM   11  C   UNL     1     -10.567   9.797  70.053  1.00  0.00    -0.320 A  
HETATM   12  C   UNL     1     -11.427   9.278  71.030  1.00  0.00    -0.319 A  
HETATM   13  C   UNL     1     -12.419  10.153  71.509  1.00  0.00    -0.526 A  
HETATM   14  C   UNL     1     -12.615  11.431  70.972  1.00  0.00    -0.487 A  
BRANCH  12  15
HETATM   15  N   UNL     1     -11.339   7.969  71.498  1.00  0.00    -0.252 NA 
BRANCH  15  16
HETATM   16  C   UNL     1     -11.983   6.839  70.799  1.00  0.00    -0.378 C  
HETATM   17 CL   UNL     1      -9.558   5.768  70.043  1.00  0.00    -0.195 Cl 
HETATM   18  C   UNL     1     -11.185   6.349  69.589  1.00  0.00    -0.418 C  
ENDBRANCH  15  16
BRANCH  15  19
HETATM   19  C   UNL     1     -11.021   7.753  72.928  1.00  0.00    -0.407 C  
HETATM   20  C   UNL     1      -9.605   7.220  73.183  1.00  0.00    -0.193 C  
HETATM   21 CL   UNL     1      -8.338   8.355  72.643  1.00  0.00    -0.229 Cl 
ENDBRANCH  15  19
ENDBRANCH  12  15
ENDBRANCH   8   9
ENDBRANCH   2   8
TORSDOF 5
ENDMDL
MODEL       51
REMARK 921   NORMALIZED FREE ENERGY PREDICTED BY IDOCK:   -5.02 KCAL/MOL
REMARK 922        TOTAL FREE ENERGY PREDICTED BY IDOCK:   -7.08 KCAL/MOL
REMARK 923 INTER-LIGAND FREE ENERGY PREDICTED BY IDOCK:   -6.78 KCAL/MOL
REMARK 924 INTRA-LIGAND FREE ENERGY PREDICTED BY IDOCK:   -0.29 KCAL/MOL
REMARK 927      BINDING AFFINITY PREDICTED BY RF-SCORE:    0.00 PKD
ROOT
HETATM    1  N   UNL     1     -12.390  16.317  71.693  1.00  0.00    -0.572 NA 
HETATM    2  CA  UNL     1     -13.166  15.099  71.281  1.00  0.00    -0.464 C  
HETATM    3  H1  UNL     1     -12.902  16.942  72.318  1.00  0.00     0.000 HD 
HETATM    4  H2  UNL     1     -12.057  16.825  70.873  1.00  0.00     0.000 HD 
HETATM    5  C   UNL     1     -13.546  14.333  72.559  1.00  0.00    -0.520 C  
HETATM    6  O   UNL     1     -13.225  15.044  73.673  1.00  0.00    -0.482 OA 
HETATM    7  OXT UNL     1     -14.075  13.235  72.593  1.00  0.00    -0.744 OA 
ENDROOT
BRANCH   2   8
HETATM    8  C   UNL     1     -12.393  14.156  70.339  1.00  0.00    -0.428 C  
BRANCH   8   9
HETATM    9  C   UNL     1     -11.365  14.864  69.488  1.00  0.00    -0.307 A  
HETATM   10  C   UNL     1     -10.122  15.224  70.016  1.00  0.00    -0.178 A  
HETATM   11  C   UNL     1      -9.211  15.977  69.260  1.00  0.00    -0.243 A  
HETATM   12  C   UNL     1      -9.503  16.399  67.957  1.00  0.00    -0.217 A  
HETATM   13  C   UNL     1     -10.719  15.944  67.417  1.00  0.00    -0.313 A  
HETATM   14  C   UNL     1     -11.642  15.204  68.166  1.00  0.00    -0.358 A  
BRANCH  12  15
HETATM   15  N   UNL     1      -8.665  17.239  67.227  1.00  0.00    -0.208 NA 
BRANCH  15  16
HETATM   16  C   UNL     1      -7.693  16.721  66.243  1.00  0.00    -0.275 C  
HETATM   17 CL   UNL     1      -5.751  16.367  68.167  1.00  0.00    -0.105 Cl 
HETATM   18  C   UNL     1      -6.243  17.061  66.596  1.00  0.00    -0.205 C  
ENDBRANCH  15  16
BRANCH  15  19
HETATM   19  C   UNL     1      -8.391  18.594  67.759  1.00  0.00    -0.267 C  
HETATM   20  C   UNL     1      -9.143  19.717  67.032  1.00  0.00    -0.340 C  
HETATM   21 CL   UNL     1     -10.914  19.563  67.180  1.00  0.00    -0.557 Cl 
ENDBRANCH  15  19
ENDBRANCH  12  15
ENDBRANCH   8   9
ENDBRANCH   2   8
TORSDOF 5
ENDMDL
MODEL       52
REMARK 921   NORMALIZED FREE ENERGY PREDICTED BY IDOCK:   -4.99 KCAL/MOL
REMARK 922        TOTAL FREE ENERGY PREDICTED BY IDOCK:   -7.04 KCAL/MOL
REMARK 923 INTER-LIGAND FREE ENERGY PREDICTED BY IDOCK:   -6.29 KCAL/MOL
REMARK 924 INTRA-LIGAND FREE ENERGY PREDICTED BY IDOCK:   -0.75 KCAL/MOL
REMARK 927      BINDING AFFINITY PREDICTED BY RF-SCORE:    0.00 PKD
ROOT
HETATM    1  N   UNL     1     -11.565  11.039  67.664  1.00  0.00    -0.562 NA 
HETATM    2  CA  UNL     1     -11.450  12.220  68.585  1.00  0.00    -0.307 C  
HETATM    3  H1  UNL     1     -11.122  10.192  68.021  1.00  0.00     0.000 HD 
HETATM    4  H2  UNL     1     -11.205  11.270  66.738  1.00  0.00     0.000 HD 
HETATM    5  C   UNL     1     -12.101  11.834  69.923  1.00  0.00    -0.287 C  
HETATM    6  O   UNL     1     -12.438  10.517  69.946  1.00  0.00    -0.260 OA 
HETATM    7  OXT UNL     1     -12.293  12.592  70.860  1.00  0.00    -0.374 OA 
ENDROOT
BRANCH   2   8
HETATM    8  C   UNL     1     -12.119  13.500  68.047  1.00  0.00    -0.298 C  
BRANCH   8   9
HETATM    9  C   UNL     1     -11.213  14.709  68.071  1.00  0.00    -0.307 A  
HETATM   10  C   UNL     1     -10.734  15.223  69.279  1.00  0.00    -0.252 A  
HETATM   11  C   UNL     1      -9.984  16.407  69.308  1.00  0.00    -0.259 A  
HETATM   12  C   UNL     1      -9.685  17.123  68.141  1.00  0.00    -0.276 A  
HETATM   13  C   UNL     1     -10.098  16.534  66.932  1.00  0.00    -0.281 A  
HETATM   14  C   UNL     1     -10.859  15.360  66.891  1.00  0.00    -0.313 A  
BRANCH  12  15
HETATM   15  N   UNL     1      -9.039  18.357  68.154  1.00  0.00    -0.300 NA 
BRANCH  15  16
HETATM   16  C   UNL     1      -7.591  18.485  68.414  1.00  0.00    -0.292 C  
HETATM   17 CL   UNL     1      -7.024  18.884  65.746  1.00  0.00    -0.303 Cl 
HETATM   18  C   UNL     1      -6.727  17.979  67.257  1.00  0.00    -0.178 C  
ENDBRANCH  15  16
BRANCH  15  19
HETATM   19  C   UNL     1      -9.851  19.573  68.385  1.00  0.00    -0.428 C  
HETATM   20  C   UNL     1      -9.856  20.558  67.208  1.00  0.00    -0.441 C  
HETATM   21 CL   UNL     1     -10.570  19.857  65.731  1.00  0.00    -0.575 Cl 
ENDBRANCH  15  19
ENDBRANCH  12  15
ENDBRANCH   8   9
ENDBRANCH   2   8
TORSDOF 5
ENDMDL
MODEL       53
REMARK 921   NORMALIZED FREE ENERGY PREDICTED BY IDOCK:   -4.99 KCAL/MOL
REMARK 922        TOTAL FREE ENERGY PREDICTED BY IDOCK:   -7.04 KCAL/MOL
REMARK 923 INTER-LIGAND FREE ENERGY PREDICTED BY IDOCK:   -6.45 KCAL/MOL
REMARK 924 INTRA-LIGAND FREE ENERGY PREDICTED BY IDOCK:   -0.59 KCAL/MOL
REMARK 927      BINDING AFFINITY PREDICTED BY RF-SCORE:    0.00 PKD
ROOT
HETATM    1  N   UNL     1      -9.160  19.505  68.053  1.00  0.00    -0.319 NA 
HETATM    2  CA  UNL     1      -9.673  18.338  67.259  1.00  0.00    -0.297 C  
HETATM    3  H1  UNL     1      -8.485  20.083  67.550  1.00  0.00     0.000 HD 
HETATM    4  H2  UNL     1      -8.770  19.190  68.942  1.00  0.00     0.000 HD 
HETATM    5  C   UNL     1     -10.334  18.893  65.987  1.00  0.00    -0.429 C  
HETATM    6  O   UNL     1     -10.124  20.232  65.866  1.00  0.00    -0.417 OA 
HETATM    7  OXT UNL     1     -10.962  18.237  65.172  1.00  0.00    -0.628 OA 
ENDROOT
BRANCH   2   8
HETATM    8  C   UNL     1     -10.692  17.465  68.017  1.00  0.00    -0.359 C  
BRANCH   8   9
HETATM    9  C   UNL     1     -10.657  16.010  67.614  1.00  0.00    -0.309 A  
HETATM   10  C   UNL     1      -9.636  15.516  66.798  1.00  0.00    -0.251 A  
HETATM   11  C   UNL     1      -9.663  14.193  66.334  1.00  0.00    -0.313 A  
HETATM   12  C   UNL     1     -10.705  13.315  66.663  1.00  0.00    -0.280 A  
HETATM   13  C   UNL     1     -11.669  13.808  67.561  1.00  0.00    -0.410 A  
HETATM   14  C   UNL     1     -11.660  15.132  68.019  1.00  0.00    -0.345 A  
BRANCH  12  15
HETATM   15  N   UNL     1     -10.813  12.034  66.128  1.00  0.00    -0.275 NA 
BRANCH  15  16
HETATM   16  C   UNL     1     -11.103  10.852  66.965  1.00  0.00    -0.202 C  
HETATM   17 CL   UNL     1      -8.857  11.249  68.514  1.00  0.00    -0.159 Cl 
HETATM   18  C   UNL     1      -9.840  10.165  67.489  1.00  0.00    -0.177 C  
ENDBRANCH  15  16
BRANCH  15  19
HETATM   19  C   UNL     1     -10.175  11.762  64.820  1.00  0.00    -0.282 C  
HETATM   20  C   UNL     1     -11.168  11.557  63.667  1.00  0.00    -0.362 C  
HETATM   21 CL   UNL     1     -12.160  13.007  63.352  1.00  0.00    -0.630 Cl 
ENDBRANCH  15  19
ENDBRANCH  12  15
ENDBRANCH   8   9
ENDBRANCH   2   8
TORSDOF 5
ENDMDL
MODEL       54
REMARK 921   NORMALIZED FREE ENERGY PREDICTED BY IDOCK:   -4.98 KCAL/MOL
REMARK 922        TOTAL FREE ENERGY PREDICTED BY IDOCK:   -7.03 KCAL/MOL
REMARK 923 INTER-LIGAND FREE ENERGY PREDICTED BY IDOCK:   -6.57 KCAL/MOL
REMARK 924 INTRA-LIGAND FREE ENERGY PREDICTED BY IDOCK:   -0.46 KCAL/MOL
REMARK 927      BINDING AFFINITY PREDICTED BY RF-SCORE:    0.00 PKD
ROOT
HETATM    1  N   UNL     1     -10.404  16.075  66.118  1.00  0.00    -0.313 NA 
HETATM    2  CA  UNL     1     -11.168  14.899  65.580  1.00  0.00    -0.347 C  
HETATM    3  H1  UNL     1      -9.706  16.445  65.472  1.00  0.00     0.000 HD 
HETATM    4  H2  UNL     1      -9.976  15.845  67.015  1.00  0.00     0.000 HD 
HETATM    5  C   UNL     1     -11.866  15.348  64.286  1.00  0.00    -0.199 C  
HETATM    6  O   UNL     1     -11.470  16.596  63.920  1.00  0.00    -1.186 OA 
HETATM    7  OXT UNL     1     -12.668  14.684  63.649  1.00  0.00    -0.735 OA 
ENDROOT
BRANCH   2   8
HETATM    8  C   UNL     1     -12.222  14.340  66.555  1.00  0.00    -0.419 C  
BRANCH   8   9
HETATM    9  C   UNL     1     -11.776  13.088  67.272  1.00  0.00    -0.429 A  
HETATM   10  C   UNL     1     -11.691  13.051  68.667  1.00  0.00    -0.359 A  
HETATM   11  C   UNL     1     -11.173  11.927  69.326  1.00  0.00    -0.304 A  
HETATM   12  C   UNL     1     -10.721  10.801  68.624  1.00  0.00    -0.208 A  
HETATM   13  C   UNL     1     -10.904  10.827  67.230  1.00  0.00    -0.344 A  
HETATM   14  C   UNL     1     -11.407  11.949  66.560  1.00  0.00    -0.403 A  
BRANCH  12  15
HETATM   15  N   UNL     1     -10.101   9.720  69.246  1.00  0.00    -0.186 NA 
BRANCH  15  16
HETATM   16  C   UNL     1     -10.312   9.406  70.674  1.00  0.00    -0.284 C  
HETATM   17 CL   UNL     1     -11.046   6.808  70.117  1.00  0.00    -0.337 Cl 
HETATM   18  C   UNL     1     -11.415   8.369  70.903  1.00  0.00    -0.267 C  
ENDBRANCH  15  16
BRANCH  15  19
HETATM   19  C   UNL     1      -8.872   9.166  68.633  1.00  0.00    -0.133 C  
HETATM   20  C   UNL     1      -7.784  10.212  68.354  1.00  0.00    -0.089 C  
HETATM   21 CL   UNL     1      -7.189  10.997  69.842  1.00  0.00    -0.023 Cl 
ENDBRANCH  15  19
ENDBRANCH  12  15
ENDBRANCH   8   9
ENDBRANCH   2   8
TORSDOF 5
ENDMDL
MODEL       55
REMARK 921   NORMALIZED FREE ENERGY PREDICTED BY IDOCK:   -4.98 KCAL/MOL
REMARK 922        TOTAL FREE ENERGY PREDICTED BY IDOCK:   -7.03 KCAL/MOL
REMARK 923 INTER-LIGAND FREE ENERGY PREDICTED BY IDOCK:   -6.25 KCAL/MOL
REMARK 924 INTRA-LIGAND FREE ENERGY PREDICTED BY IDOCK:   -0.78 KCAL/MOL
REMARK 927      BINDING AFFINITY PREDICTED BY RF-SCORE:    0.00 PKD
ROOT
HETATM    1  N   UNL     1     -11.707  10.645  67.851  1.00  0.00    -0.724 NA 
HETATM    2  CA  UNL     1     -11.475  12.024  68.400  1.00  0.00    -0.301 C  
HETATM    3  H1  UNL     1     -11.260   9.904  68.391  1.00  0.00     0.000 HD 
HETATM    4  H2  UNL     1     -11.423  10.597  66.872  1.00  0.00     0.000 HD 
HETATM    5  C   UNL     1     -12.018  12.050  69.838  1.00  0.00    -0.318 C  
HETATM    6  O   UNL     1     -12.392  10.809  70.247  1.00  0.00    -0.308 OA 
HETATM    7  OXT UNL     1     -12.104  13.043  70.542  1.00  0.00    -0.355 OA 
ENDROOT
BRANCH   2   8
HETATM    8  C   UNL     1     -12.150  13.143  67.584  1.00  0.00    -0.281 C  
BRANCH   8   9
HETATM    9  C   UNL     1     -11.267  14.351  67.373  1.00  0.00    -0.337 A  
HETATM   10  C   UNL     1     -10.245  14.335  66.419  1.00  0.00    -0.295 A  
HETATM   11  C   UNL     1      -9.357  15.413  66.299  1.00  0.00    -0.351 A  
HETATM   12  C   UNL     1      -9.452  16.544  67.121  1.00  0.00    -0.239 A  
HETATM   13  C   UNL     1     -10.544  16.575  68.007  1.00  0.00    -0.328 A  
HETATM   14  C   UNL     1     -11.429  15.499  68.145  1.00  0.00    -0.332 A  
BRANCH  12  15
HETATM   15  N   UNL     1      -8.518  17.577  67.098  1.00  0.00    -0.213 NA 
BRANCH  15  16
HETATM   16  C   UNL     1      -8.779  18.888  67.725  1.00  0.00    -0.292 C  
HETATM   17 CL   UNL     1     -10.537  19.627  65.735  1.00  0.00    -0.602 Cl 
HETATM   18  C   UNL     1      -9.084  19.990  66.708  1.00  0.00    -0.363 C  
ENDBRANCH  15  16
BRANCH  15  19
HETATM   19  C   UNL     1      -7.470  17.554  66.052  1.00  0.00    -0.239 C  
HETATM   20  C   UNL     1      -6.038  17.497  66.600  1.00  0.00    -0.199 C  
HETATM   21 CL   UNL     1      -5.722  16.011  67.536  1.00  0.00    -0.169 Cl 
ENDBRANCH  15  19
ENDBRANCH  12  15
ENDBRANCH   8   9
ENDBRANCH   2   8
TORSDOF 5
ENDMDL
MODEL       56
REMARK 921   NORMALIZED FREE ENERGY PREDICTED BY IDOCK:   -4.96 KCAL/MOL
REMARK 922        TOTAL FREE ENERGY PREDICTED BY IDOCK:   -7.00 KCAL/MOL
REMARK 923 INTER-LIGAND FREE ENERGY PREDICTED BY IDOCK:   -6.37 KCAL/MOL
REMARK 924 INTRA-LIGAND FREE ENERGY PREDICTED BY IDOCK:   -0.63 KCAL/MOL
REMARK 927      BINDING AFFINITY PREDICTED BY RF-SCORE:    0.00 PKD
ROOT
HETATM    1  N   UNL     1      -8.115  20.654  66.995  1.00  0.00    -0.539 NA 
HETATM    2  CA  UNL     1      -8.044  19.321  67.684  1.00  0.00    -0.277 C  
HETATM    3  H1  UNL     1      -8.279  21.438  67.626  1.00  0.00     0.000 HD 
HETATM    4  H2  UNL     1      -8.816  20.637  66.254  1.00  0.00     0.000 HD 
HETATM    5  C   UNL     1      -6.903  19.388  68.712  1.00  0.00    -0.319 C  
HETATM    6  O   UNL     1      -6.407  20.650  68.818  1.00  0.00    -0.312 OA 
HETATM    7  OXT UNL     1      -6.486  18.447  69.367  1.00  0.00    -0.264 OA 
ENDROOT
BRANCH   2   8
HETATM    8  C   UNL     1      -7.796  18.137  66.731  1.00  0.00    -0.257 C  
BRANCH   8   9
HETATM    9  C   UNL     1      -8.815  17.030  66.867  1.00  0.00    -0.251 A  
HETATM   10  C   UNL     1      -8.555  15.750  66.370  1.00  0.00    -0.346 A  
HETATM   11  C   UNL     1      -9.542  14.754  66.399  1.00  0.00    -0.324 A  
HETATM   12  C   UNL     1     -10.820  14.993  66.921  1.00  0.00    -0.315 A  
HETATM   13  C   UNL     1     -11.024  16.259  67.499  1.00  0.00    -0.207 A  
HETATM   14  C   UNL     1     -10.052  17.266  67.463  1.00  0.00    -0.315 A  
BRANCH  12  15
HETATM   15  N   UNL     1     -11.850  14.058  66.861  1.00  0.00    -0.408 NA 
BRANCH  15  16
HETATM   16  C   UNL     1     -11.751  12.735  67.508  1.00  0.00    -0.364 C  
HETATM   17 CL   UNL     1     -12.451  13.753  69.972  1.00  0.00    -0.344 Cl 
HETATM   18  C   UNL     1     -11.308  12.814  68.971  1.00  0.00    -0.294 C  
ENDBRANCH  15  16
BRANCH  15  19
HETATM   19  C   UNL     1     -12.842  14.174  65.767  1.00  0.00    -0.329 C  
HETATM   20  C   UNL     1     -12.223  14.289  64.367  1.00  0.00    -0.447 C  
HETATM   21 CL   UNL     1     -11.276  12.845  63.917  1.00  0.00    -0.453 Cl 
ENDBRANCH  15  19
ENDBRANCH  12  15
ENDBRANCH   8   9
ENDBRANCH   2   8
TORSDOF 5
ENDMDL
MODEL       57
REMARK 921   NORMALIZED FREE ENERGY PREDICTED BY IDOCK:   -4.91 KCAL/MOL
REMARK 922        TOTAL FREE ENERGY PREDICTED BY IDOCK:   -6.93 KCAL/MOL
REMARK 923 INTER-LIGAND FREE ENERGY PREDICTED BY IDOCK:   -6.28 KCAL/MOL
REMARK 924 INTRA-LIGAND FREE ENERGY PREDICTED BY IDOCK:   -0.66 KCAL/MOL
REMARK 927      BINDING AFFINITY PREDICTED BY RF-SCORE:    0.00 PKD
ROOT
HETATM    1  N   UNL     1      -7.792  21.236  67.139  1.00  0.00    -0.704 NA 
HETATM    2  CA  UNL     1      -8.073  19.808  67.508  1.00  0.00    -0.302 C  
HETATM    3  H1  UNL     1      -7.899  21.892  67.913  1.00  0.00     0.000 HD 
HETATM    4  H2  UNL     1      -8.366  21.521  66.346  1.00  0.00     0.000 HD 
HETATM    5  C   UNL     1      -7.105  19.418  68.637  1.00  0.00    -0.329 C  
HETATM    6  O   UNL     1      -6.404  20.496  69.079  1.00  0.00    -0.310 OA 
HETATM    7  OXT UNL     1      -6.972  18.296  69.098  1.00  0.00    -0.270 OA 
ENDROOT
BRANCH   2   8
HETATM    8  C   UNL     1      -7.912  18.816  66.340  1.00  0.00    -0.300 C  
BRANCH   8   9
HETATM    9  C   UNL     1      -8.748  17.567  66.489  1.00  0.00    -0.290 A  
HETATM   10  C   UNL     1      -8.208  16.306  66.221  1.00  0.00    -0.312 A  
HETATM   11  C   UNL     1      -9.013  15.158  66.254  1.00  0.00    -0.274 A  
HETATM   12  C   UNL     1     -10.381  15.222  66.552  1.00  0.00    -0.286 A  
HETATM   13  C   UNL     1     -10.877  16.489  66.909  1.00  0.00    -0.083 A  
HETATM   14  C   UNL     1     -10.087  17.644  66.867  1.00  0.00    -0.331 A  
BRANCH  12  15
HETATM   15  N   UNL     1     -11.223  14.116  66.483  1.00  0.00    -0.322 NA 
BRANCH  15  16
HETATM   16  C   UNL     1     -12.530  14.163  65.796  1.00  0.00    -0.466 C  
HETATM   17 CL   UNL     1     -11.545  12.864  63.573  1.00  0.00    -0.548 Cl 
HETATM   18  C   UNL     1     -12.404  14.264  64.274  1.00  0.00    -0.377 C  
ENDBRANCH  15  16
BRANCH  15  19
HETATM   19  C   UNL     1     -11.055  13.039  67.486  1.00  0.00    -0.268 C  
HETATM   20  C   UNL     1     -10.948  13.541  68.932  1.00  0.00    -0.252 C  
HETATM   21 CL   UNL     1     -12.423  14.386  69.475  1.00  0.00    -0.252 Cl 
ENDBRANCH  15  19
ENDBRANCH  12  15
ENDBRANCH   8   9
ENDBRANCH   2   8
TORSDOF 5
ENDMDL
MODEL       58
REMARK 921   NORMALIZED FREE ENERGY PREDICTED BY IDOCK:   -4.90 KCAL/MOL
REMARK 922        TOTAL FREE ENERGY PREDICTED BY IDOCK:   -6.93 KCAL/MOL
REMARK 923 INTER-LIGAND FREE ENERGY PREDICTED BY IDOCK:   -7.01 KCAL/MOL
REMARK 924 INTRA-LIGAND FREE ENERGY PREDICTED BY IDOCK:    0.08 KCAL/MOL
REMARK 927      BINDING AFFINITY PREDICTED BY RF-SCORE:    0.00 PKD
ROOT
HETATM    1  N   UNL     1     -11.321  14.474  71.146  1.00  0.00    -0.509 NA 
HETATM    2  CA  UNL     1     -12.801  14.465  71.397  1.00  0.00    -0.339 C  
HETATM    3  H1  UNL     1     -10.989  15.307  70.657  1.00  0.00     0.000 HD 
HETATM    4  H2  UNL     1     -11.036  13.630  70.649  1.00  0.00     0.000 HD 
HETATM    5  C   UNL     1     -13.141  15.710  72.233  1.00  0.00    -0.456 C  
HETATM    6  O   UNL     1     -12.061  16.527  72.361  1.00  0.00    -0.473 OA 
HETATM    7  OXT UNL     1     -14.231  15.958  72.720  1.00  0.00    -0.523 OA 
ENDROOT
BRANCH   2   8
HETATM    8  C   UNL     1     -13.303  13.209  72.134  1.00  0.00    -0.621 C  
BRANCH   8   9
HETATM    9  C   UNL     1     -12.815  11.916  71.523  1.00  0.00    -0.421 A  
HETATM   10  C   UNL     1     -13.210  10.682  72.045  1.00  0.00    -0.473 A  
HETATM   11  C   UNL     1     -12.673   9.486  71.548  1.00  0.00    -0.461 A  
HETATM   12  C   UNL     1     -11.724   9.474  70.517  1.00  0.00    -0.222 A  
HETATM   13  C   UNL     1     -11.414  10.722  69.947  1.00  0.00    -0.398 A  
HETATM   14  C   UNL     1     -11.934  11.923  70.444  1.00  0.00    -0.400 A  
BRANCH  12  15
HETATM   15  N   UNL     1     -11.093   8.311  70.082  1.00  0.00    -0.230 NA 
BRANCH  15  16
HETATM   16  C   UNL     1     -11.509   6.971  70.541  1.00  0.00    -0.319 C  
HETATM   17 CL   UNL     1     -10.188   7.251  72.944  1.00  0.00    -0.257 Cl 
HETATM   18  C   UNL     1     -10.480   6.305  71.458  1.00  0.00    -0.223 C  
ENDBRANCH  15  16
BRANCH  15  19
HETATM   19  C   UNL     1      -9.716   8.416  69.546  1.00  0.00    -0.177 C  
HETATM   20  C   UNL     1      -9.548   7.847  68.131  1.00  0.00    -0.152 C  
HETATM   21 CL   UNL     1     -10.532   8.716  66.922  1.00  0.00    -0.357 Cl 
ENDBRANCH  15  19
ENDBRANCH  12  15
ENDBRANCH   8   9
ENDBRANCH   2   8
TORSDOF 5
ENDMDL
MODEL       59
REMARK 921   NORMALIZED FREE ENERGY PREDICTED BY IDOCK:   -4.90 KCAL/MOL
REMARK 922        TOTAL FREE ENERGY PREDICTED BY IDOCK:   -6.92 KCAL/MOL
REMARK 923 INTER-LIGAND FREE ENERGY PREDICTED BY IDOCK:   -6.45 KCAL/MOL
REMARK 924 INTRA-LIGAND FREE ENERGY PREDICTED BY IDOCK:   -0.47 KCAL/MOL
REMARK 927      BINDING AFFINITY PREDICTED BY RF-SCORE:    0.00 PKD
ROOT
HETATM    1  N   UNL     1     -10.467  18.175  65.824  1.00  0.00    -0.613 NA 
HETATM    2  CA  UNL     1      -9.956  18.716  67.129  1.00  0.00    -0.331 C  
HETATM    3  H1  UNL     1     -10.402  18.836  65.048  1.00  0.00     0.000 HD 
HETATM    4  H2  UNL     1     -11.423  17.835  65.926  1.00  0.00     0.000 HD 
HETATM    5  C   UNL     1      -8.485  19.114  66.926  1.00  0.00    -0.294 C  
HETATM    6  O   UNL     1      -8.125  19.020  65.618  1.00  0.00    -0.418 OA 
HETATM    7  OXT UNL     1      -7.724  19.477  67.806  1.00  0.00    -0.271 OA 
ENDROOT
BRANCH   2   8
HETATM    8  C   UNL     1     -10.053  17.719  68.299  1.00  0.00    -0.371 C  
BRANCH   8   9
HETATM    9  C   UNL     1     -10.306  16.296  67.859  1.00  0.00    -0.285 A  
HETATM   10  C   UNL     1      -9.367  15.606  67.088  1.00  0.00    -0.229 A  
HETATM   11  C   UNL     1      -9.648  14.326  66.589  1.00  0.00    -0.302 A  
HETATM   12  C   UNL     1     -10.870  13.688  66.836  1.00  0.00    -0.283 A  
HETATM   13  C   UNL     1     -11.759  14.364  67.692  1.00  0.00    -0.421 A  
HETATM   14  C   UNL     1     -11.495  15.648  68.185  1.00  0.00    -0.325 A  
BRANCH  12  15
HETATM   15  N   UNL     1     -11.217  12.468  66.262  1.00  0.00    -0.299 NA 
BRANCH  15  16
HETATM   16  C   UNL     1     -12.146  12.372  65.118  1.00  0.00    -0.405 C  
HETATM   17 CL   UNL     1     -10.100  11.849  63.346  1.00  0.00    -0.454 Cl 
HETATM   18  C   UNL     1     -11.521  12.832  63.798  1.00  0.00    -0.470 C  
ENDBRANCH  15  16
BRANCH  15  19
HETATM   19  C   UNL     1     -11.053  11.238  67.070  1.00  0.00    -0.293 C  
HETATM   20  C   UNL     1     -10.071  10.221  66.473  1.00  0.00    -0.231 C  
HETATM   21 CL   UNL     1      -8.410  10.862  66.351  1.00  0.00    -0.157 Cl 
ENDBRANCH  15  19
ENDBRANCH  12  15
ENDBRANCH   8   9
ENDBRANCH   2   8
TORSDOF 5
ENDMDL
MODEL       60
REMARK 921   NORMALIZED FREE ENERGY PREDICTED BY IDOCK:   -4.89 KCAL/MOL
REMARK 922        TOTAL FREE ENERGY PREDICTED BY IDOCK:   -6.91 KCAL/MOL
REMARK 923 INTER-LIGAND FREE ENERGY PREDICTED BY IDOCK:   -6.33 KCAL/MOL
REMARK 924 INTRA-LIGAND FREE ENERGY PREDICTED BY IDOCK:   -0.59 KCAL/MOL
REMARK 927      BINDING AFFINITY PREDICTED BY RF-SCORE:    0.00 PKD
ROOT
HETATM    1  N   UNL     1      -9.035  18.171  68.668  1.00  0.00    -0.302 NA 
HETATM    2  CA  UNL     1      -8.631  18.802  67.367  1.00  0.00    -0.273 C  
HETATM    3  H1  UNL     1      -9.373  18.836  69.364  1.00  0.00     0.000 HD 
HETATM    4  H2  UNL     1      -8.271  17.612  69.048  1.00  0.00     0.000 HD 
HETATM    5  C   UNL     1      -9.857  19.540  66.806  1.00  0.00    -0.382 C  
HETATM    6  O   UNL     1     -10.880  19.550  67.702  1.00  0.00    -0.444 OA 
HETATM    7  OXT UNL     1      -9.924  20.064  65.706  1.00  0.00    -0.428 OA 
ENDROOT
BRANCH   2   8
HETATM    8  C   UNL     1      -8.122  17.797  66.316  1.00  0.00    -0.269 C  
BRANCH   8   9
HETATM    9  C   UNL     1      -8.941  16.530  66.247  1.00  0.00    -0.359 A  
HETATM   10  C   UNL     1     -10.223  16.534  65.691  1.00  0.00    -0.316 A  
HETATM   11  C   UNL     1     -11.025  15.384  65.726  1.00  0.00    -0.311 A  
HETATM   12  C   UNL     1     -10.584  14.192  66.315  1.00  0.00    -0.284 A  
HETATM   13  C   UNL     1      -9.257  14.187  66.782  1.00  0.00    -0.282 A  
HETATM   14  C   UNL     1      -8.452  15.333  66.765  1.00  0.00    -0.290 A  
BRANCH  12  15
HETATM   15  N   UNL     1     -11.399  13.072  66.461  1.00  0.00    -0.306 NA 
BRANCH  15  16
HETATM   16  C   UNL     1     -12.282  12.594  65.378  1.00  0.00    -0.459 C  
HETATM   17 CL   UNL     1     -10.406  10.782  64.486  1.00  0.00    -0.423 Cl 
HETATM   18  C   UNL     1     -11.514  12.139  64.135  1.00  0.00    -0.387 C  
ENDBRANCH  15  16
BRANCH  15  19
HETATM   19  C   UNL     1     -11.756  12.637  67.831  1.00  0.00    -0.358 C  
HETATM   20  C   UNL     1     -11.542  11.139  68.089  1.00  0.00    -0.280 C  
HETATM   21 CL   UNL     1      -9.832  10.654  67.932  1.00  0.00    -0.175 Cl 
ENDBRANCH  15  19
ENDBRANCH  12  15
ENDBRANCH   8   9
ENDBRANCH   2   8
TORSDOF 5
ENDMDL
MODEL       61
REMARK 921   NORMALIZED FREE ENERGY PREDICTED BY IDOCK:   -4.88 KCAL/MOL
REMARK 922        TOTAL FREE ENERGY PREDICTED BY IDOCK:   -6.90 KCAL/MOL
REMARK 923 INTER-LIGAND FREE ENERGY PREDICTED BY IDOCK:   -6.38 KCAL/MOL
REMARK 924 INTRA-LIGAND FREE ENERGY PREDICTED BY IDOCK:   -0.52 KCAL/MOL
REMARK 927      BINDING AFFINITY PREDICTED BY RF-SCORE:    0.00 PKD
ROOT
HETATM    1  N   UNL     1     -10.698  14.987  64.607  1.00  0.00    -0.608 NA 
HETATM    2  CA  UNL     1     -11.036  13.529  64.728  1.00  0.00    -0.373 C  
HETATM    3  H1  UNL     1     -10.557  15.301  63.646  1.00  0.00     0.000 HD 
HETATM    4  H2  UNL     1      -9.887  15.217  65.181  1.00  0.00     0.000 HD 
HETATM    5  C   UNL     1     -12.320  13.278  63.922  1.00  0.00    -0.351 C  
HETATM    6  O   UNL     1     -12.681  14.382  63.214  1.00  0.00    -0.587 OA 
HETATM    7  OXT UNL     1     -12.947  12.232  63.899  1.00  0.00    -0.753 OA 
ENDROOT
BRANCH   2   8
HETATM    8  C   UNL     1     -11.249  13.056  66.179  1.00  0.00    -0.320 C  
BRANCH   8   9
HETATM    9  C   UNL     1     -10.770  11.645  66.429  1.00  0.00    -0.316 A  
HETATM   10  C   UNL     1     -10.132  10.915  65.423  1.00  0.00    -0.336 A  
HETATM   11  C   UNL     1      -9.786   9.570  65.620  1.00  0.00    -0.361 A  
HETATM   12  C   UNL     1     -10.063   8.904  66.821  1.00  0.00    -0.280 A  
HETATM   13  C   UNL     1     -10.620   9.686  67.849  1.00  0.00    -0.308 A  
HETATM   14  C   UNL     1     -10.982  11.026  67.659  1.00  0.00    -0.332 A  
BRANCH  12  15
HETATM   15  N   UNL     1      -9.831   7.542  67.002  1.00  0.00    -0.195 NA 
BRANCH  15  16
HETATM   16  C   UNL     1     -10.924   6.587  67.273  1.00  0.00    -0.400 C  
HETATM   17 CL   UNL     1     -10.810   7.040  69.989  1.00  0.00    -0.274 Cl 
HETATM   18  C   UNL     1     -10.786   5.886  68.626  1.00  0.00    -0.261 C  
ENDBRANCH  15  16
BRANCH  15  19
HETATM   19  C   UNL     1      -8.474   7.107  67.404  1.00  0.00    -0.122 C  
HETATM   20  C   UNL     1      -7.808   6.138  66.418  1.00  0.00    -0.104 C  
HETATM   21 CL   UNL     1      -7.552   6.865  64.809  1.00  0.00    -0.100 Cl 
ENDBRANCH  15  19
ENDBRANCH  12  15
ENDBRANCH   8   9
ENDBRANCH   2   8
TORSDOF 5
ENDMDL
MODEL       62
REMARK 921   NORMALIZED FREE ENERGY PREDICTED BY IDOCK:   -4.88 KCAL/MOL
REMARK 922        TOTAL FREE ENERGY PREDICTED BY IDOCK:   -6.90 KCAL/MOL
REMARK 923 INTER-LIGAND FREE ENERGY PREDICTED BY IDOCK:   -6.37 KCAL/MOL
REMARK 924 INTRA-LIGAND FREE ENERGY PREDICTED BY IDOCK:   -0.53 KCAL/MOL
REMARK 927      BINDING AFFINITY PREDICTED BY RF-SCORE:    0.00 PKD
ROOT
HETATM    1  N   UNL     1     -11.269  11.907  65.880  1.00  0.00    -0.331 NA 
HETATM    2  CA  UNL     1     -12.391  12.631  65.192  1.00  0.00    -0.484 C  
HETATM    3  H1  UNL     1     -11.099  10.968  65.518  1.00  0.00     0.000 HD 
HETATM    4  H2  UNL     1     -11.425  11.879  66.888  1.00  0.00     0.000 HD 
HETATM    5  C   UNL     1     -12.041  12.723  63.699  1.00  0.00    -0.543 C  
HETATM    6  O   UNL     1     -10.927  11.998  63.407  1.00  0.00    -0.409 OA 
HETATM    7  OXT UNL     1     -12.670  13.350  62.863  1.00  0.00    -0.535 OA 
ENDROOT
BRANCH   2   8
HETATM    8  C   UNL     1     -12.648  14.048  65.739  1.00  0.00    -0.512 C  
BRANCH   8   9
HETATM    9  C   UNL     1     -11.415  14.705  66.314  1.00  0.00    -0.351 A  
HETATM   10  C   UNL     1     -11.289  14.914  67.690  1.00  0.00    -0.348 A  
HETATM   11  C   UNL     1     -10.196  15.621  68.213  1.00  0.00    -0.223 A  
HETATM   12  C   UNL     1      -9.192  16.145  67.388  1.00  0.00    -0.208 A  
HETATM   13  C   UNL     1      -9.294  15.840  66.019  1.00  0.00    -0.384 A  
HETATM   14  C   UNL     1     -10.388  15.148  65.484  1.00  0.00    -0.399 A  
BRANCH  12  15
HETATM   15  N   UNL     1      -8.158  16.944  67.869  1.00  0.00    -0.185 NA 
BRANCH  15  16
HETATM   16  C   UNL     1      -7.497  16.681  69.163  1.00  0.00    -0.207 C  
HETATM   17 CL   UNL     1      -5.478  15.229  67.975  1.00  0.00    -0.133 Cl 
HETATM   18  C   UNL     1      -6.770  15.335  69.203  1.00  0.00    -0.135 C  
ENDBRANCH  15  16
BRANCH  15  19
HETATM   19  C   UNL     1      -8.029  18.321  67.341  1.00  0.00    -0.231 C  
HETATM   20  C   UNL     1      -9.298  19.172  67.490  1.00  0.00    -0.303 C  
HETATM   21 CL   UNL     1      -9.759  19.422  69.196  1.00  0.00    -0.449 Cl 
ENDBRANCH  15  19
ENDBRANCH  12  15
ENDBRANCH   8   9
ENDBRANCH   2   8
TORSDOF 5
ENDMDL
MODEL       63
REMARK 921   NORMALIZED FREE ENERGY PREDICTED BY IDOCK:   -4.87 KCAL/MOL
REMARK 922        TOTAL FREE ENERGY PREDICTED BY IDOCK:   -6.89 KCAL/MOL
REMARK 923 INTER-LIGAND FREE ENERGY PREDICTED BY IDOCK:   -6.28 KCAL/MOL
REMARK 924 INTRA-LIGAND FREE ENERGY PREDICTED BY IDOCK:   -0.61 KCAL/MOL
REMARK 927      BINDING AFFINITY PREDICTED BY RF-SCORE:    0.00 PKD
ROOT
HETATM    1  N   UNL     1     -13.223  15.030  70.686  1.00  0.00    -0.636 NA 
HETATM    2  CA  UNL     1     -11.919  14.307  70.506  1.00  0.00    -0.331 C  
HETATM    3  H1  UNL     1     -13.210  15.729  71.430  1.00  0.00     0.000 HD 
HETATM    4  H2  UNL     1     -13.984  14.365  70.832  1.00  0.00     0.000 HD 
HETATM    5  C   UNL     1     -10.843  15.358  70.191  1.00  0.00    -0.309 C  
HETATM    6  O   UNL     1     -11.331  16.620  70.325  1.00  0.00    -0.190 OA 
HETATM    7  OXT UNL     1      -9.691  15.116  69.870  1.00  0.00    -0.155 OA 
ENDROOT
BRANCH   2   8
HETATM    8  C   UNL     1     -11.938  13.252  69.384  1.00  0.00    -0.356 C  
BRANCH   8   9
HETATM    9  C   UNL     1     -11.895  11.830  69.893  1.00  0.00    -0.423 A  
HETATM   10  C   UNL     1     -12.704  11.424  70.958  1.00  0.00    -0.447 A  
HETATM   11  C   UNL     1     -12.585  10.137  71.500  1.00  0.00    -0.537 A  
HETATM   12  C   UNL     1     -11.660   9.208  71.006  1.00  0.00    -0.306 A  
HETATM   13  C   UNL     1     -10.926   9.609  69.875  1.00  0.00    -0.281 A  
HETATM   14  C   UNL     1     -11.026  10.896  69.333  1.00  0.00    -0.304 A  
BRANCH  12  15
HETATM   15  N   UNL     1     -11.445   7.965  71.596  1.00  0.00    -0.255 NA 
BRANCH  15  16
HETATM   16  C   UNL     1     -12.042   6.725  71.060  1.00  0.00    -0.372 C  
HETATM   17 CL   UNL     1      -9.610   5.808  70.142  1.00  0.00    -0.197 Cl 
HETATM   18  C   UNL     1     -11.322   6.202  69.815  1.00  0.00    -0.382 C  
ENDBRANCH  15  16
BRANCH  15  19
HETATM   19  C   UNL     1     -11.025   7.924  73.015  1.00  0.00    -0.333 C  
HETATM   20  C   UNL     1      -9.605   7.385  73.235  1.00  0.00    -0.232 C  
HETATM   21 CL   UNL     1      -8.360   8.403  72.464  1.00  0.00    -0.230 Cl 
ENDBRANCH  15  19
ENDBRANCH  12  15
ENDBRANCH   8   9
ENDBRANCH   2   8
TORSDOF 5
ENDMDL
MODEL       64
REMARK 921   NORMALIZED FREE ENERGY PREDICTED BY IDOCK:   -4.87 KCAL/MOL
REMARK 922        TOTAL FREE ENERGY PREDICTED BY IDOCK:   -6.88 KCAL/MOL
REMARK 923 INTER-LIGAND FREE ENERGY PREDICTED BY IDOCK:   -6.15 KCAL/MOL
REMARK 924 INTRA-LIGAND FREE ENERGY PREDICTED BY IDOCK:   -0.73 KCAL/MOL
REMARK 927      BINDING AFFINITY PREDICTED BY RF-SCORE:    0.00 PKD
ROOT
HETATM    1  N   UNL     1      -9.581  11.484  68.869  1.00  0.00    -0.395 NA 
HETATM    2  CA  UNL     1     -10.330  12.471  68.020  1.00  0.00    -0.222 C  
HETATM    3  H1  UNL     1     -10.174  10.955  69.509  1.00  0.00     0.000 HD 
HETATM    4  H2  UNL     1      -8.828  11.948  69.378  1.00  0.00     0.000 HD 
HETATM    5  C   UNL     1     -11.376  11.690  67.209  1.00  0.00    -0.305 C  
HETATM    6  O   UNL     1     -11.436  10.390  67.604  1.00  0.00    -0.401 OA 
HETATM    7  OXT UNL     1     -12.080  12.156  66.329  1.00  0.00    -0.626 OA 
ENDROOT
BRANCH   2   8
HETATM    8  C   UNL     1      -9.435  13.270  67.053  1.00  0.00    -0.243 C  
BRANCH   8   9
HETATM    9  C   UNL     1      -9.127  14.669  67.533  1.00  0.00    -0.192 A  
HETATM   10  C   UNL     1      -9.857  15.246  68.576  1.00  0.00    -0.210 A  
HETATM   11  C   UNL     1      -9.645  16.581  68.948  1.00  0.00    -0.261 A  
HETATM   12  C   UNL     1      -8.703  17.390  68.298  1.00  0.00    -0.261 A  
HETATM   13  C   UNL     1      -7.918  16.758  67.316  1.00  0.00    -0.197 A  
HETATM   14  C   UNL     1      -8.130  15.430  66.927  1.00  0.00    -0.259 A  
BRANCH  12  15
HETATM   15  N   UNL     1      -8.551  18.747  68.573  1.00  0.00    -0.338 NA 
BRANCH  15  16
HETATM   16  C   UNL     1      -9.707  19.653  68.724  1.00  0.00    -0.405 C  
HETATM   17 CL   UNL     1     -10.425  19.374  66.078  1.00  0.00    -0.590 Cl 
HETATM   18  C   UNL     1     -10.020  20.443  67.451  1.00  0.00    -0.416 C  
ENDBRANCH  15  16
BRANCH  15  19
HETATM   19  C   UNL     1      -7.259  19.390  68.244  1.00  0.00    -0.296 C  
HETATM   20  C   UNL     1      -6.343  19.616  69.455  1.00  0.00    -0.330 C  
HETATM   21 CL   UNL     1      -5.859  18.090  70.241  1.00  0.00    -0.198 Cl 
ENDBRANCH  15  19
ENDBRANCH  12  15
ENDBRANCH   8   9
ENDBRANCH   2   8
TORSDOF 5
ENDMDL
MODEL       65
REMARK 921   NORMALIZED FREE ENERGY PREDICTED BY IDOCK:   -4.85 KCAL/MOL
REMARK 922        TOTAL FREE ENERGY PREDICTED BY IDOCK:   -6.86 KCAL/MOL
REMARK 923 INTER-LIGAND FREE ENERGY PREDICTED BY IDOCK:   -6.15 KCAL/MOL
REMARK 924 INTRA-LIGAND FREE ENERGY PREDICTED BY IDOCK:   -0.71 KCAL/MOL
REMARK 927      BINDING AFFINITY PREDICTED BY RF-SCORE:    0.00 PKD
ROOT
HETATM    1  N   UNL     1     -11.211  16.869  64.219  1.00  0.00    -1.305 NA 
HETATM    2  CA  UNL     1     -10.781  16.847  65.658  1.00  0.00    -0.167 C  
HETATM    3  H1  UNL     1     -12.046  17.429  64.045  1.00  0.00     0.000 HD 
HETATM    4  H2  UNL     1     -11.337  15.919  63.868  1.00  0.00     0.000 HD 
HETATM    5  C   UNL     1     -10.513  18.299  66.086  1.00  0.00    -0.383 C  
HETATM    6  O   UNL     1     -10.891  19.177  65.119  1.00  0.00    -0.458 OA 
HETATM    7  OXT UNL     1     -10.033  18.643  67.154  1.00  0.00    -0.305 OA 
ENDROOT
BRANCH   2   8
HETATM    8  C   UNL     1      -9.520  16.002  65.921  1.00  0.00    -0.351 C  
BRANCH   8   9
HETATM    9  C   UNL     1      -9.762  14.828  66.840  1.00  0.00    -0.247 A  
HETATM   10  C   UNL     1      -8.845  13.776  66.918  1.00  0.00    -0.203 A  
HETATM   11  C   UNL     1      -9.121  12.637  67.687  1.00  0.00    -0.192 A  
HETATM   12  C   UNL     1     -10.317  12.501  68.404  1.00  0.00    -0.230 A  
HETATM   13  C   UNL     1     -11.181  13.611  68.383  1.00  0.00    -0.306 A  
HETATM   14  C   UNL     1     -10.921  14.748  67.608  1.00  0.00    -0.292 A  
BRANCH  12  15
HETATM   15  N   UNL     1     -10.665  11.336  69.084  1.00  0.00    -0.219 NA 
BRANCH  15  16
HETATM   16  C   UNL     1      -9.684  10.270  69.371  1.00  0.00    -0.222 C  
HETATM   17 CL   UNL     1      -9.742   9.351  66.772  1.00  0.00    -0.238 Cl 
HETATM   18  C   UNL     1      -9.896   9.015  68.520  1.00  0.00    -0.169 C  
ENDBRANCH  15  16
BRANCH  15  19
HETATM   19  C   UNL     1     -12.089  10.931  69.103  1.00  0.00    -0.221 C  
HETATM   20  C   UNL     1     -12.632  10.613  70.503  1.00  0.00    -0.348 C  
HETATM   21 CL   UNL     1     -12.586  12.026  71.593  1.00  0.00    -0.291 Cl 
ENDBRANCH  15  19
ENDBRANCH  12  15
ENDBRANCH   8   9
ENDBRANCH   2   8
TORSDOF 5
ENDMDL
MODEL       66
REMARK 921   NORMALIZED FREE ENERGY PREDICTED BY IDOCK:   -4.85 KCAL/MOL
REMARK 922        TOTAL FREE ENERGY PREDICTED BY IDOCK:   -6.86 KCAL/MOL
REMARK 923 INTER-LIGAND FREE ENERGY PREDICTED BY IDOCK:   -6.14 KCAL/MOL
REMARK 924 INTRA-LIGAND FREE ENERGY PREDICTED BY IDOCK:   -0.72 KCAL/MOL
REMARK 927      BINDING AFFINITY PREDICTED BY RF-SCORE:    0.00 PKD
ROOT
HETATM    1  N   UNL     1      -9.975  14.707  69.352  1.00  0.00    -0.416 NA 
HETATM    2  CA  UNL     1     -10.843  13.732  68.608  1.00  0.00    -0.263 C  
HETATM    3  H1  UNL     1      -9.259  15.149  68.774  1.00  0.00     0.000 HD 
HETATM    4  H2  UNL     1      -9.554  14.262  70.167  1.00  0.00     0.000 HD 
HETATM    5  C   UNL     1     -11.521  14.494  67.458  1.00  0.00    -0.356 C  
HETATM    6  O   UNL     1     -11.029  15.757  67.345  1.00  0.00    -0.320 OA 
HETATM    7  OXT UNL     1     -12.385  14.043  66.724  1.00  0.00    -0.439 OA 
ENDROOT
BRANCH   2   8
HETATM    8  C   UNL     1     -11.924  13.066  69.480  1.00  0.00    -0.350 C  
BRANCH   8   9
HETATM    9  C   UNL     1     -11.702  11.586  69.689  1.00  0.00    -0.419 A  
HETATM   10  C   UNL     1     -12.342  10.904  70.728  1.00  0.00    -0.487 A  
HETATM   11  C   UNL     1     -12.053   9.557  70.989  1.00  0.00    -0.398 A  
HETATM   12  C   UNL     1     -11.117   8.841  70.230  1.00  0.00    -0.222 A  
HETATM   13  C   UNL     1     -10.558   9.523  69.134  1.00  0.00    -0.237 A  
HETATM   14  C   UNL     1     -10.829  10.872  68.872  1.00  0.00    -0.262 A  
BRANCH  12  15
HETATM   15  N   UNL     1     -10.731   7.539  70.537  1.00  0.00    -0.230 NA 
BRANCH  15  16
HETATM   16  C   UNL     1      -9.611   6.867  69.848  1.00  0.00    -0.156 C  
HETATM   17 CL   UNL     1     -11.159   6.286  67.643  1.00  0.00    -0.426 Cl 
HETATM   18  C   UNL     1     -10.067   5.723  68.939  1.00  0.00    -0.186 C  
ENDBRANCH  15  16
BRANCH  15  19
HETATM   19  C   UNL     1     -11.714   6.651  71.198  1.00  0.00    -0.346 C  
HETATM   20  C   UNL     1     -11.174   5.930  72.440  1.00  0.00    -0.291 C  
HETATM   21 CL   UNL     1     -10.699   7.060  73.736  1.00  0.00    -0.334 Cl 
ENDBRANCH  15  19
ENDBRANCH  12  15
ENDBRANCH   8   9
ENDBRANCH   2   8
TORSDOF 5
ENDMDL
MODEL       67
REMARK 921   NORMALIZED FREE ENERGY PREDICTED BY IDOCK:   -4.84 KCAL/MOL
REMARK 922        TOTAL FREE ENERGY PREDICTED BY IDOCK:   -6.85 KCAL/MOL
REMARK 923 INTER-LIGAND FREE ENERGY PREDICTED BY IDOCK:   -6.02 KCAL/MOL
REMARK 924 INTRA-LIGAND FREE ENERGY PREDICTED BY IDOCK:   -0.82 KCAL/MOL
REMARK 927      BINDING AFFINITY PREDICTED BY RF-SCORE:    0.00 PKD
ROOT
HETATM    1  N   UNL     1      -9.925  12.515  63.459  1.00  0.00    -0.638 NA 
HETATM    2  CA  UNL     1     -10.820  12.179  64.618  1.00  0.00    -0.306 C  
HETATM    3  H1  UNL     1     -10.237  12.126  62.569  1.00  0.00     0.000 HD 
HETATM    4  H2  UNL     1      -8.964  12.234  63.656  1.00  0.00     0.000 HD 
HETATM    5  C   UNL     1     -12.223  12.720  64.295  1.00  0.00    -0.425 C  
HETATM    6  O   UNL     1     -12.290  13.188  63.020  1.00  0.00    -0.584 OA 
HETATM    7  OXT UNL     1     -13.170  12.731  65.064  1.00  0.00    -0.768 OA 
ENDROOT
BRANCH   2   8
HETATM    8  C   UNL     1     -10.349  12.766  65.962  1.00  0.00    -0.291 C  
BRANCH   8   9
HETATM    9  C   UNL     1     -10.253  11.740  67.067  1.00  0.00    -0.240 A  
HETATM   10  C   UNL     1      -9.467  11.975  68.198  1.00  0.00    -0.200 A  
HETATM   11  C   UNL     1      -9.291  10.980  69.171  1.00  0.00    -0.039 A  
HETATM   12  C   UNL     1      -9.886   9.717  69.053  1.00  0.00    -0.181 A  
HETATM   13  C   UNL     1     -10.746   9.539  67.954  1.00  0.00    -0.285 A  
HETATM   14  C   UNL     1     -10.919  10.520  66.970  1.00  0.00    -0.247 A  
BRANCH  12  15
HETATM   15  N   UNL     1      -9.638   8.677  69.945  1.00  0.00    -0.170 NA 
BRANCH  15  16
HETATM   16  C   UNL     1      -9.807   8.833  71.403  1.00  0.00    -0.283 C  
HETATM   17 CL   UNL     1     -12.340   7.747  71.347  1.00  0.00    -0.336 Cl 
HETATM   18  C   UNL     1     -11.259   9.090  71.814  1.00  0.00    -0.378 C  
ENDBRANCH  15  16
BRANCH  15  19
HETATM   19  C   UNL     1      -8.755   7.571  69.508  1.00  0.00    -0.137 C  
HETATM   20  C   UNL     1      -9.341   6.172  69.735  1.00  0.00    -0.151 C  
HETATM   21 CL   UNL     1     -10.840   5.898  68.805  1.00  0.00    -0.365 Cl 
ENDBRANCH  15  19
ENDBRANCH  12  15
ENDBRANCH   8   9
ENDBRANCH   2   8
TORSDOF 5
ENDMDL
MODEL       68
REMARK 921   NORMALIZED FREE ENERGY PREDICTED BY IDOCK:   -4.84 KCAL/MOL
REMARK 922        TOTAL FREE ENERGY PREDICTED BY IDOCK:   -6.84 KCAL/MOL
REMARK 923 INTER-LIGAND FREE ENERGY PREDICTED BY IDOCK:   -6.18 KCAL/MOL
REMARK 924 INTRA-LIGAND FREE ENERGY PREDICTED BY IDOCK:   -0.67 KCAL/MOL
REMARK 927      BINDING AFFINITY PREDICTED BY RF-SCORE:    0.00 PKD
ROOT
HETATM    1  N   UNL     1     -10.296  14.100  64.506  1.00  0.00    -0.620 NA 
HETATM    2  CA  UNL     1     -11.025  12.849  64.907  1.00  0.00    -0.301 C  
HETATM    3  H1  UNL     1     -10.106  14.166  63.505  1.00  0.00     0.000 HD 
HETATM    4  H2  UNL     1      -9.433  14.198  65.042  1.00  0.00     0.000 HD 
HETATM    5  C   UNL     1     -12.356  12.819  64.138  1.00  0.00    -0.407 C  
HETATM    6  O   UNL     1     -12.417  13.819  63.218  1.00  0.00    -0.819 OA 
HETATM    7  OXT UNL     1     -13.252  12.009  64.308  1.00  0.00    -0.710 OA 
ENDROOT
BRANCH   2   8
HETATM    8  C   UNL     1     -11.311  12.749  66.417  1.00  0.00    -0.369 C  
BRANCH   8   9
HETATM    9  C   UNL     1     -11.014  11.386  66.998  1.00  0.00    -0.347 A  
HETATM   10  C   UNL     1     -11.361  11.077  68.316  1.00  0.00    -0.366 A  
HETATM   11  C   UNL     1     -10.989   9.852  68.889  1.00  0.00    -0.214 A  
HETATM   12  C   UNL     1     -10.258   8.894  68.174  1.00  0.00    -0.201 A  
HETATM   13  C   UNL     1     -10.004   9.190  66.823  1.00  0.00    -0.322 A  
HETATM   14  C   UNL     1     -10.359  10.415  66.244  1.00  0.00    -0.270 A  
BRANCH  12  15
HETATM   15  N   UNL     1      -9.781   7.720  68.752  1.00  0.00    -0.155 NA 
BRANCH  15  16
HETATM   16  C   UNL     1     -10.510   7.019  69.828  1.00  0.00    -0.219 C  
HETATM   17 CL   UNL     1      -9.473   8.674  71.773  1.00  0.00    -0.330 Cl 
HETATM   18  C   UNL     1      -9.758   7.020  71.161  1.00  0.00    -0.172 C  
ENDBRANCH  15  16
BRANCH  15  19
HETATM   19  C   UNL     1      -8.335   7.422  68.646  1.00  0.00    -0.129 C  
HETATM   20  C   UNL     1      -8.020   5.998  68.167  1.00  0.00    -0.110 C  
HETATM   21 CL   UNL     1      -8.631   5.678  66.522  1.00  0.00    -0.118 Cl 
ENDBRANCH  15  19
ENDBRANCH  12  15
ENDBRANCH   8   9
ENDBRANCH   2   8
TORSDOF 5
ENDMDL
MODEL       69
REMARK 921   NORMALIZED FREE ENERGY PREDICTED BY IDOCK:   -4.82 KCAL/MOL
REMARK 922        TOTAL FREE ENERGY PREDICTED BY IDOCK:   -6.82 KCAL/MOL
REMARK 923 INTER-LIGAND FREE ENERGY PREDICTED BY IDOCK:   -6.05 KCAL/MOL
REMARK 924 INTRA-LIGAND FREE ENERGY PREDICTED BY IDOCK:   -0.77 KCAL/MOL
REMARK 927      BINDING AFFINITY PREDICTED BY RF-SCORE:    0.00 PKD
ROOT
HETATM    1  N   UNL     1      -9.988  16.818  65.525  1.00  0.00    -0.584 NA 
HETATM    2  CA  UNL     1     -10.637  15.468  65.635  1.00  0.00    -0.373 C  
HETATM    3  H1  UNL     1      -9.574  17.006  64.611  1.00  0.00     0.000 HD 
HETATM    4  H2  UNL     1      -9.296  16.944  66.264  1.00  0.00     0.000 HD 
HETATM    5  C   UNL     1     -11.733  15.389  64.560  1.00  0.00    -0.277 C  
HETATM    6  O   UNL     1     -11.692  16.468  63.733  1.00  0.00    -1.086 OA 
HETATM    7  OXT UNL     1     -12.540  14.482  64.440  1.00  0.00    -0.665 OA 
ENDROOT
BRANCH   2   8
HETATM    8  C   UNL     1     -11.261  15.185  67.015  1.00  0.00    -0.308 C  
BRANCH   8   9
HETATM    9  C   UNL     1     -11.058  13.765  67.489  1.00  0.00    -0.295 A  
HETATM   10  C   UNL     1      -9.794  13.312  67.876  1.00  0.00    -0.234 A  
HETATM   11  C   UNL     1      -9.584  11.967  68.210  1.00  0.00    -0.201 A  
HETATM   12  C   UNL     1     -10.620  11.024  68.171  1.00  0.00    -0.191 A  
HETATM   13  C   UNL     1     -11.900  11.525  67.870  1.00  0.00    -0.255 A  
HETATM   14  C   UNL     1     -12.119  12.863  67.521  1.00  0.00    -0.251 A  
BRANCH  12  15
HETATM   15  N   UNL     1     -10.416   9.664  68.391  1.00  0.00    -0.214 NA 
BRANCH  15  16
HETATM   16  C   UNL     1     -10.549   8.664  67.312  1.00  0.00    -0.238 C  
HETATM   17 CL   UNL     1      -7.971   9.089  66.436  1.00  0.00    -0.102 Cl 
HETATM   18  C   UNL     1      -9.717   9.004  66.073  1.00  0.00    -0.269 C  
ENDBRANCH  15  16
BRANCH  15  19
HETATM   19  C   UNL     1     -10.537   9.149  69.774  1.00  0.00    -0.229 C  
HETATM   20  C   UNL     1      -9.584   7.992  70.098  1.00  0.00    -0.175 C  
HETATM   21 CL   UNL     1      -7.867   8.465  69.981  1.00  0.00    -0.100 Cl 
ENDBRANCH  15  19
ENDBRANCH  12  15
ENDBRANCH   8   9
ENDBRANCH   2   8
TORSDOF 5
ENDMDL
MODEL       70
REMARK 921   NORMALIZED FREE ENERGY PREDICTED BY IDOCK:   -4.78 KCAL/MOL
REMARK 922        TOTAL FREE ENERGY PREDICTED BY IDOCK:   -6.77 KCAL/MOL
REMARK 923 INTER-LIGAND FREE ENERGY PREDICTED BY IDOCK:   -6.23 KCAL/MOL
REMARK 924 INTRA-LIGAND FREE ENERGY PREDICTED BY IDOCK:   -0.54 KCAL/MOL
REMARK 927      BINDING AFFINITY PREDICTED BY RF-SCORE:    0.00 PKD
ROOT
HETATM    1  N   UNL     1     -11.731  11.972  66.697  1.00  0.00    -0.577 NA 
HETATM    2  CA  UNL     1     -12.335  12.485  65.421  1.00  0.00    -0.359 C  
HETATM    3  H1  UNL     1     -11.545  10.969  66.693  1.00  0.00     0.000 HD 
HETATM    4  H2  UNL     1     -12.313  12.225  67.496  1.00  0.00     0.000 HD 
HETATM    5  C   UNL     1     -11.360  12.158  64.279  1.00  0.00    -0.360 C  
HETATM    6  O   UNL     1     -10.337  11.374  64.712  1.00  0.00    -0.259 OA 
HETATM    7  OXT UNL     1     -11.474  12.534  63.124  1.00  0.00    -0.414 OA 
ENDROOT
BRANCH   2   8
HETATM    8  C   UNL     1     -12.617  14.000  65.428  1.00  0.00    -0.529 C  
BRANCH   8   9
HETATM    9  C   UNL     1     -11.502  14.817  66.039  1.00  0.00    -0.316 A  
HETATM   10  C   UNL     1     -11.614  15.326  67.336  1.00  0.00    -0.196 A  
HETATM   11  C   UNL     1     -10.630  16.174  67.863  1.00  0.00    -0.309 A  
HETATM   12  C   UNL     1      -9.501  16.548  67.120  1.00  0.00    -0.239 A  
HETATM   13  C   UNL     1      -9.367  15.948  65.855  1.00  0.00    -0.353 A  
HETATM   14  C   UNL     1     -10.350  15.111  65.313  1.00  0.00    -0.425 A  
BRANCH  12  15
HETATM   15  N   UNL     1      -8.567  17.474  67.577  1.00  0.00    -0.219 NA 
BRANCH  15  16
HETATM   16  C   UNL     1      -7.968  18.491  66.689  1.00  0.00    -0.261 C  
HETATM   17 CL   UNL     1      -9.592  20.487  67.680  1.00  0.00    -0.520 Cl 
HETATM   18  C   UNL     1      -8.957  19.583  66.275  1.00  0.00    -0.364 C  
ENDBRANCH  15  16
BRANCH  15  19
HETATM   19  C   UNL     1      -7.809  17.159  68.809  1.00  0.00    -0.258 C  
HETATM   20  C   UNL     1      -7.035  15.835  68.749  1.00  0.00    -0.124 C  
HETATM   21 CL   UNL     1      -5.783  15.831  67.479  1.00  0.00    -0.145 Cl 
ENDBRANCH  15  19
ENDBRANCH  12  15
ENDBRANCH   8   9
ENDBRANCH   2   8
TORSDOF 5
ENDMDL
MODEL       71
REMARK 921   NORMALIZED FREE ENERGY PREDICTED BY IDOCK:   -4.78 KCAL/MOL
REMARK 922        TOTAL FREE ENERGY PREDICTED BY IDOCK:   -6.77 KCAL/MOL
REMARK 923 INTER-LIGAND FREE ENERGY PREDICTED BY IDOCK:   -6.08 KCAL/MOL
REMARK 924 INTRA-LIGAND FREE ENERGY PREDICTED BY IDOCK:   -0.69 KCAL/MOL
REMARK 927      BINDING AFFINITY PREDICTED BY RF-SCORE:    0.00 PKD
ROOT
HETATM    1  N   UNL     1      -9.357  11.659  62.492  1.00  0.00    -0.510 NA 
HETATM    2  CA  UNL     1      -9.735  11.667  63.946  1.00  0.00    -0.230 C  
HETATM    3  H1  UNL     1      -8.451  11.228  62.303  1.00  0.00     0.000 HD 
HETATM    4  H2  UNL     1      -9.392  12.603  62.107  1.00  0.00     0.000 HD 
HETATM    5  C   UNL     1      -9.758  10.209  64.431  1.00  0.00    -0.277 C  
HETATM    6  O   UNL     1      -9.282   9.364  63.477  1.00  0.00    -0.137 OA 
HETATM    7  OXT UNL     1     -10.141   9.835  65.527  1.00  0.00    -0.301 OA 
ENDROOT
BRANCH   2   8
HETATM    8  C   UNL     1     -11.102  12.317  64.232  1.00  0.00    -0.401 C  
BRANCH   8   9
HETATM    9  C   UNL     1     -11.054  13.374  65.310  1.00  0.00    -0.305 A  
HETATM   10  C   UNL     1     -10.592  14.663  65.031  1.00  0.00    -0.461 A  
HETATM   11  C   UNL     1     -10.444  15.611  66.054  1.00  0.00    -0.343 A  
HETATM   12  C   UNL     1     -10.748  15.312  67.389  1.00  0.00    -0.293 A  
HETATM   13  C   UNL     1     -11.299  14.040  67.628  1.00  0.00    -0.336 A  
HETATM   14  C   UNL     1     -11.438  13.081  66.617  1.00  0.00    -0.382 A  
BRANCH  12  15
HETATM   15  N   UNL     1     -10.505  16.196  68.437  1.00  0.00    -0.261 NA 
BRANCH  15  16
HETATM   16  C   UNL     1     -10.228  15.732  69.811  1.00  0.00    -0.290 C  
HETATM   17 CL   UNL     1     -12.904  15.350  70.351  1.00  0.00    -0.406 Cl 
HETATM   18  C   UNL     1     -11.340  16.088  70.800  1.00  0.00    -0.398 C  
ENDBRANCH  15  16
BRANCH  15  19
HETATM   19  C   UNL     1     -10.990  17.590  68.307  1.00  0.00    -0.099 C  
HETATM   20  C   UNL     1      -9.889  18.651  68.436  1.00  0.00    -0.384 C  
HETATM   21 CL   UNL     1      -8.657  18.519  67.152  1.00  0.00    -0.264 Cl 
ENDBRANCH  15  19
ENDBRANCH  12  15
ENDBRANCH   8   9
ENDBRANCH   2   8
TORSDOF 5
ENDMDL
MODEL       72
REMARK 921   NORMALIZED FREE ENERGY PREDICTED BY IDOCK:   -4.77 KCAL/MOL
REMARK 922        TOTAL FREE ENERGY PREDICTED BY IDOCK:   -6.75 KCAL/MOL
REMARK 923 INTER-LIGAND FREE ENERGY PREDICTED BY IDOCK:   -6.38 KCAL/MOL
REMARK 924 INTRA-LIGAND FREE ENERGY PREDICTED BY IDOCK:   -0.38 KCAL/MOL
REMARK 927      BINDING AFFINITY PREDICTED BY RF-SCORE:    0.00 PKD
ROOT
HETATM    1  N   UNL     1     -12.202   7.210  70.265  1.00  0.00    -0.592 NA 
HETATM    2  CA  UNL     1     -12.090   7.966  71.559  1.00  0.00    -0.306 C  
HETATM    3  H1  UNL     1     -12.902   6.467  70.279  1.00  0.00     0.000 HD 
HETATM    4  H2  UNL     1     -11.292   6.840  69.987  1.00  0.00     0.000 HD 
HETATM    5  C   UNL     1     -13.468   8.577  71.862  1.00  0.00    -0.383 C  
HETATM    6  O   UNL     1     -14.408   8.134  70.985  1.00  0.00    -0.209 OA 
HETATM    7  OXT UNL     1     -13.711   9.353  72.771  1.00  0.00    -0.364 OA 
ENDROOT
BRANCH   2   8
HETATM    8  C   UNL     1     -11.033   9.087  71.538  1.00  0.00    -0.418 C  
BRANCH   8   9
HETATM    9  C   UNL     1     -11.076   9.932  70.287  1.00  0.00    -0.368 A  
HETATM   10  C   UNL     1     -10.276   9.622  69.184  1.00  0.00    -0.212 A  
HETATM   11  C   UNL     1     -10.234  10.468  68.066  1.00  0.00    -0.195 A  
HETATM   12  C   UNL     1     -10.983  11.650  68.005  1.00  0.00    -0.224 A  
HETATM   13  C   UNL     1     -11.850  11.890  69.086  1.00  0.00    -0.371 A  
HETATM   14  C   UNL     1     -11.890  11.060  70.214  1.00  0.00    -0.456 A  
BRANCH  12  15
HETATM   15  N   UNL     1     -10.876  12.561  66.957  1.00  0.00    -0.248 NA 
BRANCH  15  16
HETATM   16  C   UNL     1      -9.933  13.697  66.995  1.00  0.00    -0.248 C  
HETATM   17 CL   UNL     1     -11.705  15.278  68.394  1.00  0.00    -0.359 Cl 
HETATM   18  C   UNL     1     -10.633  15.058  66.983  1.00  0.00    -0.293 C  
ENDBRANCH  15  16
BRANCH  15  19
HETATM   19  C   UNL     1     -12.016  12.694  66.021  1.00  0.00    -0.417 C  
HETATM   20  C   UNL     1     -11.620  12.641  64.539  1.00  0.00    -0.345 C  
HETATM   21 CL   UNL     1     -10.887  11.080  64.081  1.00  0.00    -0.367 Cl 
ENDBRANCH  15  19
ENDBRANCH  12  15
ENDBRANCH   8   9
ENDBRANCH   2   8
TORSDOF 5
ENDMDL
MODEL       73
REMARK 921   NORMALIZED FREE ENERGY PREDICTED BY IDOCK:   -4.75 KCAL/MOL
REMARK 922        TOTAL FREE ENERGY PREDICTED BY IDOCK:   -6.73 KCAL/MOL
REMARK 923 INTER-LIGAND FREE ENERGY PREDICTED BY IDOCK:   -6.00 KCAL/MOL
REMARK 924 INTRA-LIGAND FREE ENERGY PREDICTED BY IDOCK:   -0.73 KCAL/MOL
REMARK 927      BINDING AFFINITY PREDICTED BY RF-SCORE:    0.00 PKD
ROOT
HETATM    1  N   UNL     1      -7.554  21.320  66.977  1.00  0.00    -0.768 NA 
HETATM    2  CA  UNL     1      -7.816  20.012  67.667  1.00  0.00    -0.306 C  
HETATM    3  H1  UNL     1      -7.573  22.128  67.600  1.00  0.00     0.000 HD 
HETATM    4  H2  UNL     1      -8.203  21.451  66.200  1.00  0.00     0.000 HD 
HETATM    5  C   UNL     1      -6.744  19.836  68.754  1.00  0.00    -0.318 C  
HETATM    6  O   UNL     1      -5.987  20.958  68.887  1.00  0.00    -0.351 OA 
HETATM    7  OXT UNL     1      -6.580  18.833  69.429  1.00  0.00    -0.280 OA 
ENDROOT
BRANCH   2   8
HETATM    8  C   UNL     1      -7.788  18.792  66.727  1.00  0.00    -0.255 C  
BRANCH   8   9
HETATM    9  C   UNL     1      -8.810  17.736  67.079  1.00  0.00    -0.260 A  
HETATM   10  C   UNL     1      -9.857  18.017  67.961  1.00  0.00    -0.324 A  
HETATM   11  C   UNL     1     -10.740  17.009  68.373  1.00  0.00    -0.361 A  
HETATM   12  C   UNL     1     -10.614  15.687  67.924  1.00  0.00    -0.278 A  
HETATM   13  C   UNL     1      -9.611  15.452  66.966  1.00  0.00    -0.227 A  
HETATM   14  C   UNL     1      -8.715  16.448  66.559  1.00  0.00    -0.324 A  
BRANCH  12  15
HETATM   15  N   UNL     1     -11.407  14.646  68.402  1.00  0.00    -0.278 NA 
BRANCH  15  16
HETATM   16  C   UNL     1     -12.613  14.886  69.219  1.00  0.00     0.129 C  
HETATM   17 CL   UNL     1     -11.124  15.460  71.466  1.00  0.00    -0.380 Cl 
HETATM   18  C   UNL     1     -12.424  14.513  70.691  1.00  0.00    -0.343 C  
ENDBRANCH  15  16
BRANCH  15  19
HETATM   19  C   UNL     1     -10.805  13.298  68.512  1.00  0.00    -0.265 C  
HETATM   20  C   UNL     1     -11.635  12.184  67.858  1.00  0.00    -0.347 C  
HETATM   21 CL   UNL     1     -11.821  12.413  66.099  1.00  0.00    -0.461 Cl 
ENDBRANCH  15  19
ENDBRANCH  12  15
ENDBRANCH   8   9
ENDBRANCH   2   8
TORSDOF 5
ENDMDL
MODEL       74
REMARK 921   NORMALIZED FREE ENERGY PREDICTED BY IDOCK:   -4.75 KCAL/MOL
REMARK 922        TOTAL FREE ENERGY PREDICTED BY IDOCK:   -6.73 KCAL/MOL
REMARK 923 INTER-LIGAND FREE ENERGY PREDICTED BY IDOCK:   -6.01 KCAL/MOL
REMARK 924 INTRA-LIGAND FREE ENERGY PREDICTED BY IDOCK:   -0.72 KCAL/MOL
REMARK 927      BINDING AFFINITY PREDICTED BY RF-SCORE:    0.00 PKD
ROOT
HETATM    1  N   UNL     1     -11.980  12.139  63.407  1.00  0.00    -0.689 NA 
HETATM    2  CA  UNL     1     -11.846  12.258  64.898  1.00  0.00    -0.358 C  
HETATM    3  H1  UNL     1     -12.929  12.293  63.063  1.00  0.00     0.000 HD 
HETATM    4  H2  UNL     1     -11.624  11.239  63.086  1.00  0.00     0.000 HD 
HETATM    5  C   UNL     1     -12.305  13.670  65.297  1.00  0.00    -0.465 C  
HETATM    6  O   UNL     1     -12.842  14.332  64.237  1.00  0.00    -0.598 OA 
HETATM    7  OXT UNL     1     -12.216  14.152  66.414  1.00  0.00    -0.444 OA 
ENDROOT
BRANCH   2   8
HETATM    8  C   UNL     1     -10.414  12.027  65.417  1.00  0.00    -0.313 C  
BRANCH   8   9
HETATM    9  C   UNL     1     -10.357  11.198  66.679  1.00  0.00    -0.286 A  
HETATM   10  C   UNL     1     -10.533   9.813  66.637  1.00  0.00    -0.233 A  
HETATM   11  C   UNL     1     -10.589   9.059  67.818  1.00  0.00    -0.278 A  
HETATM   12  C   UNL     1     -10.473   9.654  69.081  1.00  0.00    -0.214 A  
HETATM   13  C   UNL     1     -10.203  11.034  69.092  1.00  0.00    -0.187 A  
HETATM   14  C   UNL     1     -10.159  11.799  67.920  1.00  0.00    -0.195 A  
BRANCH  12  15
HETATM   15  N   UNL     1     -10.636   8.946  70.269  1.00  0.00    -0.210 NA 
BRANCH  15  16
HETATM   16  C   UNL     1     -11.951   8.438  70.709  1.00  0.00    -0.110 C  
HETATM   17 CL   UNL     1     -12.806  10.950  71.456  1.00  0.00    -0.546 Cl 
HETATM   18  C   UNL     1     -12.541   9.234  71.876  1.00  0.00    -0.390 C  
ENDBRANCH  15  16
BRANCH  15  19
HETATM   19  C   UNL     1      -9.613   9.105  71.328  1.00  0.00    -0.261 C  
HETATM   20  C   UNL     1      -8.849   7.817  71.662  1.00  0.00    -0.118 C  
HETATM   21 CL   UNL     1      -7.916   7.196  70.274  1.00  0.00    -0.114 Cl 
ENDBRANCH  15  19
ENDBRANCH  12  15
ENDBRANCH   8   9
ENDBRANCH   2   8
TORSDOF 5
ENDMDL
MODEL       75
REMARK 921   NORMALIZED FREE ENERGY PREDICTED BY IDOCK:   -4.74 KCAL/MOL
REMARK 922        TOTAL FREE ENERGY PREDICTED BY IDOCK:   -6.72 KCAL/MOL
REMARK 923 INTER-LIGAND FREE ENERGY PREDICTED BY IDOCK:   -6.03 KCAL/MOL
REMARK 924 INTRA-LIGAND FREE ENERGY PREDICTED BY IDOCK:   -0.69 KCAL/MOL
REMARK 927      BINDING AFFINITY PREDICTED BY RF-SCORE:    0.00 PKD
ROOT
HETATM    1  N   UNL     1     -10.009   8.919  71.783  1.00  0.00    -0.325 NA 
HETATM    2  CA  UNL     1     -11.049   9.814  71.173  1.00  0.00    -0.344 C  
HETATM    3  H1  UNL     1     -10.036   8.888  72.803  1.00  0.00     0.000 HD 
HETATM    4  H2  UNL     1      -9.078   9.177  71.456  1.00  0.00     0.000 HD 
HETATM    5  C   UNL     1     -12.427   9.304  71.627  1.00  0.00    -0.368 C  
HETATM    6  O   UNL     1     -12.307   8.319  72.557  1.00  0.00    -0.353 OA 
HETATM    7  OXT UNL     1     -13.501   9.720  71.225  1.00  0.00    -0.376 OA 
ENDROOT
BRANCH   2   8
HETATM    8  C   UNL     1     -11.010   9.860  69.634  1.00  0.00    -0.285 C  
BRANCH   8   9
HETATM    9  C   UNL     1     -10.889  11.258  69.076  1.00  0.00    -0.268 A  
HETATM   10  C   UNL     1     -11.994  12.113  69.036  1.00  0.00    -0.302 A  
HETATM   11  C   UNL     1     -11.909  13.370  68.420  1.00  0.00    -0.401 A  
HETATM   12  C   UNL     1     -10.726  13.821  67.821  1.00  0.00    -0.246 A  
HETATM   13  C   UNL     1      -9.605  12.982  67.956  1.00  0.00    -0.224 A  
HETATM   14  C   UNL     1      -9.681  11.720  68.557  1.00  0.00    -0.181 A  
BRANCH  12  15
HETATM   15  N   UNL     1     -10.646  15.014  67.107  1.00  0.00    -0.289 NA 
BRANCH  15  16
HETATM   16  C   UNL     1      -9.962  15.106  65.801  1.00  0.00    -0.345 C  
HETATM   17 CL   UNL     1     -12.299  14.650  64.411  1.00  0.00    -0.486 Cl 
HETATM   18  C   UNL     1     -10.596  14.215  64.729  1.00  0.00    -0.418 C  
ENDBRANCH  15  16
BRANCH  15  19
HETATM   19  C   UNL     1     -10.811  16.287  67.844  1.00  0.00    -0.330 C  
HETATM   20  C   UNL     1     -10.006  16.366  69.149  1.00  0.00    -0.273 C  
HETATM   21 CL   UNL     1      -8.246  16.272  68.874  1.00  0.00    -0.221 Cl 
ENDBRANCH  15  19
ENDBRANCH  12  15
ENDBRANCH   8   9
ENDBRANCH   2   8
TORSDOF 5
ENDMDL
MODEL       76
REMARK 921   NORMALIZED FREE ENERGY PREDICTED BY IDOCK:   -4.72 KCAL/MOL
REMARK 922        TOTAL FREE ENERGY PREDICTED BY IDOCK:   -6.69 KCAL/MOL
REMARK 923 INTER-LIGAND FREE ENERGY PREDICTED BY IDOCK:   -6.10 KCAL/MOL
REMARK 924 INTRA-LIGAND FREE ENERGY PREDICTED BY IDOCK:   -0.59 KCAL/MOL
REMARK 927      BINDING AFFINITY PREDICTED BY RF-SCORE:    0.00 PKD
ROOT
HETATM    1  N   UNL     1     -10.959   8.047  68.454  1.00  0.00    -0.422 NA 
HETATM    2  CA  UNL     1     -10.337   8.271  69.802  1.00  0.00    -0.216 C  
HETATM    3  H1  UNL     1     -10.751   7.134  68.049  1.00  0.00     0.000 HD 
HETATM    4  H2  UNL     1     -10.697   8.793  67.809  1.00  0.00     0.000 HD 
HETATM    5  C   UNL     1     -10.855   7.172  70.744  1.00  0.00    -0.244 C  
HETATM    6  O   UNL     1     -11.577   6.241  70.065  1.00  0.00    -0.425 OA 
HETATM    7  OXT UNL     1     -10.650   7.117  71.945  1.00  0.00    -0.211 OA 
ENDROOT
BRANCH   2   8
HETATM    8  C   UNL     1     -10.651   9.650  70.414  1.00  0.00    -0.354 C  
BRANCH   8   9
HETATM    9  C   UNL     1     -10.698  10.765  69.395  1.00  0.00    -0.272 A  
HETATM   10  C   UNL     1     -11.900  11.409  69.091  1.00  0.00    -0.413 A  
HETATM   11  C   UNL     1     -11.964  12.367  68.069  1.00  0.00    -0.264 A  
HETATM   12  C   UNL     1     -10.837  12.718  67.313  1.00  0.00    -0.251 A  
HETATM   13  C   UNL     1      -9.623  12.125  67.701  1.00  0.00    -0.190 A  
HETATM   14  C   UNL     1      -9.549  11.157  68.711  1.00  0.00    -0.180 A  
BRANCH  12  15
HETATM   15  N   UNL     1     -10.897  13.582  66.222  1.00  0.00    -0.288 NA 
BRANCH  15  16
HETATM   16  C   UNL     1      -9.905  14.656  66.014  1.00  0.00    -0.322 C  
HETATM   17 CL   UNL     1     -10.875  16.125  68.136  1.00  0.00    -0.316 Cl 
HETATM   18  C   UNL     1     -10.430  16.039  66.408  1.00  0.00    -0.309 C  
ENDBRANCH  15  16
BRANCH  15  19
HETATM   19  C   UNL     1     -12.194  13.751  65.529  1.00  0.00    -0.442 C  
HETATM   20  C   UNL     1     -12.125  13.551  64.009  1.00  0.00    -0.441 C  
HETATM   21 CL   UNL     1     -11.627  11.898  63.558  1.00  0.00    -0.540 Cl 
ENDBRANCH  15  19
ENDBRANCH  12  15
ENDBRANCH   8   9
ENDBRANCH   2   8
TORSDOF 5
ENDMDL
MODEL       77
REMARK 921   NORMALIZED FREE ENERGY PREDICTED BY IDOCK:   -4.72 KCAL/MOL
REMARK 922        TOTAL FREE ENERGY PREDICTED BY IDOCK:   -6.69 KCAL/MOL
REMARK 923 INTER-LIGAND FREE ENERGY PREDICTED BY IDOCK:   -5.93 KCAL/MOL
REMARK 924 INTRA-LIGAND FREE ENERGY PREDICTED BY IDOCK:   -0.76 KCAL/MOL
REMARK 927      BINDING AFFINITY PREDICTED BY RF-SCORE:    0.00 PKD
ROOT
HETATM    1  N   UNL     1     -10.542  14.166  69.597  1.00  0.00    -0.445 NA 
HETATM    2  CA  UNL     1     -11.097  12.911  68.987  1.00  0.00    -0.233 C  
HETATM    3  H1  UNL     1      -9.847  14.636  69.017  1.00  0.00     0.000 HD 
HETATM    4  H2  UNL     1     -10.164  13.976  70.526  1.00  0.00     0.000 HD 
HETATM    5  C   UNL     1     -11.736  13.290  67.641  1.00  0.00    -0.366 C  
HETATM    6  O   UNL     1     -11.478  14.586  67.320  1.00  0.00    -0.335 OA 
HETATM    7  OXT UNL     1     -12.387  12.540  66.932  1.00  0.00    -0.431 OA 
ENDROOT
BRANCH   2   8
HETATM    8  C   UNL     1     -12.147  12.201  69.863  1.00  0.00    -0.324 C  
BRANCH   8   9
HETATM    9  C   UNL     1     -11.674  10.877  70.416  1.00  0.00    -0.444 A  
HETATM   10  C   UNL     1     -10.516  10.267  69.927  1.00  0.00    -0.304 A  
HETATM   11  C   UNL     1     -10.137   8.989  70.362  1.00  0.00    -0.248 A  
HETATM   12  C   UNL     1     -10.896   8.271  71.296  1.00  0.00    -0.237 A  
HETATM   13  C   UNL     1     -12.004   8.945  71.842  1.00  0.00    -0.441 A  
HETATM   14  C   UNL     1     -12.399  10.215  71.405  1.00  0.00    -0.515 A  
BRANCH  12  15
HETATM   15  N   UNL     1     -10.604   6.959  71.661  1.00  0.00    -0.209 NA 
BRANCH  15  16
HETATM   16  C   UNL     1     -10.878   6.439  73.016  1.00  0.00    -0.259 C  
HETATM   17 CL   UNL     1      -8.689   7.728  74.085  1.00  0.00    -0.308 Cl 
HETATM   18  C   UNL     1      -9.609   6.216  73.841  1.00  0.00    -0.169 C  
ENDBRANCH  15  16
BRANCH  15  19
HETATM   19  C   UNL     1      -9.592   6.219  70.874  1.00  0.00    -0.176 C  
HETATM   20  C   UNL     1     -10.182   5.173  69.918  1.00  0.00    -0.291 C  
HETATM   21 CL   UNL     1     -11.229   5.898  68.670  1.00  0.00    -0.201 Cl 
ENDBRANCH  15  19
ENDBRANCH  12  15
ENDBRANCH   8   9
ENDBRANCH   2   8
TORSDOF 5
ENDMDL
MODEL       78
REMARK 921   NORMALIZED FREE ENERGY PREDICTED BY IDOCK:   -4.72 KCAL/MOL
REMARK 922        TOTAL FREE ENERGY PREDICTED BY IDOCK:   -6.69 KCAL/MOL
REMARK 923 INTER-LIGAND FREE ENERGY PREDICTED BY IDOCK:   -5.95 KCAL/MOL
REMARK 924 INTRA-LIGAND FREE ENERGY PREDICTED BY IDOCK:   -0.74 KCAL/MOL
REMARK 927      BINDING AFFINITY PREDICTED BY RF-SCORE:    0.00 PKD
ROOT
HETATM    1  N   UNL     1     -14.228   9.069  73.222  1.00  0.00    -1.188 NA 
HETATM    2  CA  UNL     1     -13.378   8.885  71.997  1.00  0.00    -0.421 C  
HETATM    3  H1  UNL     1     -15.196   8.771  73.103  1.00  0.00     0.000 HD 
HETATM    4  H2  UNL     1     -14.187  10.036  73.545  1.00  0.00     0.000 HD 
HETATM    5  C   UNL     1     -13.405   7.393  71.631  1.00  0.00    -0.364 C  
HETATM    6  O   UNL     1     -14.297   6.712  72.399  1.00  0.00    -0.091 OA 
HETATM    7  OXT UNL     1     -12.730   6.866  70.762  1.00  0.00    -0.286 OA 
ENDROOT
BRANCH   2   8
HETATM    8  C   UNL     1     -11.916   9.335  72.178  1.00  0.00    -0.316 C  
BRANCH   8   9
HETATM    9  C   UNL     1     -11.328   9.980  70.945  1.00  0.00    -0.439 A  
HETATM   10  C   UNL     1     -12.034  10.958  70.240  1.00  0.00    -0.448 A  
HETATM   11  C   UNL     1     -11.537  11.478  69.036  1.00  0.00    -0.383 A  
HETATM   12  C   UNL     1     -10.322  11.043  68.490  1.00  0.00    -0.190 A  
HETATM   13  C   UNL     1      -9.587  10.128  69.265  1.00  0.00    -0.239 A  
HETATM   14  C   UNL     1     -10.080   9.593  70.461  1.00  0.00    -0.338 A  
BRANCH  12  15
HETATM   15  N   UNL     1      -9.860  11.460  67.244  1.00  0.00    -0.188 NA 
BRANCH  15  16
HETATM   16  C   UNL     1     -10.162  12.799  66.700  1.00  0.00    -0.238 C  
HETATM   17 CL   UNL     1      -7.666  13.763  67.360  1.00  0.00    -0.178 Cl 
HETATM   18  C   UNL     1      -9.443  13.926  67.445  1.00  0.00    -0.226 C  
ENDBRANCH  15  16
BRANCH  15  19
HETATM   19  C   UNL     1      -9.479  10.427  66.253  1.00  0.00    -0.171 C  
HETATM   20  C   UNL     1      -8.033  10.540  65.753  1.00  0.00    -0.158 C  
HETATM   21 CL   UNL     1      -6.838  10.322  67.060  1.00  0.00    -0.082 Cl 
ENDBRANCH  15  19
ENDBRANCH  12  15
ENDBRANCH   8   9
ENDBRANCH   2   8
TORSDOF 5
ENDMDL
MODEL       79
REMARK 921   NORMALIZED FREE ENERGY PREDICTED BY IDOCK:   -4.72 KCAL/MOL
REMARK 922        TOTAL FREE ENERGY PREDICTED BY IDOCK:   -6.69 KCAL/MOL
REMARK 923 INTER-LIGAND FREE ENERGY PREDICTED BY IDOCK:   -6.37 KCAL/MOL
REMARK 924 INTRA-LIGAND FREE ENERGY PREDICTED BY IDOCK:   -0.32 KCAL/MOL
REMARK 927      BINDING AFFINITY PREDICTED BY RF-SCORE:    0.00 PKD
ROOT
HETATM    1  N   UNL     1     -10.565  18.787  66.565  1.00  0.00    -0.405 NA 
HETATM    2  CA  UNL     1      -9.807  18.965  67.849  1.00  0.00    -0.345 C  
HETATM    3  H1  UNL     1     -10.756  19.661  66.073  1.00  0.00     0.000 HD 
HETATM    4  H2  UNL     1     -11.430  18.271  66.728  1.00  0.00     0.000 HD 
HETATM    5  C   UNL     1      -8.476  19.657  67.513  1.00  0.00    -0.307 C  
HETATM    6  O   UNL     1      -8.438  20.048  66.212  1.00  0.00    -0.336 OA 
HETATM    7  OXT UNL     1      -7.561  19.848  68.298  1.00  0.00    -0.302 OA 
ENDROOT
BRANCH   2   8
HETATM    8  C   UNL     1      -9.518  17.646  68.592  1.00  0.00    -0.284 C  
BRANCH   8   9
HETATM    9  C   UNL     1     -10.116  16.433  67.920  1.00  0.00    -0.250 A  
HETATM   10  C   UNL     1     -11.391  15.977  68.266  1.00  0.00    -0.326 A  
HETATM   11  C   UNL     1     -11.902  14.789  67.722  1.00  0.00    -0.322 A  
HETATM   12  C   UNL     1     -11.165  14.013  66.818  1.00  0.00    -0.315 A  
HETATM   13  C   UNL     1      -9.925  14.542  66.416  1.00  0.00    -0.304 A  
HETATM   14  C   UNL     1      -9.399  15.719  66.962  1.00  0.00    -0.235 A  
BRANCH  12  15
HETATM   15  N   UNL     1     -11.601  12.776  66.351  1.00  0.00    -0.357 NA 
BRANCH  15  16
HETATM   16  C   UNL     1     -10.875  11.523  66.641  1.00  0.00    -0.287 C  
HETATM   17 CL   UNL     1     -12.151  11.203  69.063  1.00  0.00    -0.384 Cl 
HETATM   18  C   UNL     1     -10.628  11.306  68.136  1.00  0.00    -0.192 C  
ENDBRANCH  15  16
BRANCH  15  19
HETATM   19  C   UNL     1     -12.504  12.747  65.177  1.00  0.00    -0.501 C  
HETATM   20  C   UNL     1     -11.866  13.263  63.881  1.00  0.00    -0.465 C  
HETATM   21 CL   UNL     1     -10.476  12.272  63.360  1.00  0.00    -0.450 Cl 
ENDBRANCH  15  19
ENDBRANCH  12  15
ENDBRANCH   8   9
ENDBRANCH   2   8
TORSDOF 5
ENDMDL
MODEL       80
REMARK 921   NORMALIZED FREE ENERGY PREDICTED BY IDOCK:   -4.72 KCAL/MOL
REMARK 922        TOTAL FREE ENERGY PREDICTED BY IDOCK:   -6.69 KCAL/MOL
REMARK 923 INTER-LIGAND FREE ENERGY PREDICTED BY IDOCK:   -6.04 KCAL/MOL
REMARK 924 INTRA-LIGAND FREE ENERGY PREDICTED BY IDOCK:   -0.64 KCAL/MOL
REMARK 927      BINDING AFFINITY PREDICTED BY RF-SCORE:    0.00 PKD
ROOT
HETATM    1  N   UNL     1     -13.118  12.219  63.800  1.00  0.00    -0.774 NA 
HETATM    2  CA  UNL     1     -11.883  12.627  64.552  1.00  0.00    -0.379 C  
HETATM    3  H1  UNL     1     -13.967  12.693  64.112  1.00  0.00     0.000 HD 
HETATM    4  H2  UNL     1     -13.239  11.207  63.833  1.00  0.00     0.000 HD 
HETATM    5  C   UNL     1     -11.709  14.144  64.375  1.00  0.00    -0.392 C  
HETATM    6  O   UNL     1     -12.781  14.694  63.746  1.00  0.00    -0.778 OA 
HETATM    7  OXT UNL     1     -10.746  14.793  64.751  1.00  0.00    -0.407 OA 
ENDROOT
BRANCH   2   8
HETATM    8  C   UNL     1     -10.601  11.913  64.083  1.00  0.00    -0.397 C  
BRANCH   8   9
HETATM    9  C   UNL     1     -10.111  10.859  65.047  1.00  0.00    -0.362 A  
HETATM   10  C   UNL     1      -9.212   9.871  64.635  1.00  0.00    -0.313 A  
HETATM   11  C   UNL     1      -8.842   8.830  65.498  1.00  0.00    -0.229 A  
HETATM   12  C   UNL     1      -9.352   8.733  66.800  1.00  0.00    -0.179 A  
HETATM   13  C   UNL     1     -10.180   9.789  67.221  1.00  0.00    -0.289 A  
HETATM   14  C   UNL     1     -10.567  10.826  66.363  1.00  0.00    -0.266 A  
BRANCH  12  15
HETATM   15  N   UNL     1      -9.088   7.652  67.638  1.00  0.00    -0.129 NA 
BRANCH  15  16
HETATM   16  C   UNL     1     -10.165   6.834  68.231  1.00  0.00    -0.175 C  
HETATM   17 CL   UNL     1     -10.020   4.963  66.212  1.00  0.00    -0.224 Cl 
HETATM   18  C   UNL     1     -11.002   6.095  67.184  1.00  0.00    -0.331 C  
ENDBRANCH  15  16
BRANCH  15  19
HETATM   19  C   UNL     1      -7.778   7.599  68.326  1.00  0.00    -0.120 C  
HETATM   20  C   UNL     1      -7.443   8.859  69.135  1.00  0.00    -0.073 C  
HETATM   21 CL   UNL     1      -8.599   9.148  70.463  1.00  0.00    -0.226 Cl 
ENDBRANCH  15  19
ENDBRANCH  12  15
ENDBRANCH   8   9
ENDBRANCH   2   8
TORSDOF 5
ENDMDL
MODEL       81
REMARK 921   NORMALIZED FREE ENERGY PREDICTED BY IDOCK:   -4.71 KCAL/MOL
REMARK 922        TOTAL FREE ENERGY PREDICTED BY IDOCK:   -6.68 KCAL/MOL
REMARK 923 INTER-LIGAND FREE ENERGY PREDICTED BY IDOCK:   -6.09 KCAL/MOL
REMARK 924 INTRA-LIGAND FREE ENERGY PREDICTED BY IDOCK:   -0.59 KCAL/MOL
REMARK 927      BINDING AFFINITY PREDICTED BY RF-SCORE:    0.00 PKD
ROOT
HETATM    1  N   UNL     1      -9.877  19.387  67.996  1.00  0.00    -0.345 NA 
HETATM    2  CA  UNL     1     -10.005  18.114  67.208  1.00  0.00    -0.330 C  
HETATM    3  H1  UNL     1      -9.292  20.093  67.548  1.00  0.00     0.000 HD 
HETATM    4  H2  UNL     1      -9.544  19.192  68.940  1.00  0.00     0.000 HD 
HETATM    5  C   UNL     1     -10.604  18.471  65.839  1.00  0.00    -0.300 C  
HETATM    6  O   UNL     1     -10.690  19.818  65.674  1.00  0.00    -0.505 OA 
HETATM    7  OXT UNL     1     -10.956  17.668  64.991  1.00  0.00    -0.780 OA 
ENDROOT
BRANCH   2   8
HETATM    8  C   UNL     1     -10.888  17.047  67.884  1.00  0.00    -0.302 C  
BRANCH   8   9
HETATM    9  C   UNL     1     -10.592  15.639  67.423  1.00  0.00    -0.301 A  
HETATM   10  C   UNL     1      -9.292  15.254  67.083  1.00  0.00    -0.227 A  
HETATM   11  C   UNL     1      -9.035  13.982  66.552  1.00  0.00    -0.119 A  
HETATM   12  C   UNL     1     -10.058  13.050  66.338  1.00  0.00    -0.279 A  
HETATM   13  C   UNL     1     -11.341  13.428  66.775  1.00  0.00    -0.353 A  
HETATM   14  C   UNL     1     -11.612  14.700  67.294  1.00  0.00    -0.404 A  
BRANCH  12  15
HETATM   15  N   UNL     1      -9.848  11.824  65.710  1.00  0.00    -0.234 NA 
BRANCH  15  16
HETATM   16  C   UNL     1     -10.831  11.238  64.777  1.00  0.00    -0.244 C  
HETATM   17 CL   UNL     1      -9.099  11.430  62.641  1.00  0.00    -0.346 Cl 
HETATM   18  C   UNL     1     -10.700  11.779  63.351  1.00  0.00    -0.402 C  
ENDBRANCH  15  16
BRANCH  15  19
HETATM   19  C   UNL     1      -8.887  10.878  66.321  1.00  0.00    -0.179 C  
HETATM   20  C   UNL     1      -9.173  10.555  67.794  1.00  0.00    -0.145 C  
HETATM   21 CL   UNL     1     -10.749   9.753  68.025  1.00  0.00    -0.297 Cl 
ENDBRANCH  15  19
ENDBRANCH  12  15
ENDBRANCH   8   9
ENDBRANCH   2   8
TORSDOF 5
ENDMDL
MODEL       82
REMARK 921   NORMALIZED FREE ENERGY PREDICTED BY IDOCK:   -4.70 KCAL/MOL
REMARK 922        TOTAL FREE ENERGY PREDICTED BY IDOCK:   -6.67 KCAL/MOL
REMARK 923 INTER-LIGAND FREE ENERGY PREDICTED BY IDOCK:   -5.90 KCAL/MOL
REMARK 924 INTRA-LIGAND FREE ENERGY PREDICTED BY IDOCK:   -0.77 KCAL/MOL
REMARK 927      BINDING AFFINITY PREDICTED BY RF-SCORE:    0.00 PKD
ROOT
HETATM    1  N   UNL     1     -12.477  15.450  68.966  1.00  0.00    -0.580 NA 
HETATM    2  CA  UNL     1     -11.391  14.649  68.307  1.00  0.00    -0.297 C  
HETATM    3  H1  UNL     1     -12.134  16.144  69.631  1.00  0.00     0.000 HD 
HETATM    4  H2  UNL     1     -13.158  14.833  69.410  1.00  0.00     0.000 HD 
HETATM    5  C   UNL     1     -10.464  15.633  67.576  1.00  0.00    -0.285 C  
HETATM    6  O   UNL     1     -10.787  16.922  67.864  1.00  0.00    -0.354 OA 
HETATM    7  OXT UNL     1      -9.545  15.322  66.836  1.00  0.00    -0.220 OA 
ENDROOT
BRANCH   2   8
HETATM    8  C   UNL     1     -11.908  13.601  67.302  1.00  0.00    -0.429 C  
BRANCH   8   9
HETATM    9  C   UNL     1     -11.523  12.184  67.657  1.00  0.00    -0.399 A  
HETATM   10  C   UNL     1     -11.863  11.637  68.897  1.00  0.00    -0.392 A  
HETATM   11  C   UNL     1     -11.412  10.363  69.269  1.00  0.00    -0.281 A  
HETATM   12  C   UNL     1     -10.607   9.588  68.424  1.00  0.00    -0.219 A  
HETATM   13  C   UNL     1     -10.357  10.122  67.147  1.00  0.00    -0.295 A  
HETATM   14  C   UNL     1     -10.791  11.399  66.770  1.00  0.00    -0.336 A  
BRANCH  12  15
HETATM   15  N   UNL     1     -10.055   8.369  68.812  1.00  0.00    -0.192 NA 
BRANCH  15  16
HETATM   16  C   UNL     1      -8.636   8.235  69.196  1.00  0.00    -0.138 C  
HETATM   17 CL   UNL     1      -9.187   8.712  71.855  1.00  0.00    -0.330 Cl 
HETATM   18  C   UNL     1      -8.252   9.116  70.388  1.00  0.00    -0.171 C  
ENDBRANCH  15  16
BRANCH  15  19
HETATM   19  C   UNL     1     -10.735   7.123  68.389  1.00  0.00    -0.147 C  
HETATM   20  C   UNL     1     -11.052   6.160  69.541  1.00  0.00    -0.420 C  
HETATM   21 CL   UNL     1     -12.178   6.864  70.732  1.00  0.00    -0.413 Cl 
ENDBRANCH  15  19
ENDBRANCH  12  15
ENDBRANCH   8   9
ENDBRANCH   2   8
TORSDOF 5
ENDMDL
MODEL       83
REMARK 921   NORMALIZED FREE ENERGY PREDICTED BY IDOCK:   -4.70 KCAL/MOL
REMARK 922        TOTAL FREE ENERGY PREDICTED BY IDOCK:   -6.66 KCAL/MOL
REMARK 923 INTER-LIGAND FREE ENERGY PREDICTED BY IDOCK:   -5.93 KCAL/MOL
REMARK 924 INTRA-LIGAND FREE ENERGY PREDICTED BY IDOCK:   -0.74 KCAL/MOL
REMARK 927      BINDING AFFINITY PREDICTED BY RF-SCORE:    0.00 PKD
ROOT
HETATM    1  N   UNL     1     -10.649  19.225  65.524  1.00  0.00    -0.494 NA 
HETATM    2  CA  UNL     1     -10.021  18.452  66.648  1.00  0.00    -0.368 C  
HETATM    3  H1  UNL     1     -11.434  19.810  65.811  1.00  0.00     0.000 HD 
HETATM    4  H2  UNL     1     -10.926  18.598  64.769  1.00  0.00     0.000 HD 
HETATM    5  C   UNL     1      -9.538  19.466  67.698  1.00  0.00    -0.324 C  
HETATM    6  O   UNL     1      -9.952  20.725  67.396  1.00  0.00    -0.426 OA 
HETATM    7  OXT UNL     1      -8.875  19.197  68.686  1.00  0.00    -0.353 OA 
ENDROOT
BRANCH   2   8
HETATM    8  C   UNL     1      -8.835  17.570  66.214  1.00  0.00    -0.216 C  
BRANCH   8   9
HETATM    9  C   UNL     1      -9.080  16.092  66.411  1.00  0.00    -0.354 A  
HETATM   10  C   UNL     1     -10.039  15.416  65.651  1.00  0.00    -0.406 A  
HETATM   11  C   UNL     1     -10.343  14.072  65.909  1.00  0.00    -0.327 A  
HETATM   12  C   UNL     1      -9.707  13.352  66.929  1.00  0.00    -0.253 A  
HETATM   13  C   UNL     1      -8.681  14.027  67.616  1.00  0.00    -0.189 A  
HETATM   14  C   UNL     1      -8.379  15.373  67.377  1.00  0.00    -0.204 A  
BRANCH  12  15
HETATM   15  N   UNL     1     -10.067  12.053  67.278  1.00  0.00    -0.194 NA 
BRANCH  15  16
HETATM   16  C   UNL     1      -9.234  10.884  66.931  1.00  0.00    -0.161 C  
HETATM   17 CL   UNL     1     -10.291  10.732  64.390  1.00  0.00    -0.431 Cl 
HETATM   18  C   UNL     1      -9.915   9.934  65.943  1.00  0.00    -0.277 C  
ENDBRANCH  15  16
BRANCH  15  19
HETATM   19  C   UNL     1     -11.493  11.772  67.565  1.00  0.00    -0.303 C  
HETATM   20  C   UNL     1     -11.851  11.803  69.057  1.00  0.00    -0.317 C  
HETATM   21 CL   UNL     1     -11.588  13.408  69.791  1.00  0.00    -0.331 Cl 
ENDBRANCH  15  19
ENDBRANCH  12  15
ENDBRANCH   8   9
ENDBRANCH   2   8
TORSDOF 5
ENDMDL
MODEL       84
REMARK 921   NORMALIZED FREE ENERGY PREDICTED BY IDOCK:   -4.69 KCAL/MOL
REMARK 922        TOTAL FREE ENERGY PREDICTED BY IDOCK:   -6.66 KCAL/MOL
REMARK 923 INTER-LIGAND FREE ENERGY PREDICTED BY IDOCK:   -6.20 KCAL/MOL
REMARK 924 INTRA-LIGAND FREE ENERGY PREDICTED BY IDOCK:   -0.45 KCAL/MOL
REMARK 927      BINDING AFFINITY PREDICTED BY RF-SCORE:    0.00 PKD
ROOT
HETATM    1  N   UNL     1     -11.002  14.375  70.263  1.00  0.00    -0.474 NA 
HETATM    2  CA  UNL     1     -12.437  13.934  70.288  1.00  0.00    -0.314 C  
HETATM    3  H1  UNL     1     -10.870  15.337  69.949  1.00  0.00     0.000 HD 
HETATM    4  H2  UNL     1     -10.440  13.734  69.701  1.00  0.00     0.000 HD 
HETATM    5  C   UNL     1     -13.199  14.880  71.229  1.00  0.00    -0.408 C  
HETATM    6  O   UNL     1     -12.415  15.917  71.628  1.00  0.00    -0.435 OA 
HETATM    7  OXT UNL     1     -14.360  14.745  71.579  1.00  0.00    -0.458 OA 
ENDROOT
BRANCH   2   8
HETATM    8  C   UNL     1     -12.637  12.481  70.762  1.00  0.00    -0.299 C  
BRANCH   8   9
HETATM    9  C   UNL     1     -11.807  11.478  69.996  1.00  0.00    -0.435 A  
HETATM   10  C   UNL     1     -11.688  11.557  68.606  1.00  0.00    -0.389 A  
HETATM   11  C   UNL     1     -11.009  10.565  67.884  1.00  0.00    -0.352 A  
HETATM   12  C   UNL     1     -10.426   9.459  68.517  1.00  0.00    -0.208 A  
HETATM   13  C   UNL     1     -10.478   9.452  69.923  1.00  0.00    -0.257 A  
HETATM   14  C   UNL     1     -11.165  10.430  70.653  1.00  0.00    -0.358 A  
BRANCH  12  15
HETATM   15  N   UNL     1      -9.844   8.405  67.817  1.00  0.00    -0.166 NA 
BRANCH  15  16
HETATM   16  C   UNL     1      -8.478   8.488  67.261  1.00  0.00    -0.123 C  
HETATM   17 CL   UNL     1      -9.333   9.896  65.051  1.00  0.00    -0.300 Cl 
HETATM   18  C   UNL     1      -8.453   8.499  65.731  1.00  0.00    -0.154 C  
ENDBRANCH  15  16
BRANCH  15  19
HETATM   19  C   UNL     1     -10.733   7.390  67.207  1.00  0.00    -0.308 C  
HETATM   20  C   UNL     1     -10.664   6.011  67.877  1.00  0.00    -0.284 C  
HETATM   21 CL   UNL     1     -11.187   6.051  69.582  1.00  0.00    -0.478 Cl 
ENDBRANCH  15  19
ENDBRANCH  12  15
ENDBRANCH   8   9
ENDBRANCH   2   8
TORSDOF 5
ENDMDL
MODEL       85
REMARK 921   NORMALIZED FREE ENERGY PREDICTED BY IDOCK:   -4.67 KCAL/MOL
REMARK 922        TOTAL FREE ENERGY PREDICTED BY IDOCK:   -6.62 KCAL/MOL
REMARK 923 INTER-LIGAND FREE ENERGY PREDICTED BY IDOCK:   -6.07 KCAL/MOL
REMARK 924 INTRA-LIGAND FREE ENERGY PREDICTED BY IDOCK:   -0.55 KCAL/MOL
REMARK 927      BINDING AFFINITY PREDICTED BY RF-SCORE:    0.00 PKD
ROOT
HETATM    1  N   UNL     1     -11.389   6.483  67.411  1.00  0.00    -0.758 NA 
HETATM    2  CA  UNL     1     -10.188   7.167  67.999  1.00  0.00    -0.185 C  
HETATM    3  H1  UNL     1     -11.160   5.716  66.777  1.00  0.00     0.000 HD 
HETATM    4  H2  UNL     1     -11.997   7.160  66.951  1.00  0.00     0.000 HD 
HETATM    5  C   UNL     1      -9.374   6.108  68.760  1.00  0.00    -0.123 C  
HETATM    6  O   UNL     1      -9.871   4.859  68.551  1.00  0.00    -0.152 OA 
HETATM    7  OXT UNL     1      -8.400   6.334  69.459  1.00  0.00    -0.115 OA 
ENDROOT
BRANCH   2   8
HETATM    8  C   UNL     1     -10.533   8.323  68.957  1.00  0.00    -0.212 C  
BRANCH   8   9
HETATM    9  C   UNL     1     -10.759   9.641  68.253  1.00  0.00    -0.262 A  
HETATM   10  C   UNL     1     -10.189   9.894  67.003  1.00  0.00    -0.294 A  
HETATM   11  C   UNL     1     -10.308  11.154  66.400  1.00  0.00    -0.300 A  
HETATM   12  C   UNL     1     -10.996  12.207  67.018  1.00  0.00    -0.271 A  
HETATM   13  C   UNL     1     -11.639  11.899  68.230  1.00  0.00    -0.390 A  
HETATM   14  C   UNL     1     -11.516  10.648  68.848  1.00  0.00    -0.334 A  
BRANCH  12  15
HETATM   15  N   UNL     1     -11.035  13.497  66.494  1.00  0.00    -0.289 NA 
BRANCH  15  16
HETATM   16  C   UNL     1     -10.143  14.570  66.977  1.00  0.00    -0.254 C  
HETATM   17 CL   UNL     1     -11.956  15.380  68.890  1.00  0.00    -0.335 Cl 
HETATM   18  C   UNL     1     -10.904  15.789  67.506  1.00  0.00    -0.315 C  
ENDBRANCH  15  16
BRANCH  15  19
HETATM   19  C   UNL     1     -12.268  13.939  65.803  1.00  0.00    -0.460 C  
HETATM   20  C   UNL     1     -12.142  14.003  64.275  1.00  0.00    -0.445 C  
HETATM   21 CL   UNL     1     -11.807  12.409  63.547  1.00  0.00    -0.578 Cl 
ENDBRANCH  15  19
ENDBRANCH  12  15
ENDBRANCH   8   9
ENDBRANCH   2   8
TORSDOF 5
ENDMDL
MODEL       86
REMARK 921   NORMALIZED FREE ENERGY PREDICTED BY IDOCK:   -4.65 KCAL/MOL
REMARK 922        TOTAL FREE ENERGY PREDICTED BY IDOCK:   -6.60 KCAL/MOL
REMARK 923 INTER-LIGAND FREE ENERGY PREDICTED BY IDOCK:   -6.05 KCAL/MOL
REMARK 924 INTRA-LIGAND FREE ENERGY PREDICTED BY IDOCK:   -0.55 KCAL/MOL
REMARK 927      BINDING AFFINITY PREDICTED BY RF-SCORE:    0.00 PKD
ROOT
HETATM    1  N   UNL     1      -8.760  20.020  66.096  1.00  0.00    -0.525 NA 
HETATM    2  CA  UNL     1      -8.214  20.382  67.447  1.00  0.00    -0.323 C  
HETATM    3  H1  UNL     1      -8.813  20.805  65.447  1.00  0.00     0.000 HD 
HETATM    4  H2  UNL     1      -9.671  19.568  66.187  1.00  0.00     0.000 HD 
HETATM    5  C   UNL     1      -6.805  20.961  67.241  1.00  0.00    -0.365 C  
HETATM    6  O   UNL     1      -6.530  21.130  65.920  1.00  0.00    -0.209 OA 
HETATM    7  OXT UNL     1      -6.022  21.249  68.131  1.00  0.00    -0.334 OA 
ENDROOT
BRANCH   2   8
HETATM    8  C   UNL     1      -8.134  19.196  68.428  1.00  0.00    -0.378 C  
BRANCH   8   9
HETATM    9  C   UNL     1      -8.957  18.004  67.999  1.00  0.00    -0.274 A  
HETATM   10  C   UNL     1     -10.295  17.880  68.385  1.00  0.00    -0.380 A  
HETATM   11  C   UNL     1     -11.026  16.723  68.080  1.00  0.00    -0.296 A  
HETATM   12  C   UNL     1     -10.455  15.649  67.384  1.00  0.00    -0.291 A  
HETATM   13  C   UNL     1      -9.139  15.838  66.927  1.00  0.00    -0.259 A  
HETATM   14  C   UNL     1      -8.394  16.983  67.237  1.00  0.00    -0.204 A  
BRANCH  12  15
HETATM   15  N   UNL     1     -11.124  14.447  67.166  1.00  0.00    -0.303 NA 
BRANCH  15  16
HETATM   16  C   UNL     1     -12.180  14.307  66.144  1.00  0.00    -0.410 C  
HETATM   17 CL   UNL     1     -10.413  13.305  64.281  1.00  0.00    -0.431 Cl 
HETATM   18  C   UNL     1     -11.663  14.504  64.717  1.00  0.00    -0.422 C  
ENDBRANCH  15  16
BRANCH  15  19
HETATM   19  C   UNL     1     -11.134  13.441  68.253  1.00  0.00    -0.262 C  
HETATM   20  C   UNL     1     -10.655  12.048  67.824  1.00  0.00    -0.207 C  
HETATM   21 CL   UNL     1      -8.958  12.046  67.274  1.00  0.00    -0.174 Cl 
ENDBRANCH  15  19
ENDBRANCH  12  15
ENDBRANCH   8   9
ENDBRANCH   2   8
TORSDOF 5
ENDMDL
MODEL       87
REMARK 921   NORMALIZED FREE ENERGY PREDICTED BY IDOCK:   -4.65 KCAL/MOL
REMARK 922        TOTAL FREE ENERGY PREDICTED BY IDOCK:   -6.60 KCAL/MOL
REMARK 923 INTER-LIGAND FREE ENERGY PREDICTED BY IDOCK:   -5.94 KCAL/MOL
REMARK 924 INTRA-LIGAND FREE ENERGY PREDICTED BY IDOCK:   -0.66 KCAL/MOL
REMARK 927      BINDING AFFINITY PREDICTED BY RF-SCORE:    0.00 PKD
ROOT
HETATM    1  N   UNL     1      -9.945   8.622  71.799  1.00  0.00    -0.272 NA 
HETATM    2  CA  UNL     1     -10.867   9.562  71.078  1.00  0.00    -0.353 C  
HETATM    3  H1  UNL     1      -9.975   8.711  72.816  1.00  0.00     0.000 HD 
HETATM    4  H2  UNL     1      -8.989   8.726  71.459  1.00  0.00     0.000 HD 
HETATM    5  C   UNL     1     -12.297   9.280  71.566  1.00  0.00    -0.360 C  
HETATM    6  O   UNL     1     -12.299   8.400  72.603  1.00  0.00    -0.365 OA 
HETATM    7  OXT UNL     1     -13.312   9.776  71.105  1.00  0.00    -0.373 OA 
ENDROOT
BRANCH   2   8
HETATM    8  C   UNL     1     -10.821   9.428  69.544  1.00  0.00    -0.231 C  
BRANCH   8   9
HETATM    9  C   UNL     1     -10.729  10.754  68.825  1.00  0.00    -0.243 A  
HETATM   10  C   UNL     1      -9.488  11.334  68.547  1.00  0.00    -0.191 A  
HETATM   11  C   UNL     1      -9.404  12.613  67.979  1.00  0.00    -0.209 A  
HETATM   12  C   UNL     1     -10.548  13.362  67.669  1.00  0.00    -0.243 A  
HETATM   13  C   UNL     1     -11.782  12.718  67.872  1.00  0.00    -0.408 A  
HETATM   14  C   UNL     1     -11.878  11.446  68.451  1.00  0.00    -0.344 A  
BRANCH  12  15
HETATM   15  N   UNL     1     -10.492  14.675  67.209  1.00  0.00    -0.264 NA 
BRANCH  15  16
HETATM   16  C   UNL     1     -11.376  15.733  67.739  1.00  0.00    -0.240 C  
HETATM   17 CL   UNL     1      -9.248  17.190  68.713  1.00  0.00    -0.268 Cl 
HETATM   18  C   UNL     1     -10.823  16.399  69.002  1.00  0.00    -0.331 C  
ENDBRANCH  15  16
BRANCH  15  19
HETATM   19  C   UNL     1      -9.904  14.928  65.874  1.00  0.00    -0.332 C  
HETATM   20  C   UNL     1     -10.556  14.128  64.739  1.00  0.00    -0.418 C  
HETATM   21 CL   UNL     1     -12.279  14.535  64.516  1.00  0.00    -0.492 Cl 
ENDBRANCH  15  19
ENDBRANCH  12  15
ENDBRANCH   8   9
ENDBRANCH   2   8
TORSDOF 5
ENDMDL
MODEL       88
REMARK 921   NORMALIZED FREE ENERGY PREDICTED BY IDOCK:   -4.64 KCAL/MOL
REMARK 922        TOTAL FREE ENERGY PREDICTED BY IDOCK:   -6.58 KCAL/MOL
REMARK 923 INTER-LIGAND FREE ENERGY PREDICTED BY IDOCK:   -6.01 KCAL/MOL
REMARK 924 INTRA-LIGAND FREE ENERGY PREDICTED BY IDOCK:   -0.57 KCAL/MOL
REMARK 927      BINDING AFFINITY PREDICTED BY RF-SCORE:    0.00 PKD
ROOT
HETATM    1  N   UNL     1     -10.434  17.404  65.353  1.00  0.00    -0.651 NA 
HETATM    2  CA  UNL     1     -10.425  18.014  66.725  1.00  0.00    -0.328 C  
HETATM    3  H1  UNL     1     -10.231  18.067  64.604  1.00  0.00     0.000 HD 
HETATM    4  H2  UNL     1     -11.319  16.927  65.178  1.00  0.00     0.000 HD 
HETATM    5  C   UNL     1      -9.033  18.623  66.956  1.00  0.00    -0.285 C  
HETATM    6  O   UNL     1      -8.283  18.583  65.822  1.00  0.00    -0.481 OA 
HETATM    7  OXT UNL     1      -8.633  19.095  68.007  1.00  0.00    -0.291 OA 
ENDROOT
BRANCH   2   8
HETATM    8  C   UNL     1     -10.732  17.013  67.856  1.00  0.00    -0.348 C  
BRANCH   8   9
HETATM    9  C   UNL     1     -10.536  15.570  67.453  1.00  0.00    -0.292 A  
HETATM   10  C   UNL     1     -11.631  14.754  67.154  1.00  0.00    -0.373 A  
HETATM   11  C   UNL     1     -11.457  13.388  66.887  1.00  0.00    -0.376 A  
HETATM   12  C   UNL     1     -10.192  12.785  66.909  1.00  0.00    -0.236 A  
HETATM   13  C   UNL     1      -9.100  13.647  67.120  1.00  0.00    -0.241 A  
HETATM   14  C   UNL     1      -9.263  15.009  67.401  1.00  0.00    -0.200 A  
BRANCH  12  15
HETATM   15  N   UNL     1     -10.005  11.414  66.758  1.00  0.00    -0.205 NA 
BRANCH  15  16
HETATM   16  C   UNL     1      -9.121  10.850  65.718  1.00  0.00    -0.196 C  
HETATM   17 CL   UNL     1     -10.903  11.457  63.704  1.00  0.00    -0.463 Cl 
HETATM   18  C   UNL     1      -9.890  10.246  64.540  1.00  0.00    -0.315 C  
ENDBRANCH  15  16
BRANCH  15  19
HETATM   19  C   UNL     1     -11.034  10.499  67.301  1.00  0.00    -0.260 C  
HETATM   20  C   UNL     1     -10.481   9.415  68.235  1.00  0.00    -0.217 C  
HETATM   21 CL   UNL     1      -9.718  10.095  69.698  1.00  0.00    -0.256 Cl 
ENDBRANCH  15  19
ENDBRANCH  12  15
ENDBRANCH   8   9
ENDBRANCH   2   8
TORSDOF 5
ENDMDL
MODEL       89
REMARK 921   NORMALIZED FREE ENERGY PREDICTED BY IDOCK:   -4.63 KCAL/MOL
REMARK 922        TOTAL FREE ENERGY PREDICTED BY IDOCK:   -6.57 KCAL/MOL
REMARK 923 INTER-LIGAND FREE ENERGY PREDICTED BY IDOCK:   -5.90 KCAL/MOL
REMARK 924 INTRA-LIGAND FREE ENERGY PREDICTED BY IDOCK:   -0.67 KCAL/MOL
REMARK 927      BINDING AFFINITY PREDICTED BY RF-SCORE:    0.00 PKD
ROOT
HETATM    1  N   UNL     1     -12.112  15.400  68.687  1.00  0.00    -0.570 NA 
HETATM    2  CA  UNL     1     -11.246  14.319  68.108  1.00  0.00    -0.275 C  
HETATM    3  H1  UNL     1     -11.591  16.209  69.028  1.00  0.00     0.000 HD 
HETATM    4  H2  UNL     1     -12.712  15.024  69.422  1.00  0.00     0.000 HD 
HETATM    5  C   UNL     1     -10.448  14.932  66.946  1.00  0.00    -0.280 C  
HETATM    6  O   UNL     1     -10.625  16.279  66.882  1.00  0.00    -0.310 OA 
HETATM    7  OXT UNL     1      -9.735  14.312  66.174  1.00  0.00    -0.297 OA 
ENDROOT
BRANCH   2   8
HETATM    8  C   UNL     1     -12.031  13.098  67.593  1.00  0.00    -0.363 C  
BRANCH   8   9
HETATM    9  C   UNL     1     -11.747  11.829  68.363  1.00  0.00    -0.389 A  
HETATM   10  C   UNL     1     -12.101  11.714  69.710  1.00  0.00    -0.357 A  
HETATM   11  C   UNL     1     -11.740  10.581  70.454  1.00  0.00    -0.434 A  
HETATM   12  C   UNL     1     -11.016   9.524  69.886  1.00  0.00    -0.238 A  
HETATM   13  C   UNL     1     -10.755   9.623  68.508  1.00  0.00    -0.239 A  
HETATM   14  C   UNL     1     -11.098  10.756  67.759  1.00  0.00    -0.381 A  
BRANCH  12  15
HETATM   15  N   UNL     1     -10.550   8.441  70.628  1.00  0.00    -0.204 NA 
BRANCH  15  16
HETATM   16  C   UNL     1     -10.999   7.059  70.369  1.00  0.00    -0.268 C  
HETATM   17 CL   UNL     1     -13.478   7.529  71.479  1.00  0.00    -0.426 Cl 
HETATM   18  C   UNL     1     -11.989   6.545  71.417  1.00  0.00    -0.316 C  
ENDBRANCH  15  16
BRANCH  15  19
HETATM   19  C   UNL     1      -9.984   8.701  71.971  1.00  0.00    -0.329 C  
HETATM   20  C   UNL     1      -8.640   8.007  72.231  1.00  0.00    -0.157 C  
HETATM   21 CL   UNL     1      -7.356   8.567  71.125  1.00  0.00    -0.070 Cl 
ENDBRANCH  15  19
ENDBRANCH  12  15
ENDBRANCH   8   9
ENDBRANCH   2   8
TORSDOF 5
ENDMDL
MODEL       90
REMARK 921   NORMALIZED FREE ENERGY PREDICTED BY IDOCK:   -4.59 KCAL/MOL
REMARK 922        TOTAL FREE ENERGY PREDICTED BY IDOCK:   -6.52 KCAL/MOL
REMARK 923 INTER-LIGAND FREE ENERGY PREDICTED BY IDOCK:   -6.26 KCAL/MOL
REMARK 924 INTRA-LIGAND FREE ENERGY PREDICTED BY IDOCK:   -0.26 KCAL/MOL
REMARK 927      BINDING AFFINITY PREDICTED BY RF-SCORE:    0.00 PKD
ROOT
HETATM    1  N   UNL     1     -10.992  14.726  71.275  1.00  0.00    -0.488 NA 
HETATM    2  CA  UNL     1     -12.493  14.690  71.249  1.00  0.00    -0.339 C  
HETATM    3  H1  UNL     1     -10.597  15.649  71.090  1.00  0.00     0.000 HD 
HETATM    4  H2  UNL     1     -10.605  14.035  70.632  1.00  0.00     0.000 HD 
HETATM    5  C   UNL     1     -13.002  15.679  72.310  1.00  0.00    -0.447 C  
HETATM    6  O   UNL     1     -11.981  16.405  72.839  1.00  0.00    -0.525 OA 
HETATM    7  OXT UNL     1     -14.167  15.818  72.645  1.00  0.00    -0.554 OA 
ENDROOT
BRANCH   2   8
HETATM    8  C   UNL     1     -13.090  13.297  71.529  1.00  0.00    -0.414 C  
BRANCH   8   9
HETATM    9  C   UNL     1     -12.431  12.190  70.740  1.00  0.00    -0.362 A  
HETATM   10  C   UNL     1     -12.161  10.952  71.329  1.00  0.00    -0.395 A  
HETATM   11  C   UNL     1     -11.453   9.963  70.631  1.00  0.00    -0.411 A  
HETATM   12  C   UNL     1     -10.986  10.169  69.326  1.00  0.00    -0.240 A  
HETATM   13  C   UNL     1     -11.352  11.387  68.724  1.00  0.00    -0.334 A  
HETATM   14  C   UNL     1     -12.047  12.386  69.415  1.00  0.00    -0.237 A  
BRANCH  12  15
HETATM   15  N   UNL     1     -10.187   9.249  68.653  1.00  0.00    -0.193 NA 
BRANCH  15  16
HETATM   16  C   UNL     1      -8.803   8.952  69.074  1.00  0.00    -0.136 C  
HETATM   17 CL   UNL     1      -7.982  11.545  68.623  1.00  0.00    -0.145 Cl 
HETATM   18  C   UNL     1      -7.759   9.796  68.339  1.00  0.00    -0.081 C  
ENDBRANCH  15  16
BRANCH  15  19
HETATM   19  C   UNL     1     -10.524   8.917  67.250  1.00  0.00    -0.277 C  
HETATM   20  C   UNL     1     -10.156   7.486  66.837  1.00  0.00    -0.266 C  
HETATM   21 CL   UNL     1     -11.039   6.253  67.779  1.00  0.00    -0.419 Cl 
ENDBRANCH  15  19
ENDBRANCH  12  15
ENDBRANCH   8   9
ENDBRANCH   2   8
TORSDOF 5
ENDMDL
MODEL       91
REMARK 921   NORMALIZED FREE ENERGY PREDICTED BY IDOCK:   -4.59 KCAL/MOL
REMARK 922        TOTAL FREE ENERGY PREDICTED BY IDOCK:   -6.52 KCAL/MOL
REMARK 923 INTER-LIGAND FREE ENERGY PREDICTED BY IDOCK:   -5.89 KCAL/MOL
REMARK 924 INTRA-LIGAND FREE ENERGY PREDICTED BY IDOCK:   -0.63 KCAL/MOL
REMARK 927      BINDING AFFINITY PREDICTED BY RF-SCORE:    0.00 PKD
ROOT
HETATM    1  N   UNL     1      -9.879  19.703  68.765  1.00  0.00    -0.436 NA 
HETATM    2  CA  UNL     1      -9.428  18.737  67.707  1.00  0.00    -0.301 C  
HETATM    3  H1  UNL     1      -9.123  20.055  69.353  1.00  0.00     0.000 HD 
HETATM    4  H2  UNL     1     -10.615  19.290  69.337  1.00  0.00     0.000 HD 
HETATM    5  C   UNL     1      -8.397  19.459  66.825  1.00  0.00    -0.296 C  
HETATM    6  O   UNL     1      -8.073  20.676  67.339  1.00  0.00    -0.328 OA 
HETATM    7  OXT UNL     1      -7.912  19.015  65.797  1.00  0.00    -0.465 OA 
ENDROOT
BRANCH   2   8
HETATM    8  C   UNL     1     -10.570  18.206  66.818  1.00  0.00    -0.310 C  
BRANCH   8   9
HETATM    9  C   UNL     1     -10.629  16.698  66.752  1.00  0.00    -0.214 A  
HETATM   10  C   UNL     1     -10.961  15.943  67.880  1.00  0.00    -0.327 A  
HETATM   11  C   UNL     1     -10.910  14.542  67.847  1.00  0.00    -0.260 A  
HETATM   12  C   UNL     1     -10.528  13.842  66.695  1.00  0.00    -0.272 A  
HETATM   13  C   UNL     1     -10.290  14.622  65.548  1.00  0.00    -0.383 A  
HETATM   14  C   UNL     1     -10.325  16.022  65.573  1.00  0.00    -0.415 A  
BRANCH  12  15
HETATM   15  N   UNL     1     -10.362  12.460  66.668  1.00  0.00    -0.224 NA 
BRANCH  15  16
HETATM   16  C   UNL     1      -9.236  11.815  65.963  1.00  0.00    -0.194 C  
HETATM   17 CL   UNL     1     -10.641  11.675  63.596  1.00  0.00    -0.444 Cl 
HETATM   18  C   UNL     1      -9.690  10.852  64.863  1.00  0.00    -0.266 C  
ENDBRANCH  15  16
BRANCH  15  19
HETATM   19  C   UNL     1     -11.544  11.605  66.923  1.00  0.00    -0.167 C  
HETATM   20  C   UNL     1     -11.393  10.668  68.129  1.00  0.00    -0.284 C  
HETATM   21 CL   UNL     1     -11.184  11.556  69.663  1.00  0.00    -0.300 Cl 
ENDBRANCH  15  19
ENDBRANCH  12  15
ENDBRANCH   8   9
ENDBRANCH   2   8
TORSDOF 5
ENDMDL
MODEL       92
REMARK 921   NORMALIZED FREE ENERGY PREDICTED BY IDOCK:   -4.59 KCAL/MOL
REMARK 922        TOTAL FREE ENERGY PREDICTED BY IDOCK:   -6.52 KCAL/MOL
REMARK 923 INTER-LIGAND FREE ENERGY PREDICTED BY IDOCK:   -6.01 KCAL/MOL
REMARK 924 INTRA-LIGAND FREE ENERGY PREDICTED BY IDOCK:   -0.51 KCAL/MOL
REMARK 927      BINDING AFFINITY PREDICTED BY RF-SCORE:    0.00 PKD
ROOT
HETATM    1  N   UNL     1     -14.397  15.363  70.968  1.00  0.00    -0.848 NA 
HETATM    2  CA  UNL     1     -12.983  14.884  71.134  1.00  0.00    -0.367 C  
HETATM    3  H1  UNL     1     -15.010  15.121  71.747  1.00  0.00     0.000 HD 
HETATM    4  H2  UNL     1     -14.787  15.027  70.087  1.00  0.00     0.000 HD 
HETATM    5  C   UNL     1     -12.427  15.509  72.424  1.00  0.00    -0.401 C  
HETATM    6  O   UNL     1     -13.400  16.164  73.113  1.00  0.00    -0.534 OA 
HETATM    7  OXT UNL     1     -11.271  15.432  72.805  1.00  0.00    -0.274 OA 
ENDROOT
BRANCH   2   8
HETATM    8  C   UNL     1     -12.057  15.248  69.957  1.00  0.00    -0.386 C  
BRANCH   8   9
HETATM    9  C   UNL     1     -11.456  14.045  69.269  1.00  0.00    -0.344 A  
HETATM   10  C   UNL     1     -12.092  12.801  69.312  1.00  0.00    -0.224 A  
HETATM   11  C   UNL     1     -11.482  11.662  68.768  1.00  0.00    -0.346 A  
HETATM   12  C   UNL     1     -10.219  11.718  68.163  1.00  0.00    -0.203 A  
HETATM   13  C   UNL     1      -9.643  12.996  68.049  1.00  0.00    -0.224 A  
HETATM   14  C   UNL     1     -10.237  14.138  68.601  1.00  0.00    -0.238 A  
BRANCH  12  15
HETATM   15  N   UNL     1      -9.543  10.586  67.715  1.00  0.00    -0.155 NA 
BRANCH  15  16
HETATM   16  C   UNL     1      -9.271   9.432  68.595  1.00  0.00    -0.131 C  
HETATM   17 CL   UNL     1     -10.581   7.685  66.912  1.00  0.00    -0.411 Cl 
HETATM   18  C   UNL     1     -10.372   8.369  68.549  1.00  0.00    -0.200 C  
ENDBRANCH  15  16
BRANCH  15  19
HETATM   19  C   UNL     1      -8.678  10.710  66.520  1.00  0.00    -0.146 C  
HETATM   20  C   UNL     1      -9.375  10.355  65.200  1.00  0.00    -0.222 C  
HETATM   21 CL   UNL     1     -10.744  11.439  64.835  1.00  0.00    -0.358 Cl 
ENDBRANCH  15  19
ENDBRANCH  12  15
ENDBRANCH   8   9
ENDBRANCH   2   8
TORSDOF 5
ENDMDL
MODEL       93
REMARK 921   NORMALIZED FREE ENERGY PREDICTED BY IDOCK:   -4.58 KCAL/MOL
REMARK 922        TOTAL FREE ENERGY PREDICTED BY IDOCK:   -6.51 KCAL/MOL
REMARK 923 INTER-LIGAND FREE ENERGY PREDICTED BY IDOCK:   -6.22 KCAL/MOL
REMARK 924 INTRA-LIGAND FREE ENERGY PREDICTED BY IDOCK:   -0.29 KCAL/MOL
REMARK 927      BINDING AFFINITY PREDICTED BY RF-SCORE:    0.00 PKD
ROOT
HETATM    1  N   UNL     1      -8.980  20.182  65.785  1.00  0.00    -0.504 NA 
HETATM    2  CA  UNL     1      -9.130  20.303  67.275  1.00  0.00    -0.385 C  
HETATM    3  H1  UNL     1      -8.144  20.635  65.416  1.00  0.00     0.000 HD 
HETATM    4  H2  UNL     1      -9.815  20.528  65.312  1.00  0.00     0.000 HD 
HETATM    5  C   UNL     1      -7.887  19.673  67.922  1.00  0.00    -0.298 C  
HETATM    6  O   UNL     1      -6.956  19.345  66.987  1.00  0.00    -0.198 OA 
HETATM    7  OXT UNL     1      -7.729  19.490  69.118  1.00  0.00    -0.355 OA 
ENDROOT
BRANCH   2   8
HETATM    8  C   UNL     1     -10.393  19.619  67.834  1.00  0.00    -0.583 C  
BRANCH   8   9
HETATM    9  C   UNL     1     -10.453  18.137  67.544  1.00  0.00    -0.425 A  
HETATM   10  C   UNL     1     -10.593  17.209  68.580  1.00  0.00    -0.361 A  
HETATM   11  C   UNL     1     -10.539  15.832  68.322  1.00  0.00    -0.271 A  
HETATM   12  C   UNL     1     -10.343  15.328  67.030  1.00  0.00    -0.277 A  
HETATM   13  C   UNL     1     -10.299  16.280  65.995  1.00  0.00    -0.363 A  
HETATM   14  C   UNL     1     -10.338  17.658  66.241  1.00  0.00    -0.342 A  
BRANCH  12  15
HETATM   15  N   UNL     1     -10.174  13.971  66.763  1.00  0.00    -0.260 NA 
BRANCH  15  16
HETATM   16  C   UNL     1      -9.402  13.083  67.655  1.00  0.00    -0.202 C  
HETATM   17 CL   UNL     1      -7.106  14.580  67.355  1.00  0.00    -0.197 Cl 
HETATM   18  C   UNL     1      -7.922  12.992  67.275  1.00  0.00    -0.138 C  
ENDBRANCH  15  16
BRANCH  15  19
HETATM   19  C   UNL     1     -10.346  13.502  65.369  1.00  0.00    -0.319 C  
HETATM   20  C   UNL     1     -11.687  12.805  65.102  1.00  0.00    -0.360 C  
HETATM   21 CL   UNL     1     -13.083  13.888  65.350  1.00  0.00    -0.382 Cl 
ENDBRANCH  15  19
ENDBRANCH  12  15
ENDBRANCH   8   9
ENDBRANCH   2   8
TORSDOF 5
ENDMDL
MODEL       94
REMARK 921   NORMALIZED FREE ENERGY PREDICTED BY IDOCK:   -4.53 KCAL/MOL
REMARK 922        TOTAL FREE ENERGY PREDICTED BY IDOCK:   -6.44 KCAL/MOL
REMARK 923 INTER-LIGAND FREE ENERGY PREDICTED BY IDOCK:   -5.98 KCAL/MOL
REMARK 924 INTRA-LIGAND FREE ENERGY PREDICTED BY IDOCK:   -0.46 KCAL/MOL
REMARK 927      BINDING AFFINITY PREDICTED BY RF-SCORE:    0.00 PKD
ROOT
HETATM    1  N   UNL     1     -11.877  14.029  70.633  1.00  0.00    -0.471 NA 
HETATM    2  CA  UNL     1     -11.824  12.590  70.208  1.00  0.00    -0.223 C  
HETATM    3  H1  UNL     1     -11.175  14.619  70.185  1.00  0.00     0.000 HD 
HETATM    4  H2  UNL     1     -11.816  14.106  71.648  1.00  0.00     0.000 HD 
HETATM    5  C   UNL     1     -12.024  12.545  68.685  1.00  0.00    -0.224 C  
HETATM    6  O   UNL     1     -12.025  13.795  68.150  1.00  0.00    -0.362 OA 
HETATM    7  OXT UNL     1     -12.157  11.531  68.019  1.00  0.00    -0.617 OA 
ENDROOT
BRANCH   2   8
HETATM    8  C   UNL     1     -12.885  11.699  70.883  1.00  0.00    -0.264 C  
BRANCH   8   9
HETATM    9  C   UNL     1     -12.413  10.287  71.137  1.00  0.00    -0.495 A  
HETATM   10  C   UNL     1     -11.064   9.946  71.002  1.00  0.00    -0.401 A  
HETATM   11  C   UNL     1     -10.643   8.614  71.131  1.00  0.00    -0.291 A  
HETATM   12  C   UNL     1     -11.546   7.576  71.396  1.00  0.00    -0.275 A  
HETATM   13  C   UNL     1     -12.881   7.958  71.620  1.00  0.00    -0.357 A  
HETATM   14  C   UNL     1     -13.315   9.282  71.480  1.00  0.00    -0.436 A  
BRANCH  12  15
HETATM   15  N   UNL     1     -11.171   6.235  71.418  1.00  0.00    -0.283 NA 
BRANCH  15  16
HETATM   16  C   UNL     1     -10.871   5.480  70.185  1.00  0.00    -0.229 C  
HETATM   17 CL   UNL     1      -8.151   5.770  70.527  1.00  0.00    -0.108 Cl 
HETATM   18  C   UNL     1      -9.592   5.955  69.489  1.00  0.00    -0.140 C  
ENDBRANCH  15  16
BRANCH  15  19
HETATM   19  C   UNL     1     -11.530   5.424  72.604  1.00  0.00    -0.241 C  
HETATM   20  C   UNL     1     -10.431   5.352  73.672  1.00  0.00    -0.257 C  
HETATM   21 CL   UNL     1     -10.043   6.950  74.364  1.00  0.00    -0.301 Cl 
ENDBRANCH  15  19
ENDBRANCH  12  15
ENDBRANCH   8   9
ENDBRANCH   2   8
TORSDOF 5
ENDMDL
MODEL       95
REMARK 921   NORMALIZED FREE ENERGY PREDICTED BY IDOCK:   -4.49 KCAL/MOL
REMARK 922        TOTAL FREE ENERGY PREDICTED BY IDOCK:   -6.39 KCAL/MOL
REMARK 923 INTER-LIGAND FREE ENERGY PREDICTED BY IDOCK:   -5.82 KCAL/MOL
REMARK 924 INTRA-LIGAND FREE ENERGY PREDICTED BY IDOCK:   -0.58 KCAL/MOL
REMARK 927      BINDING AFFINITY PREDICTED BY RF-SCORE:    0.00 PKD
ROOT
HETATM    1  N   UNL     1      -9.449   9.719  64.357  1.00  0.00    -0.413 NA 
HETATM    2  CA  UNL     1      -9.834  10.754  65.375  1.00  0.00    -0.262 C  
HETATM    3  H1  UNL     1      -8.810   9.007  64.711  1.00  0.00     0.000 HD 
HETATM    4  H2  UNL     1      -9.065  10.163  63.522  1.00  0.00     0.000 HD 
HETATM    5  C   UNL     1     -10.495  10.025  66.555  1.00  0.00    -0.153 C  
HETATM    6  O   UNL     1     -10.397   8.675  66.418  1.00  0.00    -0.262 OA 
HETATM    7  OXT UNL     1     -11.036  10.565  67.506  1.00  0.00    -0.310 OA 
ENDROOT
BRANCH   2   8
HETATM    8  C   UNL     1     -10.799  11.829  64.840  1.00  0.00    -0.353 C  
BRANCH   8   9
HETATM    9  C   UNL     1     -10.436  13.232  65.267  1.00  0.00    -0.324 A  
HETATM   10  C   UNL     1      -9.386  13.461  66.161  1.00  0.00    -0.075 A  
HETATM   11  C   UNL     1      -9.119  14.751  66.642  1.00  0.00    -0.300 A  
HETATM   12  C   UNL     1      -9.885  15.858  66.253  1.00  0.00    -0.302 A  
HETATM   13  C   UNL     1     -10.873  15.616  65.282  1.00  0.00    -0.420 A  
HETATM   14  C   UNL     1     -11.158  14.330  64.805  1.00  0.00    -0.398 A  
BRANCH  12  15
HETATM   15  N   UNL     1      -9.712  17.127  66.799  1.00  0.00    -0.260 NA 
BRANCH  15  16
HETATM   16  C   UNL     1      -9.409  17.335  68.229  1.00  0.00    -0.272 C  
HETATM   17 CL   UNL     1     -11.516  15.749  69.031  1.00  0.00    -0.367 Cl 
HETATM   18  C   UNL     1     -10.656  17.312  69.116  1.00  0.00    -0.209 C  
ENDBRANCH  15  16
BRANCH  15  19
HETATM   19  C   UNL     1     -10.296  18.285  66.084  1.00  0.00    -0.398 C  
HETATM   20  C   UNL     1      -9.592  19.619  66.368  1.00  0.00    -0.401 C  
HETATM   21 CL   UNL     1      -7.888  19.620  65.838  1.00  0.00    -0.336 Cl 
ENDBRANCH  15  19
ENDBRANCH  12  15
ENDBRANCH   8   9
ENDBRANCH   2   8
TORSDOF 5
ENDMDL
MODEL       96
REMARK 921   NORMALIZED FREE ENERGY PREDICTED BY IDOCK:   -4.48 KCAL/MOL
REMARK 922        TOTAL FREE ENERGY PREDICTED BY IDOCK:   -6.38 KCAL/MOL
REMARK 923 INTER-LIGAND FREE ENERGY PREDICTED BY IDOCK:   -5.75 KCAL/MOL
REMARK 924 INTRA-LIGAND FREE ENERGY PREDICTED BY IDOCK:   -0.63 KCAL/MOL
REMARK 927      BINDING AFFINITY PREDICTED BY RF-SCORE:    0.00 PKD
ROOT
HETATM    1  N   UNL     1     -11.527   6.289  67.119  1.00  0.00    -0.648 NA 
HETATM    2  CA  UNL     1     -10.539   7.412  66.981  1.00  0.00    -0.344 C  
HETATM    3  H1  UNL     1     -11.642   5.733  66.272  1.00  0.00     0.000 HD 
HETATM    4  H2  UNL     1     -12.428   6.643  67.442  1.00  0.00     0.000 HD 
HETATM    5  C   UNL     1      -9.185   6.796  66.592  1.00  0.00    -0.159 C  
HETATM    6  O   UNL     1      -9.304   5.467  66.331  1.00  0.00    -0.143 OA 
HETATM    7  OXT UNL     1      -8.129   7.403  66.514  1.00  0.00    -0.110 OA 
ENDROOT
BRANCH   2   8
HETATM    8  C   UNL     1     -10.364   8.252  68.260  1.00  0.00    -0.242 C  
BRANCH   8   9
HETATM    9  C   UNL     1     -10.560   9.734  68.040  1.00  0.00    -0.291 A  
HETATM   10  C   UNL     1     -11.511  10.448  68.774  1.00  0.00    -0.240 A  
HETATM   11  C   UNL     1     -11.770  11.798  68.494  1.00  0.00    -0.390 A  
HETATM   12  C   UNL     1     -11.096  12.484  67.475  1.00  0.00    -0.267 A  
HETATM   13  C   UNL     1     -10.080  11.769  66.815  1.00  0.00    -0.235 A  
HETATM   14  C   UNL     1      -9.822  10.418  67.077  1.00  0.00    -0.234 A  
BRANCH  12  15
HETATM   15  N   UNL     1     -11.411  13.788  67.104  1.00  0.00    -0.324 NA 
BRANCH  15  16
HETATM   16  C   UNL     1     -11.050  14.953  67.936  1.00  0.00    -0.298 C  
HETATM   17 CL   UNL     1      -8.633  15.275  66.651  1.00  0.00    -0.313 Cl 
HETATM   18  C   UNL     1      -9.543  15.076  68.175  1.00  0.00    -0.207 C  
ENDBRANCH  15  16
BRANCH  15  19
HETATM   19  C   UNL     1     -12.513  13.997  66.137  1.00  0.00    -0.430 C  
HETATM   20  C   UNL     1     -12.046  14.365  64.722  1.00  0.00    -0.452 C  
HETATM   21 CL   UNL     1     -11.070  13.076  63.967  1.00  0.00    -0.427 Cl 
ENDBRANCH  15  19
ENDBRANCH  12  15
ENDBRANCH   8   9
ENDBRANCH   2   8
TORSDOF 5
ENDMDL
MODEL       97
REMARK 921   NORMALIZED FREE ENERGY PREDICTED BY IDOCK:   -4.47 KCAL/MOL
REMARK 922        TOTAL FREE ENERGY PREDICTED BY IDOCK:   -6.36 KCAL/MOL
REMARK 923 INTER-LIGAND FREE ENERGY PREDICTED BY IDOCK:   -5.89 KCAL/MOL
REMARK 924 INTRA-LIGAND FREE ENERGY PREDICTED BY IDOCK:   -0.47 KCAL/MOL
REMARK 927      BINDING AFFINITY PREDICTED BY RF-SCORE:    0.00 PKD
ROOT
HETATM    1  N   UNL     1     -11.379   6.513  66.895  1.00  0.00    -0.817 NA 
HETATM    2  CA  UNL     1     -10.037   6.354  67.550  1.00  0.00    -0.155 C  
HETATM    3  H1  UNL     1     -12.063   5.810  67.176  1.00  0.00     0.000 HD 
HETATM    4  H2  UNL     1     -11.281   6.533  65.879  1.00  0.00     0.000 HD 
HETATM    5  C   UNL     1     -10.247   6.434  69.071  1.00  0.00    -0.183 C  
HETATM    6  O   UNL     1     -11.570   6.459  69.385  1.00  0.00    -0.382 OA 
HETATM    7  OXT UNL     1      -9.359   6.463  69.906  1.00  0.00    -0.150 OA 
ENDROOT
BRANCH   2   8
HETATM    8  C   UNL     1      -9.004   7.415  67.126  1.00  0.00    -0.134 C  
BRANCH   8   9
HETATM    9  C   UNL     1      -9.606   8.780  66.885  1.00  0.00    -0.249 A  
HETATM   10  C   UNL     1      -9.608   9.348  65.609  1.00  0.00    -0.345 A  
HETATM   11  C   UNL     1     -10.067  10.657  65.405  1.00  0.00    -0.356 A  
HETATM   12  C   UNL     1     -10.540  11.447  66.461  1.00  0.00    -0.263 A  
HETATM   13  C   UNL     1     -10.615  10.820  67.718  1.00  0.00    -0.266 A  
HETATM   14  C   UNL     1     -10.147   9.518  67.936  1.00  0.00    -0.234 A  
BRANCH  12  15
HETATM   15  N   UNL     1     -10.897  12.785  66.306  1.00  0.00    -0.271 NA 
BRANCH  15  16
HETATM   16  C   UNL     1     -12.283  13.200  66.008  1.00  0.00    -0.414 C  
HETATM   17 CL   UNL     1     -11.870  13.055  63.287  1.00  0.00    -0.550 Cl 
HETATM   18  C   UNL     1     -12.403  13.997  64.708  1.00  0.00    -0.413 C  
ENDBRANCH  15  16
BRANCH  15  19
HETATM   19  C   UNL     1      -9.838  13.759  65.959  1.00  0.00    -0.282 C  
HETATM   20  C   UNL     1      -9.557  14.798  67.053  1.00  0.00    -0.241 C  
HETATM   21 CL   UNL     1      -8.961  14.057  68.563  1.00  0.00    -0.185 Cl 
ENDBRANCH  15  19
ENDBRANCH  12  15
ENDBRANCH   8   9
ENDBRANCH   2   8
TORSDOF 5
ENDMDL
MODEL       98
REMARK 921   NORMALIZED FREE ENERGY PREDICTED BY IDOCK:   -4.44 KCAL/MOL
REMARK 922        TOTAL FREE ENERGY PREDICTED BY IDOCK:   -6.33 KCAL/MOL
REMARK 923 INTER-LIGAND FREE ENERGY PREDICTED BY IDOCK:   -5.97 KCAL/MOL
REMARK 924 INTRA-LIGAND FREE ENERGY PREDICTED BY IDOCK:   -0.36 KCAL/MOL
REMARK 927      BINDING AFFINITY PREDICTED BY RF-SCORE:    0.00 PKD
ROOT
HETATM    1  N   UNL     1     -10.562   9.261  71.459  1.00  0.00    -0.352 NA 
HETATM    2  CA  UNL     1     -11.962   8.981  71.923  1.00  0.00    -0.375 C  
HETATM    3  H1  UNL     1      -9.873   8.583  71.789  1.00  0.00     0.000 HD 
HETATM    4  H2  UNL     1     -10.282  10.208  71.713  1.00  0.00     0.000 HD 
HETATM    5  C   UNL     1     -12.351   7.582  71.418  1.00  0.00    -0.345 C  
HETATM    6  O   UNL     1     -11.288   6.948  70.855  1.00  0.00    -0.271 OA 
HETATM    7  OXT UNL     1     -13.459   7.081  71.509  1.00  0.00    -0.360 OA 
ENDROOT
BRANCH   2   8
HETATM    8  C   UNL     1     -13.002  10.004  71.425  1.00  0.00    -0.517 C  
BRANCH   8   9
HETATM    9  C   UNL     1     -12.459  10.958  70.386  1.00  0.00    -0.411 A  
HETATM   10  C   UNL     1     -12.112  10.507  69.110  1.00  0.00    -0.059 A  
HETATM   11  C   UNL     1     -11.507  11.368  68.183  1.00  0.00    -0.375 A  
HETATM   12  C   UNL     1     -11.225  12.706  68.492  1.00  0.00    -0.279 A  
HETATM   13  C   UNL     1     -11.669  13.158  69.747  1.00  0.00    -0.350 A  
HETATM   14  C   UNL     1     -12.261  12.304  70.686  1.00  0.00    -0.378 A  
BRANCH  12  15
HETATM   15  N   UNL     1     -10.526  13.550  67.632  1.00  0.00    -0.236 NA 
BRANCH  15  16
HETATM   16  C   UNL     1     -11.013  14.900  67.286  1.00  0.00    -0.323 C  
HETATM   17 CL   UNL     1     -12.556  13.943  65.212  1.00  0.00    -0.501 Cl 
HETATM   18  C   UNL     1     -11.298  15.070  65.792  1.00  0.00    -0.279 C  
ENDBRANCH  15  16
BRANCH  15  19
HETATM   19  C   UNL     1      -9.558  12.947  66.687  1.00  0.00    -0.257 C  
HETATM   20  C   UNL     1      -8.125  12.855  67.230  1.00  0.00    -0.163 C  
HETATM   21 CL   UNL     1      -8.004  11.811  68.671  1.00  0.00    -0.140 Cl 
ENDBRANCH  15  19
ENDBRANCH  12  15
ENDBRANCH   8   9
ENDBRANCH   2   8
TORSDOF 5
ENDMDL
MODEL       99
REMARK 921   NORMALIZED FREE ENERGY PREDICTED BY IDOCK:   -4.43 KCAL/MOL
REMARK 922        TOTAL FREE ENERGY PREDICTED BY IDOCK:   -6.31 KCAL/MOL
REMARK 923 INTER-LIGAND FREE ENERGY PREDICTED BY IDOCK:   -5.63 KCAL/MOL
REMARK 924 INTRA-LIGAND FREE ENERGY PREDICTED BY IDOCK:   -0.69 KCAL/MOL
REMARK 927      BINDING AFFINITY PREDICTED BY RF-SCORE:    0.00 PKD
ROOT
HETATM    1  N   UNL     1     -10.965   7.754  68.649  1.00  0.00    -0.419 NA 
HETATM    2  CA  UNL     1     -10.406   8.268  69.945  1.00  0.00    -0.218 C  
HETATM    3  H1  UNL     1     -10.631   6.824  68.394  1.00  0.00     0.000 HD 
HETATM    4  H2  UNL     1     -10.788   8.417  67.895  1.00  0.00     0.000 HD 
HETATM    5  C   UNL     1     -10.796   7.272  71.049  1.00  0.00    -0.239 C  
HETATM    6  O   UNL     1     -11.376   6.158  70.526  1.00  0.00    -0.336 OA 
HETATM    7  OXT UNL     1     -10.611   7.434  72.244  1.00  0.00    -0.215 OA 
ENDROOT
BRANCH   2   8
HETATM    8  C   UNL     1     -10.910   9.672  70.330  1.00  0.00    -0.353 C  
BRANCH   8   9
HETATM    9  C   UNL     1     -10.751  10.692  69.228  1.00  0.00    -0.275 A  
HETATM   10  C   UNL     1     -11.867  11.317  68.662  1.00  0.00    -0.369 A  
HETATM   11  C   UNL     1     -11.728  12.181  67.567  1.00  0.00    -0.385 A  
HETATM   12  C   UNL     1     -10.478  12.455  66.994  1.00  0.00    -0.220 A  
HETATM   13  C   UNL     1      -9.365  11.888  67.640  1.00  0.00    -0.183 A  
HETATM   14  C   UNL     1      -9.492  11.013  68.726  1.00  0.00    -0.190 A  
BRANCH  12  15
HETATM   15  N   UNL     1     -10.325  13.219  65.840  1.00  0.00    -0.287 NA 
BRANCH  15  16
HETATM   16  C   UNL     1      -9.806  12.649  64.581  1.00  0.00    -0.038 C  
HETATM   17 CL   UNL     1     -12.317  11.860  63.762  1.00  0.00    -0.558 Cl 
HETATM   18  C   UNL     1     -10.612  11.443  64.092  1.00  0.00    -0.369 C  
ENDBRANCH  15  16
BRANCH  15  19
HETATM   19  C   UNL     1     -10.219  14.690  65.980  1.00  0.00    -0.311 C  
HETATM   20  C   UNL     1     -10.672  15.472  64.740  1.00  0.00    -0.304 C  
HETATM   21 CL   UNL     1     -12.396  15.215  64.359  1.00  0.00    -0.359 Cl 
ENDBRANCH  15  19
ENDBRANCH  12  15
ENDBRANCH   8   9
ENDBRANCH   2   8
TORSDOF 5
ENDMDL
MODEL      100
REMARK 921   NORMALIZED FREE ENERGY PREDICTED BY IDOCK:   -4.43 KCAL/MOL
REMARK 922        TOTAL FREE ENERGY PREDICTED BY IDOCK:   -6.31 KCAL/MOL
REMARK 923 INTER-LIGAND FREE ENERGY PREDICTED BY IDOCK:   -5.92 KCAL/MOL
REMARK 924 INTRA-LIGAND FREE ENERGY PREDICTED BY IDOCK:   -0.39 KCAL/MOL
REMARK 927      BINDING AFFINITY PREDICTED BY RF-SCORE:    0.00 PKD
ROOT
HETATM    1  N   UNL     1     -12.381  14.566  63.658  1.00  0.00    -1.104 NA 
HETATM    2  CA  UNL     1     -12.358  14.178  65.109  1.00  0.00    -0.451 C  
HETATM    3  H1  UNL     1     -12.390  15.574  63.499  1.00  0.00     0.000 HD 
HETATM    4  H2  UNL     1     -13.164  14.120  63.180  1.00  0.00     0.000 HD 
HETATM    5  C   UNL     1     -11.101  14.800  65.738  1.00  0.00    -0.338 C  
HETATM    6  O   UNL     1     -10.475  15.636  64.867  1.00  0.00    -0.444 OA 
HETATM    7  OXT UNL     1     -10.702  14.593  66.872  1.00  0.00    -0.285 OA 
ENDROOT
BRANCH   2   8
HETATM    8  C   UNL     1     -12.343  12.656  65.350  1.00  0.00    -0.499 C  
BRANCH   8   9
HETATM    9  C   UNL     1     -11.100  11.976  64.826  1.00  0.00    -0.369 A  
HETATM   10  C   UNL     1     -10.818  11.952  63.458  1.00  0.00    -0.502 A  
HETATM   11  C   UNL     1      -9.724  11.228  62.962  1.00  0.00    -0.389 A  
HETATM   12  C   UNL     1      -8.874  10.501  63.807  1.00  0.00    -0.200 A  
HETATM   13  C   UNL     1      -9.125  10.619  65.186  1.00  0.00    -0.227 A  
HETATM   14  C   UNL     1     -10.222  11.327  65.691  1.00  0.00    -0.304 A  
BRANCH  12  15
HETATM   15  N   UNL     1      -7.850   9.686  63.332  1.00  0.00    -0.130 NA 
BRANCH  15  16
HETATM   16  C   UNL     1      -6.510  10.214  63.006  1.00  0.00    -0.136 C  
HETATM   17 CL   UNL     1      -5.406   9.170  65.306  1.00  0.00    -0.037 Cl 
HETATM   18  C   UNL     1      -5.691  10.579  64.247  1.00  0.00    -0.100 C  
ENDBRANCH  15  16
BRANCH  15  19
HETATM   19  C   UNL     1      -8.213   8.399  62.696  1.00  0.00    -0.175 C  
HETATM   20  C   UNL     1      -7.642   7.164  63.407  1.00  0.00    -0.112 C  
HETATM   21 CL   UNL     1      -8.253   6.991  65.074  1.00  0.00    -0.120 Cl 
ENDBRANCH  15  19
ENDBRANCH  12  15
ENDBRANCH   8   9
ENDBRANCH   2   8
TORSDOF 5
ENDMDL
MODEL      101
REMARK 921   NORMALIZED FREE ENERGY PREDICTED BY IDOCK:   -4.43 KCAL/MOL
REMARK 922        TOTAL FREE ENERGY PREDICTED BY IDOCK:   -6.31 KCAL/MOL
REMARK 923 INTER-LIGAND FREE ENERGY PREDICTED BY IDOCK:   -6.53 KCAL/MOL
REMARK 924 INTRA-LIGAND FREE ENERGY PREDICTED BY IDOCK:    0.22 KCAL/MOL
REMARK 927      BINDING AFFINITY PREDICTED BY RF-SCORE:    0.00 PKD
ROOT
HETATM    1  N   UNL     1     -13.582  15.661  70.584  1.00  0.00    -0.798 NA 
HETATM    2  CA  UNL     1     -13.001  14.292  70.373  1.00  0.00    -0.124 C  
HETATM    3  H1  UNL     1     -14.593  15.665  70.725  1.00  0.00     0.000 HD 
HETATM    4  H2  UNL     1     -13.325  16.282  69.816  1.00  0.00     0.000 HD 
HETATM    5  C   UNL     1     -13.341  13.446  71.610  1.00  0.00    -0.338 C  
HETATM    6  O   UNL     1     -14.187  14.108  72.444  1.00  0.00    -0.563 OA 
HETATM    7  OXT UNL     1     -12.924  12.321  71.832  1.00  0.00    -0.376 OA 
ENDROOT
BRANCH   2   8
HETATM    8  C   UNL     1     -11.475  14.286  70.160  1.00  0.00    -0.254 C  
BRANCH   8   9
HETATM    9  C   UNL     1     -11.042  13.533  68.924  1.00  0.00    -0.305 A  
HETATM   10  C   UNL     1      -9.962  13.975  68.156  1.00  0.00    -0.242 A  
HETATM   11  C   UNL     1      -9.629  13.340  66.951  1.00  0.00    -0.249 A  
HETATM   12  C   UNL     1     -10.356  12.245  66.467  1.00  0.00    -0.227 A  
HETATM   13  C   UNL     1     -11.378  11.762  67.304  1.00  0.00    -0.379 A  
HETATM   14  C   UNL     1     -11.728  12.396  68.502  1.00  0.00    -0.373 A  
BRANCH  12  15
HETATM   15  N   UNL     1     -10.116  11.666  65.223  1.00  0.00    -0.254 NA 
BRANCH  15  16
HETATM   16  C   UNL     1      -9.064  10.651  65.016  1.00  0.00    -0.202 C  
HETATM   17 CL   UNL     1     -10.393   8.787  66.552  1.00  0.00    -0.320 Cl 
HETATM   18  C   UNL     1      -8.900   9.706  66.209  1.00  0.00    -0.151 C  
ENDBRANCH  15  16
BRANCH  15  19
HETATM   19  C   UNL     1     -10.568  12.390  64.012  1.00  0.00    -0.413 C  
HETATM   20  C   UNL     1     -12.093  12.440  63.843  1.00  0.00    -0.499 C  
HETATM   21 CL   UNL     1     -12.901  13.311  65.173  1.00  0.00    -0.462 Cl 
ENDBRANCH  15  19
ENDBRANCH  12  15
ENDBRANCH   8   9
ENDBRANCH   2   8
TORSDOF 5
ENDMDL
MODEL      102
REMARK 921   NORMALIZED FREE ENERGY PREDICTED BY IDOCK:   -4.42 KCAL/MOL
REMARK 922        TOTAL FREE ENERGY PREDICTED BY IDOCK:   -6.30 KCAL/MOL
REMARK 923 INTER-LIGAND FREE ENERGY PREDICTED BY IDOCK:   -5.67 KCAL/MOL
REMARK 924 INTRA-LIGAND FREE ENERGY PREDICTED BY IDOCK:   -0.63 KCAL/MOL
REMARK 927      BINDING AFFINITY PREDICTED BY RF-SCORE:    0.00 PKD
ROOT
HETATM    1  N   UNL     1     -11.499   4.355  64.983  1.00  0.00    -1.079 NA 
HETATM    2  CA  UNL     1     -10.149   4.716  65.534  1.00  0.00    -0.183 C  
HETATM    3  H1  UNL     1     -11.749   4.864  64.134  1.00  0.00     0.000 HD 
HETATM    4  H2  UNL     1     -12.220   4.470  65.696  1.00  0.00     0.000 HD 
HETATM    5  C   UNL     1      -9.106   4.423  64.443  1.00  0.00    -0.152 C  
HETATM    6  O   UNL     1      -9.702   4.087  63.268  1.00  0.00    -0.147 OA 
HETATM    7  OXT UNL     1      -7.897   4.485  64.588  1.00  0.00    -0.083 OA 
ENDROOT
BRANCH   2   8
HETATM    8  C   UNL     1      -9.771   3.948  66.814  1.00  0.00    -0.189 C  
BRANCH   8   9
HETATM    9  C   UNL     1     -10.013   4.733  68.082  1.00  0.00    -0.152 A  
HETATM   10  C   UNL     1      -9.537   4.273  69.313  1.00  0.00    -0.261 A  
HETATM   11  C   UNL     1      -9.854   4.944  70.503  1.00  0.00    -0.297 A  
HETATM   12  C   UNL     1     -10.657   6.093  70.512  1.00  0.00    -0.253 A  
HETATM   13  C   UNL     1     -11.045   6.587  69.254  1.00  0.00    -0.393 A  
HETATM   14  C   UNL     1     -10.745   5.918  68.060  1.00  0.00    -0.332 A  
BRANCH  12  15
HETATM   15  N   UNL     1     -11.078   6.712  71.686  1.00  0.00    -0.241 NA 
BRANCH  15  16
HETATM   16  C   UNL     1     -12.327   7.497  71.758  1.00  0.00    -0.326 C  
HETATM   17 CL   UNL     1     -11.087   9.782  70.842  1.00  0.00    -0.404 Cl 
HETATM   18  C   UNL     1     -12.090   8.974  72.080  1.00  0.00    -0.370 C  
ENDBRANCH  15  16
BRANCH  15  19
HETATM   19  C   UNL     1     -10.069   7.001  72.730  1.00  0.00    -0.185 C  
HETATM   20  C   UNL     1     -10.404   6.415  74.108  1.00  0.00    -0.317 C  
HETATM   21 CL   UNL     1     -10.486   4.632  74.092  1.00  0.00    -0.304 Cl 
ENDBRANCH  15  19
ENDBRANCH  12  15
ENDBRANCH   8   9
ENDBRANCH   2   8
TORSDOF 5
ENDMDL
MODEL      103
REMARK 921   NORMALIZED FREE ENERGY PREDICTED BY IDOCK:   -4.41 KCAL/MOL
REMARK 922        TOTAL FREE ENERGY PREDICTED BY IDOCK:   -6.29 KCAL/MOL
REMARK 923 INTER-LIGAND FREE ENERGY PREDICTED BY IDOCK:   -5.77 KCAL/MOL
REMARK 924 INTRA-LIGAND FREE ENERGY PREDICTED BY IDOCK:   -0.52 KCAL/MOL
REMARK 927      BINDING AFFINITY PREDICTED BY RF-SCORE:    0.00 PKD
ROOT
HETATM    1  N   UNL     1     -12.036  11.969  66.382  1.00  0.00    -0.537 NA 
HETATM    2  CA  UNL     1     -10.810  11.967  65.515  1.00  0.00    -0.292 C  
HETATM    3  H1  UNL     1     -12.578  12.832  66.331  1.00  0.00     0.000 HD 
HETATM    4  H2  UNL     1     -11.791  11.755  67.349  1.00  0.00     0.000 HD 
HETATM    5  C   UNL     1     -11.264  12.193  64.064  1.00  0.00    -0.390 C  
HETATM    6  O   UNL     1     -12.591  12.487  64.002  1.00  0.00    -0.607 OA 
HETATM    7  OXT UNL     1     -10.545  12.131  63.080  1.00  0.00    -0.380 OA 
ENDROOT
BRANCH   2   8
HETATM    8  C   UNL     1      -9.992  10.664  65.591  1.00  0.00    -0.327 C  
BRANCH   8   9
HETATM    9  C   UNL     1     -10.010  10.020  66.958  1.00  0.00    -0.257 A  
HETATM   10  C   UNL     1     -10.506   8.725  67.134  1.00  0.00    -0.354 A  
HETATM   11  C   UNL     1     -10.625   8.170  68.416  1.00  0.00    -0.148 A  
HETATM   12  C   UNL     1     -10.256   8.879  69.567  1.00  0.00    -0.204 A  
HETATM   13  C   UNL     1      -9.673  10.142  69.354  1.00  0.00    -0.247 A  
HETATM   14  C   UNL     1      -9.563  10.712  68.080  1.00  0.00    -0.165 A  
BRANCH  12  15
HETATM   15  N   UNL     1     -10.466   8.395  70.855  1.00  0.00    -0.192 NA 
BRANCH  15  16
HETATM   16  C   UNL     1      -9.371   7.843  71.677  1.00  0.00    -0.148 C  
HETATM   17 CL   UNL     1      -9.297   5.502  70.224  1.00  0.00    -0.183 Cl 
HETATM   18  C   UNL     1      -9.427   6.319  71.807  1.00  0.00    -0.150 C  
ENDBRANCH  15  16
BRANCH  15  19
HETATM   19  C   UNL     1     -11.836   7.981  71.236  1.00  0.00    -0.294 C  
HETATM   20  C   UNL     1     -12.533   8.940  72.211  1.00  0.00    -0.369 C  
HETATM   21 CL   UNL     1     -12.768  10.568  71.521  1.00  0.00    -0.528 Cl 
ENDBRANCH  15  19
ENDBRANCH  12  15
ENDBRANCH   8   9
ENDBRANCH   2   8
TORSDOF 5
ENDMDL
MODEL      104
REMARK 921   NORMALIZED FREE ENERGY PREDICTED BY IDOCK:   -4.41 KCAL/MOL
REMARK 922        TOTAL FREE ENERGY PREDICTED BY IDOCK:   -6.29 KCAL/MOL
REMARK 923 INTER-LIGAND FREE ENERGY PREDICTED BY IDOCK:   -5.70 KCAL/MOL
REMARK 924 INTRA-LIGAND FREE ENERGY PREDICTED BY IDOCK:   -0.59 KCAL/MOL
REMARK 927      BINDING AFFINITY PREDICTED BY RF-SCORE:    0.00 PKD
ROOT
HETATM    1  N   UNL     1     -11.553  14.641  66.792  1.00  0.00    -0.371 NA 
HETATM    2  CA  UNL     1     -11.180  14.578  65.339  1.00  0.00    -0.342 C  
HETATM    3  H1  UNL     1     -12.290  15.316  67.001  1.00  0.00     0.000 HD 
HETATM    4  H2  UNL     1     -10.730  14.820  67.367  1.00  0.00     0.000 HD 
HETATM    5  C   UNL     1     -12.444  14.207  64.547  1.00  0.00    -0.322 C  
HETATM    6  O   UNL     1     -13.544  14.204  65.347  1.00  0.00    -0.568 OA 
HETATM    7  OXT UNL     1     -12.481  13.952  63.355  1.00  0.00    -0.833 OA 
ENDROOT
BRANCH   2   8
HETATM    8  C   UNL     1     -10.068  13.559  65.023  1.00  0.00    -0.280 C  
BRANCH   8   9
HETATM    9  C   UNL     1      -9.921  12.483  66.073  1.00  0.00    -0.269 A  
HETATM   10  C   UNL     1     -10.713  11.333  66.038  1.00  0.00    -0.301 A  
HETATM   11  C   UNL     1     -10.654  10.387  67.071  1.00  0.00    -0.305 A  
HETATM   12  C   UNL     1      -9.807  10.550  68.176  1.00  0.00    -0.153 A  
HETATM   13  C   UNL     1      -8.953  11.668  68.140  1.00  0.00    -0.182 A  
HETATM   14  C   UNL     1      -9.014  12.626  67.121  1.00  0.00    -0.205 A  
BRANCH  12  15
HETATM   15  N   UNL     1      -9.809   9.685  69.266  1.00  0.00    -0.179 NA 
BRANCH  15  16
HETATM   16  C   UNL     1     -11.060   9.173  69.863  1.00  0.00    -0.159 C  
HETATM   17 CL   UNL     1     -11.979  11.713  70.412  1.00  0.00    -0.457 Cl 
HETATM   18  C   UNL     1     -11.598  10.065  70.984  1.00  0.00    -0.393 C  
ENDBRANCH  15  16
BRANCH  15  19
HETATM   19  C   UNL     1      -8.611   9.646  70.136  1.00  0.00    -0.214 C  
HETATM   20  C   UNL     1      -7.711   8.424  69.909  1.00  0.00    -0.092 C  
HETATM   21 CL   UNL     1      -7.030   8.371  68.261  1.00  0.00    -0.072 Cl 
ENDBRANCH  15  19
ENDBRANCH  12  15
ENDBRANCH   8   9
ENDBRANCH   2   8
TORSDOF 5
ENDMDL
MODEL      105
REMARK 921   NORMALIZED FREE ENERGY PREDICTED BY IDOCK:   -4.40 KCAL/MOL
REMARK 922        TOTAL FREE ENERGY PREDICTED BY IDOCK:   -6.28 KCAL/MOL
REMARK 923 INTER-LIGAND FREE ENERGY PREDICTED BY IDOCK:   -5.49 KCAL/MOL
REMARK 924 INTRA-LIGAND FREE ENERGY PREDICTED BY IDOCK:   -0.78 KCAL/MOL
REMARK 927      BINDING AFFINITY PREDICTED BY RF-SCORE:    0.00 PKD
ROOT
HETATM    1  N   UNL     1      -9.109  16.911  65.824  1.00  0.00    -0.510 NA 
HETATM    2  CA  UNL     1     -10.402  17.433  66.381  1.00  0.00    -0.317 C  
HETATM    3  H1  UNL     1      -8.857  17.311  64.920  1.00  0.00     0.000 HD 
HETATM    4  H2  UNL     1      -9.125  15.892  65.774  1.00  0.00     0.000 HD 
HETATM    5  C   UNL     1     -10.268  18.957  66.524  1.00  0.00    -0.414 C  
HETATM    6  O   UNL     1      -9.111  19.405  65.966  1.00  0.00    -0.414 OA 
HETATM    7  OXT UNL     1     -11.084  19.692  67.056  1.00  0.00    -0.412 OA 
ENDROOT
BRANCH   2   8
HETATM    8  C   UNL     1     -10.783  16.829  67.747  1.00  0.00    -0.321 C  
BRANCH   8   9
HETATM    9  C   UNL     1     -10.754  15.319  67.767  1.00  0.00    -0.286 A  
HETATM   10  C   UNL     1      -9.777  14.630  68.492  1.00  0.00    -0.225 A  
HETATM   11  C   UNL     1      -9.683  13.233  68.423  1.00  0.00    -0.198 A  
HETATM   12  C   UNL     1     -10.554  12.471  67.633  1.00  0.00    -0.217 A  
HETATM   13  C   UNL     1     -11.585  13.180  66.989  1.00  0.00    -0.408 A  
HETATM   14  C   UNL     1     -11.680  14.576  67.040  1.00  0.00    -0.412 A  
BRANCH  12  15
HETATM   15  N   UNL     1     -10.414  11.096  67.460  1.00  0.00    -0.195 NA 
BRANCH  15  16
HETATM   16  C   UNL     1     -10.186  10.489  66.133  1.00  0.00    -0.236 C  
HETATM   17 CL   UNL     1      -7.447  10.685  66.381  1.00  0.00    -0.132 Cl 
HETATM   18  C   UNL     1      -8.928  11.018  65.440  1.00  0.00    -0.178 C  
ENDBRANCH  15  16
BRANCH  15  19
HETATM   19  C   UNL     1     -10.962  10.197  68.501  1.00  0.00    -0.232 C  
HETATM   20  C   UNL     1      -9.948   9.185  69.053  1.00  0.00    -0.184 C  
HETATM   21 CL   UNL     1      -8.570   9.972  69.868  1.00  0.00    -0.202 Cl 
ENDBRANCH  15  19
ENDBRANCH  12  15
ENDBRANCH   8   9
ENDBRANCH   2   8
TORSDOF 5
ENDMDL
MODEL      106
REMARK 921   NORMALIZED FREE ENERGY PREDICTED BY IDOCK:   -4.37 KCAL/MOL
REMARK 922        TOTAL FREE ENERGY PREDICTED BY IDOCK:   -6.24 KCAL/MOL
REMARK 923 INTER-LIGAND FREE ENERGY PREDICTED BY IDOCK:   -5.48 KCAL/MOL
REMARK 924 INTRA-LIGAND FREE ENERGY PREDICTED BY IDOCK:   -0.76 KCAL/MOL
REMARK 927      BINDING AFFINITY PREDICTED BY RF-SCORE:    0.00 PKD
ROOT
HETATM    1  N   UNL     1      -8.900   8.553  64.615  1.00  0.00    -0.414 NA 
HETATM    2  CA  UNL     1      -9.646   9.366  65.633  1.00  0.00    -0.274 C  
HETATM    3  H1  UNL     1      -9.467   8.269  63.815  1.00  0.00     0.000 HD 
HETATM    4  H2  UNL     1      -8.466   7.740  65.053  1.00  0.00     0.000 HD 
HETATM    5  C   UNL     1     -10.184  10.620  64.926  1.00  0.00    -0.324 C  
HETATM    6  O   UNL     1      -9.978  10.556  63.583  1.00  0.00    -0.320 OA 
HETATM    7  OXT UNL     1     -10.735  11.560  65.475  1.00  0.00    -0.273 OA 
ENDROOT
BRANCH   2   8
HETATM    8  C   UNL     1      -8.790   9.795  66.840  1.00  0.00    -0.150 C  
BRANCH   8   9
HETATM    9  C   UNL     1      -9.322   9.297  68.164  1.00  0.00    -0.143 A  
HETATM   10  C   UNL     1     -10.189   8.202  68.223  1.00  0.00    -0.245 A  
HETATM   11  C   UNL     1     -10.768   7.809  69.437  1.00  0.00    -0.177 A  
HETATM   12  C   UNL     1     -10.509   8.488  70.635  1.00  0.00    -0.201 A  
HETATM   13  C   UNL     1      -9.562   9.526  70.565  1.00  0.00    -0.312 A  
HETATM   14  C   UNL     1      -8.987   9.937  69.355  1.00  0.00    -0.204 A  
BRANCH  12  15
HETATM   15  N   UNL     1     -11.156   8.189  71.831  1.00  0.00    -0.266 NA 
BRANCH  15  16
HETATM   16  C   UNL     1     -10.442   7.613  72.989  1.00  0.00    -0.356 C  
HETATM   17 CL   UNL     1     -10.351   5.109  71.842  1.00  0.00    -0.268 Cl 
HETATM   18  C   UNL     1     -10.784   6.142  73.233  1.00  0.00    -0.260 C  
ENDBRANCH  15  16
BRANCH  15  19
HETATM   19  C   UNL     1     -12.622   7.987  71.807  1.00  0.00    -0.325 C  
HETATM   20  C   UNL     1     -13.418   9.076  72.539  1.00  0.00    -0.429 C  
HETATM   21 CL   UNL     1     -13.208  10.689  71.805  1.00  0.00    -0.543 Cl 
ENDBRANCH  15  19
ENDBRANCH  12  15
ENDBRANCH   8   9
ENDBRANCH   2   8
TORSDOF 5
ENDMDL
MODEL      107
REMARK 921   NORMALIZED FREE ENERGY PREDICTED BY IDOCK:   -4.36 KCAL/MOL
REMARK 922        TOTAL FREE ENERGY PREDICTED BY IDOCK:   -6.23 KCAL/MOL
REMARK 923 INTER-LIGAND FREE ENERGY PREDICTED BY IDOCK:   -5.65 KCAL/MOL
REMARK 924 INTRA-LIGAND FREE ENERGY PREDICTED BY IDOCK:   -0.58 KCAL/MOL
REMARK 927      BINDING AFFINITY PREDICTED BY RF-SCORE:    0.00 PKD
ROOT
HETATM    1  N   UNL     1      -8.486   8.939  71.661  1.00  0.00    -0.336 NA 
HETATM    2  CA  UNL     1      -9.745   9.156  70.871  1.00  0.00    -0.284 C  
HETATM    3  H1  UNL     1      -8.605   9.049  72.668  1.00  0.00     0.000 HD 
HETATM    4  H2  UNL     1      -7.740   9.547  71.320  1.00  0.00     0.000 HD 
HETATM    5  C   UNL     1     -10.788   8.142  71.368  1.00  0.00    -0.234 C  
HETATM    6  O   UNL     1     -10.340   7.471  72.463  1.00  0.00    -0.207 OA 
HETATM    7  OXT UNL     1     -11.884   7.954  70.868  1.00  0.00    -0.287 OA 
ENDROOT
BRANCH   2   8
HETATM    8  C   UNL     1      -9.564   8.989  69.349  1.00  0.00    -0.160 C  
BRANCH   8   9
HETATM    9  C   UNL     1      -9.979  10.207  68.557  1.00  0.00    -0.177 A  
HETATM   10  C   UNL     1     -11.298  10.666  68.585  1.00  0.00    -0.345 A  
HETATM   11  C   UNL     1     -11.707  11.729  67.766  1.00  0.00    -0.337 A  
HETATM   12  C   UNL     1     -10.822  12.371  66.890  1.00  0.00    -0.251 A  
HETATM   13  C   UNL     1      -9.480  11.952  66.950  1.00  0.00    -0.205 A  
HETATM   14  C   UNL     1      -9.063  10.883  67.754  1.00  0.00    -0.149 A  
BRANCH  12  15
HETATM   15  N   UNL     1     -11.226  13.351  65.988  1.00  0.00    -0.294 NA 
BRANCH  15  16
HETATM   16  C   UNL     1     -10.653  13.458  64.631  1.00  0.00    -0.415 C  
HETATM   17 CL   UNL     1     -12.762  12.087  63.503  1.00  0.00    -0.648 Cl 
HETATM   18  C   UNL     1     -11.001  12.263  63.739  1.00  0.00    -0.435 C  
ENDBRANCH  15  16
BRANCH  15  19
HETATM   19  C   UNL     1     -11.867  14.576  66.521  1.00  0.00    -0.352 C  
HETATM   20  C   UNL     1     -11.224  15.111  67.808  1.00  0.00    -0.323 C  
HETATM   21 CL   UNL     1      -9.525  15.600  67.573  1.00  0.00    -0.214 Cl 
ENDBRANCH  15  19
ENDBRANCH  12  15
ENDBRANCH   8   9
ENDBRANCH   2   8
TORSDOF 5
ENDMDL
MODEL      108
REMARK 921   NORMALIZED FREE ENERGY PREDICTED BY IDOCK:   -4.35 KCAL/MOL
REMARK 922        TOTAL FREE ENERGY PREDICTED BY IDOCK:   -6.21 KCAL/MOL
REMARK 923 INTER-LIGAND FREE ENERGY PREDICTED BY IDOCK:   -5.72 KCAL/MOL
REMARK 924 INTRA-LIGAND FREE ENERGY PREDICTED BY IDOCK:   -0.49 KCAL/MOL
REMARK 927      BINDING AFFINITY PREDICTED BY RF-SCORE:    0.00 PKD
ROOT
HETATM    1  N   UNL     1     -10.164  13.479  64.133  1.00  0.00    -0.758 NA 
HETATM    2  CA  UNL     1     -11.110  12.480  64.735  1.00  0.00    -0.301 C  
HETATM    3  H1  UNL     1     -10.024  13.363  63.129  1.00  0.00     0.000 HD 
HETATM    4  H2  UNL     1      -9.269  13.466  64.623  1.00  0.00     0.000 HD 
HETATM    5  C   UNL     1     -12.462  12.626  64.018  1.00  0.00    -0.399 C  
HETATM    6  O   UNL     1     -12.370  13.478  62.961  1.00  0.00    -0.661 OA 
HETATM    7  OXT UNL     1     -13.494  12.056  64.332  1.00  0.00    -0.591 OA 
ENDROOT
BRANCH   2   8
HETATM    8  C   UNL     1     -11.321  12.655  66.252  1.00  0.00    -0.376 C  
BRANCH   8   9
HETATM    9  C   UNL     1     -10.671  11.572  67.080  1.00  0.00    -0.300 A  
HETATM   10  C   UNL     1     -10.981  10.225  66.871  1.00  0.00    -0.140 A  
HETATM   11  C   UNL     1     -10.462   9.229  67.710  1.00  0.00    -0.313 A  
HETATM   12  C   UNL     1      -9.617   9.535  68.786  1.00  0.00    -0.157 A  
HETATM   13  C   UNL     1      -9.246  10.886  68.916  1.00  0.00    -0.168 A  
HETATM   14  C   UNL     1      -9.770  11.890  68.093  1.00  0.00    -0.194 A  
BRANCH  12  15
HETATM   15  N   UNL     1      -9.178   8.580  69.699  1.00  0.00    -0.156 NA 
BRANCH  15  16
HETATM   16  C   UNL     1      -8.988   7.164  69.326  1.00  0.00    -0.138 C  
HETATM   17 CL   UNL     1      -6.463   7.087  70.431  1.00  0.00    -0.042 Cl 
HETATM   18  C   UNL     1      -7.528   6.814  69.024  1.00  0.00    -0.096 C  
ENDBRANCH  15  16
BRANCH  15  19
HETATM   19  C   UNL     1      -9.355   8.854  71.143  1.00  0.00    -0.257 C  
HETATM   20  C   UNL     1     -10.805   9.149  71.553  1.00  0.00    -0.366 C  
HETATM   21 CL   UNL     1     -11.894   7.768  71.256  1.00  0.00    -0.307 Cl 
ENDBRANCH  15  19
ENDBRANCH  12  15
ENDBRANCH   8   9
ENDBRANCH   2   8
TORSDOF 5
ENDMDL
MODEL      109
REMARK 921   NORMALIZED FREE ENERGY PREDICTED BY IDOCK:   -4.34 KCAL/MOL
REMARK 922        TOTAL FREE ENERGY PREDICTED BY IDOCK:   -6.20 KCAL/MOL
REMARK 923 INTER-LIGAND FREE ENERGY PREDICTED BY IDOCK:   -5.57 KCAL/MOL
REMARK 924 INTRA-LIGAND FREE ENERGY PREDICTED BY IDOCK:   -0.63 KCAL/MOL
REMARK 927      BINDING AFFINITY PREDICTED BY RF-SCORE:    0.00 PKD
ROOT
HETATM    1  N   UNL     1     -11.228   9.519  69.477  1.00  0.00    -0.422 NA 
HETATM    2  CA  UNL     1     -11.543  10.878  70.034  1.00  0.00    -0.341 C  
HETATM    3  H1  UNL     1     -10.887   8.855  70.174  1.00  0.00     0.000 HD 
HETATM    4  H2  UNL     1     -10.570   9.594  68.701  1.00  0.00     0.000 HD 
HETATM    5  C   UNL     1     -12.611  10.699  71.125  1.00  0.00    -0.423 C  
HETATM    6  O   UNL     1     -12.837   9.383  71.383  1.00  0.00    -0.324 OA 
HETATM    7  OXT UNL     1     -13.187  11.604  71.705  1.00  0.00    -0.453 OA 
ENDROOT
BRANCH   2   8
HETATM    8  C   UNL     1     -12.058  11.880  68.983  1.00  0.00    -0.245 C  
BRANCH   8   9
HETATM    9  C   UNL     1     -11.095  13.010  68.705  1.00  0.00    -0.311 A  
HETATM   10  C   UNL     1     -11.235  14.245  69.345  1.00  0.00    -0.313 A  
HETATM   11  C   UNL     1     -10.409  15.327  69.007  1.00  0.00    -0.242 A  
HETATM   12  C   UNL     1      -9.418  15.221  68.022  1.00  0.00    -0.198 A  
HETATM   13  C   UNL     1      -9.236  13.944  67.462  1.00  0.00    -0.205 A  
HETATM   14  C   UNL     1     -10.063  12.860  67.781  1.00  0.00    -0.229 A  
BRANCH  12  15
HETATM   15  N   UNL     1      -8.660  16.307  67.590  1.00  0.00    -0.172 NA 
BRANCH  15  16
HETATM   16  C   UNL     1      -7.916  17.171  68.528  1.00  0.00    -0.259 C  
HETATM   17 CL   UNL     1      -5.539  15.866  68.032  1.00  0.00    -0.120 Cl 
HETATM   18  C   UNL     1      -6.749  16.451  69.209  1.00  0.00    -0.215 C  
ENDBRANCH  15  16
BRANCH  15  19
HETATM   19  C   UNL     1      -8.970  16.899  66.268  1.00  0.00    -0.270 C  
HETATM   20  C   UNL     1     -10.409  17.414  66.132  1.00  0.00    -0.327 C  
HETATM   21 CL   UNL     1     -10.774  18.736  67.274  1.00  0.00    -0.503 Cl 
ENDBRANCH  15  19
ENDBRANCH  12  15
ENDBRANCH   8   9
ENDBRANCH   2   8
TORSDOF 5
ENDMDL
MODEL      110
REMARK 921   NORMALIZED FREE ENERGY PREDICTED BY IDOCK:   -4.34 KCAL/MOL
REMARK 922        TOTAL FREE ENERGY PREDICTED BY IDOCK:   -6.19 KCAL/MOL
REMARK 923 INTER-LIGAND FREE ENERGY PREDICTED BY IDOCK:   -5.39 KCAL/MOL
REMARK 924 INTRA-LIGAND FREE ENERGY PREDICTED BY IDOCK:   -0.80 KCAL/MOL
REMARK 927      BINDING AFFINITY PREDICTED BY RF-SCORE:    0.00 PKD
ROOT
HETATM    1  N   UNL     1      -9.279   9.893  65.504  1.00  0.00    -0.186 NA 
HETATM    2  CA  UNL     1      -9.751  11.021  66.377  1.00  0.00    -0.201 C  
HETATM    3  H1  UNL     1      -8.928   9.088  66.023  1.00  0.00     0.000 HD 
HETATM    4  H2  UNL     1      -8.580  10.224  64.839  1.00  0.00     0.000 HD 
HETATM    5  C   UNL     1     -10.869  10.476  67.280  1.00  0.00    -0.279 C  
HETATM    6  O   UNL     1     -10.994   9.128  67.151  1.00  0.00    -0.127 OA 
HETATM    7  OXT UNL     1     -11.561  11.145  68.029  1.00  0.00    -0.431 OA 
ENDROOT
BRANCH   2   8
HETATM    8  C   UNL     1     -10.281  12.237  65.594  1.00  0.00    -0.287 C  
BRANCH   8   9
HETATM    9  C   UNL     1      -9.821  13.563  66.155  1.00  0.00    -0.292 A  
HETATM   10  C   UNL     1      -8.926  13.616  67.227  1.00  0.00    -0.226 A  
HETATM   11  C   UNL     1      -8.584  14.840  67.818  1.00  0.00    -0.169 A  
HETATM   12  C   UNL     1      -9.119  16.054  67.367  1.00  0.00    -0.199 A  
HETATM   13  C   UNL     1      -9.943  15.982  66.229  1.00  0.00    -0.329 A  
HETATM   14  C   UNL     1     -10.302  14.763  65.639  1.00  0.00    -0.369 A  
BRANCH  12  15
HETATM   15  N   UNL     1      -8.884  17.270  68.005  1.00  0.00    -0.232 NA 
BRANCH  15  16
HETATM   16  C   UNL     1      -7.539  17.670  68.465  1.00  0.00    -0.272 C  
HETATM   17 CL   UNL     1      -7.139  19.291  66.273  1.00  0.00    -0.242 Cl 
HETATM   18  C   UNL     1      -6.572  17.956  67.314  1.00  0.00    -0.168 C  
ENDBRANCH  15  16
BRANCH  15  19
HETATM   19  C   UNL     1     -10.024  17.955  68.656  1.00  0.00    -0.387 C  
HETATM   20  C   UNL     1     -10.238  19.401  68.188  1.00  0.00    -0.431 C  
HETATM   21 CL   UNL     1     -10.626  19.508  66.450  1.00  0.00    -0.562 Cl 
ENDBRANCH  15  19
ENDBRANCH  12  15
ENDBRANCH   8   9
ENDBRANCH   2   8
TORSDOF 5
ENDMDL
MODEL      111
REMARK 921   NORMALIZED FREE ENERGY PREDICTED BY IDOCK:   -4.33 KCAL/MOL
REMARK 922        TOTAL FREE ENERGY PREDICTED BY IDOCK:   -6.19 KCAL/MOL
REMARK 923 INTER-LIGAND FREE ENERGY PREDICTED BY IDOCK:   -5.85 KCAL/MOL
REMARK 924 INTRA-LIGAND FREE ENERGY PREDICTED BY IDOCK:   -0.34 KCAL/MOL
REMARK 927      BINDING AFFINITY PREDICTED BY RF-SCORE:    0.00 PKD
ROOT
HETATM    1  N   UNL     1     -11.685  11.827  68.727  1.00  0.00    -0.307 NA 
HETATM    2  CA  UNL     1     -11.360  11.581  67.281  1.00  0.00    -0.290 C  
HETATM    3  H1  UNL     1     -11.273  11.145  69.365  1.00  0.00     0.000 HD 
HETATM    4  H2  UNL     1     -12.694  11.882  68.863  1.00  0.00     0.000 HD 
HETATM    5  C   UNL     1      -9.830  11.613  67.135  1.00  0.00    -0.188 C  
HETATM    6  O   UNL     1      -9.220  11.686  68.348  1.00  0.00    -0.182 OA 
HETATM    7  OXT UNL     1      -9.220  11.570  66.079  1.00  0.00    -0.214 OA 
ENDROOT
BRANCH   2   8
HETATM    8  C   UNL     1     -11.981  12.611  66.317  1.00  0.00    -0.439 C  
BRANCH   8   9
HETATM    9  C   UNL     1     -11.499  14.023  66.552  1.00  0.00    -0.368 A  
HETATM   10  C   UNL     1     -10.772  14.706  65.573  1.00  0.00    -0.360 A  
HETATM   11  C   UNL     1     -10.232  15.974  65.832  1.00  0.00    -0.386 A  
HETATM   12  C   UNL     1     -10.394  16.607  67.071  1.00  0.00    -0.301 A  
HETATM   13  C   UNL     1     -11.207  15.941  68.005  1.00  0.00    -0.319 A  
HETATM   14  C   UNL     1     -11.740  14.669  67.763  1.00  0.00    -0.386 A  
BRANCH  12  15
HETATM   15  N   UNL     1      -9.776  17.814  67.391  1.00  0.00    -0.277 NA 
BRANCH  15  16
HETATM   16  C   UNL     1      -8.797  17.930  68.490  1.00  0.00    -0.289 C  
HETATM   17 CL   UNL     1      -6.727  17.040  66.902  1.00  0.00    -0.231 Cl 
HETATM   18  C   UNL     1      -7.676  16.891  68.407  1.00  0.00    -0.219 C  
ENDBRANCH  15  16
BRANCH  15  19
HETATM   19  C   UNL     1     -10.431  19.073  66.968  1.00  0.00    -0.434 C  
HETATM   20  C   UNL     1      -9.507  20.298  66.987  1.00  0.00    -0.412 C  
HETATM   21 CL   UNL     1      -8.138  20.142  65.854  1.00  0.00    -0.253 Cl 
ENDBRANCH  15  19
ENDBRANCH  12  15
ENDBRANCH   8   9
ENDBRANCH   2   8
TORSDOF 5
ENDMDL
MODEL      112
REMARK 921   NORMALIZED FREE ENERGY PREDICTED BY IDOCK:   -4.33 KCAL/MOL
REMARK 922        TOTAL FREE ENERGY PREDICTED BY IDOCK:   -6.19 KCAL/MOL
REMARK 923 INTER-LIGAND FREE ENERGY PREDICTED BY IDOCK:   -6.04 KCAL/MOL
REMARK 924 INTRA-LIGAND FREE ENERGY PREDICTED BY IDOCK:   -0.14 KCAL/MOL
REMARK 927      BINDING AFFINITY PREDICTED BY RF-SCORE:    0.00 PKD
ROOT
HETATM    1  N   UNL     1     -12.192  16.374  72.156  1.00  0.00    -0.578 NA 
HETATM    2  CA  UNL     1     -13.123  15.356  71.562  1.00  0.00    -0.467 C  
HETATM    3  H1  UNL     1     -12.556  16.829  72.993  1.00  0.00     0.000 HD 
HETATM    4  H2  UNL     1     -11.928  17.069  71.456  1.00  0.00     0.000 HD 
HETATM    5  C   UNL     1     -13.396  14.291  72.637  1.00  0.00    -0.525 C  
HETATM    6  O   UNL     1     -12.865  14.652  73.835  1.00  0.00    -0.455 OA 
HETATM    7  OXT UNL     1     -14.013  13.253  72.462  1.00  0.00    -0.701 OA 
ENDROOT
BRANCH   2   8
HETATM    8  C   UNL     1     -12.573  14.668  70.298  1.00  0.00    -0.370 C  
BRANCH   8   9
HETATM    9  C   UNL     1     -11.372  15.368  69.706  1.00  0.00    -0.317 A  
HETATM   10  C   UNL     1     -10.083  14.861  69.891  1.00  0.00     0.034 A  
HETATM   11  C   UNL     1      -8.960  15.567  69.435  1.00  0.00    -0.275 A  
HETATM   12  C   UNL     1      -9.078  16.800  68.782  1.00  0.00    -0.259 A  
HETATM   13  C   UNL     1     -10.389  17.242  68.525  1.00  0.00    -0.371 A  
HETATM   14  C   UNL     1     -11.516  16.552  68.987  1.00  0.00    -0.109 A  
BRANCH  12  15
HETATM   15  N   UNL     1      -7.978  17.573  68.419  1.00  0.00    -0.252 NA 
BRANCH  15  16
HETATM   16  C   UNL     1      -7.879  18.234  67.102  1.00  0.00    -0.219 C  
HETATM   17 CL   UNL     1      -8.862  16.021  65.784  1.00  0.00    -0.183 Cl 
HETATM   18  C   UNL     1      -7.584  17.256  65.962  1.00  0.00    -0.191 C  
ENDBRANCH  15  16
BRANCH  15  19
HETATM   19  C   UNL     1      -6.699  17.356  69.134  1.00  0.00    -0.243 C  
HETATM   20  C   UNL     1      -5.809  18.603  69.221  1.00  0.00    -0.231 C  
HETATM   21 CL   UNL     1      -6.575  19.930  70.134  1.00  0.00    -0.331 Cl 
ENDBRANCH  15  19
ENDBRANCH  12  15
ENDBRANCH   8   9
ENDBRANCH   2   8
TORSDOF 5
ENDMDL
MODEL      113
REMARK 921   NORMALIZED FREE ENERGY PREDICTED BY IDOCK:   -4.27 KCAL/MOL
REMARK 922        TOTAL FREE ENERGY PREDICTED BY IDOCK:   -6.11 KCAL/MOL
REMARK 923 INTER-LIGAND FREE ENERGY PREDICTED BY IDOCK:   -5.34 KCAL/MOL
REMARK 924 INTRA-LIGAND FREE ENERGY PREDICTED BY IDOCK:   -0.78 KCAL/MOL
REMARK 927      BINDING AFFINITY PREDICTED BY RF-SCORE:    0.00 PKD
ROOT
HETATM    1  N   UNL     1     -10.996  16.005  67.817  1.00  0.00    -0.326 NA 
HETATM    2  CA  UNL     1     -10.816  14.931  66.782  1.00  0.00    -0.320 C  
HETATM    3  H1  UNL     1     -10.242  16.692  67.835  1.00  0.00     0.000 HD 
HETATM    4  H2  UNL     1     -11.128  15.593  68.741  1.00  0.00     0.000 HD 
HETATM    5  C   UNL     1     -10.725  15.616  65.409  1.00  0.00    -0.408 C  
HETATM    6  O   UNL     1     -10.669  16.969  65.536  1.00  0.00    -0.470 OA 
HETATM    7  OXT UNL     1     -10.697  15.041  64.333  1.00  0.00    -0.171 OA 
ENDROOT
BRANCH   2   8
HETATM    8  C   UNL     1     -11.953  13.892  66.755  1.00  0.00    -0.472 C  
BRANCH   8   9
HETATM    9  C   UNL     1     -11.465  12.463  66.758  1.00  0.00    -0.423 A  
HETATM   10  C   UNL     1     -11.568  11.671  67.905  1.00  0.00    -0.369 A  
HETATM   11  C   UNL     1     -11.017  10.383  67.942  1.00  0.00    -0.354 A  
HETATM   12  C   UNL     1     -10.343   9.835  66.842  1.00  0.00    -0.234 A  
HETATM   13  C   UNL     1     -10.335  10.614  65.671  1.00  0.00    -0.285 A  
HETATM   14  C   UNL     1     -10.870  11.908  65.627  1.00  0.00    -0.333 A  
BRANCH  12  15
HETATM   15  N   UNL     1      -9.691   8.605  66.889  1.00  0.00    -0.193 NA 
BRANCH  15  16
HETATM   16  C   UNL     1      -8.324   8.418  66.363  1.00  0.00    -0.116 C  
HETATM   17 CL   UNL     1      -7.191   8.751  68.854  1.00  0.00    -0.073 Cl 
HETATM   18  C   UNL     1      -7.271   9.220  67.133  1.00  0.00    -0.087 C  
ENDBRANCH  15  16
BRANCH  15  19
HETATM   19  C   UNL     1     -10.512   7.379  67.017  1.00  0.00    -0.333 C  
HETATM   20  C   UNL     1     -10.118   6.481  68.198  1.00  0.00    -0.155 C  
HETATM   21 CL   UNL     1     -10.331   7.289  69.774  1.00  0.00    -0.217 Cl 
ENDBRANCH  15  19
ENDBRANCH  12  15
ENDBRANCH   8   9
ENDBRANCH   2   8
TORSDOF 5
ENDMDL
MODEL      114
REMARK 921   NORMALIZED FREE ENERGY PREDICTED BY IDOCK:   -4.25 KCAL/MOL
REMARK 922        TOTAL FREE ENERGY PREDICTED BY IDOCK:   -6.09 KCAL/MOL
REMARK 923 INTER-LIGAND FREE ENERGY PREDICTED BY IDOCK:   -5.62 KCAL/MOL
REMARK 924 INTRA-LIGAND FREE ENERGY PREDICTED BY IDOCK:   -0.47 KCAL/MOL
REMARK 927      BINDING AFFINITY PREDICTED BY RF-SCORE:    0.00 PKD
ROOT
HETATM    1  N   UNL     1      -8.192  10.562  64.577  1.00  0.00    -0.302 NA 
HETATM    2  CA  UNL     1      -9.635  10.940  64.746  1.00  0.00    -0.252 C  
HETATM    3  H1  UNL     1      -8.019   9.926  63.797  1.00  0.00     0.000 HD 
HETATM    4  H2  UNL     1      -7.819  10.175  65.444  1.00  0.00     0.000 HD 
HETATM    5  C   UNL     1     -10.099  11.606  63.440  1.00  0.00    -0.440 C  
HETATM    6  O   UNL     1      -9.146  11.515  62.474  1.00  0.00    -0.320 OA 
HETATM    7  OXT UNL     1     -11.180  12.144  63.267  1.00  0.00    -0.402 OA 
ENDROOT
BRANCH   2   8
HETATM    8  C   UNL     1      -9.896  11.899  65.923  1.00  0.00    -0.261 C  
BRANCH   8   9
HETATM    9  C   UNL     1     -10.364  11.200  67.177  1.00  0.00    -0.249 A  
HETATM   10  C   UNL     1     -10.727  11.930  68.313  1.00  0.00    -0.253 A  
HETATM   11  C   UNL     1     -11.056  11.280  69.511  1.00  0.00    -0.299 A  
HETATM   12  C   UNL     1     -11.036   9.884  69.624  1.00  0.00    -0.252 A  
HETATM   13  C   UNL     1     -10.760   9.171  68.443  1.00  0.00    -0.163 A  
HETATM   14  C   UNL     1     -10.416   9.810  67.245  1.00  0.00    -0.324 A  
BRANCH  12  15
HETATM   15  N   UNL     1     -11.250   9.218  70.828  1.00  0.00    -0.268 NA 
BRANCH  15  16
HETATM   16  C   UNL     1     -10.170   8.497  71.532  1.00  0.00    -0.250 C  
HETATM   17 CL   UNL     1     -10.906   6.078  70.433  1.00  0.00    -0.360 Cl 
HETATM   18  C   UNL     1     -10.543   7.055  71.884  1.00  0.00    -0.214 C  
ENDBRANCH  15  16
BRANCH  15  19
HETATM   19  C   UNL     1     -12.633   8.816  71.173  1.00  0.00    -0.168 C  
HETATM   20  C   UNL     1     -13.242   9.600  72.343  1.00  0.00    -0.327 C  
HETATM   21 CL   UNL     1     -13.392  11.344  71.994  1.00  0.00    -0.518 Cl 
ENDBRANCH  15  19
ENDBRANCH  12  15
ENDBRANCH   8   9
ENDBRANCH   2   8
TORSDOF 5
ENDMDL
MODEL      115
REMARK 921   NORMALIZED FREE ENERGY PREDICTED BY IDOCK:   -4.24 KCAL/MOL
REMARK 922        TOTAL FREE ENERGY PREDICTED BY IDOCK:   -6.07 KCAL/MOL
REMARK 923 INTER-LIGAND FREE ENERGY PREDICTED BY IDOCK:   -5.61 KCAL/MOL
REMARK 924 INTRA-LIGAND FREE ENERGY PREDICTED BY IDOCK:   -0.47 KCAL/MOL
REMARK 927      BINDING AFFINITY PREDICTED BY RF-SCORE:    0.00 PKD
ROOT
HETATM    1  N   UNL     1      -9.666  13.830  65.156  1.00  0.00    -0.574 NA 
HETATM    2  CA  UNL     1     -11.005  13.704  64.487  1.00  0.00    -0.396 C  
HETATM    3  H1  UNL     1      -9.440  14.780  65.454  1.00  0.00     0.000 HD 
HETATM    4  H2  UNL     1      -8.929  13.458  64.555  1.00  0.00     0.000 HD 
HETATM    5  C   UNL     1     -12.071  14.187  65.484  1.00  0.00    -0.414 C  
HETATM    6  O   UNL     1     -11.501  14.730  66.592  1.00  0.00    -0.355 OA 
HETATM    7  OXT UNL     1     -13.278  14.111  65.319  1.00  0.00    -0.760 OA 
ENDROOT
BRANCH   2   8
HETATM    8  C   UNL     1     -11.346  12.270  64.037  1.00  0.00    -0.469 C  
BRANCH   8   9
HETATM    9  C   UNL     1     -10.726  11.202  64.907  1.00  0.00    -0.318 A  
HETATM   10  C   UNL     1     -11.125  11.037  66.236  1.00  0.00    -0.106 A  
HETATM   11  C   UNL     1     -10.474  10.120  67.074  1.00  0.00    -0.302 A  
HETATM   12  C   UNL     1      -9.404   9.337  66.622  1.00  0.00    -0.170 A  
HETATM   13  C   UNL     1      -9.084   9.454  65.258  1.00  0.00    -0.287 A  
HETATM   14  C   UNL     1      -9.718  10.376  64.415  1.00  0.00    -0.396 A  
BRANCH  12  15
HETATM   15  N   UNL     1      -8.670   8.502  67.461  1.00  0.00    -0.135 NA 
BRANCH  15  16
HETATM   16  C   UNL     1      -8.445   7.075  67.152  1.00  0.00    -0.121 C  
HETATM   17 CL   UNL     1     -11.137   6.498  67.283  1.00  0.00    -0.463 Cl 
HETATM   18  C   UNL     1      -9.468   6.150  67.814  1.00  0.00    -0.115 C  
ENDBRANCH  15  16
BRANCH  15  19
HETATM   19  C   UNL     1      -8.517   8.890  68.882  1.00  0.00    -0.131 C  
HETATM   20  C   UNL     1      -7.127   8.603  69.466  1.00  0.00    -0.055 C  
HETATM   21 CL   UNL     1      -5.836   9.520  68.644  1.00  0.00    -0.040 Cl 
ENDBRANCH  15  19
ENDBRANCH  12  15
ENDBRANCH   8   9
ENDBRANCH   2   8
TORSDOF 5
ENDMDL
MODEL      116
REMARK 921   NORMALIZED FREE ENERGY PREDICTED BY IDOCK:   -4.24 KCAL/MOL
REMARK 922        TOTAL FREE ENERGY PREDICTED BY IDOCK:   -6.07 KCAL/MOL
REMARK 923 INTER-LIGAND FREE ENERGY PREDICTED BY IDOCK:   -5.32 KCAL/MOL
REMARK 924 INTRA-LIGAND FREE ENERGY PREDICTED BY IDOCK:   -0.74 KCAL/MOL
REMARK 927      BINDING AFFINITY PREDICTED BY RF-SCORE:    0.00 PKD
ROOT
HETATM    1  N   UNL     1     -11.435   4.496  65.094  1.00  0.00    -1.109 NA 
HETATM    2  CA  UNL     1     -10.132   4.882  65.732  1.00  0.00    -0.170 C  
HETATM    3  H1  UNL     1     -11.443   4.593  64.078  1.00  0.00     0.000 HD 
HETATM    4  H2  UNL     1     -12.207   5.018  65.510  1.00  0.00     0.000 HD 
HETATM    5  C   UNL     1      -9.035   3.988  65.132  1.00  0.00    -0.133 C  
HETATM    6  O   UNL     1      -9.516   3.239  64.104  1.00  0.00    -0.125 OA 
HETATM    7  OXT UNL     1      -7.875   3.946  65.506  1.00  0.00    -0.091 OA 
ENDROOT
BRANCH   2   8
HETATM    8  C   UNL     1     -10.120   4.735  67.266  1.00  0.00    -0.192 C  
BRANCH   8   9
HETATM    9  C   UNL     1     -10.273   6.048  67.998  1.00  0.00    -0.218 A  
HETATM   10  C   UNL     1     -10.574   6.077  69.363  1.00  0.00    -0.365 A  
HETATM   11  C   UNL     1     -10.823   7.292  70.018  1.00  0.00    -0.271 A  
HETATM   12  C   UNL     1     -10.785   8.518  69.341  1.00  0.00    -0.156 A  
HETATM   13  C   UNL     1     -10.389   8.469  67.992  1.00  0.00    -0.272 A  
HETATM   14  C   UNL     1     -10.151   7.261  67.324  1.00  0.00    -0.291 A  
BRANCH  12  15
HETATM   15  N   UNL     1     -11.137   9.725  69.940  1.00  0.00    -0.249 NA 
BRANCH  15  16
HETATM   16  C   UNL     1     -11.351   9.848  71.396  1.00  0.00    -0.274 C  
HETATM   17 CL   UNL     1     -13.927   8.883  71.221  1.00  0.00    -0.304 Cl 
HETATM   18  C   UNL     1     -12.804  10.161  71.764  1.00  0.00    -0.452 C  
ENDBRANCH  15  16
BRANCH  15  19
HETATM   19  C   UNL     1     -11.765  10.770  69.100  1.00  0.00    -0.296 C  
HETATM   20  C   UNL     1     -11.024  12.114  69.111  1.00  0.00    -0.161 C  
HETATM   21 CL   UNL     1      -9.371  11.990  68.451  1.00  0.00    -0.197 Cl 
ENDBRANCH  15  19
ENDBRANCH  12  15
ENDBRANCH   8   9
ENDBRANCH   2   8
TORSDOF 5
ENDMDL
MODEL      117
REMARK 921   NORMALIZED FREE ENERGY PREDICTED BY IDOCK:   -4.24 KCAL/MOL
REMARK 922        TOTAL FREE ENERGY PREDICTED BY IDOCK:   -6.06 KCAL/MOL
REMARK 923 INTER-LIGAND FREE ENERGY PREDICTED BY IDOCK:   -5.63 KCAL/MOL
REMARK 924 INTRA-LIGAND FREE ENERGY PREDICTED BY IDOCK:   -0.43 KCAL/MOL
REMARK 927      BINDING AFFINITY PREDICTED BY RF-SCORE:    0.00 PKD
ROOT
HETATM    1  N   UNL     1      -9.498  19.101  68.064  1.00  0.00    -0.316 NA 
HETATM    2  CA  UNL     1      -9.906  17.891  67.274  1.00  0.00    -0.309 C  
HETATM    3  H1  UNL     1      -8.773  19.662  67.616  1.00  0.00     0.000 HD 
HETATM    4  H2  UNL     1      -9.214  18.835  69.007  1.00  0.00     0.000 HD 
HETATM    5  C   UNL     1     -10.416  18.376  65.907  1.00  0.00    -0.321 C  
HETATM    6  O   UNL     1     -10.202  19.709  65.746  1.00  0.00    -0.428 OA 
HETATM    7  OXT UNL     1     -10.938  17.673  65.058  1.00  0.00    -0.780 OA 
ENDROOT
BRANCH   2   8
HETATM    8  C   UNL     1     -11.002  17.044  67.950  1.00  0.00    -0.226 C  
BRANCH   8   9
HETATM    9  C   UNL     1     -10.733  15.558  67.895  1.00  0.00    -0.294 A  
HETATM   10  C   UNL     1     -11.655  14.683  67.313  1.00  0.00    -0.404 A  
HETATM   11  C   UNL     1     -11.457  13.296  67.360  1.00  0.00    -0.371 A  
HETATM   12  C   UNL     1     -10.340  12.728  67.987  1.00  0.00    -0.229 A  
HETATM   13  C   UNL     1      -9.383  13.633  68.482  1.00  0.00    -0.128 A  
HETATM   14  C   UNL     1      -9.576  15.019  68.453  1.00  0.00    -0.212 A  
BRANCH  12  15
HETATM   15  N   UNL     1     -10.176  11.354  68.145  1.00  0.00    -0.181 NA 
BRANCH  15  16
HETATM   16  C   UNL     1      -9.027  10.627  67.569  1.00  0.00    -0.135 C  
HETATM   17 CL   UNL     1      -8.125   9.844  70.053  1.00  0.00    -0.197 Cl 
HETATM   18  C   UNL     1      -7.799  10.629  68.482  1.00  0.00    -0.115 C  
ENDBRANCH  15  16
BRANCH  15  19
HETATM   19  C   UNL     1     -11.369  10.536  68.465  1.00  0.00    -0.257 C  
HETATM   20  C   UNL     1     -11.767  10.561  69.947  1.00  0.00    -0.294 C  
HETATM   21 CL   UNL     1     -12.221  12.193  70.507  1.00  0.00    -0.433 Cl 
ENDBRANCH  15  19
ENDBRANCH  12  15
ENDBRANCH   8   9
ENDBRANCH   2   8
TORSDOF 5
ENDMDL
MODEL      118
REMARK 921   NORMALIZED FREE ENERGY PREDICTED BY IDOCK:   -4.23 KCAL/MOL
REMARK 922        TOTAL FREE ENERGY PREDICTED BY IDOCK:   -6.05 KCAL/MOL
REMARK 923 INTER-LIGAND FREE ENERGY PREDICTED BY IDOCK:   -5.71 KCAL/MOL
REMARK 924 INTRA-LIGAND FREE ENERGY PREDICTED BY IDOCK:   -0.34 KCAL/MOL
REMARK 927      BINDING AFFINITY PREDICTED BY RF-SCORE:    0.00 PKD
ROOT
HETATM    1  N   UNL     1     -11.539  11.978  68.885  1.00  0.00    -0.295 NA 
HETATM    2  CA  UNL     1     -11.647  11.606  67.434  1.00  0.00    -0.254 C  
HETATM    3  H1  UNL     1     -11.213  11.219  69.484  1.00  0.00     0.000 HD 
HETATM    4  H2  UNL     1     -12.426  12.349  69.226  1.00  0.00     0.000 HD 
HETATM    5  C   UNL     1     -10.255  11.154  66.963  1.00  0.00    -0.215 C  
HETATM    6  O   UNL     1      -9.387  11.064  68.005  1.00  0.00    -0.154 OA 
HETATM    7  OXT UNL     1      -9.949  10.894  65.811  1.00  0.00    -0.225 OA 
ENDROOT
BRANCH   2   8
HETATM    8  C   UNL     1     -12.139  12.752  66.529  1.00  0.00    -0.338 C  
BRANCH   8   9
HETATM    9  C   UNL     1     -11.264  13.982  66.586  1.00  0.00    -0.330 A  
HETATM   10  C   UNL     1     -11.067  14.668  67.788  1.00  0.00    -0.306 A  
HETATM   11  C   UNL     1     -10.346  15.870  67.820  1.00  0.00    -0.278 A  
HETATM   12  C   UNL     1      -9.795  16.433  66.661  1.00  0.00    -0.261 A  
HETATM   13  C   UNL     1      -9.927  15.676  65.482  1.00  0.00    -0.364 A  
HETATM   14  C   UNL     1     -10.657  14.482  65.436  1.00  0.00    -0.385 A  
BRANCH  12  15
HETATM   15  N   UNL     1      -9.171  17.678  66.646  1.00  0.00    -0.263 NA 
BRANCH  15  16
HETATM   16  C   UNL     1      -9.910  18.926  66.371  1.00  0.00    -0.375 C  
HETATM   17 CL   UNL     1     -10.009  19.599  69.042  1.00  0.00    -0.520 Cl 
HETATM   18  C   UNL     1     -10.866  19.318  67.500  1.00  0.00    -0.415 C  
ENDBRANCH  15  16
BRANCH  15  19
HETATM   19  C   UNL     1      -7.707  17.728  66.429  1.00  0.00    -0.283 C  
HETATM   20  C   UNL     1      -6.913  18.269  67.625  1.00  0.00    -0.204 C  
HETATM   21 CL   UNL     1      -7.081  17.248  69.078  1.00  0.00    -0.242 Cl 
ENDBRANCH  15  19
ENDBRANCH  12  15
ENDBRANCH   8   9
ENDBRANCH   2   8
TORSDOF 5
ENDMDL
MODEL      119
REMARK 921   NORMALIZED FREE ENERGY PREDICTED BY IDOCK:   -4.21 KCAL/MOL
REMARK 922        TOTAL FREE ENERGY PREDICTED BY IDOCK:   -6.03 KCAL/MOL
REMARK 923 INTER-LIGAND FREE ENERGY PREDICTED BY IDOCK:   -5.50 KCAL/MOL
REMARK 924 INTRA-LIGAND FREE ENERGY PREDICTED BY IDOCK:   -0.53 KCAL/MOL
REMARK 927      BINDING AFFINITY PREDICTED BY RF-SCORE:    0.00 PKD
ROOT
HETATM    1  N   UNL     1     -10.944   9.108  68.870  1.00  0.00    -0.435 NA 
HETATM    2  CA  UNL     1     -11.238  10.119  69.942  1.00  0.00    -0.287 C  
HETATM    3  H1  UNL     1     -10.357   8.334  69.182  1.00  0.00     0.000 HD 
HETATM    4  H2  UNL     1     -10.536   9.562  68.052  1.00  0.00     0.000 HD 
HETATM    5  C   UNL     1     -11.940   9.385  71.096  1.00  0.00    -0.337 C  
HETATM    6  O   UNL     1     -11.945   8.040  70.894  1.00  0.00    -0.278 OA 
HETATM    7  OXT UNL     1     -12.428   9.918  72.079  1.00  0.00    -0.360 OA 
ENDROOT
BRANCH   2   8
HETATM    8  C   UNL     1     -12.125  11.288  69.473  1.00  0.00    -0.386 C  
BRANCH   8   9
HETATM    9  C   UNL     1     -11.344  12.532  69.116  1.00  0.00    -0.331 A  
HETATM   10  C   UNL     1     -11.712  13.780  69.625  1.00  0.00    -0.379 A  
HETATM   11  C   UNL     1     -11.057  14.948  69.209  1.00  0.00    -0.284 A  
HETATM   12  C   UNL     1     -10.014  14.916  68.273  1.00  0.00    -0.222 A  
HETATM   13  C   UNL     1      -9.601  13.640  67.849  1.00  0.00    -0.223 A  
HETATM   14  C   UNL     1     -10.257  12.469  68.247  1.00  0.00    -0.235 A  
BRANCH  12  15
HETATM   15  N   UNL     1      -9.422  16.068  67.761  1.00  0.00    -0.216 NA 
BRANCH  15  16
HETATM   16  C   UNL     1      -9.271  16.297  66.310  1.00  0.00    -0.328 C  
HETATM   17 CL   UNL     1     -10.751  18.621  66.401  1.00  0.00    -0.353 Cl 
HETATM   18  C   UNL     1     -10.475  17.007  65.687  1.00  0.00    -0.216 C  
ENDBRANCH  15  16
BRANCH  15  19
HETATM   19  C   UNL     1      -8.514  16.842  68.638  1.00  0.00    -0.260 C  
HETATM   20  C   UNL     1      -7.373  16.017  69.246  1.00  0.00    -0.231 C  
HETATM   21 CL   UNL     1      -6.278  15.345  68.008  1.00  0.00    -0.137 Cl 
ENDBRANCH  15  19
ENDBRANCH  12  15
ENDBRANCH   8   9
ENDBRANCH   2   8
TORSDOF 5
ENDMDL
MODEL      120
REMARK 921   NORMALIZED FREE ENERGY PREDICTED BY IDOCK:   -4.20 KCAL/MOL
REMARK 922        TOTAL FREE ENERGY PREDICTED BY IDOCK:   -6.02 KCAL/MOL
REMARK 923 INTER-LIGAND FREE ENERGY PREDICTED BY IDOCK:   -5.27 KCAL/MOL
REMARK 924 INTRA-LIGAND FREE ENERGY PREDICTED BY IDOCK:   -0.75 KCAL/MOL
REMARK 927      BINDING AFFINITY PREDICTED BY RF-SCORE:    0.00 PKD
ROOT
HETATM    1  N   UNL     1     -10.545  19.816  67.573  1.00  0.00    -0.430 NA 
HETATM    2  CA  UNL     1      -9.739  18.633  67.118  1.00  0.00    -0.302 C  
HETATM    3  H1  UNL     1     -10.044  20.440  68.206  1.00  0.00     0.000 HD 
HETATM    4  H2  UNL     1     -11.424  19.511  67.993  1.00  0.00     0.000 HD 
HETATM    5  C   UNL     1      -8.485  19.169  66.409  1.00  0.00    -0.318 C  
HETATM    6  O   UNL     1      -8.383  20.519  66.539  1.00  0.00    -0.159 OA 
HETATM    7  OXT UNL     1      -7.668  18.490  65.809  1.00  0.00    -0.502 OA 
ENDROOT
BRANCH   2   8
HETATM    8  C   UNL     1     -10.496  17.691  66.162  1.00  0.00    -0.295 C  
BRANCH   8   9
HETATM    9  C   UNL     1     -10.417  16.237  66.562  1.00  0.00    -0.290 A  
HETATM   10  C   UNL     1     -10.899  15.233  65.717  1.00  0.00    -0.363 A  
HETATM   11  C   UNL     1     -10.925  13.894  66.133  1.00  0.00    -0.293 A  
HETATM   12  C   UNL     1     -10.476  13.506  67.403  1.00  0.00    -0.247 A  
HETATM   13  C   UNL     1      -9.911  14.520  68.196  1.00  0.00    -0.223 A  
HETATM   14  C   UNL     1      -9.891  15.862  67.797  1.00  0.00    -0.222 A  
BRANCH  12  15
HETATM   15  N   UNL     1     -10.594  12.203  67.881  1.00  0.00    -0.201 NA 
BRANCH  15  16
HETATM   16  C   UNL     1     -11.902  11.597  68.202  1.00  0.00    -0.244 C  
HETATM   17 CL   UNL     1     -12.163  13.087  70.506  1.00  0.00    -0.430 Cl 
HETATM   18  C   UNL     1     -12.160  11.490  69.707  1.00  0.00    -0.306 C  
ENDBRANCH  15  16
BRANCH  15  19
HETATM   19  C   UNL     1      -9.415  11.582  68.526  1.00  0.00    -0.174 C  
HETATM   20  C   UNL     1      -8.746  10.484  67.687  1.00  0.00    -0.121 C  
HETATM   21 CL   UNL     1      -8.098  11.101  66.144  1.00  0.00    -0.147 Cl 
ENDBRANCH  15  19
ENDBRANCH  12  15
ENDBRANCH   8   9
ENDBRANCH   2   8
TORSDOF 5
ENDMDL
MODEL      121
REMARK 921   NORMALIZED FREE ENERGY PREDICTED BY IDOCK:   -4.20 KCAL/MOL
REMARK 922        TOTAL FREE ENERGY PREDICTED BY IDOCK:   -6.02 KCAL/MOL
REMARK 923 INTER-LIGAND FREE ENERGY PREDICTED BY IDOCK:   -5.48 KCAL/MOL
REMARK 924 INTRA-LIGAND FREE ENERGY PREDICTED BY IDOCK:   -0.54 KCAL/MOL
REMARK 927      BINDING AFFINITY PREDICTED BY RF-SCORE:    0.00 PKD
ROOT
HETATM    1  N   UNL     1      -7.558  20.362  66.519  1.00  0.00    -0.440 NA 
HETATM    2  CA  UNL     1      -8.521  19.220  66.676  1.00  0.00    -0.316 C  
HETATM    3  H1  UNL     1      -7.897  21.109  65.912  1.00  0.00     0.000 HD 
HETATM    4  H2  UNL     1      -6.650  20.024  66.198  1.00  0.00     0.000 HD 
HETATM    5  C   UNL     1      -9.827  19.787  67.256  1.00  0.00    -0.384 C  
HETATM    6  O   UNL     1      -9.796  21.146  67.304  1.00  0.00    -0.298 OA 
HETATM    7  OXT UNL     1     -10.783  19.125  67.623  1.00  0.00    -0.448 OA 
ENDROOT
BRANCH   2   8
HETATM    8  C   UNL     1      -8.009  18.092  67.592  1.00  0.00    -0.233 C  
BRANCH   8   9
HETATM    9  C   UNL     1      -8.667  16.758  67.330  1.00  0.00    -0.214 A  
HETATM   10  C   UNL     1      -8.756  15.792  68.336  1.00  0.00    -0.177 A  
HETATM   11  C   UNL     1      -9.267  14.515  68.063  1.00  0.00    -0.190 A  
HETATM   12  C   UNL     1      -9.706  14.152  66.783  1.00  0.00    -0.277 A  
HETATM   13  C   UNL     1      -9.693  15.171  65.813  1.00  0.00    -0.379 A  
HETATM   14  C   UNL     1      -9.172  16.445  66.070  1.00  0.00    -0.328 A  
BRANCH  12  15
HETATM   15  N   UNL     1     -10.113  12.860  66.460  1.00  0.00    -0.255 NA 
BRANCH  15  16
HETATM   16  C   UNL     1     -11.346  12.262  67.010  1.00  0.00    -0.334 C  
HETATM   17 CL   UNL     1     -12.959  13.800  65.388  1.00  0.00    -0.454 Cl 
HETATM   18  C   UNL     1     -12.528  13.235  67.026  1.00  0.00     0.058 C  
ENDBRANCH  15  16
BRANCH  15  19
HETATM   19  C   UNL     1      -9.097  11.907  65.959  1.00  0.00    -0.119 C  
HETATM   20  C   UNL     1      -9.616  10.943  64.884  1.00  0.00    -0.248 C  
HETATM   21 CL   UNL     1     -10.155  11.788  63.408  1.00  0.00    -0.442 Cl 
ENDBRANCH  15  19
ENDBRANCH  12  15
ENDBRANCH   8   9
ENDBRANCH   2   8
TORSDOF 5
ENDMDL
MODEL      122
REMARK 921   NORMALIZED FREE ENERGY PREDICTED BY IDOCK:   -4.19 KCAL/MOL
REMARK 922        TOTAL FREE ENERGY PREDICTED BY IDOCK:   -6.01 KCAL/MOL
REMARK 923 INTER-LIGAND FREE ENERGY PREDICTED BY IDOCK:   -5.29 KCAL/MOL
REMARK 924 INTRA-LIGAND FREE ENERGY PREDICTED BY IDOCK:   -0.71 KCAL/MOL
REMARK 927      BINDING AFFINITY PREDICTED BY RF-SCORE:    0.00 PKD
ROOT
HETATM    1  N   UNL     1     -12.125  14.692  63.714  1.00  0.00    -0.950 NA 
HETATM    2  CA  UNL     1     -11.508  13.895  64.829  1.00  0.00    -0.362 C  
HETATM    3  H1  UNL     1     -12.124  14.213  62.813  1.00  0.00     0.000 HD 
HETATM    4  H2  UNL     1     -11.676  15.605  63.636  1.00  0.00     0.000 HD 
HETATM    5  C   UNL     1     -12.297  12.582  64.955  1.00  0.00    -0.470 C  
HETATM    6  O   UNL     1     -13.195  12.447  63.944  1.00  0.00    -0.718 OA 
HETATM    7  OXT UNL     1     -12.147  11.750  65.834  1.00  0.00    -0.381 OA 
ENDROOT
BRANCH   2   8
HETATM    8  C   UNL     1     -11.509  14.618  66.189  1.00  0.00    -0.339 C  
BRANCH   8   9
HETATM    9  C   UNL     1     -10.256  14.382  66.998  1.00  0.00    -0.263 A  
HETATM   10  C   UNL     1     -10.068  15.013  68.231  1.00  0.00    -0.222 A  
HETATM   11  C   UNL     1      -8.860  14.880  68.930  1.00  0.00    -0.184 A  
HETATM   12  C   UNL     1      -7.796  14.118  68.430  1.00  0.00    -0.143 A  
HETATM   13  C   UNL     1      -8.045  13.419  67.235  1.00  0.00    -0.147 A  
HETATM   14  C   UNL     1      -9.242  13.555  66.521  1.00  0.00    -0.187 A  
BRANCH  12  15
HETATM   15  N   UNL     1      -6.549  14.060  69.048  1.00  0.00    -0.100 NA 
BRANCH  15  16
HETATM   16  C   UNL     1      -5.523  13.073  68.658  1.00  0.00    -0.070 C  
HETATM   17 CL   UNL     1      -6.945  10.981  69.753  1.00  0.00    -0.126 Cl 
HETATM   18  C   UNL     1      -5.418  11.899  69.635  1.00  0.00    -0.077 C  
ENDBRANCH  15  16
BRANCH  15  19
HETATM   19  C   UNL     1      -6.407  14.646  70.400  1.00  0.00    -0.153 C  
HETATM   20  C   UNL     1      -5.532  15.905  70.450  1.00  0.00    -0.158 C  
HETATM   21 CL   UNL     1      -6.206  17.246  69.486  1.00  0.00    -0.247 Cl 
ENDBRANCH  15  19
ENDBRANCH  12  15
ENDBRANCH   8   9
ENDBRANCH   2   8
TORSDOF 5
ENDMDL
MODEL      123
REMARK 921   NORMALIZED FREE ENERGY PREDICTED BY IDOCK:   -4.19 KCAL/MOL
REMARK 922        TOTAL FREE ENERGY PREDICTED BY IDOCK:   -6.01 KCAL/MOL
REMARK 923 INTER-LIGAND FREE ENERGY PREDICTED BY IDOCK:   -5.29 KCAL/MOL
REMARK 924 INTRA-LIGAND FREE ENERGY PREDICTED BY IDOCK:   -0.71 KCAL/MOL
REMARK 927      BINDING AFFINITY PREDICTED BY RF-SCORE:    0.00 PKD
ROOT
HETATM    1  N   UNL     1     -11.365   6.827  67.278  1.00  0.00    -0.753 NA 
HETATM    2  CA  UNL     1     -10.515   8.055  67.112  1.00  0.00    -0.338 C  
HETATM    3  H1  UNL     1     -11.562   6.339  66.404  1.00  0.00     0.000 HD 
HETATM    4  H2  UNL     1     -12.232   7.054  67.766  1.00  0.00     0.000 HD 
HETATM    5  C   UNL     1      -9.190   7.621  66.466  1.00  0.00    -0.176 C  
HETATM    6  O   UNL     1      -9.229   6.315  66.088  1.00  0.00    -0.162 OA 
HETATM    7  OXT UNL     1      -8.219   8.339  66.295  1.00  0.00    -0.105 OA 
ENDROOT
BRANCH   2   8
HETATM    8  C   UNL     1     -10.217   8.792  68.432  1.00  0.00    -0.228 C  
BRANCH   8   9
HETATM    9  C   UNL     1     -10.318  10.295  68.319  1.00  0.00    -0.209 A  
HETATM   10  C   UNL     1      -9.171  11.085  68.205  1.00  0.00    -0.165 A  
HETATM   11  C   UNL     1      -9.259  12.484  68.210  1.00  0.00    -0.186 A  
HETATM   12  C   UNL     1     -10.487  13.148  68.329  1.00  0.00    -0.250 A  
HETATM   13  C   UNL     1     -11.632  12.331  68.348  1.00  0.00    -0.377 A  
HETATM   14  C   UNL     1     -11.556  10.933  68.357  1.00  0.00    -0.346 A  
BRANCH  12  15
HETATM   15  N   UNL     1     -10.592  14.531  68.449  1.00  0.00    -0.238 NA 
BRANCH  15  16
HETATM   16  C   UNL     1     -10.169  15.251  69.667  1.00  0.00    -0.244 C  
HETATM   17 CL   UNL     1     -12.381  14.407  71.078  1.00  0.00    -0.404 Cl 
HETATM   18  C   UNL     1     -11.346  15.747  70.509  1.00  0.00    -0.380 C  
ENDBRANCH  15  16
BRANCH  15  19
HETATM   19  C   UNL     1     -11.554  15.242  67.576  1.00  0.00    -0.214 C  
HETATM   20  C   UNL     1     -10.898  16.093  66.480  1.00  0.00    -0.139 C  
HETATM   21 CL   UNL     1      -9.942  15.115  65.334  1.00  0.00    -0.379 Cl 
ENDBRANCH  15  19
ENDBRANCH  12  15
ENDBRANCH   8   9
ENDBRANCH   2   8
TORSDOF 5
ENDMDL
MODEL      124
REMARK 921   NORMALIZED FREE ENERGY PREDICTED BY IDOCK:   -4.17 KCAL/MOL
REMARK 922        TOTAL FREE ENERGY PREDICTED BY IDOCK:   -5.99 KCAL/MOL
REMARK 923 INTER-LIGAND FREE ENERGY PREDICTED BY IDOCK:   -5.35 KCAL/MOL
REMARK 924 INTRA-LIGAND FREE ENERGY PREDICTED BY IDOCK:   -0.64 KCAL/MOL
REMARK 927      BINDING AFFINITY PREDICTED BY RF-SCORE:    0.00 PKD
ROOT
HETATM    1  N   UNL     1     -10.931  15.724  66.040  1.00  0.00    -0.237 NA 
HETATM    2  CA  UNL     1     -11.226  14.413  65.370  1.00  0.00    -0.335 C  
HETATM    3  H1  UNL     1     -10.468  16.403  65.436  1.00  0.00     0.000 HD 
HETATM    4  H2  UNL     1     -10.392  15.577  66.894  1.00  0.00     0.000 HD 
HETATM    5  C   UNL     1     -12.122  14.701  64.155  1.00  0.00    -0.320 C  
HETATM    6  O   UNL     1     -12.252  16.038  63.944  1.00  0.00    -0.883 OA 
HETATM    7  OXT UNL     1     -12.651  13.856  63.451  1.00  0.00    -0.853 OA 
ENDROOT
BRANCH   2   8
HETATM    8  C   UNL     1     -11.926  13.387  66.282  1.00  0.00    -0.460 C  
BRANCH   8   9
HETATM    9  C   UNL     1     -11.012  12.282  66.758  1.00  0.00    -0.321 A  
HETATM   10  C   UNL     1      -9.631  12.360  66.565  1.00  0.00    -0.242 A  
HETATM   11  C   UNL     1      -8.795  11.287  66.907  1.00  0.00    -0.165 A  
HETATM   12  C   UNL     1      -9.302  10.099  67.451  1.00  0.00    -0.148 A  
HETATM   13  C   UNL     1     -10.683  10.083  67.722  1.00  0.00    -0.333 A  
HETATM   14  C   UNL     1     -11.528  11.143  67.372  1.00  0.00    -0.261 A  
BRANCH  12  15
HETATM   15  N   UNL     1      -8.511   8.980  67.696  1.00  0.00    -0.117 NA 
BRANCH  15  16
HETATM   16  C   UNL     1      -7.301   9.040  68.541  1.00  0.00    -0.077 C  
HETATM   17 CL   UNL     1      -8.590   7.871  70.679  1.00  0.00    -0.128 Cl 
HETATM   18  C   UNL     1      -7.617   9.220  70.028  1.00  0.00    -0.099 C  
ENDBRANCH  15  16
BRANCH  15  19
HETATM   19  C   UNL     1      -8.585   7.845  66.747  1.00  0.00    -0.131 C  
HETATM   20  C   UNL     1      -8.514   8.257  65.270  1.00  0.00    -0.162 C  
HETATM   21 CL   UNL     1      -6.970   9.047  64.853  1.00  0.00    -0.076 Cl 
ENDBRANCH  15  19
ENDBRANCH  12  15
ENDBRANCH   8   9
ENDBRANCH   2   8
TORSDOF 5
ENDMDL
MODEL      125
REMARK 921   NORMALIZED FREE ENERGY PREDICTED BY IDOCK:   -4.17 KCAL/MOL
REMARK 922        TOTAL FREE ENERGY PREDICTED BY IDOCK:   -5.98 KCAL/MOL
REMARK 923 INTER-LIGAND FREE ENERGY PREDICTED BY IDOCK:   -5.66 KCAL/MOL
REMARK 924 INTRA-LIGAND FREE ENERGY PREDICTED BY IDOCK:   -0.32 KCAL/MOL
REMARK 927      BINDING AFFINITY PREDICTED BY RF-SCORE:    0.00 PKD
ROOT
HETATM    1  N   UNL     1     -10.452  18.448  65.893  1.00  0.00    -0.591 NA 
HETATM    2  CA  UNL     1      -9.990  19.237  67.085  1.00  0.00    -0.360 C  
HETATM    3  H1  UNL     1     -10.275  18.908  64.999  1.00  0.00     0.000 HD 
HETATM    4  H2  UNL     1     -11.439  18.207  65.984  1.00  0.00     0.000 HD 
HETATM    5  C   UNL     1      -8.479  19.476  66.929  1.00  0.00    -0.297 C  
HETATM    6  O   UNL     1      -8.037  19.060  65.712  1.00  0.00    -0.459 OA 
HETATM    7  OXT UNL     1      -7.753  19.978  67.771  1.00  0.00    -0.284 OA 
ENDROOT
BRANCH   2   8
HETATM    8  C   UNL     1     -10.256  18.543  68.435  1.00  0.00    -0.409 C  
BRANCH   8   9
HETATM    9  C   UNL     1     -10.271  17.035  68.345  1.00  0.00    -0.331 A  
HETATM   10  C   UNL     1      -9.090  16.316  68.147  1.00  0.00    -0.188 A  
HETATM   11  C   UNL     1      -9.117  14.927  67.955  1.00  0.00    -0.180 A  
HETATM   12  C   UNL     1     -10.318  14.205  67.950  1.00  0.00    -0.234 A  
HETATM   13  C   UNL     1     -11.482  14.938  68.244  1.00  0.00    -0.343 A  
HETATM   14  C   UNL     1     -11.468  16.327  68.424  1.00  0.00    -0.243 A  
BRANCH  12  15
HETATM   15  N   UNL     1     -10.383  12.846  67.651  1.00  0.00    -0.216 NA 
BRANCH  15  16
HETATM   16  C   UNL     1      -9.302  12.146  66.930  1.00  0.00    -0.203 C  
HETATM   17 CL   UNL     1      -8.835  10.438  69.042  1.00  0.00    -0.164 Cl 
HETATM   18  C   UNL     1      -8.206  11.618  67.859  1.00  0.00    -0.141 C  
ENDBRANCH  15  16
BRANCH  15  19
HETATM   19  C   UNL     1     -11.713  12.197  67.618  1.00  0.00    -0.316 C  
HETATM   20  C   UNL     1     -11.968  11.226  68.778  1.00  0.00    -0.282 C  
HETATM   21 CL   UNL     1     -11.941  12.036  70.368  1.00  0.00    -0.422 Cl 
ENDBRANCH  15  19
ENDBRANCH  12  15
ENDBRANCH   8   9
ENDBRANCH   2   8
TORSDOF 5
ENDMDL
MODEL      126
REMARK 921   NORMALIZED FREE ENERGY PREDICTED BY IDOCK:   -4.15 KCAL/MOL
REMARK 922        TOTAL FREE ENERGY PREDICTED BY IDOCK:   -5.95 KCAL/MOL
REMARK 923 INTER-LIGAND FREE ENERGY PREDICTED BY IDOCK:   -5.43 KCAL/MOL
REMARK 924 INTRA-LIGAND FREE ENERGY PREDICTED BY IDOCK:   -0.52 KCAL/MOL
REMARK 927      BINDING AFFINITY PREDICTED BY RF-SCORE:    0.00 PKD
ROOT
HETATM    1  N   UNL     1     -11.233   4.090  64.794  1.00  0.00    -0.849 NA 
HETATM    2  CA  UNL     1     -10.002   4.682  65.421  1.00  0.00    -0.148 C  
HETATM    3  H1  UNL     1     -11.509   4.540  63.921  1.00  0.00     0.000 HD 
HETATM    4  H2  UNL     1     -12.008   4.090  65.458  1.00  0.00     0.000 HD 
HETATM    5  C   UNL     1      -8.856   4.556  64.405  1.00  0.00    -0.152 C  
HETATM    6  O   UNL     1      -9.308   4.110  63.202  1.00  0.00    -0.134 OA 
HETATM    7  OXT UNL     1      -7.686   4.825  64.623  1.00  0.00    -0.075 OA 
ENDROOT
BRANCH   2   8
HETATM    8  C   UNL     1      -9.585   4.003  66.740  1.00  0.00    -0.234 C  
BRANCH   8   9
HETATM    9  C   UNL     1     -10.046   4.747  67.972  1.00  0.00    -0.112 A  
HETATM   10  C   UNL     1     -10.766   5.939  67.862  1.00  0.00    -0.336 A  
HETATM   11  C   UNL     1     -11.099   6.685  69.002  1.00  0.00    -0.318 A  
HETATM   12  C   UNL     1     -10.726   6.275  70.289  1.00  0.00    -0.280 A  
HETATM   13  C   UNL     1     -10.085   5.026  70.379  1.00  0.00    -0.330 A  
HETATM   14  C   UNL     1      -9.736   4.279  69.247  1.00  0.00    -0.240 A  
BRANCH  12  15
HETATM   15  N   UNL     1     -10.946   7.051  71.425  1.00  0.00    -0.237 NA 
BRANCH  15  16
HETATM   16  C   UNL     1      -9.966   7.129  72.527  1.00  0.00    -0.168 C  
HETATM   17 CL   UNL     1     -10.951   4.851  73.725  1.00  0.00    -0.374 Cl 
HETATM   18  C   UNL     1     -10.504   6.576  73.848  1.00  0.00    -0.308 C  
ENDBRANCH  15  16
BRANCH  15  19
HETATM   19  C   UNL     1     -12.339   7.417  71.767  1.00  0.00    -0.333 C  
HETATM   20  C   UNL     1     -12.520   8.886  72.172  1.00  0.00    -0.389 C  
HETATM   21 CL   UNL     1     -12.106  10.016  70.854  1.00  0.00    -0.416 Cl 
ENDBRANCH  15  19
ENDBRANCH  12  15
ENDBRANCH   8   9
ENDBRANCH   2   8
TORSDOF 5
ENDMDL
MODEL      127
REMARK 921   NORMALIZED FREE ENERGY PREDICTED BY IDOCK:   -4.14 KCAL/MOL
REMARK 922        TOTAL FREE ENERGY PREDICTED BY IDOCK:   -5.95 KCAL/MOL
REMARK 923 INTER-LIGAND FREE ENERGY PREDICTED BY IDOCK:   -6.18 KCAL/MOL
REMARK 924 INTRA-LIGAND FREE ENERGY PREDICTED BY IDOCK:    0.23 KCAL/MOL
REMARK 927      BINDING AFFINITY PREDICTED BY RF-SCORE:    0.00 PKD
ROOT
HETATM    1  N   UNL     1      -9.337  20.427  65.947  1.00  0.00    -0.601 NA 
HETATM    2  CA  UNL     1      -9.731  19.101  66.532  1.00  0.00    -0.359 C  
HETATM    3  H1  UNL     1     -10.078  21.129  65.977  1.00  0.00     0.000 HD 
HETATM    4  H2  UNL     1      -8.991  20.311  64.994  1.00  0.00     0.000 HD 
HETATM    5  C   UNL     1     -10.143  19.339  67.993  1.00  0.00    -0.400 C  
HETATM    6  O   UNL     1     -10.190  20.667  68.283  1.00  0.00    -0.146 OA 
HETATM    7  OXT UNL     1     -10.406  18.467  68.804  1.00  0.00    -0.349 OA 
ENDROOT
BRANCH   2   8
HETATM    8  C   UNL     1      -8.613  18.042  66.488  1.00  0.00    -0.280 C  
BRANCH   8   9
HETATM    9  C   UNL     1      -9.129  16.625  66.397  1.00  0.00    -0.325 A  
HETATM   10  C   UNL     1      -8.385  15.556  66.904  1.00  0.00    -0.290 A  
HETATM   11  C   UNL     1      -8.812  14.233  66.723  1.00  0.00    -0.207 A  
HETATM   12  C   UNL     1      -9.990  13.924  66.031  1.00  0.00    -0.310 A  
HETATM   13  C   UNL     1     -10.767  15.020  65.613  1.00  0.00    -0.365 A  
HETATM   14  C   UNL     1     -10.345  16.345  65.776  1.00  0.00    -0.388 A  
BRANCH  12  15
HETATM   15  N   UNL     1     -10.378  12.618  65.741  1.00  0.00    -0.274 NA 
BRANCH  15  16
HETATM   16  C   UNL     1      -9.623  11.762  64.805  1.00  0.00    -0.089 C  
HETATM   17 CL   UNL     1      -9.841   9.562  66.451  1.00  0.00    -0.296 Cl 
HETATM   18  C   UNL     1      -8.808  10.675  65.510  1.00  0.00    -0.188 C  
ENDBRANCH  15  16
BRANCH  15  19
HETATM   19  C   UNL     1     -11.789  12.235  65.980  1.00  0.00    -0.341 C  
HETATM   20  C   UNL     1     -12.781  12.830  64.971  1.00  0.00    -0.380 C  
HETATM   21 CL   UNL     1     -12.476  12.276  63.303  1.00  0.00    -0.590 Cl 
ENDBRANCH  15  19
ENDBRANCH  12  15
ENDBRANCH   8   9
ENDBRANCH   2   8
TORSDOF 5
ENDMDL
MODEL      128
REMARK 921   NORMALIZED FREE ENERGY PREDICTED BY IDOCK:   -4.12 KCAL/MOL
REMARK 922        TOTAL FREE ENERGY PREDICTED BY IDOCK:   -5.92 KCAL/MOL
REMARK 923 INTER-LIGAND FREE ENERGY PREDICTED BY IDOCK:   -5.62 KCAL/MOL
REMARK 924 INTRA-LIGAND FREE ENERGY PREDICTED BY IDOCK:   -0.30 KCAL/MOL
REMARK 927      BINDING AFFINITY PREDICTED BY RF-SCORE:    0.00 PKD
ROOT
HETATM    1  N   UNL     1     -14.408  15.358  70.960  1.00  0.00    -0.848 NA 
HETATM    2  CA  UNL     1     -12.989  14.914  71.173  1.00  0.00    -0.367 C  
HETATM    3  H1  UNL     1     -15.049  15.061  71.696  1.00  0.00     0.000 HD 
HETATM    4  H2  UNL     1     -14.746  15.054  70.047  1.00  0.00     0.000 HD 
HETATM    5  C   UNL     1     -12.516  15.491  72.517  1.00  0.00    -0.409 C  
HETATM    6  O   UNL     1     -13.540  16.083  73.187  1.00  0.00    -0.589 OA 
HETATM    7  OXT UNL     1     -11.377  15.431  72.950  1.00  0.00    -0.338 OA 
ENDROOT
BRANCH   2   8
HETATM    8  C   UNL     1     -12.021  15.362  70.061  1.00  0.00    -0.383 C  
BRANCH   8   9
HETATM    9  C   UNL     1     -11.341  14.213  69.355  1.00  0.00    -0.318 A  
HETATM   10  C   UNL     1     -11.939  12.951  69.298  1.00  0.00    -0.313 A  
HETATM   11  C   UNL     1     -11.261  11.859  68.739  1.00  0.00    -0.314 A  
HETATM   12  C   UNL     1      -9.966  11.980  68.217  1.00  0.00    -0.203 A  
HETATM   13  C   UNL     1      -9.426  13.279  68.200  1.00  0.00    -0.222 A  
HETATM   14  C   UNL     1     -10.088  14.374  68.769  1.00  0.00    -0.234 A  
BRANCH  12  15
HETATM   15  N   UNL     1      -9.229  10.892  67.757  1.00  0.00    -0.151 NA 
BRANCH  15  16
HETATM   16  C   UNL     1      -8.187  11.027  66.720  1.00  0.00    -0.149 C  
HETATM   17 CL   UNL     1      -6.243   9.974  68.365  1.00  0.00    -0.049 Cl 
HETATM   18  C   UNL     1      -6.796  11.296  67.299  1.00  0.00    -0.108 C  
ENDBRANCH  15  16
BRANCH  15  19
HETATM   19  C   UNL     1      -9.793   9.534  67.938  1.00  0.00    -0.156 C  
HETATM   20  C   UNL     1      -9.312   8.819  69.208  1.00  0.00    -0.149 C  
HETATM   21 CL   UNL     1      -9.796   9.671  70.699  1.00  0.00    -0.315 Cl 
ENDBRANCH  15  19
ENDBRANCH  12  15
ENDBRANCH   8   9
ENDBRANCH   2   8
TORSDOF 5
ENDMDL
MODEL      129
REMARK 921   NORMALIZED FREE ENERGY PREDICTED BY IDOCK:   -4.12 KCAL/MOL
REMARK 922        TOTAL FREE ENERGY PREDICTED BY IDOCK:   -5.91 KCAL/MOL
REMARK 923 INTER-LIGAND FREE ENERGY PREDICTED BY IDOCK:   -5.20 KCAL/MOL
REMARK 924 INTRA-LIGAND FREE ENERGY PREDICTED BY IDOCK:   -0.71 KCAL/MOL
REMARK 927      BINDING AFFINITY PREDICTED BY RF-SCORE:    0.00 PKD
ROOT
HETATM    1  N   UNL     1      -9.035   8.901  71.060  1.00  0.00    -0.221 NA 
HETATM    2  CA  UNL     1     -10.391   8.908  70.413  1.00  0.00    -0.204 C  
HETATM    3  H1  UNL     1      -8.986   9.444  71.922  1.00  0.00     0.000 HD 
HETATM    4  H2  UNL     1      -8.321   9.210  70.400  1.00  0.00     0.000 HD 
HETATM    5  C   UNL     1     -11.395   8.338  71.427  1.00  0.00    -0.262 C  
HETATM    6  O   UNL     1     -10.815   8.150  72.643  1.00  0.00    -0.337 OA 
HETATM    7  OXT UNL     1     -12.566   8.086  71.197  1.00  0.00    -0.268 OA 
ENDROOT
BRANCH   2   8
HETATM    8  C   UNL     1     -10.466   8.088  69.111  1.00  0.00    -0.217 C  
BRANCH   8   9
HETATM    9  C   UNL     1     -10.451   8.938  67.862  1.00  0.00    -0.281 A  
HETATM   10  C   UNL     1     -10.013   8.413  66.643  1.00  0.00    -0.354 A  
HETATM   11  C   UNL     1      -9.896   9.231  65.509  1.00  0.00    -0.155 A  
HETATM   12  C   UNL     1     -10.209  10.596  65.547  1.00  0.00    -0.262 A  
HETATM   13  C   UNL     1     -10.736  11.077  66.759  1.00  0.00    -0.319 A  
HETATM   14  C   UNL     1     -10.844  10.274  67.901  1.00  0.00    -0.337 A  
BRANCH  12  15
HETATM   15  N   UNL     1      -9.996  11.451  64.468  1.00  0.00    -0.256 NA 
BRANCH  15  16
HETATM   16  C   UNL     1     -10.272  12.900  64.546  1.00  0.00    -0.310 C  
HETATM   17 CL   UNL     1     -12.993  12.516  64.328  1.00  0.00    -0.354 Cl 
HETATM   18  C   UNL     1     -11.508  13.319  63.746  1.00  0.00    -0.314 C  
ENDBRANCH  15  16
BRANCH  15  19
HETATM   19  C   UNL     1      -9.955  10.870  63.107  1.00  0.00    -0.321 C  
HETATM   20  C   UNL     1      -8.582  10.960  62.427  1.00  0.00    -0.297 C  
HETATM   21 CL   UNL     1      -7.322  10.051  63.304  1.00  0.00    -0.134 Cl 
ENDBRANCH  15  19
ENDBRANCH  12  15
ENDBRANCH   8   9
ENDBRANCH   2   8
TORSDOF 5
ENDMDL
MODEL      130
REMARK 921   NORMALIZED FREE ENERGY PREDICTED BY IDOCK:   -4.12 KCAL/MOL
REMARK 922        TOTAL FREE ENERGY PREDICTED BY IDOCK:   -5.91 KCAL/MOL
REMARK 923 INTER-LIGAND FREE ENERGY PREDICTED BY IDOCK:   -5.19 KCAL/MOL
REMARK 924 INTRA-LIGAND FREE ENERGY PREDICTED BY IDOCK:   -0.72 KCAL/MOL
REMARK 927      BINDING AFFINITY PREDICTED BY RF-SCORE:    0.00 PKD
ROOT
HETATM    1  N   UNL     1      -7.701  10.314  66.453  1.00  0.00    -0.111 NA 
HETATM    2  CA  UNL     1      -8.898   9.806  65.703  1.00  0.00    -0.154 C  
HETATM    3  H1  UNL     1      -6.822   9.874  66.178  1.00  0.00     0.000 HD 
HETATM    4  H2  UNL     1      -7.845  10.228  67.459  1.00  0.00     0.000 HD 
HETATM    5  C   UNL     1      -8.654  10.060  64.207  1.00  0.00    -0.189 C  
HETATM    6  O   UNL     1      -7.390  10.507  63.982  1.00  0.00    -0.034 OA 
HETATM    7  OXT UNL     1      -9.470   9.881  63.317  1.00  0.00    -0.268 OA 
ENDROOT
BRANCH   2   8
HETATM    8  C   UNL     1     -10.225  10.471  66.118  1.00  0.00    -0.299 C  
BRANCH   8   9
HETATM    9  C   UNL     1     -10.702  10.058  67.490  1.00  0.00    -0.339 A  
HETATM   10  C   UNL     1     -11.320  10.978  68.342  1.00  0.00    -0.363 A  
HETATM   11  C   UNL     1     -11.664  10.623  69.655  1.00  0.00    -0.368 A  
HETATM   12  C   UNL     1     -11.406   9.345  70.167  1.00  0.00    -0.185 A  
HETATM   13  C   UNL     1     -10.871   8.411  69.261  1.00  0.00    -0.069 A  
HETATM   14  C   UNL     1     -10.511   8.758  67.953  1.00  0.00    -0.275 A  
BRANCH  12  15
HETATM   15  N   UNL     1     -11.636   9.001  71.497  1.00  0.00    -0.316 NA 
BRANCH  15  16
HETATM   16  C   UNL     1     -12.829   9.463  72.235  1.00  0.00    -0.375 C  
HETATM   17 CL   UNL     1     -14.240   7.175  71.626  1.00  0.00    -0.534 Cl 
HETATM   18  C   UNL     1     -14.141   8.958  71.629  1.00  0.00    -0.330 C  
ENDBRANCH  15  16
BRANCH  15  19
HETATM   19  C   UNL     1     -10.481   8.584  72.325  1.00  0.00    -0.332 C  
HETATM   20  C   UNL     1     -10.685   7.252  73.059  1.00  0.00    -0.339 C  
HETATM   21 CL   UNL     1     -10.911   5.880  71.941  1.00  0.00    -0.309 Cl 
ENDBRANCH  15  19
ENDBRANCH  12  15
ENDBRANCH   8   9
ENDBRANCH   2   8
TORSDOF 5
ENDMDL
MODEL      131
REMARK 921   NORMALIZED FREE ENERGY PREDICTED BY IDOCK:   -4.12 KCAL/MOL
REMARK 922        TOTAL FREE ENERGY PREDICTED BY IDOCK:   -5.91 KCAL/MOL
REMARK 923 INTER-LIGAND FREE ENERGY PREDICTED BY IDOCK:   -5.28 KCAL/MOL
REMARK 924 INTRA-LIGAND FREE ENERGY PREDICTED BY IDOCK:   -0.63 KCAL/MOL
REMARK 927      BINDING AFFINITY PREDICTED BY RF-SCORE:    0.00 PKD
ROOT
HETATM    1  N   UNL     1      -9.603   9.412  64.978  1.00  0.00    -0.453 NA 
HETATM    2  CA  UNL     1      -8.796   8.567  65.922  1.00  0.00    -0.182 C  
HETATM    3  H1  UNL     1      -9.143  10.281  64.703  1.00  0.00     0.000 HD 
HETATM    4  H2  UNL     1     -10.526   9.602  65.368  1.00  0.00     0.000 HD 
HETATM    5  C   UNL     1      -7.464   8.236  65.229  1.00  0.00    -0.083 C  
HETATM    6  O   UNL     1      -7.332   8.920  64.061  1.00  0.00    -0.097 OA 
HETATM    7  OXT UNL     1      -6.617   7.470  65.656  1.00  0.00    -0.044 OA 
ENDROOT
BRANCH   2   8
HETATM    8  C   UNL     1      -9.490   7.255  66.336  1.00  0.00    -0.185 C  
BRANCH   8   9
HETATM    9  C   UNL     1     -10.042   7.284  67.742  1.00  0.00    -0.225 A  
HETATM   10  C   UNL     1     -10.769   6.203  68.249  1.00  0.00    -0.361 A  
HETATM   11  C   UNL     1     -11.374   6.274  69.512  1.00  0.00    -0.475 A  
HETATM   12  C   UNL     1     -11.279   7.418  70.315  1.00  0.00    -0.247 A  
HETATM   13  C   UNL     1     -10.464   8.454  69.822  1.00  0.00    -0.220 A  
HETATM   14  C   UNL     1      -9.867   8.400  68.556  1.00  0.00    -0.186 A  
BRANCH  12  15
HETATM   15  N   UNL     1     -11.961   7.556  71.522  1.00  0.00    -0.294 NA 
BRANCH  15  16
HETATM   16  C   UNL     1     -13.420   7.773  71.581  1.00  0.00    -0.349 C  
HETATM   17 CL   UNL     1     -13.139  10.511  71.425  1.00  0.00    -0.503 Cl 
HETATM   18  C   UNL     1     -13.802   9.085  72.271  1.00  0.00    -0.484 C  
ENDBRANCH  15  16
BRANCH  15  19
HETATM   19  C   UNL     1     -11.193   7.964  72.720  1.00  0.00    -0.405 C  
HETATM   20  C   UNL     1     -10.640   6.792  73.542  1.00  0.00    -0.332 C  
HETATM   21 CL   UNL     1      -9.477   5.800  72.622  1.00  0.00    -0.155 Cl 
ENDBRANCH  15  19
ENDBRANCH  12  15
ENDBRANCH   8   9
ENDBRANCH   2   8
TORSDOF 5
ENDMDL
MODEL      132
REMARK 921   NORMALIZED FREE ENERGY PREDICTED BY IDOCK:   -4.10 KCAL/MOL
REMARK 922        TOTAL FREE ENERGY PREDICTED BY IDOCK:   -5.89 KCAL/MOL
REMARK 923 INTER-LIGAND FREE ENERGY PREDICTED BY IDOCK:   -6.06 KCAL/MOL
REMARK 924 INTRA-LIGAND FREE ENERGY PREDICTED BY IDOCK:    0.17 KCAL/MOL
REMARK 927      BINDING AFFINITY PREDICTED BY RF-SCORE:    0.00 PKD
ROOT
HETATM    1  N   UNL     1     -13.133  13.701  65.168  1.00  0.00    -0.734 NA 
HETATM    2  CA  UNL     1     -11.692  13.505  64.789  1.00  0.00    -0.370 C  
HETATM    3  H1  UNL     1     -13.728  13.992  64.392  1.00  0.00     0.000 HD 
HETATM    4  H2  UNL     1     -13.213  14.355  65.947  1.00  0.00     0.000 HD 
HETATM    5  C   UNL     1     -11.641  12.438  63.685  1.00  0.00    -0.499 C  
HETATM    6  O   UNL     1     -12.890  12.105  63.262  1.00  0.00    -0.735 OA 
HETATM    7  OXT UNL     1     -10.624  11.944  63.226  1.00  0.00    -0.403 OA 
ENDROOT
BRANCH   2   8
HETATM    8  C   UNL     1     -10.793  13.065  65.960  1.00  0.00    -0.290 C  
BRANCH   8   9
HETATM    9  C   UNL     1      -9.995  14.196  66.566  1.00  0.00    -0.289 A  
HETATM   10  C   UNL     1      -9.591  15.285  65.789  1.00  0.00    -0.359 A  
HETATM   11  C   UNL     1      -8.759  16.280  66.323  1.00  0.00    -0.370 A  
HETATM   12  C   UNL     1      -8.299  16.228  67.645  1.00  0.00    -0.161 A  
HETATM   13  C   UNL     1      -8.796  15.173  68.432  1.00  0.00    -0.174 A  
HETATM   14  C   UNL     1      -9.616  14.166  67.906  1.00  0.00    -0.223 A  
BRANCH  12  15
HETATM   15  N   UNL     1      -7.386  17.141  68.166  1.00  0.00    -0.195 NA 
BRANCH  15  16
HETATM   16  C   UNL     1      -7.694  18.579  68.290  1.00  0.00    -0.293 C  
HETATM   17 CL   UNL     1     -10.310  18.081  69.000  1.00  0.00    -0.284 Cl 
HETATM   18  C   UNL     1      -9.144  18.914  67.934  1.00  0.00    -0.300 C  
ENDBRANCH  15  16
BRANCH  15  19
HETATM   19  C   UNL     1      -5.949  16.782  68.153  1.00  0.00    -0.125 C  
HETATM   20  C   UNL     1      -5.339  16.584  69.547  1.00  0.00    -0.143 C  
HETATM   21 CL   UNL     1      -6.094  15.237  70.441  1.00  0.00    -0.113 Cl 
ENDBRANCH  15  19
ENDBRANCH  12  15
ENDBRANCH   8   9
ENDBRANCH   2   8
TORSDOF 5
ENDMDL
MODEL      133
REMARK 921   NORMALIZED FREE ENERGY PREDICTED BY IDOCK:   -4.09 KCAL/MOL
REMARK 922        TOTAL FREE ENERGY PREDICTED BY IDOCK:   -5.88 KCAL/MOL
REMARK 923 INTER-LIGAND FREE ENERGY PREDICTED BY IDOCK:   -5.44 KCAL/MOL
REMARK 924 INTRA-LIGAND FREE ENERGY PREDICTED BY IDOCK:   -0.44 KCAL/MOL
REMARK 927      BINDING AFFINITY PREDICTED BY RF-SCORE:    0.00 PKD
ROOT
HETATM    1  N   UNL     1      -9.470  13.923  68.758  1.00  0.00    -0.385 NA 
HETATM    2  CA  UNL     1      -9.142  13.569  67.336  1.00  0.00    -0.219 C  
HETATM    3  H1  UNL     1      -9.614  14.922  68.913  1.00  0.00     0.000 HD 
HETATM    4  H2  UNL     1      -8.755  13.562  69.391  1.00  0.00     0.000 HD 
HETATM    5  C   UNL     1     -10.305  14.053  66.455  1.00  0.00    -0.285 C  
HETATM    6  O   UNL     1     -11.195  14.790  67.173  1.00  0.00    -0.324 OA 
HETATM    7  OXT UNL     1     -10.431  13.826  65.263  1.00  0.00    -0.325 OA 
ENDROOT
BRANCH   2   8
HETATM    8  C   UNL     1      -8.924  12.062  67.101  1.00  0.00    -0.185 C  
BRANCH   8   9
HETATM    9  C   UNL     1      -9.494  11.193  68.198  1.00  0.00    -0.180 A  
HETATM   10  C   UNL     1      -8.657  10.579  69.134  1.00  0.00    -0.157 A  
HETATM   11  C   UNL     1      -9.173   9.687  70.084  1.00  0.00    -0.287 A  
HETATM   12  C   UNL     1     -10.538   9.371  70.137  1.00  0.00    -0.240 A  
HETATM   13  C   UNL     1     -11.370  10.073  69.247  1.00  0.00    -0.169 A  
HETATM   14  C   UNL     1     -10.864  10.956  68.285  1.00  0.00    -0.272 A  
BRANCH  12  15
HETATM   15  N   UNL     1     -11.059   8.407  70.996  1.00  0.00    -0.251 NA 
BRANCH  15  16
HETATM   16  C   UNL     1     -11.754   8.761  72.250  1.00  0.00    -0.328 C  
HETATM   17 CL   UNL     1     -14.064   7.472  71.476  1.00  0.00    -0.542 Cl 
HETATM   18  C   UNL     1     -13.261   8.955  72.066  1.00  0.00    -0.409 C  
ENDBRANCH  15  16
BRANCH  15  19
HETATM   19  C   UNL     1     -10.517   7.031  70.920  1.00  0.00    -0.214 C  
HETATM   20  C   UNL     1     -11.234   6.128  69.907  1.00  0.00    -0.414 C  
HETATM   21 CL   UNL     1     -11.086   6.725  68.233  1.00  0.00    -0.254 Cl 
ENDBRANCH  15  19
ENDBRANCH  12  15
ENDBRANCH   8   9
ENDBRANCH   2   8
TORSDOF 5
ENDMDL
MODEL      134
REMARK 921   NORMALIZED FREE ENERGY PREDICTED BY IDOCK:   -4.09 KCAL/MOL
REMARK 922        TOTAL FREE ENERGY PREDICTED BY IDOCK:   -5.88 KCAL/MOL
REMARK 923 INTER-LIGAND FREE ENERGY PREDICTED BY IDOCK:   -5.27 KCAL/MOL
REMARK 924 INTRA-LIGAND FREE ENERGY PREDICTED BY IDOCK:   -0.61 KCAL/MOL
REMARK 927      BINDING AFFINITY PREDICTED BY RF-SCORE:    0.00 PKD
ROOT
HETATM    1  N   UNL     1      -8.172   8.734  67.851  1.00  0.00    -0.110 NA 
HETATM    2  CA  UNL     1      -9.542   8.484  68.414  1.00  0.00    -0.147 C  
HETATM    3  H1  UNL     1      -7.416   8.338  68.410  1.00  0.00     0.000 HD 
HETATM    4  H2  UNL     1      -8.023   9.732  67.701  1.00  0.00     0.000 HD 
HETATM    5  C   UNL     1      -9.734   6.963  68.517  1.00  0.00    -0.138 C  
HETATM    6  O   UNL     1      -8.581   6.300  68.232  1.00  0.00    -0.117 OA 
HETATM    7  OXT UNL     1     -10.773   6.401  68.820  1.00  0.00    -0.227 OA 
ENDROOT
BRANCH   2   8
HETATM    8  C   UNL     1     -10.684   9.082  67.570  1.00  0.00    -0.239 C  
BRANCH   8   9
HETATM    9  C   UNL     1     -11.089  10.472  68.002  1.00  0.00    -0.361 A  
HETATM   10  C   UNL     1     -11.201  11.509  67.072  1.00  0.00    -0.365 A  
HETATM   11  C   UNL     1     -11.470  12.821  67.486  1.00  0.00    -0.390 A  
HETATM   12  C   UNL     1     -11.636  13.150  68.838  1.00  0.00    -0.311 A  
HETATM   13  C   UNL     1     -11.611  12.074  69.744  1.00  0.00    -0.348 A  
HETATM   14  C   UNL     1     -11.330  10.762  69.343  1.00  0.00    -0.351 A  
BRANCH  12  15
HETATM   15  N   UNL     1     -11.793  14.459  69.286  1.00  0.00    -0.307 NA 
BRANCH  15  16
HETATM   16  C   UNL     1     -11.776  15.613  68.364  1.00  0.00    -0.290 C  
HETATM   17 CL   UNL     1      -9.058  15.965  68.661  1.00  0.00    -0.196 Cl 
HETATM   18  C   UNL     1     -10.707  16.649  68.720  1.00  0.00    -0.342 C  
ENDBRANCH  15  16
BRANCH  15  19
HETATM   19  C   UNL     1     -11.498  14.757  70.706  1.00  0.00    -0.225 C  
HETATM   20  C   UNL     1     -12.713  15.235  71.513  1.00  0.00    -0.384 C  
HETATM   21 CL   UNL     1     -14.000  14.003  71.606  1.00  0.00    -0.417 Cl 
ENDBRANCH  15  19
ENDBRANCH  12  15
ENDBRANCH   8   9
ENDBRANCH   2   8
TORSDOF 5
ENDMDL
MODEL      135
REMARK 921   NORMALIZED FREE ENERGY PREDICTED BY IDOCK:   -4.08 KCAL/MOL
REMARK 922        TOTAL FREE ENERGY PREDICTED BY IDOCK:   -5.86 KCAL/MOL
REMARK 923 INTER-LIGAND FREE ENERGY PREDICTED BY IDOCK:   -5.50 KCAL/MOL
REMARK 924 INTRA-LIGAND FREE ENERGY PREDICTED BY IDOCK:   -0.37 KCAL/MOL
REMARK 927      BINDING AFFINITY PREDICTED BY RF-SCORE:    0.00 PKD
ROOT
HETATM    1  N   UNL     1     -11.888  11.796  66.492  1.00  0.00    -0.515 NA 
HETATM    2  CA  UNL     1     -11.328  12.694  67.558  1.00  0.00    -0.308 C  
HETATM    3  H1  UNL     1     -11.574  10.828  66.560  1.00  0.00     0.000 HD 
HETATM    4  H2  UNL     1     -11.689  12.173  65.565  1.00  0.00     0.000 HD 
HETATM    5  C   UNL     1     -11.751  12.121  68.920  1.00  0.00    -0.327 C  
HETATM    6  O   UNL     1     -12.353  10.910  68.780  1.00  0.00    -0.495 OA 
HETATM    7  OXT UNL     1     -11.573  12.661  69.999  1.00  0.00    -0.239 OA 
ENDROOT
BRANCH   2   8
HETATM    8  C   UNL     1     -11.802  14.157  67.455  1.00  0.00    -0.437 C  
BRANCH   8   9
HETATM    9  C   UNL     1     -10.676  15.161  67.516  1.00  0.00    -0.284 A  
HETATM   10  C   UNL     1     -10.410  15.870  68.691  1.00  0.00    -0.229 A  
HETATM   11  C   UNL     1      -9.436  16.879  68.717  1.00  0.00    -0.264 A  
HETATM   12  C   UNL     1      -8.695  17.221  67.578  1.00  0.00    -0.210 A  
HETATM   13  C   UNL     1      -8.916  16.430  66.436  1.00  0.00    -0.340 A  
HETATM   14  C   UNL     1      -9.895  15.429  66.395  1.00  0.00    -0.301 A  
BRANCH  12  15
HETATM   15  N   UNL     1      -7.804  18.291  67.547  1.00  0.00    -0.226 NA 
BRANCH  15  16
HETATM   16  C   UNL     1      -7.118  18.780  68.760  1.00  0.00    -0.308 C  
HETATM   17 CL   UNL     1      -5.127  16.885  68.544  1.00  0.00    -0.117 Cl 
HETATM   18  C   UNL     1      -6.395  17.671  69.528  1.00  0.00    -0.223 C  
ENDBRANCH  15  16
BRANCH  15  19
HETATM   19  C   UNL     1      -7.893  19.248  66.420  1.00  0.00    -0.291 C  
HETATM   20  C   UNL     1      -6.719  20.233  66.339  1.00  0.00    -0.226 C  
HETATM   21 CL   UNL     1      -5.157  19.415  66.067  1.00  0.00    -0.156 Cl 
ENDBRANCH  15  19
ENDBRANCH  12  15
ENDBRANCH   8   9
ENDBRANCH   2   8
TORSDOF 5
ENDMDL
MODEL      136
REMARK 921   NORMALIZED FREE ENERGY PREDICTED BY IDOCK:   -4.08 KCAL/MOL
REMARK 922        TOTAL FREE ENERGY PREDICTED BY IDOCK:   -5.86 KCAL/MOL
REMARK 923 INTER-LIGAND FREE ENERGY PREDICTED BY IDOCK:   -5.22 KCAL/MOL
REMARK 924 INTRA-LIGAND FREE ENERGY PREDICTED BY IDOCK:   -0.64 KCAL/MOL
REMARK 927      BINDING AFFINITY PREDICTED BY RF-SCORE:    0.00 PKD
ROOT
HETATM    1  N   UNL     1      -8.297  13.619  68.717  1.00  0.00    -0.342 NA 
HETATM    2  CA  UNL     1      -8.516  13.321  67.262  1.00  0.00    -0.201 C  
HETATM    3  H1  UNL     1      -8.192  14.613  68.925  1.00  0.00     0.000 HD 
HETATM    4  H2  UNL     1      -7.501  13.091  69.075  1.00  0.00     0.000 HD 
HETATM    5  C   UNL     1      -9.786  14.066  66.819  1.00  0.00    -0.278 C  
HETATM    6  O   UNL     1     -10.241  14.891  67.799  1.00  0.00    -0.234 OA 
HETATM    7  OXT UNL     1     -10.327  13.954  65.731  1.00  0.00    -0.296 OA 
ENDROOT
BRANCH   2   8
HETATM    8  C   UNL     1      -8.675  11.821  66.948  1.00  0.00    -0.189 C  
BRANCH   8   9
HETATM    9  C   UNL     1      -9.430  11.059  68.013  1.00  0.00    -0.169 A  
HETATM   10  C   UNL     1     -10.824  11.122  68.089  1.00  0.00    -0.266 A  
HETATM   11  C   UNL     1     -11.515  10.505  69.141  1.00  0.00    -0.314 A  
HETATM   12  C   UNL     1     -10.847   9.805  70.154  1.00  0.00    -0.291 A  
HETATM   13  C   UNL     1      -9.454   9.677  70.003  1.00  0.00    -0.277 A  
HETATM   14  C   UNL     1      -8.752  10.300  68.965  1.00  0.00    -0.164 A  
BRANCH  12  15
HETATM   15  N   UNL     1     -11.498   9.278  71.267  1.00  0.00    -0.317 NA 
BRANCH  15  16
HETATM   16  C   UNL     1     -10.810   8.414  72.247  1.00  0.00    -0.352 C  
HETATM   17 CL   UNL     1     -11.155   6.167  70.688  1.00  0.00    -0.371 Cl 
HETATM   18  C   UNL     1     -11.349   6.982  72.266  1.00  0.00    -0.268 C  
ENDBRANCH  15  16
BRANCH  15  19
HETATM   19  C   UNL     1     -12.975   9.174  71.233  1.00  0.00    -0.251 C  
HETATM   20  C   UNL     1     -13.690  10.046  72.274  1.00  0.00    -0.101 C  
HETATM   21 CL   UNL     1     -13.392  11.788  72.029  1.00  0.00    -0.543 Cl 
ENDBRANCH  15  19
ENDBRANCH  12  15
ENDBRANCH   8   9
ENDBRANCH   2   8
TORSDOF 5
ENDMDL
MODEL      137
REMARK 921   NORMALIZED FREE ENERGY PREDICTED BY IDOCK:   -4.07 KCAL/MOL
REMARK 922        TOTAL FREE ENERGY PREDICTED BY IDOCK:   -5.85 KCAL/MOL
REMARK 923 INTER-LIGAND FREE ENERGY PREDICTED BY IDOCK:   -5.56 KCAL/MOL
REMARK 924 INTRA-LIGAND FREE ENERGY PREDICTED BY IDOCK:   -0.30 KCAL/MOL
REMARK 927      BINDING AFFINITY PREDICTED BY RF-SCORE:    0.00 PKD
ROOT
HETATM    1  N   UNL     1     -11.688  16.438  71.265  1.00  0.00    -0.639 NA 
HETATM    2  CA  UNL     1     -12.200  15.435  70.271  1.00  0.00    -0.380 C  
HETATM    3  H1  UNL     1     -12.353  16.664  72.005  1.00  0.00     0.000 HD 
HETATM    4  H2  UNL     1     -11.377  17.287  70.790  1.00  0.00     0.000 HD 
HETATM    5  C   UNL     1     -12.552  14.153  71.041  1.00  0.00    -0.369 C  
HETATM    6  O   UNL     1     -12.459  14.343  72.385  1.00  0.00    -0.301 OA 
HETATM    7  OXT UNL     1     -12.883  13.093  70.536  1.00  0.00    -0.112 OA 
ENDROOT
BRANCH   2   8
HETATM    8  C   UNL     1     -11.195  15.094  69.153  1.00  0.00    -0.288 C  
BRANCH   8   9
HETATM    9  C   UNL     1     -10.104  16.126  68.988  1.00  0.00    -0.247 A  
HETATM   10  C   UNL     1     -10.395  17.408  68.515  1.00  0.00    -0.378 A  
HETATM   11  C   UNL     1      -9.370  18.329  68.258  1.00  0.00    -0.320 A  
HETATM   12  C   UNL     1      -8.021  18.009  68.460  1.00  0.00    -0.303 A  
HETATM   13  C   UNL     1      -7.762  16.747  69.024  1.00  0.00    -0.213 A  
HETATM   14  C   UNL     1      -8.777  15.814  69.272  1.00  0.00    -0.261 A  
BRANCH  12  15
HETATM   15  N   UNL     1      -6.979  18.864  68.109  1.00  0.00    -0.238 NA 
BRANCH  15  16
HETATM   16  C   UNL     1      -5.634  18.755  68.709  1.00  0.00    -0.195 C  
HETATM   17 CL   UNL     1      -6.381  20.196  70.937  1.00  0.00    -0.284 Cl 
HETATM   18  C   UNL     1      -5.261  19.968  69.566  1.00  0.00    -0.209 C  
ENDBRANCH  15  16
BRANCH  15  19
HETATM   19  C   UNL     1      -7.317  20.174  67.505  1.00  0.00    -0.290 C  
HETATM   20  C   UNL     1      -6.395  20.590  66.351  1.00  0.00    -0.226 C  
HETATM   21 CL   UNL     1      -6.476  19.463  64.970  1.00  0.00    -0.307 Cl 
ENDBRANCH  15  19
ENDBRANCH  12  15
ENDBRANCH   8   9
ENDBRANCH   2   8
TORSDOF 5
ENDMDL
MODEL      138
REMARK 921   NORMALIZED FREE ENERGY PREDICTED BY IDOCK:   -4.06 KCAL/MOL
REMARK 922        TOTAL FREE ENERGY PREDICTED BY IDOCK:   -5.83 KCAL/MOL
REMARK 923 INTER-LIGAND FREE ENERGY PREDICTED BY IDOCK:   -5.12 KCAL/MOL
REMARK 924 INTRA-LIGAND FREE ENERGY PREDICTED BY IDOCK:   -0.71 KCAL/MOL
REMARK 927      BINDING AFFINITY PREDICTED BY RF-SCORE:    0.00 PKD
ROOT
HETATM    1  N   UNL     1      -7.355   5.363  65.934  1.00  0.00    -0.076 NA 
HETATM    2  CA  UNL     1      -8.813   5.340  66.298  1.00  0.00    -0.130 C  
HETATM    3  H1  UNL     1      -6.924   4.439  65.896  1.00  0.00     0.000 HD 
HETATM    4  H2  UNL     1      -6.838   5.974  66.567  1.00  0.00     0.000 HD 
HETATM    5  C   UNL     1      -9.542   4.487  65.248  1.00  0.00    -0.172 C  
HETATM    6  O   UNL     1      -8.662   3.878  64.410  1.00  0.00    -0.114 OA 
HETATM    7  OXT UNL     1     -10.752   4.352  65.164  1.00  0.00    -0.255 OA 
ENDROOT
BRANCH   2   8
HETATM    8  C   UNL     1      -9.464   6.736  66.356  1.00  0.00    -0.166 C  
BRANCH   8   9
HETATM    9  C   UNL     1     -10.183   7.011  67.656  1.00  0.00    -0.245 A  
HETATM   10  C   UNL     1     -10.209   8.297  68.203  1.00  0.00    -0.255 A  
HETATM   11  C   UNL     1     -10.782   8.531  69.461  1.00  0.00    -0.181 A  
HETATM   12  C   UNL     1     -11.347   7.498  70.220  1.00  0.00    -0.199 A  
HETATM   13  C   UNL     1     -11.392   6.233  69.607  1.00  0.00    -0.492 A  
HETATM   14  C   UNL     1     -10.811   5.984  68.357  1.00  0.00    -0.361 A  
BRANCH  12  15
HETATM   15  N   UNL     1     -11.821   7.683  71.517  1.00  0.00    -0.284 NA 
BRANCH  15  16
HETATM   16  C   UNL     1     -13.250   7.920  71.806  1.00  0.00    -0.329 C  
HETATM   17 CL   UNL     1     -13.006  10.635  71.397  1.00  0.00    -0.521 Cl 
HETATM   18  C   UNL     1     -13.512   9.284  72.449  1.00  0.00    -0.459 C  
ENDBRANCH  15  16
BRANCH  15  19
HETATM   19  C   UNL     1     -10.865   8.121  72.559  1.00  0.00    -0.361 C  
HETATM   20  C   UNL     1     -10.623   7.085  73.665  1.00  0.00    -0.345 C  
HETATM   21 CL   UNL     1      -9.897   5.578  73.043  1.00  0.00    -0.174 Cl 
ENDBRANCH  15  19
ENDBRANCH  12  15
ENDBRANCH   8   9
ENDBRANCH   2   8
TORSDOF 5
ENDMDL
MODEL      139
REMARK 921   NORMALIZED FREE ENERGY PREDICTED BY IDOCK:   -4.04 KCAL/MOL
REMARK 922        TOTAL FREE ENERGY PREDICTED BY IDOCK:   -5.82 KCAL/MOL
REMARK 923 INTER-LIGAND FREE ENERGY PREDICTED BY IDOCK:   -5.39 KCAL/MOL
REMARK 924 INTRA-LIGAND FREE ENERGY PREDICTED BY IDOCK:   -0.43 KCAL/MOL
REMARK 927      BINDING AFFINITY PREDICTED BY RF-SCORE:    0.00 PKD
ROOT
HETATM    1  N   UNL     1      -9.473  13.625  68.610  1.00  0.00    -0.376 NA 
HETATM    2  CA  UNL     1     -10.797  14.244  68.266  1.00  0.00    -0.246 C  
HETATM    3  H1  UNL     1      -8.701  14.291  68.643  1.00  0.00     0.000 HD 
HETATM    4  H2  UNL     1      -9.259  12.859  67.971  1.00  0.00     0.000 HD 
HETATM    5  C   UNL     1     -11.100  15.316  69.325  1.00  0.00    -0.274 C  
HETATM    6  O   UNL     1     -10.038  15.507  70.152  1.00  0.00    -0.298 OA 
HETATM    7  OXT UNL     1     -12.147  15.935  69.425  1.00  0.00    -0.330 OA 
ENDROOT
BRANCH   2   8
HETATM    8  C   UNL     1     -11.964  13.239  68.216  1.00  0.00    -0.338 C  
BRANCH   8   9
HETATM    9  C   UNL     1     -11.537  11.808  68.448  1.00  0.00    -0.380 A  
HETATM   10  C   UNL     1     -11.462  11.283  69.741  1.00  0.00    -0.386 A  
HETATM   11  C   UNL     1     -10.962   9.992  69.964  1.00  0.00    -0.352 A  
HETATM   12  C   UNL     1     -10.518   9.179  68.913  1.00  0.00    -0.218 A  
HETATM   13  C   UNL     1     -10.692   9.695  67.616  1.00  0.00    -0.324 A  
HETATM   14  C   UNL     1     -11.177  10.988  67.382  1.00  0.00    -0.355 A  
BRANCH  12  15
HETATM   15  N   UNL     1      -9.915   7.940  69.116  1.00  0.00    -0.179 NA 
BRANCH  15  16
HETATM   16  C   UNL     1      -8.450   7.782  69.202  1.00  0.00    -0.138 C  
HETATM   17 CL   UNL     1      -8.202   7.476  66.474  1.00  0.00    -0.118 Cl 
HETATM   18  C   UNL     1      -7.882   6.860  68.120  1.00  0.00    -0.114 C  
ENDBRANCH  15  16
BRANCH  15  19
HETATM   19  C   UNL     1     -10.682   6.720  68.771  1.00  0.00    -0.239 C  
HETATM   20  C   UNL     1     -10.976   5.804  69.966  1.00  0.00    -0.311 C  
HETATM   21 CL   UNL     1     -11.990   6.596  71.202  1.00  0.00    -0.414 Cl 
ENDBRANCH  15  19
ENDBRANCH  12  15
ENDBRANCH   8   9
ENDBRANCH   2   8
TORSDOF 5
ENDMDL
MODEL      140
REMARK 921   NORMALIZED FREE ENERGY PREDICTED BY IDOCK:   -4.04 KCAL/MOL
REMARK 922        TOTAL FREE ENERGY PREDICTED BY IDOCK:   -5.82 KCAL/MOL
REMARK 923 INTER-LIGAND FREE ENERGY PREDICTED BY IDOCK:   -5.50 KCAL/MOL
REMARK 924 INTRA-LIGAND FREE ENERGY PREDICTED BY IDOCK:   -0.32 KCAL/MOL
REMARK 927      BINDING AFFINITY PREDICTED BY RF-SCORE:    0.00 PKD
ROOT
HETATM    1  N   UNL     1     -10.110   8.348  66.862  1.00  0.00    -0.267 NA 
HETATM    2  CA  UNL     1     -10.048   7.975  68.315  1.00  0.00    -0.196 C  
HETATM    3  H1  UNL     1      -9.807   7.606  66.231  1.00  0.00     0.000 HD 
HETATM    4  H2  UNL     1      -9.582   9.204  66.689  1.00  0.00     0.000 HD 
HETATM    5  C   UNL     1     -10.944   6.742  68.519  1.00  0.00    -0.192 C  
HETATM    6  O   UNL     1     -11.392   6.256  67.331  1.00  0.00    -0.247 OA 
HETATM    7  OXT UNL     1     -11.223   6.242  69.596  1.00  0.00    -0.378 OA 
ENDROOT
BRANCH   2   8
HETATM    8  C   UNL     1     -10.506   9.095  69.269  1.00  0.00    -0.231 C  
BRANCH   8   9
HETATM    9  C   UNL     1     -10.540  10.460  68.622  1.00  0.00    -0.234 A  
HETATM   10  C   UNL     1      -9.358  11.113  68.262  1.00  0.00    -0.176 A  
HETATM   11  C   UNL     1      -9.384  12.423  67.763  1.00  0.00    -0.196 A  
HETATM   12  C   UNL     1     -10.583  13.131  67.606  1.00  0.00    -0.228 A  
HETATM   13  C   UNL     1     -11.763  12.419  67.887  1.00  0.00    -0.421 A  
HETATM   14  C   UNL     1     -11.749  11.116  68.398  1.00  0.00    -0.349 A  
BRANCH  12  15
HETATM   15  N   UNL     1     -10.628  14.468  67.219  1.00  0.00    -0.277 NA 
BRANCH  15  16
HETATM   16  C   UNL     1     -11.656  15.400  67.723  1.00  0.00    -0.228 C  
HETATM   17 CL   UNL     1      -9.764  17.200  68.607  1.00  0.00    -0.282 Cl 
HETATM   18  C   UNL     1     -11.198  16.191  68.951  1.00  0.00    -0.351 C  
ENDBRANCH  15  16
BRANCH  15  19
HETATM   19  C   UNL     1      -9.964  14.857  65.953  1.00  0.00    -0.331 C  
HETATM   20  C   UNL     1     -10.500  14.128  64.713  1.00  0.00    -0.408 C  
HETATM   21 CL   UNL     1     -12.222  14.480  64.404  1.00  0.00    -0.507 Cl 
ENDBRANCH  15  19
ENDBRANCH  12  15
ENDBRANCH   8   9
ENDBRANCH   2   8
TORSDOF 5
ENDMDL
MODEL      141
REMARK 921   NORMALIZED FREE ENERGY PREDICTED BY IDOCK:   -4.04 KCAL/MOL
REMARK 922        TOTAL FREE ENERGY PREDICTED BY IDOCK:   -5.82 KCAL/MOL
REMARK 923 INTER-LIGAND FREE ENERGY PREDICTED BY IDOCK:   -5.19 KCAL/MOL
REMARK 924 INTRA-LIGAND FREE ENERGY PREDICTED BY IDOCK:   -0.62 KCAL/MOL
REMARK 927      BINDING AFFINITY PREDICTED BY RF-SCORE:    0.00 PKD
ROOT
HETATM    1  N   UNL     1     -12.284  14.528  67.222  1.00  0.00    -0.581 NA 
HETATM    2  CA  UNL     1     -12.159  14.855  68.683  1.00  0.00    -0.170 C  
HETATM    3  H1  UNL     1     -12.657  15.292  66.658  1.00  0.00     0.000 HD 
HETATM    4  H2  UNL     1     -12.837  13.681  67.090  1.00  0.00     0.000 HD 
HETATM    5  C   UNL     1     -11.234  16.075  68.811  1.00  0.00    -0.360 C  
HETATM    6  O   UNL     1     -10.934  16.597  67.591  1.00  0.00    -0.296 OA 
HETATM    7  OXT UNL     1     -10.817  16.539  69.860  1.00  0.00    -0.344 OA 
ENDROOT
BRANCH   2   8
HETATM    8  C   UNL     1     -11.596  13.701  69.536  1.00  0.00    -0.361 C  
BRANCH   8   9
HETATM    9  C   UNL     1     -10.881  12.646  68.725  1.00  0.00    -0.267 A  
HETATM   10  C   UNL     1      -9.569  12.845  68.285  1.00  0.00    -0.212 A  
HETATM   11  C   UNL     1      -8.945  11.915  67.442  1.00  0.00    -0.173 A  
HETATM   12  C   UNL     1      -9.601  10.756  67.005  1.00  0.00    -0.169 A  
HETATM   13  C   UNL     1     -10.884  10.533  67.537  1.00  0.00    -0.357 A  
HETATM   14  C   UNL     1     -11.522  11.462  68.369  1.00  0.00    -0.367 A  
BRANCH  12  15
HETATM   15  N   UNL     1      -9.045   9.874  66.081  1.00  0.00    -0.152 NA 
BRANCH  15  16
HETATM   16  C   UNL     1      -8.397  10.340  64.839  1.00  0.00    -0.172 C  
HETATM   17 CL   UNL     1     -10.784  11.230  63.786  1.00  0.00    -0.447 Cl 
HETATM   18  C   UNL     1      -9.309  10.239  63.613  1.00  0.00    -0.296 C  
ENDBRANCH  15  16
BRANCH  15  19
HETATM   19  C   UNL     1      -9.511   8.468  66.084  1.00  0.00    -0.217 C  
HETATM   20  C   UNL     1      -8.537   7.485  66.748  1.00  0.00    -0.127 C  
HETATM   21 CL   UNL     1      -8.279   7.840  68.477  1.00  0.00    -0.127 Cl 
ENDBRANCH  15  19
ENDBRANCH  12  15
ENDBRANCH   8   9
ENDBRANCH   2   8
TORSDOF 5
ENDMDL
MODEL      142
REMARK 921   NORMALIZED FREE ENERGY PREDICTED BY IDOCK:   -4.03 KCAL/MOL
REMARK 922        TOTAL FREE ENERGY PREDICTED BY IDOCK:   -5.80 KCAL/MOL
REMARK 923 INTER-LIGAND FREE ENERGY PREDICTED BY IDOCK:   -5.27 KCAL/MOL
REMARK 924 INTRA-LIGAND FREE ENERGY PREDICTED BY IDOCK:   -0.53 KCAL/MOL
REMARK 927      BINDING AFFINITY PREDICTED BY RF-SCORE:    0.00 PKD
ROOT
HETATM    1  N   UNL     1      -7.673  20.554  66.157  1.00  0.00    -0.519 NA 
HETATM    2  CA  UNL     1      -8.454  19.338  66.564  1.00  0.00    -0.325 C  
HETATM    3  H1  UNL     1      -8.197  21.205  65.570  1.00  0.00     0.000 HD 
HETATM    4  H2  UNL     1      -6.801  20.284  65.702  1.00  0.00     0.000 HD 
HETATM    5  C   UNL     1      -9.699  19.817  67.328  1.00  0.00    -0.370 C  
HETATM    6  O   UNL     1      -9.820  21.170  67.275  1.00  0.00    -0.298 OA 
HETATM    7  OXT UNL     1     -10.494  19.095  67.907  1.00  0.00    -0.396 OA 
ENDROOT
BRANCH   2   8
HETATM    8  C   UNL     1      -7.665  18.355  67.450  1.00  0.00    -0.226 C  
BRANCH   8   9
HETATM    9  C   UNL     1      -8.273  16.974  67.509  1.00  0.00    -0.192 A  
HETATM   10  C   UNL     1      -8.478  16.332  68.733  1.00  0.00    -0.240 A  
HETATM   11  C   UNL     1      -8.941  15.010  68.783  1.00  0.00    -0.196 A  
HETATM   12  C   UNL     1      -9.215  14.278  67.619  1.00  0.00    -0.194 A  
HETATM   13  C   UNL     1      -9.090  14.977  66.405  1.00  0.00    -0.312 A  
HETATM   14  C   UNL     1      -8.616  16.293  66.343  1.00  0.00    -0.361 A  
BRANCH  12  15
HETATM   15  N   UNL     1      -9.568  12.931  67.637  1.00  0.00    -0.190 NA 
BRANCH  15  16
HETATM   16  C   UNL     1      -8.866  11.922  66.819  1.00  0.00    -0.193 C  
HETATM   17 CL   UNL     1      -7.142  11.281  68.872  1.00  0.00    -0.096 Cl 
HETATM   18  C   UNL     1      -7.384  11.786  67.176  1.00  0.00    -0.146 C  
ENDBRANCH  15  16
BRANCH  15  19
HETATM   19  C   UNL     1     -10.931  12.567  68.090  1.00  0.00    -0.228 C  
HETATM   20  C   UNL     1     -12.057  13.256  67.308  1.00  0.00    -0.289 C  
HETATM   21 CL   UNL     1     -12.062  12.813  65.580  1.00  0.00    -0.501 Cl 
ENDBRANCH  15  19
ENDBRANCH  12  15
ENDBRANCH   8   9
ENDBRANCH   2   8
TORSDOF 5
ENDMDL
MODEL      143
REMARK 921   NORMALIZED FREE ENERGY PREDICTED BY IDOCK:   -4.03 KCAL/MOL
REMARK 922        TOTAL FREE ENERGY PREDICTED BY IDOCK:   -5.79 KCAL/MOL
REMARK 923 INTER-LIGAND FREE ENERGY PREDICTED BY IDOCK:   -5.33 KCAL/MOL
REMARK 924 INTRA-LIGAND FREE ENERGY PREDICTED BY IDOCK:   -0.47 KCAL/MOL
REMARK 927      BINDING AFFINITY PREDICTED BY RF-SCORE:    0.00 PKD
ROOT
HETATM    1  N   UNL     1     -11.417   4.510  64.988  1.00  0.00    -1.108 NA 
HETATM    2  CA  UNL     1     -10.049   4.617  65.600  1.00  0.00    -0.218 C  
HETATM    3  H1  UNL     1     -11.432   4.665  63.979  1.00  0.00     0.000 HD 
HETATM    4  H2  UNL     1     -12.069   5.139  65.457  1.00  0.00     0.000 HD 
HETATM    5  C   UNL     1      -9.149   3.575  64.916  1.00  0.00    -0.137 C  
HETATM    6  O   UNL     1      -9.785   2.986  63.868  1.00  0.00    -0.130 OA 
HETATM    7  OXT UNL     1      -8.007   3.302  65.247  1.00  0.00    -0.081 OA 
ENDROOT
BRANCH   2   8
HETATM    8  C   UNL     1     -10.026   4.383  67.123  1.00  0.00    -0.182 C  
BRANCH   8   9
HETATM    9  C   UNL     1     -10.293   5.632  67.929  1.00  0.00    -0.260 A  
HETATM   10  C   UNL     1     -10.117   6.900  67.366  1.00  0.00    -0.237 A  
HETATM   11  C   UNL     1     -10.259   8.057  68.145  1.00  0.00    -0.251 A  
HETATM   12  C   UNL     1     -10.578   7.997  69.508  1.00  0.00    -0.214 A  
HETATM   13  C   UNL     1     -10.841   6.716  70.026  1.00  0.00    -0.331 A  
HETATM   14  C   UNL     1     -10.689   5.552  69.262  1.00  0.00    -0.288 A  
BRANCH  12  15
HETATM   15  N   UNL     1     -10.615   9.123  70.327  1.00  0.00    -0.210 NA 
BRANCH  15  16
HETATM   16  C   UNL     1     -11.019  10.451  69.823  1.00  0.00    -0.293 C  
HETATM   17 CL   UNL     1     -12.850  10.797  71.855  1.00  0.00    -0.520 Cl 
HETATM   18  C   UNL     1     -12.488  10.777  70.106  1.00  0.00    -0.285 C  
ENDBRANCH  15  16
BRANCH  15  19
HETATM   19  C   UNL     1      -9.804   9.117  71.567  1.00  0.00    -0.265 C  
HETATM   20  C   UNL     1      -8.362   8.629  71.371  1.00  0.00    -0.168 C  
HETATM   21 CL   UNL     1      -7.428   9.676  70.269  1.00  0.00    -0.147 Cl 
ENDBRANCH  15  19
ENDBRANCH  12  15
ENDBRANCH   8   9
ENDBRANCH   2   8
TORSDOF 5
ENDMDL
MODEL      144
REMARK 921   NORMALIZED FREE ENERGY PREDICTED BY IDOCK:   -4.02 KCAL/MOL
REMARK 922        TOTAL FREE ENERGY PREDICTED BY IDOCK:   -5.79 KCAL/MOL
REMARK 923 INTER-LIGAND FREE ENERGY PREDICTED BY IDOCK:   -5.38 KCAL/MOL
REMARK 924 INTRA-LIGAND FREE ENERGY PREDICTED BY IDOCK:   -0.40 KCAL/MOL
REMARK 927      BINDING AFFINITY PREDICTED BY RF-SCORE:    0.00 PKD
ROOT
HETATM    1  N   UNL     1     -12.268  13.939  67.607  1.00  0.00    -0.485 NA 
HETATM    2  CA  UNL     1     -11.453  14.525  66.489  1.00  0.00    -0.362 C  
HETATM    3  H1  UNL     1     -13.190  14.362  67.712  1.00  0.00     0.000 HD 
HETATM    4  H2  UNL     1     -11.752  13.979  68.486  1.00  0.00     0.000 HD 
HETATM    5  C   UNL     1     -12.247  14.338  65.186  1.00  0.00    -0.421 C  
HETATM    6  O   UNL     1     -13.495  13.859  65.433  1.00  0.00    -0.672 OA 
HETATM    7  OXT UNL     1     -11.834  14.588  64.065  1.00  0.00    -0.305 OA 
ENDROOT
BRANCH   2   8
HETATM    8  C   UNL     1     -10.061  13.885  66.329  1.00  0.00    -0.306 C  
BRANCH   8   9
HETATM    9  C   UNL     1     -10.075  12.378  66.424  1.00  0.00    -0.252 A  
HETATM   10  C   UNL     1      -9.974  11.736  67.661  1.00  0.00    -0.204 A  
HETATM   11  C   UNL     1      -9.878  10.339  67.740  1.00  0.00    -0.195 A  
HETATM   12  C   UNL     1      -9.877   9.532  66.595  1.00  0.00    -0.231 A  
HETATM   13  C   UNL     1     -10.074  10.195  65.370  1.00  0.00    -0.342 A  
HETATM   14  C   UNL     1     -10.158  11.590  65.278  1.00  0.00    -0.314 A  
BRANCH  12  15
HETATM   15  N   UNL     1      -9.671   8.155  66.639  1.00  0.00    -0.230 NA 
BRANCH  15  16
HETATM   16  C   UNL     1     -10.741   7.211  67.021  1.00  0.00    -0.350 C  
HETATM   17 CL   UNL     1     -10.028   7.294  69.683  1.00  0.00    -0.174 Cl 
HETATM   18  C   UNL     1     -10.365   6.332  68.217  1.00  0.00    -0.194 C  
ENDBRANCH  15  16
BRANCH  15  19
HETATM   19  C   UNL     1      -8.284   7.655  66.776  1.00  0.00    -0.124 C  
HETATM   20  C   UNL     1      -7.807   6.796  65.596  1.00  0.00    -0.105 C  
HETATM   21 CL   UNL     1      -7.773   7.701  64.059  1.00  0.00    -0.120 Cl 
ENDBRANCH  15  19
ENDBRANCH  12  15
ENDBRANCH   8   9
ENDBRANCH   2   8
TORSDOF 5
ENDMDL
MODEL      145
REMARK 921   NORMALIZED FREE ENERGY PREDICTED BY IDOCK:   -4.02 KCAL/MOL
REMARK 922        TOTAL FREE ENERGY PREDICTED BY IDOCK:   -5.78 KCAL/MOL
REMARK 923 INTER-LIGAND FREE ENERGY PREDICTED BY IDOCK:   -4.96 KCAL/MOL
REMARK 924 INTRA-LIGAND FREE ENERGY PREDICTED BY IDOCK:   -0.82 KCAL/MOL
REMARK 927      BINDING AFFINITY PREDICTED BY RF-SCORE:    0.00 PKD
ROOT
HETATM    1  N   UNL     1     -10.188  17.455  68.719  1.00  0.00    -0.346 NA 
HETATM    2  CA  UNL     1     -10.208  16.537  67.531  1.00  0.00    -0.283 C  
HETATM    3  H1  UNL     1      -9.412  18.118  68.717  1.00  0.00     0.000 HD 
HETATM    4  H2  UNL     1     -10.198  16.918  69.587  1.00  0.00     0.000 HD 
HETATM    5  C   UNL     1     -10.295  17.410  66.269  1.00  0.00    -0.330 C  
HETATM    6  O   UNL     1     -10.164  18.729  66.571  1.00  0.00    -0.362 OA 
HETATM    7  OXT UNL     1     -10.451  16.995  65.132  1.00  0.00    -0.667 OA 
ENDROOT
BRANCH   2   8
HETATM    8  C   UNL     1     -11.379  15.536  67.534  1.00  0.00    -0.232 C  
BRANCH   8   9
HETATM    9  C   UNL     1     -10.941  14.097  67.672  1.00  0.00    -0.278 A  
HETATM   10  C   UNL     1     -11.880  13.074  67.837  1.00  0.00    -0.389 A  
HETATM   11  C   UNL     1     -11.470  11.754  68.074  1.00  0.00    -0.388 A  
HETATM   12  C   UNL     1     -10.116  11.404  68.158  1.00  0.00    -0.189 A  
HETATM   13  C   UNL     1      -9.193  12.433  67.896  1.00  0.00    -0.192 A  
HETATM   14  C   UNL     1      -9.590  13.757  67.671  1.00  0.00    -0.219 A  
BRANCH  12  15
HETATM   15  N   UNL     1      -9.684  10.125  68.502  1.00  0.00    -0.150 NA 
BRANCH  15  16
HETATM   16  C   UNL     1     -10.130   8.921  67.773  1.00  0.00    -0.210 C  
HETATM   17 CL   UNL     1      -7.873   8.896  66.191  1.00  0.00    -0.101 Cl 
HETATM   18  C   UNL     1      -9.655   8.890  66.318  1.00  0.00    -0.260 C  
ENDBRANCH  15  16
BRANCH  15  19
HETATM   19  C   UNL     1      -9.169   9.902  69.872  1.00  0.00    -0.212 C  
HETATM   20  C   UNL     1      -7.787   9.236  69.923  1.00  0.00    -0.109 C  
HETATM   21 CL   UNL     1      -6.518  10.231  69.160  1.00  0.00    -0.048 Cl 
ENDBRANCH  15  19
ENDBRANCH  12  15
ENDBRANCH   8   9
ENDBRANCH   2   8
TORSDOF 5
ENDMDL
MODEL      146
REMARK 921   NORMALIZED FREE ENERGY PREDICTED BY IDOCK:   -4.01 KCAL/MOL
REMARK 922        TOTAL FREE ENERGY PREDICTED BY IDOCK:   -5.78 KCAL/MOL
REMARK 923 INTER-LIGAND FREE ENERGY PREDICTED BY IDOCK:   -5.06 KCAL/MOL
REMARK 924 INTRA-LIGAND FREE ENERGY PREDICTED BY IDOCK:   -0.71 KCAL/MOL
REMARK 927      BINDING AFFINITY PREDICTED BY RF-SCORE:    0.00 PKD
ROOT
HETATM    1  N   UNL     1     -10.068  11.574  69.189  1.00  0.00    -0.417 NA 
HETATM    2  CA  UNL     1     -10.341  12.426  67.982  1.00  0.00    -0.216 C  
HETATM    3  H1  UNL     1     -10.863  11.491  69.824  1.00  0.00     0.000 HD 
HETATM    4  H2  UNL     1      -9.245  11.912  69.687  1.00  0.00     0.000 HD 
HETATM    5  C   UNL     1     -11.527  11.802  67.229  1.00  0.00    -0.303 C  
HETATM    6  O   UNL     1     -12.080  10.782  67.938  1.00  0.00    -0.407 OA 
HETATM    7  OXT UNL     1     -11.941  12.163  66.139  1.00  0.00    -0.593 OA 
ENDROOT
BRANCH   2   8
HETATM    8  C   UNL     1      -9.143  12.552  67.022  1.00  0.00    -0.213 C  
BRANCH   8   9
HETATM    9  C   UNL     1      -8.627  13.966  66.884  1.00  0.00    -0.138 A  
HETATM   10  C   UNL     1      -7.459  14.370  67.535  1.00  0.00    -0.206 A  
HETATM   11  C   UNL     1      -7.040  15.708  67.496  1.00  0.00    -0.214 A  
HETATM   12  C   UNL     1      -7.767  16.690  66.811  1.00  0.00    -0.257 A  
HETATM   13  C   UNL     1      -8.887  16.240  66.088  1.00  0.00    -0.362 A  
HETATM   14  C   UNL     1      -9.322  14.910  66.131  1.00  0.00    -0.307 A  
BRANCH  12  15
HETATM   15  N   UNL     1      -7.436  18.042  66.849  1.00  0.00    -0.203 NA 
BRANCH  15  16
HETATM   16  C   UNL     1      -7.131  18.743  68.113  1.00  0.00    -0.250 C  
HETATM   17 CL   UNL     1      -9.675  18.336  69.092  1.00  0.00    -0.194 Cl 
HETATM   18  C   UNL     1      -8.344  19.463  68.707  1.00  0.00    -0.344 C  
ENDBRANCH  15  16
BRANCH  15  19
HETATM   19  C   UNL     1      -7.846  18.899  65.713  1.00  0.00     0.052 C  
HETATM   20  C   UNL     1      -6.721  19.780  65.153  1.00  0.00    -0.250 C  
HETATM   21 CL   UNL     1      -5.371  18.824  64.485  1.00  0.00    -0.242 Cl 
ENDBRANCH  15  19
ENDBRANCH  12  15
ENDBRANCH   8   9
ENDBRANCH   2   8
TORSDOF 5
ENDMDL
MODEL      147
REMARK 921   NORMALIZED FREE ENERGY PREDICTED BY IDOCK:   -4.00 KCAL/MOL
REMARK 922        TOTAL FREE ENERGY PREDICTED BY IDOCK:   -5.76 KCAL/MOL
REMARK 923 INTER-LIGAND FREE ENERGY PREDICTED BY IDOCK:   -5.04 KCAL/MOL
REMARK 924 INTRA-LIGAND FREE ENERGY PREDICTED BY IDOCK:   -0.72 KCAL/MOL
REMARK 927      BINDING AFFINITY PREDICTED BY RF-SCORE:    0.00 PKD
ROOT
HETATM    1  N   UNL     1     -12.453  15.241  68.963  1.00  0.00    -0.577 NA 
HETATM    2  CA  UNL     1     -11.404  14.331  68.391  1.00  0.00    -0.283 C  
HETATM    3  H1  UNL     1     -12.075  16.054  69.451  1.00  0.00     0.000 HD 
HETATM    4  H2  UNL     1     -13.086  14.720  69.571  1.00  0.00     0.000 HD 
HETATM    5  C   UNL     1     -10.554  15.157  67.412  1.00  0.00    -0.271 C  
HETATM    6  O   UNL     1     -10.880  16.476  67.466  1.00  0.00    -0.313 OA 
HETATM    7  OXT UNL     1      -9.688  14.710  66.678  1.00  0.00    -0.248 OA 
ENDROOT
BRANCH   2   8
HETATM    8  C   UNL     1     -11.974  13.104  67.655  1.00  0.00    -0.363 C  
BRANCH   8   9
HETATM    9  C   UNL     1     -11.307  11.805  68.042  1.00  0.00    -0.355 A  
HETATM   10  C   UNL     1     -10.571  11.070  67.109  1.00  0.00    -0.294 A  
HETATM   11  C   UNL     1     -10.045   9.813  67.438  1.00  0.00    -0.259 A  
HETATM   12  C   UNL     1     -10.232   9.241  68.704  1.00  0.00    -0.199 A  
HETATM   13  C   UNL     1     -10.895  10.041  69.652  1.00  0.00    -0.292 A  
HETATM   14  C   UNL     1     -11.436  11.292  69.331  1.00  0.00    -0.370 A  
BRANCH  12  15
HETATM   15  N   UNL     1      -9.816   7.950  69.020  1.00  0.00    -0.167 NA 
BRANCH  15  16
HETATM   16  C   UNL     1     -10.739   6.797  68.995  1.00  0.00    -0.246 C  
HETATM   17 CL   UNL     1      -9.543   5.736  66.749  1.00  0.00    -0.151 Cl 
HETATM   18  C   UNL     1     -11.025   6.289  67.579  1.00  0.00    -0.350 C  
ENDBRANCH  15  16
BRANCH  15  19
HETATM   19  C   UNL     1      -8.594   7.786  69.840  1.00  0.00    -0.137 C  
HETATM   20  C   UNL     1      -7.442   7.078  69.115  1.00  0.00    -0.095 C  
HETATM   21 CL   UNL     1      -6.868   7.986  67.691  1.00  0.00    -0.068 Cl 
ENDBRANCH  15  19
ENDBRANCH  12  15
ENDBRANCH   8   9
ENDBRANCH   2   8
TORSDOF 5
ENDMDL
MODEL      148
REMARK 921   NORMALIZED FREE ENERGY PREDICTED BY IDOCK:   -4.00 KCAL/MOL
REMARK 922        TOTAL FREE ENERGY PREDICTED BY IDOCK:   -5.76 KCAL/MOL
REMARK 923 INTER-LIGAND FREE ENERGY PREDICTED BY IDOCK:   -5.13 KCAL/MOL
REMARK 924 INTRA-LIGAND FREE ENERGY PREDICTED BY IDOCK:   -0.63 KCAL/MOL
REMARK 927      BINDING AFFINITY PREDICTED BY RF-SCORE:    0.00 PKD
ROOT
HETATM    1  N   UNL     1     -12.822   7.011  70.486  1.00  0.00    -0.515 NA 
HETATM    2  CA  UNL     1     -11.592   6.644  71.265  1.00  0.00    -0.323 C  
HETATM    3  H1  UNL     1     -13.685   6.962  71.029  1.00  0.00     0.000 HD 
HETATM    4  H2  UNL     1     -12.895   6.442  69.643  1.00  0.00     0.000 HD 
HETATM    5  C   UNL     1     -11.492   7.606  72.460  1.00  0.00    -0.352 C  
HETATM    6  O   UNL     1     -12.603   8.384  72.562  1.00  0.00    -0.345 OA 
HETATM    7  OXT UNL     1     -10.553   7.674  73.236  1.00  0.00    -0.365 OA 
ENDROOT
BRANCH   2   8
HETATM    8  C   UNL     1     -10.288   6.719  70.447  1.00  0.00    -0.223 C  
BRANCH   8   9
HETATM    9  C   UNL     1     -10.214   7.925  69.540  1.00  0.00    -0.208 A  
HETATM   10  C   UNL     1     -10.473   7.811  68.172  1.00  0.00    -0.230 A  
HETATM   11  C   UNL     1     -10.299   8.906  67.313  1.00  0.00    -0.350 A  
HETATM   12  C   UNL     1      -9.860  10.151  67.783  1.00  0.00    -0.163 A  
HETATM   13  C   UNL     1      -9.697  10.265  69.175  1.00  0.00    -0.229 A  
HETATM   14  C   UNL     1      -9.855   9.175  70.040  1.00  0.00    -0.217 A  
BRANCH  12  15
HETATM   15  N   UNL     1      -9.572  11.220  66.938  1.00  0.00    -0.188 NA 
BRANCH  15  16
HETATM   16  C   UNL     1      -8.215  11.793  66.827  1.00  0.00    -0.147 C  
HETATM   17 CL   UNL     1      -7.517  10.054  64.805  1.00  0.00    -0.140 Cl 
HETATM   18  C   UNL     1      -7.163  10.764  66.406  1.00  0.00    -0.138 C  
ENDBRANCH  15  16
BRANCH  15  19
HETATM   19  C   UNL     1     -10.685  12.099  66.512  1.00  0.00    -0.255 C  
HETATM   20  C   UNL     1     -10.636  12.501  65.032  1.00  0.00    -0.300 C  
HETATM   21 CL   UNL     1     -10.771  11.099  63.936  1.00  0.00    -0.444 Cl 
ENDBRANCH  15  19
ENDBRANCH  12  15
ENDBRANCH   8   9
ENDBRANCH   2   8
TORSDOF 5
ENDMDL
MODEL      149
REMARK 921   NORMALIZED FREE ENERGY PREDICTED BY IDOCK:   -3.95 KCAL/MOL
REMARK 922        TOTAL FREE ENERGY PREDICTED BY IDOCK:   -5.70 KCAL/MOL
REMARK 923 INTER-LIGAND FREE ENERGY PREDICTED BY IDOCK:   -5.33 KCAL/MOL
REMARK 924 INTRA-LIGAND FREE ENERGY PREDICTED BY IDOCK:   -0.38 KCAL/MOL
REMARK 927      BINDING AFFINITY PREDICTED BY RF-SCORE:    0.00 PKD
ROOT
HETATM    1  N   UNL     1      -5.509  17.021  66.467  1.00  0.00    -0.330 NA 
HETATM    2  CA  UNL     1      -5.980  18.447  66.479  1.00  0.00    -0.156 C  
HETATM    3  H1  UNL     1      -4.557  16.896  66.811  1.00  0.00     0.000 HD 
HETATM    4  H2  UNL     1      -5.609  16.619  65.534  1.00  0.00     0.000 HD 
HETATM    5  C   UNL     1      -5.896  18.953  67.928  1.00  0.00    -0.198 C  
HETATM    6  O   UNL     1      -5.282  18.046  68.733  1.00  0.00    -0.159 OA 
HETATM    7  OXT UNL     1      -6.312  20.029  68.325  1.00  0.00    -0.249 OA 
ENDROOT
BRANCH   2   8
HETATM    8  C   UNL     1      -7.418  18.636  65.960  1.00  0.00    -0.265 C  
BRANCH   8   9
HETATM    9  C   UNL     1      -8.424  17.728  66.628  1.00  0.00    -0.283 A  
HETATM   10  C   UNL     1      -9.245  18.200  67.655  1.00  0.00    -0.259 A  
HETATM   11  C   UNL     1     -10.100  17.332  68.349  1.00  0.00    -0.333 A  
HETATM   12  C   UNL     1     -10.168  15.965  68.048  1.00  0.00    -0.238 A  
HETATM   13  C   UNL     1      -9.402  15.534  66.950  1.00  0.00    -0.252 A  
HETATM   14  C   UNL     1      -8.535  16.389  66.259  1.00  0.00    -0.372 A  
BRANCH  12  15
HETATM   15  N   UNL     1     -10.924  15.062  68.793  1.00  0.00    -0.245 NA 
BRANCH  15  16
HETATM   16  C   UNL     1     -10.607  13.621  68.841  1.00  0.00    -0.190 C  
HETATM   17 CL   UNL     1     -11.874  13.139  66.441  1.00  0.00    -0.430 Cl 
HETATM   18  C   UNL     1     -11.673  12.750  68.173  1.00  0.00    -0.345 C  
ENDBRANCH  15  16
BRANCH  15  19
HETATM   19  C   UNL     1     -12.312  15.434  69.150  1.00  0.00    -0.052 C  
HETATM   20  C   UNL     1     -12.655  15.232  70.632  1.00  0.00    -0.417 C  
HETATM   21 CL   UNL     1     -11.663  16.250  71.710  1.00  0.00    -0.553 Cl 
ENDBRANCH  15  19
ENDBRANCH  12  15
ENDBRANCH   8   9
ENDBRANCH   2   8
TORSDOF 5
ENDMDL
MODEL      150
REMARK 921   NORMALIZED FREE ENERGY PREDICTED BY IDOCK:   -3.93 KCAL/MOL
REMARK 922        TOTAL FREE ENERGY PREDICTED BY IDOCK:   -5.67 KCAL/MOL
REMARK 923 INTER-LIGAND FREE ENERGY PREDICTED BY IDOCK:   -5.22 KCAL/MOL
REMARK 924 INTRA-LIGAND FREE ENERGY PREDICTED BY IDOCK:   -0.45 KCAL/MOL
REMARK 927      BINDING AFFINITY PREDICTED BY RF-SCORE:    0.00 PKD
ROOT
HETATM    1  N   UNL     1     -11.316  13.848  70.424  1.00  0.00    -0.495 NA 
HETATM    2  CA  UNL     1     -12.590  13.092  70.672  1.00  0.00    -0.193 C  
HETATM    3  H1  UNL     1     -11.445  14.855  70.323  1.00  0.00     0.000 HD 
HETATM    4  H2  UNL     1     -10.825  13.466  69.615  1.00  0.00     0.000 HD 
HETATM    5  C   UNL     1     -13.221  13.651  71.958  1.00  0.00    -0.434 C  
HETATM    6  O   UNL     1     -12.551  14.749  72.399  1.00  0.00    -0.324 OA 
HETATM    7  OXT UNL     1     -14.200  13.191  72.522  1.00  0.00    -0.654 OA 
ENDROOT
BRANCH   2   8
HETATM    8  C   UNL     1     -12.395  11.571  70.825  1.00  0.00    -0.472 C  
BRANCH   8   9
HETATM    9  C   UNL     1     -11.504  10.968  69.764  1.00  0.00    -0.387 A  
HETATM   10  C   UNL     1     -11.859  11.023  68.413  1.00  0.00    -0.254 A  
HETATM   11  C   UNL     1     -11.089  10.369  67.441  1.00  0.00    -0.297 A  
HETATM   12  C   UNL     1      -9.941   9.639  67.775  1.00  0.00    -0.171 A  
HETATM   13  C   UNL     1      -9.554   9.679  69.127  1.00  0.00    -0.176 A  
HETATM   14  C   UNL     1     -10.322  10.316  70.108  1.00  0.00    -0.210 A  
BRANCH  12  15
HETATM   15  N   UNL     1      -9.222   8.891  66.846  1.00  0.00    -0.142 NA 
BRANCH  15  16
HETATM   16  C   UNL     1      -8.675   7.556  67.163  1.00  0.00    -0.121 C  
HETATM   17 CL   UNL     1     -11.140   6.350  66.895  1.00  0.00    -0.433 Cl 
HETATM   18  C   UNL     1      -9.681   6.652  67.880  1.00  0.00    -0.122 C  
ENDBRANCH  15  16
BRANCH  15  19
HETATM   19  C   UNL     1      -8.587   9.600  65.711  1.00  0.00    -0.136 C  
HETATM   20  C   UNL     1      -7.625  10.720  66.131  1.00  0.00    -0.139 C  
HETATM   21 CL   UNL     1      -6.236  10.113  67.071  1.00  0.00    -0.062 Cl 
ENDBRANCH  15  19
ENDBRANCH  12  15
ENDBRANCH   8   9
ENDBRANCH   2   8
TORSDOF 5
ENDMDL
MODEL      151
REMARK 921   NORMALIZED FREE ENERGY PREDICTED BY IDOCK:   -3.92 KCAL/MOL
REMARK 922        TOTAL FREE ENERGY PREDICTED BY IDOCK:   -5.66 KCAL/MOL
REMARK 923 INTER-LIGAND FREE ENERGY PREDICTED BY IDOCK:   -5.98 KCAL/MOL
REMARK 924 INTRA-LIGAND FREE ENERGY PREDICTED BY IDOCK:    0.32 KCAL/MOL
REMARK 927      BINDING AFFINITY PREDICTED BY RF-SCORE:    0.00 PKD
ROOT
HETATM    1  N   UNL     1     -12.382  14.936  68.948  1.00  0.00    -0.588 NA 
HETATM    2  CA  UNL     1     -12.678  15.266  70.383  1.00  0.00    -0.356 C  
HETATM    3  H1  UNL     1     -11.822  15.641  68.469  1.00  0.00     0.000 HD 
HETATM    4  H2  UNL     1     -13.246  14.756  68.437  1.00  0.00     0.000 HD 
HETATM    5  C   UNL     1     -11.334  15.423  71.113  1.00  0.00    -0.378 C  
HETATM    6  O   UNL     1     -10.292  15.384  70.240  1.00  0.00    -0.289 OA 
HETATM    7  OXT UNL     1     -11.196  15.574  72.315  1.00  0.00    -0.370 OA 
ENDROOT
BRANCH   2   8
HETATM    8  C   UNL     1     -13.524  14.201  71.108  1.00  0.00    -0.293 C  
BRANCH   8   9
HETATM    9  C   UNL     1     -12.945  12.809  71.020  1.00  0.00    -0.166 A  
HETATM   10  C   UNL     1     -13.270  11.835  71.968  1.00  0.00    -0.460 A  
HETATM   11  C   UNL     1     -12.649  10.578  71.950  1.00  0.00    -0.349 A  
HETATM   12  C   UNL     1     -11.684  10.244  70.991  1.00  0.00    -0.370 A  
HETATM   13  C   UNL     1     -11.444  11.206  69.993  1.00  0.00    -0.376 A  
HETATM   14  C   UNL     1     -12.048  12.470  70.009  1.00  0.00    -0.337 A  
BRANCH  12  15
HETATM   15  N   UNL     1     -10.973   9.047  71.016  1.00  0.00    -0.260 NA 
BRANCH  15  16
HETATM   16  C   UNL     1      -9.671   8.918  71.701  1.00  0.00    -0.309 C  
HETATM   17 CL   UNL     1      -8.291   9.880  69.517  1.00  0.00    -0.155 Cl 
HETATM   18  C   UNL     1      -8.519   8.602  70.744  1.00  0.00    -0.158 C  
ENDBRANCH  15  16
BRANCH  15  19
HETATM   19  C   UNL     1     -11.261   8.035  69.974  1.00  0.00    -0.090 C  
HETATM   20  C   UNL     1     -11.931   6.760  70.504  1.00  0.00    -0.328 C  
HETATM   21 CL   UNL     1     -13.530   7.077  71.228  1.00  0.00    -0.350 Cl 
ENDBRANCH  15  19
ENDBRANCH  12  15
ENDBRANCH   8   9
ENDBRANCH   2   8
TORSDOF 5
ENDMDL
MODEL      152
REMARK 921   NORMALIZED FREE ENERGY PREDICTED BY IDOCK:   -3.92 KCAL/MOL
REMARK 922        TOTAL FREE ENERGY PREDICTED BY IDOCK:   -5.66 KCAL/MOL
REMARK 923 INTER-LIGAND FREE ENERGY PREDICTED BY IDOCK:   -5.55 KCAL/MOL
REMARK 924 INTRA-LIGAND FREE ENERGY PREDICTED BY IDOCK:   -0.10 KCAL/MOL
REMARK 927      BINDING AFFINITY PREDICTED BY RF-SCORE:    0.00 PKD
ROOT
HETATM    1  N   UNL     1     -11.139   6.275  66.601  1.00  0.00    -0.748 NA 
HETATM    2  CA  UNL     1      -9.728   6.672  66.929  1.00  0.00    -0.164 C  
HETATM    3  H1  UNL     1     -11.210   5.568  65.868  1.00  0.00     0.000 HD 
HETATM    4  H2  UNL     1     -11.696   7.096  66.362  1.00  0.00     0.000 HD 
HETATM    5  C   UNL     1      -8.980   5.406  67.376  1.00  0.00    -0.108 C  
HETATM    6  O   UNL     1      -9.739   4.293  67.193  1.00  0.00    -0.196 OA 
HETATM    7  OXT UNL     1      -7.848   5.377  67.831  1.00  0.00    -0.091 OA 
ENDROOT
BRANCH   2   8
HETATM    8  C   UNL     1      -9.620   7.739  68.035  1.00  0.00    -0.166 C  
BRANCH   8   9
HETATM    9  C   UNL     1      -9.999   9.127  67.573  1.00  0.00    -0.258 A  
HETATM   10  C   UNL     1     -11.074   9.807  68.150  1.00  0.00    -0.169 A  
HETATM   11  C   UNL     1     -11.493  11.047  67.648  1.00  0.00    -0.303 A  
HETATM   12  C   UNL     1     -10.860  11.654  66.555  1.00  0.00    -0.284 A  
HETATM   13  C   UNL     1      -9.724  10.994  66.053  1.00  0.00    -0.265 A  
HETATM   14  C   UNL     1      -9.305   9.749  66.538  1.00  0.00    -0.207 A  
BRANCH  12  15
HETATM   15  N   UNL     1     -11.324  12.829  65.967  1.00  0.00    -0.306 NA 
BRANCH  15  16
HETATM   16  C   UNL     1     -10.820  13.310  64.665  1.00  0.00    -0.382 C  
HETATM   17 CL   UNL     1     -12.817  12.013  63.277  1.00  0.00    -0.533 Cl 
HETATM   18  C   UNL     1     -11.076  12.325  63.522  1.00  0.00    -0.464 C  
ENDBRANCH  15  16
BRANCH  15  19
HETATM   19  C   UNL     1     -11.956  13.847  66.836  1.00  0.00    -0.433 C  
HETATM   20  C   UNL     1     -11.069  14.322  67.996  1.00  0.00    -0.269 C  
HETATM   21 CL   UNL     1      -9.578  15.124  67.433  1.00  0.00    -0.207 Cl 
ENDBRANCH  15  19
ENDBRANCH  12  15
ENDBRANCH   8   9
ENDBRANCH   2   8
TORSDOF 5
ENDMDL
MODEL      153
REMARK 921   NORMALIZED FREE ENERGY PREDICTED BY IDOCK:   -3.91 KCAL/MOL
REMARK 922        TOTAL FREE ENERGY PREDICTED BY IDOCK:   -5.65 KCAL/MOL
REMARK 923 INTER-LIGAND FREE ENERGY PREDICTED BY IDOCK:   -5.11 KCAL/MOL
REMARK 924 INTRA-LIGAND FREE ENERGY PREDICTED BY IDOCK:   -0.54 KCAL/MOL
REMARK 927      BINDING AFFINITY PREDICTED BY RF-SCORE:    0.00 PKD
ROOT
HETATM    1  N   UNL     1     -12.474  14.770  67.609  1.00  0.00    -0.362 NA 
HETATM    2  CA  UNL     1     -12.158  15.024  69.055  1.00  0.00    -0.208 C  
HETATM    3  H1  UNL     1     -12.846  15.584  67.118  1.00  0.00     0.000 HD 
HETATM    4  H2  UNL     1     -13.106  13.975  67.515  1.00  0.00     0.000 HD 
HETATM    5  C   UNL     1     -11.128  16.164  69.114  1.00  0.00    -0.329 C  
HETATM    6  O   UNL     1     -10.928  16.712  67.886  1.00  0.00    -0.342 OA 
HETATM    7  OXT UNL     1     -10.558  16.549  70.122  1.00  0.00    -0.231 OA 
ENDROOT
BRANCH   2   8
HETATM    8  C   UNL     1     -11.596  13.796  69.797  1.00  0.00    -0.324 C  
BRANCH   8   9
HETATM    9  C   UNL     1     -11.038  12.738  68.875  1.00  0.00    -0.310 A  
HETATM   10  C   UNL     1      -9.886  12.978  68.121  1.00  0.00    -0.228 A  
HETATM   11  C   UNL     1      -9.431  12.038  67.185  1.00  0.00    -0.187 A  
HETATM   12  C   UNL     1     -10.104  10.829  66.963  1.00  0.00    -0.208 A  
HETATM   13  C   UNL     1     -11.205  10.572  67.800  1.00  0.00    -0.344 A  
HETATM   14  C   UNL     1     -11.677  11.508  68.728  1.00  0.00    -0.397 A  
BRANCH  12  15
HETATM   15  N   UNL     1      -9.738   9.931  65.964  1.00  0.00    -0.228 NA 
BRANCH  15  16
HETATM   16  C   UNL     1      -9.786   8.469  66.164  1.00  0.00    -0.189 C  
HETATM   17 CL   UNL     1      -7.746   8.535  68.017  1.00  0.00    -0.101 Cl 
HETATM   18  C   UNL     1      -8.421   7.866  66.505  1.00  0.00    -0.134 C  
ENDBRANCH  15  16
BRANCH  15  19
HETATM   19  C   UNL     1      -8.853  10.410  64.878  1.00  0.00    -0.190 C  
HETATM   20  C   UNL     1      -9.529  10.478  63.501  1.00  0.00    -0.312 C  
HETATM   21 CL   UNL     1     -10.892  11.629  63.464  1.00  0.00    -0.483 Cl 
ENDBRANCH  15  19
ENDBRANCH  12  15
ENDBRANCH   8   9
ENDBRANCH   2   8
TORSDOF 5
ENDMDL
MODEL      154
REMARK 921   NORMALIZED FREE ENERGY PREDICTED BY IDOCK:   -3.91 KCAL/MOL
REMARK 922        TOTAL FREE ENERGY PREDICTED BY IDOCK:   -5.64 KCAL/MOL
REMARK 923 INTER-LIGAND FREE ENERGY PREDICTED BY IDOCK:   -5.14 KCAL/MOL
REMARK 924 INTRA-LIGAND FREE ENERGY PREDICTED BY IDOCK:   -0.50 KCAL/MOL
REMARK 927      BINDING AFFINITY PREDICTED BY RF-SCORE:    0.00 PKD
ROOT
HETATM    1  N   UNL     1     -11.064   3.874  64.551  1.00  0.00    -0.750 NA 
HETATM    2  CA  UNL     1     -10.069   4.640  65.376  1.00  0.00    -0.148 C  
HETATM    3  H1  UNL     1     -11.239   4.281  63.632  1.00  0.00     0.000 HD 
HETATM    4  H2  UNL     1     -11.938   3.756  65.063  1.00  0.00     0.000 HD 
HETATM    5  C   UNL     1      -8.750   4.691  64.588  1.00  0.00    -0.151 C  
HETATM    6  O   UNL     1      -8.905   4.187  63.335  1.00  0.00    -0.106 OA 
HETATM    7  OXT UNL     1      -7.692   5.129  65.009  1.00  0.00    -0.080 OA 
ENDROOT
BRANCH   2   8
HETATM    8  C   UNL     1      -9.804   4.026  66.765  1.00  0.00    -0.163 C  
BRANCH   8   9
HETATM    9  C   UNL     1     -10.111   4.966  67.907  1.00  0.00    -0.146 A  
HETATM   10  C   UNL     1      -9.750   4.644  69.218  1.00  0.00    -0.266 A  
HETATM   11  C   UNL     1     -10.130   5.463  70.291  1.00  0.00    -0.318 A  
HETATM   12  C   UNL     1     -10.883   6.629  70.099  1.00  0.00    -0.279 A  
HETATM   13  C   UNL     1     -11.152   6.980  68.764  1.00  0.00    -0.092 A  
HETATM   14  C   UNL     1     -10.789   6.163  67.686  1.00  0.00    -0.421 A  
BRANCH  12  15
HETATM   15  N   UNL     1     -11.367   7.400  71.154  1.00  0.00    -0.262 NA 
BRANCH  15  16
HETATM   16  C   UNL     1     -10.504   7.841  72.268  1.00  0.00    -0.246 C  
HETATM   17 CL   UNL     1      -9.110   9.587  70.654  1.00  0.00    -0.285 Cl 
HETATM   18  C   UNL     1      -9.095   8.231  71.816  1.00  0.00    -0.193 C  
ENDBRANCH  15  16
BRANCH  15  19
HETATM   19  C   UNL     1     -12.823   7.382  71.427  1.00  0.00    -0.365 C  
HETATM   20  C   UNL     1     -13.346   8.644  72.125  1.00  0.00    -0.396 C  
HETATM   21 CL   UNL     1     -13.127  10.114  71.137  1.00  0.00    -0.470 Cl 
ENDBRANCH  15  19
ENDBRANCH  12  15
ENDBRANCH   8   9
ENDBRANCH   2   8
TORSDOF 5
ENDMDL
MODEL      155
REMARK 921   NORMALIZED FREE ENERGY PREDICTED BY IDOCK:   -3.91 KCAL/MOL
REMARK 922        TOTAL FREE ENERGY PREDICTED BY IDOCK:   -5.64 KCAL/MOL
REMARK 923 INTER-LIGAND FREE ENERGY PREDICTED BY IDOCK:   -5.54 KCAL/MOL
REMARK 924 INTRA-LIGAND FREE ENERGY PREDICTED BY IDOCK:   -0.10 KCAL/MOL
REMARK 927      BINDING AFFINITY PREDICTED BY RF-SCORE:    0.00 PKD
ROOT
HETATM    1  N   UNL     1     -10.702   9.115  71.705  1.00  0.00    -0.366 NA 
HETATM    2  CA  UNL     1     -12.147   9.020  72.102  1.00  0.00    -0.342 C  
HETATM    3  H1  UNL     1     -10.126   8.347  72.052  1.00  0.00     0.000 HD 
HETATM    4  H2  UNL     1     -10.310  10.013  71.990  1.00  0.00     0.000 HD 
HETATM    5  C   UNL     1     -12.695   7.692  71.554  1.00  0.00    -0.345 C  
HETATM    6  O   UNL     1     -11.701   6.929  71.026  1.00  0.00    -0.307 OA 
HETATM    7  OXT UNL     1     -13.863   7.343  71.587  1.00  0.00    -0.385 OA 
ENDROOT
BRANCH   2   8
HETATM    8  C   UNL     1     -13.016  10.179  71.579  1.00  0.00    -0.547 C  
BRANCH   8   9
HETATM    9  C   UNL     1     -12.395  10.922  70.420  1.00  0.00    -0.436 A  
HETATM   10  C   UNL     1     -12.034  10.251  69.248  1.00  0.00    -0.005 A  
HETATM   11  C   UNL     1     -11.359  10.919  68.216  1.00  0.00    -0.374 A  
HETATM   12  C   UNL     1     -11.018  12.275  68.312  1.00  0.00    -0.232 A  
HETATM   13  C   UNL     1     -11.476  12.949  69.459  1.00  0.00    -0.292 A  
HETATM   14  C   UNL     1     -12.139  12.289  70.501  1.00  0.00    -0.371 A  
BRANCH  12  15
HETATM   15  N   UNL     1     -10.253  12.933  67.353  1.00  0.00    -0.228 NA 
BRANCH  15  16
HETATM   16  C   UNL     1      -8.893  13.435  67.638  1.00  0.00    -0.200 C  
HETATM   17 CL   UNL     1      -7.709  11.178  66.588  1.00  0.00    -0.152 Cl 
HETATM   18  C   UNL     1      -7.895  12.317  67.951  1.00  0.00    -0.146 C  
ENDBRANCH  15  16
BRANCH  15  19
HETATM   19  C   UNL     1     -10.949  13.560  66.206  1.00  0.00    -0.289 C  
HETATM   20  C   UNL     1     -11.831  14.758  66.586  1.00  0.00    -0.242 C  
HETATM   21 CL   UNL     1     -10.894  16.103  67.289  1.00  0.00    -0.281 Cl 
ENDBRANCH  15  19
ENDBRANCH  12  15
ENDBRANCH   8   9
ENDBRANCH   2   8
TORSDOF 5
ENDMDL
MODEL      156
REMARK 921   NORMALIZED FREE ENERGY PREDICTED BY IDOCK:   -3.86 KCAL/MOL
REMARK 922        TOTAL FREE ENERGY PREDICTED BY IDOCK:   -5.58 KCAL/MOL
REMARK 923 INTER-LIGAND FREE ENERGY PREDICTED BY IDOCK:   -4.80 KCAL/MOL
REMARK 924 INTRA-LIGAND FREE ENERGY PREDICTED BY IDOCK:   -0.78 KCAL/MOL
REMARK 927      BINDING AFFINITY PREDICTED BY RF-SCORE:    0.00 PKD
ROOT
HETATM    1  N   UNL     1     -11.937   8.435  70.827  1.00  0.00    -0.469 NA 
HETATM    2  CA  UNL     1     -11.754   9.905  71.075  1.00  0.00    -0.382 C  
HETATM    3  H1  UNL     1     -12.049   7.883  71.678  1.00  0.00     0.000 HD 
HETATM    4  H2  UNL     1     -11.172   8.070  70.260  1.00  0.00     0.000 HD 
HETATM    5  C   UNL     1     -12.987  10.406  71.844  1.00  0.00    -0.450 C  
HETATM    6  O   UNL     1     -13.791   9.373  72.214  1.00  0.00    -0.443 OA 
HETATM    7  OXT UNL     1     -13.230  11.572  72.107  1.00  0.00    -0.505 OA 
ENDROOT
BRANCH   2   8
HETATM    8  C   UNL     1     -11.586  10.740  69.791  1.00  0.00    -0.393 C  
BRANCH   8   9
HETATM    9  C   UNL     1     -10.532  10.198  68.854  1.00  0.00    -0.230 A  
HETATM   10  C   UNL     1      -9.186  10.167  69.229  1.00  0.00    -0.220 A  
HETATM   11  C   UNL     1      -8.195   9.767  68.321  1.00  0.00    -0.105 A  
HETATM   12  C   UNL     1      -8.506   9.384  67.009  1.00  0.00    -0.127 A  
HETATM   13  C   UNL     1      -9.875   9.334  66.687  1.00  0.00    -0.311 A  
HETATM   14  C   UNL     1     -10.871   9.745  67.582  1.00  0.00    -0.301 A  
BRANCH  12  15
HETATM   15  N   UNL     1      -7.535   9.090  66.056  1.00  0.00    -0.093 NA 
BRANCH  15  16
HETATM   16  C   UNL     1      -6.619   7.940  66.194  1.00  0.00    -0.050 C  
HETATM   17 CL   UNL     1      -8.200   6.337  64.603  1.00  0.00    -0.114 Cl 
HETATM   18  C   UNL     1      -7.341   6.590  66.148  1.00  0.00    -0.080 C  
ENDBRANCH  15  16
BRANCH  15  19
HETATM   19  C   UNL     1      -7.085  10.174  65.152  1.00  0.00    -0.137 C  
HETATM   20  C   UNL     1      -7.267   9.863  63.660  1.00  0.00    -0.124 C  
HETATM   21 CL   UNL     1      -8.978   9.631  63.212  1.00  0.00    -0.261 Cl 
ENDBRANCH  15  19
ENDBRANCH  12  15
ENDBRANCH   8   9
ENDBRANCH   2   8
TORSDOF 5
ENDMDL
MODEL      157
REMARK 921   NORMALIZED FREE ENERGY PREDICTED BY IDOCK:   -3.84 KCAL/MOL
REMARK 922        TOTAL FREE ENERGY PREDICTED BY IDOCK:   -5.55 KCAL/MOL
REMARK 923 INTER-LIGAND FREE ENERGY PREDICTED BY IDOCK:   -5.03 KCAL/MOL
REMARK 924 INTRA-LIGAND FREE ENERGY PREDICTED BY IDOCK:   -0.52 KCAL/MOL
REMARK 927      BINDING AFFINITY PREDICTED BY RF-SCORE:    0.00 PKD
ROOT
HETATM    1  N   UNL     1      -9.948  11.541  69.372  1.00  0.00    -0.391 NA 
HETATM    2  CA  UNL     1     -10.531  12.494  68.368  1.00  0.00    -0.240 C  
HETATM    3  H1  UNL     1     -10.562  11.346  70.163  1.00  0.00     0.000 HD 
HETATM    4  H2  UNL     1      -9.040  11.874  69.697  1.00  0.00     0.000 HD 
HETATM    5  C   UNL     1     -11.841  11.881  67.849  1.00  0.00    -0.238 C  
HETATM    6  O   UNL     1     -12.173  10.763  68.548  1.00  0.00    -0.470 OA 
HETATM    7  OXT UNL     1     -12.517  12.327  66.936  1.00  0.00    -0.221 OA 
ENDROOT
BRANCH   2   8
HETATM    8  C   UNL     1      -9.603  12.789  67.174  1.00  0.00    -0.219 C  
BRANCH   8   9
HETATM    9  C   UNL     1      -9.031  14.187  67.185  1.00  0.00    -0.236 A  
HETATM   10  C   UNL     1      -7.690  14.411  67.507  1.00  0.00    -0.210 A  
HETATM   11  C   UNL     1      -7.187  15.715  67.624  1.00  0.00    -0.197 A  
HETATM   12  C   UNL     1      -7.998  16.841  67.428  1.00  0.00    -0.170 A  
HETATM   13  C   UNL     1      -9.318  16.588  67.015  1.00  0.00    -0.242 A  
HETATM   14  C   UNL     1      -9.835  15.291  66.907  1.00  0.00    -0.242 A  
BRANCH  12  15
HETATM   15  N   UNL     1      -7.552  18.142  67.647  1.00  0.00    -0.217 NA 
BRANCH  15  16
HETATM   16  C   UNL     1      -6.134  18.525  67.498  1.00  0.00    -0.174 C  
HETATM   17 CL   UNL     1      -5.640  18.208  70.191  1.00  0.00    -0.243 Cl 
HETATM   18  C   UNL     1      -5.572  19.235  68.731  1.00  0.00    -0.203 C  
ENDBRANCH  15  16
BRANCH  15  19
HETATM   19  C   UNL     1      -8.382  19.038  68.486  1.00  0.00    -0.352 C  
HETATM   20  C   UNL     1      -8.819  20.330  67.782  1.00  0.00    -0.218 C  
HETATM   21 CL   UNL     1      -9.850  20.020  66.360  1.00  0.00    -0.549 Cl 
ENDBRANCH  15  19
ENDBRANCH  12  15
ENDBRANCH   8   9
ENDBRANCH   2   8
TORSDOF 5
ENDMDL
MODEL      158
REMARK 921   NORMALIZED FREE ENERGY PREDICTED BY IDOCK:   -3.84 KCAL/MOL
REMARK 922        TOTAL FREE ENERGY PREDICTED BY IDOCK:   -5.55 KCAL/MOL
REMARK 923 INTER-LIGAND FREE ENERGY PREDICTED BY IDOCK:   -5.12 KCAL/MOL
REMARK 924 INTRA-LIGAND FREE ENERGY PREDICTED BY IDOCK:   -0.43 KCAL/MOL
REMARK 927      BINDING AFFINITY PREDICTED BY RF-SCORE:    0.00 PKD
ROOT
HETATM    1  N   UNL     1      -9.960   8.850  71.424  1.00  0.00    -0.280 NA 
HETATM    2  CA  UNL     1     -10.708   8.493  70.171  1.00  0.00    -0.235 C  
HETATM    3  H1  UNL     1     -10.458   8.619  72.284  1.00  0.00     0.000 HD 
HETATM    4  H2  UNL     1      -9.698   9.836  71.416  1.00  0.00     0.000 HD 
HETATM    5  C   UNL     1     -10.980   6.981  70.205  1.00  0.00    -0.271 C  
HETATM    6  O   UNL     1     -10.622   6.442  71.402  1.00  0.00    -0.219 OA 
HETATM    7  OXT UNL     1     -11.461   6.329  69.294  1.00  0.00    -0.411 OA 
ENDROOT
BRANCH   2   8
HETATM    8  C   UNL     1      -9.956   8.842  68.873  1.00  0.00    -0.199 C  
BRANCH   8   9
HETATM    9  C   UNL     1     -10.224  10.245  68.380  1.00  0.00    -0.189 A  
HETATM   10  C   UNL     1      -9.171  11.117  68.089  1.00  0.00    -0.166 A  
HETATM   11  C   UNL     1      -9.420  12.451  67.737  1.00  0.00    -0.199 A  
HETATM   12  C   UNL     1     -10.721  12.966  67.661  1.00  0.00    -0.223 A  
HETATM   13  C   UNL     1     -11.764  12.045  67.866  1.00  0.00    -0.393 A  
HETATM   14  C   UNL     1     -11.527  10.714  68.232  1.00  0.00    -0.318 A  
BRANCH  12  15
HETATM   15  N   UNL     1     -10.990  14.312  67.423  1.00  0.00    -0.289 NA 
BRANCH  15  16
HETATM   16  C   UNL     1     -11.021  15.313  68.508  1.00  0.00    -0.266 C  
HETATM   17 CL   UNL     1      -8.863  16.680  67.474  1.00  0.00    -0.197 Cl 
HETATM   18  C   UNL     1      -9.636  15.860  68.860  1.00  0.00    -0.230 C  
ENDBRANCH  15  16
BRANCH  15  19
HETATM   19  C   UNL     1     -11.712  14.675  66.182  1.00  0.00    -0.313 C  
HETATM   20  C   UNL     1     -10.818  14.763  64.938  1.00  0.00    -0.416 C  
HETATM   21 CL   UNL     1     -10.055  13.202  64.532  1.00  0.00    -0.302 Cl 
ENDBRANCH  15  19
ENDBRANCH  12  15
ENDBRANCH   8   9
ENDBRANCH   2   8
TORSDOF 5
ENDMDL
MODEL      159
REMARK 921   NORMALIZED FREE ENERGY PREDICTED BY IDOCK:   -3.79 KCAL/MOL
REMARK 922        TOTAL FREE ENERGY PREDICTED BY IDOCK:   -5.49 KCAL/MOL
REMARK 923 INTER-LIGAND FREE ENERGY PREDICTED BY IDOCK:   -4.77 KCAL/MOL
REMARK 924 INTRA-LIGAND FREE ENERGY PREDICTED BY IDOCK:   -0.72 KCAL/MOL
REMARK 927      BINDING AFFINITY PREDICTED BY RF-SCORE:    0.00 PKD
ROOT
HETATM    1  N   UNL     1     -10.020   9.737  64.529  1.00  0.00    -0.387 NA 
HETATM    2  CA  UNL     1      -8.814   9.270  65.292  1.00  0.00    -0.198 C  
HETATM    3  H1  UNL     1      -9.962  10.707  64.216  1.00  0.00     0.000 HD 
HETATM    4  H2  UNL     1     -10.869   9.587  65.074  1.00  0.00     0.000 HD 
HETATM    5  C   UNL     1      -7.591   9.431  64.376  1.00  0.00    -0.114 C  
HETATM    6  O   UNL     1      -7.916  10.086  63.229  1.00  0.00    -0.143 OA 
HETATM    7  OXT UNL     1      -6.463   9.038  64.626  1.00  0.00    -0.070 OA 
ENDROOT
BRANCH   2   8
HETATM    8  C   UNL     1      -8.902   7.806  65.765  1.00  0.00    -0.141 C  
BRANCH   8   9
HETATM    9  C   UNL     1      -9.668   7.635  67.056  1.00  0.00    -0.255 A  
HETATM   10  C   UNL     1      -9.530   8.553  68.100  1.00  0.00    -0.152 A  
HETATM   11  C   UNL     1     -10.156   8.336  69.336  1.00  0.00    -0.198 A  
HETATM   12  C   UNL     1     -10.939   7.200  69.578  1.00  0.00    -0.191 A  
HETATM   13  C   UNL     1     -11.139   6.341  68.483  1.00  0.00    -0.397 A  
HETATM   14  C   UNL     1     -10.508   6.540  67.248  1.00  0.00    -0.337 A  
BRANCH  12  15
HETATM   15  N   UNL     1     -11.479   6.905  70.828  1.00  0.00    -0.315 NA 
BRANCH  15  16
HETATM   16  C   UNL     1     -10.911   5.862  71.705  1.00  0.00    -0.268 C  
HETATM   17 CL   UNL     1      -9.754   7.726  73.374  1.00  0.00    -0.357 Cl 
HETATM   18  C   UNL     1      -9.584   6.275  72.346  1.00  0.00    -0.150 C  
ENDBRANCH  15  16
BRANCH  15  19
HETATM   19  C   UNL     1     -12.888   7.279  71.091  1.00  0.00    -0.286 C  
HETATM   20  C   UNL     1     -13.057   8.401  72.124  1.00  0.00    -0.328 C  
HETATM   21 CL   UNL     1     -12.312   9.934  71.599  1.00  0.00    -0.481 Cl 
ENDBRANCH  15  19
ENDBRANCH  12  15
ENDBRANCH   8   9
ENDBRANCH   2   8
TORSDOF 5
ENDMDL
MODEL      160
REMARK 921   NORMALIZED FREE ENERGY PREDICTED BY IDOCK:   -3.78 KCAL/MOL
REMARK 922        TOTAL FREE ENERGY PREDICTED BY IDOCK:   -5.48 KCAL/MOL
REMARK 923 INTER-LIGAND FREE ENERGY PREDICTED BY IDOCK:   -4.96 KCAL/MOL
REMARK 924 INTRA-LIGAND FREE ENERGY PREDICTED BY IDOCK:   -0.52 KCAL/MOL
REMARK 927      BINDING AFFINITY PREDICTED BY RF-SCORE:    0.00 PKD
ROOT
HETATM    1  N   UNL     1      -8.064  10.919  69.592  1.00  0.00    -0.362 NA 
HETATM    2  CA  UNL     1      -9.219  11.441  68.787  1.00  0.00    -0.100 C  
HETATM    3  H1  UNL     1      -8.298  10.710  70.563  1.00  0.00     0.000 HD 
HETATM    4  H2  UNL     1      -7.274  11.563  69.544  1.00  0.00     0.000 HD 
HETATM    5  C   UNL     1     -10.330  10.378  68.821  1.00  0.00    -0.196 C  
HETATM    6  O   UNL     1     -10.023   9.371  69.682  1.00  0.00    -0.177 OA 
HETATM    7  OXT UNL     1     -11.364  10.416  68.175  1.00  0.00    -0.289 OA 
ENDROOT
BRANCH   2   8
HETATM    8  C   UNL     1      -8.867  11.757  67.321  1.00  0.00    -0.167 C  
BRANCH   8   9
HETATM    9  C   UNL     1      -8.740  13.235  67.036  1.00  0.00    -0.192 A  
HETATM   10  C   UNL     1      -7.593  13.941  67.408  1.00  0.00    -0.160 A  
HETATM   11  C   UNL     1      -7.520  15.332  67.243  1.00  0.00    -0.236 A  
HETATM   12  C   UNL     1      -8.583  16.070  66.706  1.00  0.00    -0.257 A  
HETATM   13  C   UNL     1      -9.687  15.324  66.254  1.00  0.00    -0.325 A  
HETATM   14  C   UNL     1      -9.776  13.938  66.426  1.00  0.00    -0.309 A  
BRANCH  12  15
HETATM   15  N   UNL     1      -8.579  17.461  66.634  1.00  0.00    -0.242 NA 
BRANCH  15  16
HETATM   16  C   UNL     1      -9.801  18.237  66.342  1.00  0.00    -0.357 C  
HETATM   17 CL   UNL     1      -9.938  19.218  68.914  1.00  0.00    -0.502 Cl 
HETATM   18  C   UNL     1     -10.728  18.374  67.553  1.00  0.00    -0.365 C  
ENDBRANCH  15  16
BRANCH  15  19
HETATM   19  C   UNL     1      -7.294  18.148  66.372  1.00  0.00    -0.250 C  
HETATM   20  C   UNL     1      -6.906  19.180  67.439  1.00  0.00    -0.202 C  
HETATM   21 CL   UNL     1      -6.663  18.446  69.047  1.00  0.00    -0.272 Cl 
ENDBRANCH  15  19
ENDBRANCH  12  15
ENDBRANCH   8   9
ENDBRANCH   2   8
TORSDOF 5
ENDMDL
MODEL      161
REMARK 921   NORMALIZED FREE ENERGY PREDICTED BY IDOCK:   -3.76 KCAL/MOL
REMARK 922        TOTAL FREE ENERGY PREDICTED BY IDOCK:   -5.45 KCAL/MOL
REMARK 923 INTER-LIGAND FREE ENERGY PREDICTED BY IDOCK:   -4.97 KCAL/MOL
REMARK 924 INTRA-LIGAND FREE ENERGY PREDICTED BY IDOCK:   -0.48 KCAL/MOL
REMARK 927      BINDING AFFINITY PREDICTED BY RF-SCORE:    0.00 PKD
ROOT
HETATM    1  N   UNL     1     -11.854  14.719  63.670  1.00  0.00    -0.576 NA 
HETATM    2  CA  UNL     1     -11.337  14.006  64.887  1.00  0.00    -0.354 C  
HETATM    3  H1  UNL     1     -11.758  14.184  62.805  1.00  0.00     0.000 HD 
HETATM    4  H2  UNL     1     -11.413  15.634  63.576  1.00  0.00     0.000 HD 
HETATM    5  C   UNL     1     -12.115  12.687  65.021  1.00  0.00    -0.444 C  
HETATM    6  O   UNL     1     -12.909  12.470  63.939  1.00  0.00    -0.714 OA 
HETATM    7  OXT UNL     1     -12.039  11.915  65.962  1.00  0.00    -0.500 OA 
ENDROOT
BRANCH   2   8
HETATM    8  C   UNL     1     -11.482  14.813  66.191  1.00  0.00    -0.311 C  
BRANCH   8   9
HETATM    9  C   UNL     1     -10.271  14.725  67.091  1.00  0.00    -0.245 A  
HETATM   10  C   UNL     1     -10.101  15.617  68.154  1.00  0.00    -0.222 A  
HETATM   11  C   UNL     1      -8.928  15.605  68.921  1.00  0.00    -0.221 A  
HETATM   12  C   UNL     1      -7.882  14.709  68.660  1.00  0.00    -0.138 A  
HETATM   13  C   UNL     1      -8.118  13.762  67.647  1.00  0.00    -0.181 A  
HETATM   14  C   UNL     1      -9.280  13.773  66.865  1.00  0.00    -0.263 A  
BRANCH  12  15
HETATM   15  N   UNL     1      -6.664  14.750  69.333  1.00  0.00    -0.137 NA 
BRANCH  15  16
HETATM   16  C   UNL     1      -6.275  15.889  70.190  1.00  0.00    -0.058 C  
HETATM   17 CL   UNL     1      -6.529  17.690  68.119  1.00  0.00    -0.174 Cl 
HETATM   18  C   UNL     1      -5.534  16.989  69.426  1.00  0.00    -0.155 C  
ENDBRANCH  15  16
BRANCH  15  19
HETATM   19  C   UNL     1      -5.555  13.906  68.832  1.00  0.00    -0.082 C  
HETATM   20  C   UNL     1      -5.171  12.752  69.768  1.00  0.00    -0.083 C  
HETATM   21 CL   UNL     1      -6.504  11.590  70.004  1.00  0.00    -0.117 Cl 
ENDBRANCH  15  19
ENDBRANCH  12  15
ENDBRANCH   8   9
ENDBRANCH   2   8
TORSDOF 5
ENDMDL
MODEL      162
REMARK 921   NORMALIZED FREE ENERGY PREDICTED BY IDOCK:   -3.76 KCAL/MOL
REMARK 922        TOTAL FREE ENERGY PREDICTED BY IDOCK:   -5.45 KCAL/MOL
REMARK 923 INTER-LIGAND FREE ENERGY PREDICTED BY IDOCK:   -4.86 KCAL/MOL
REMARK 924 INTRA-LIGAND FREE ENERGY PREDICTED BY IDOCK:   -0.59 KCAL/MOL
REMARK 927      BINDING AFFINITY PREDICTED BY RF-SCORE:    0.00 PKD
ROOT
HETATM    1  N   UNL     1     -11.138   5.914  71.240  1.00  0.00    -0.266 NA 
HETATM    2  CA  UNL     1     -10.449   7.215  71.539  1.00  0.00    -0.203 C  
HETATM    3  H1  UNL     1     -10.525   5.100  71.291  1.00  0.00     0.000 HD 
HETATM    4  H2  UNL     1     -11.604   5.955  70.333  1.00  0.00     0.000 HD 
HETATM    5  C   UNL     1      -9.860   7.116  72.955  1.00  0.00    -0.185 C  
HETATM    6  O   UNL     1      -9.984   5.857  73.454  1.00  0.00    -0.162 OA 
HETATM    7  OXT UNL     1      -9.337   8.032  73.568  1.00  0.00    -0.272 OA 
ENDROOT
BRANCH   2   8
HETATM    8  C   UNL     1     -11.375   8.444  71.461  1.00  0.00    -0.334 C  
BRANCH   8   9
HETATM    9  C   UNL     1     -10.855   9.533  70.552  1.00  0.00    -0.352 A  
HETATM   10  C   UNL     1     -11.674  10.598  70.167  1.00  0.00    -0.417 A  
HETATM   11  C   UNL     1     -11.228  11.549  69.238  1.00  0.00    -0.336 A  
HETATM   12  C   UNL     1      -9.955  11.475  68.658  1.00  0.00    -0.199 A  
HETATM   13  C   UNL     1      -9.118  10.449  69.132  1.00  0.00    -0.197 A  
HETATM   14  C   UNL     1      -9.557   9.486  70.049  1.00  0.00    -0.272 A  
BRANCH  12  15
HETATM   15  N   UNL     1      -9.529  12.340  67.653  1.00  0.00    -0.183 NA 
BRANCH  15  16
HETATM   16  C   UNL     1      -9.521  13.806  67.827  1.00  0.00    -0.216 C  
HETATM   17 CL   UNL     1      -6.773  13.932  67.649  1.00  0.00    -0.188 Cl 
HETATM   18  C   UNL     1      -8.269  14.317  68.545  1.00  0.00    -0.145 C  
ENDBRANCH  15  16
BRANCH  15  19
HETATM   19  C   UNL     1      -9.538  11.851  66.255  1.00  0.00    -0.229 C  
HETATM   20  C   UNL     1     -10.922  11.423  65.748  1.00  0.00    -0.194 C  
HETATM   21 CL   UNL     1     -12.089  12.772  65.724  1.00  0.00    -0.504 Cl 
ENDBRANCH  15  19
ENDBRANCH  12  15
ENDBRANCH   8   9
ENDBRANCH   2   8
TORSDOF 5
ENDMDL
MODEL      163
REMARK 921   NORMALIZED FREE ENERGY PREDICTED BY IDOCK:   -3.75 KCAL/MOL
REMARK 922        TOTAL FREE ENERGY PREDICTED BY IDOCK:   -5.44 KCAL/MOL
REMARK 923 INTER-LIGAND FREE ENERGY PREDICTED BY IDOCK:   -4.74 KCAL/MOL
REMARK 924 INTRA-LIGAND FREE ENERGY PREDICTED BY IDOCK:   -0.70 KCAL/MOL
REMARK 927      BINDING AFFINITY PREDICTED BY RF-SCORE:    0.00 PKD
ROOT
HETATM    1  N   UNL     1      -7.539   5.317  65.560  1.00  0.00    -0.081 NA 
HETATM    2  CA  UNL     1      -8.938   5.273  66.105  1.00  0.00    -0.139 C  
HETATM    3  H1  UNL     1      -7.133   4.397  65.389  1.00  0.00     0.000 HD 
HETATM    4  H2  UNL     1      -6.935   5.869  66.169  1.00  0.00     0.000 HD 
HETATM    5  C   UNL     1      -9.811   4.517  65.091  1.00  0.00    -0.142 C  
HETATM    6  O   UNL     1      -9.056   3.974  64.098  1.00  0.00    -0.130 OA 
HETATM    7  OXT UNL     1     -11.023   4.397  65.152  1.00  0.00    -0.251 OA 
ENDROOT
BRANCH   2   8
HETATM    8  C   UNL     1      -9.552   6.663  66.362  1.00  0.00    -0.147 C  
BRANCH   8   9
HETATM    9  C   UNL     1      -9.906   6.907  67.811  1.00  0.00    -0.161 A  
HETATM   10  C   UNL     1     -10.861   6.118  68.459  1.00  0.00    -0.389 A  
HETATM   11  C   UNL     1     -11.268   6.412  69.768  1.00  0.00    -0.484 A  
HETATM   12  C   UNL     1     -10.743   7.500  70.478  1.00  0.00    -0.235 A  
HETATM   13  C   UNL     1      -9.718   8.220  69.838  1.00  0.00    -0.180 A  
HETATM   14  C   UNL     1      -9.313   7.944  68.527  1.00  0.00    -0.141 A  
BRANCH  12  15
HETATM   15  N   UNL     1     -11.209   7.880  71.734  1.00  0.00    -0.251 NA 
BRANCH  15  16
HETATM   16  C   UNL     1     -10.340   7.888  72.928  1.00  0.00    -0.347 C  
HETATM   17 CL   UNL     1     -10.156   5.138  72.960  1.00  0.00    -0.189 Cl 
HETATM   18  C   UNL     1     -10.533   6.658  73.818  1.00  0.00    -0.333 C  
ENDBRANCH  15  16
BRANCH  15  19
HETATM   19  C   UNL     1     -12.666   7.817  71.992  1.00  0.00    -0.258 C  
HETATM   20  C   UNL     1     -13.302   9.171  72.337  1.00  0.00    -0.463 C  
HETATM   21 CL   UNL     1     -13.167  10.351  71.006  1.00  0.00    -0.419 Cl 
ENDBRANCH  15  19
ENDBRANCH  12  15
ENDBRANCH   8   9
ENDBRANCH   2   8
TORSDOF 5
ENDMDL
MODEL      164
REMARK 921   NORMALIZED FREE ENERGY PREDICTED BY IDOCK:   -3.73 KCAL/MOL
REMARK 922        TOTAL FREE ENERGY PREDICTED BY IDOCK:   -5.41 KCAL/MOL
REMARK 923 INTER-LIGAND FREE ENERGY PREDICTED BY IDOCK:   -4.81 KCAL/MOL
REMARK 924 INTRA-LIGAND FREE ENERGY PREDICTED BY IDOCK:   -0.60 KCAL/MOL
REMARK 927      BINDING AFFINITY PREDICTED BY RF-SCORE:    0.00 PKD
ROOT
HETATM    1  N   UNL     1      -7.705  18.217  65.763  1.00  0.00    -0.538 NA 
HETATM    2  CA  UNL     1      -8.879  17.598  66.465  1.00  0.00    -0.263 C  
HETATM    3  H1  UNL     1      -7.944  18.677  64.884  1.00  0.00     0.000 HD 
HETATM    4  H2  UNL     1      -6.970  17.525  65.616  1.00  0.00     0.000 HD 
HETATM    5  C   UNL     1      -9.899  18.715  66.742  1.00  0.00    -0.341 C  
HETATM    6  O   UNL     1      -9.531  19.879  66.142  1.00  0.00    -0.394 OA 
HETATM    7  OXT UNL     1     -10.917  18.595  67.403  1.00  0.00    -0.399 OA 
ENDROOT
BRANCH   2   8
HETATM    8  C   UNL     1      -8.519  16.903  67.792  1.00  0.00    -0.198 C  
BRANCH   8   9
HETATM    9  C   UNL     1      -8.977  15.465  67.863  1.00  0.00    -0.173 A  
HETATM   10  C   UNL     1      -8.055  14.416  67.823  1.00  0.00    -0.174 A  
HETATM   11  C   UNL     1      -8.485  13.082  67.779  1.00  0.00    -0.188 A  
HETATM   12  C   UNL     1      -9.845  12.744  67.771  1.00  0.00    -0.220 A  
HETATM   13  C   UNL     1     -10.749  13.813  67.906  1.00  0.00    -0.256 A  
HETATM   14  C   UNL     1     -10.332  15.149  67.937  1.00  0.00    -0.241 A  
BRANCH  12  15
HETATM   15  N   UNL     1     -10.300  11.436  67.615  1.00  0.00    -0.179 NA 
BRANCH  15  16
HETATM   16  C   UNL     1      -9.660  10.294  68.298  1.00  0.00    -0.142 C  
HETATM   17 CL   UNL     1     -11.319  10.518  70.487  1.00  0.00    -0.403 Cl 
HETATM   18  C   UNL     1      -9.664  10.428  69.823  1.00  0.00    -0.059 C  
ENDBRANCH  15  16
BRANCH  15  19
HETATM   19  C   UNL     1     -11.102  11.109  66.415  1.00  0.00    -0.138 C  
HETATM   20  C   UNL     1     -10.335  11.239  65.092  1.00  0.00    -0.295 C  
HETATM   21 CL   UNL     1      -8.955  10.114  64.987  1.00  0.00    -0.204 Cl 
ENDBRANCH  15  19
ENDBRANCH  12  15
ENDBRANCH   8   9
ENDBRANCH   2   8
TORSDOF 5
ENDMDL
MODEL      165
REMARK 921   NORMALIZED FREE ENERGY PREDICTED BY IDOCK:   -3.66 KCAL/MOL
REMARK 922        TOTAL FREE ENERGY PREDICTED BY IDOCK:   -5.32 KCAL/MOL
REMARK 923 INTER-LIGAND FREE ENERGY PREDICTED BY IDOCK:   -5.90 KCAL/MOL
REMARK 924 INTRA-LIGAND FREE ENERGY PREDICTED BY IDOCK:    0.59 KCAL/MOL
REMARK 927      BINDING AFFINITY PREDICTED BY RF-SCORE:    0.00 PKD
ROOT
HETATM    1  N   UNL     1     -11.090  14.394  70.600  1.00  0.00    -0.484 NA 
HETATM    2  CA  UNL     1     -12.577  14.194  70.677  1.00  0.00    -0.351 C  
HETATM    3  H1  UNL     1     -10.814  15.314  70.255  1.00  0.00     0.000 HD 
HETATM    4  H2  UNL     1     -10.657  13.657  70.043  1.00  0.00     0.000 HD 
HETATM    5  C   UNL     1     -13.146  15.275  71.609  1.00  0.00    -0.425 C  
HETATM    6  O   UNL     1     -12.192  16.179  71.957  1.00  0.00    -0.471 OA 
HETATM    7  OXT UNL     1     -14.302  15.339  71.994  1.00  0.00    -0.526 OA 
ENDROOT
BRANCH   2   8
HETATM    8  C   UNL     1     -12.994  12.805  71.198  1.00  0.00    -0.244 C  
BRANCH   8   9
HETATM    9  C   UNL     1     -12.166  11.675  70.633  1.00  0.00    -0.461 A  
HETATM   10  C   UNL     1     -11.700  11.716  69.317  1.00  0.00    -0.396 A  
HETATM   11  C   UNL     1     -11.025  10.621  68.758  1.00  0.00    -0.292 A  
HETATM   12  C   UNL     1     -10.791   9.447  69.487  1.00  0.00    -0.213 A  
HETATM   13  C   UNL     1     -11.187   9.468  70.837  1.00  0.00    -0.411 A  
HETATM   14  C   UNL     1     -11.873  10.550  71.401  1.00  0.00    -0.237 A  
BRANCH  12  15
HETATM   15  N   UNL     1     -10.224   8.307  68.924  1.00  0.00    -0.207 NA 
BRANCH  15  16
HETATM   16  C   UNL     1      -8.966   7.721  69.429  1.00  0.00    -0.142 C  
HETATM   17 CL   UNL     1     -10.129   5.253  69.817  1.00  0.00    -0.311 Cl 
HETATM   18  C   UNL     1      -9.192   6.624  70.473  1.00  0.00    -0.156 C  
ENDBRANCH  15  16
BRANCH  15  19
HETATM   19  C   UNL     1     -10.596   7.948  67.536  1.00  0.00    -0.242 C  
HETATM   20  C   UNL     1      -9.498   8.225  66.500  1.00  0.00    -0.220 C  
HETATM   21 CL   UNL     1      -8.022   7.267  66.795  1.00  0.00    -0.116 Cl 
ENDBRANCH  15  19
ENDBRANCH  12  15
ENDBRANCH   8   9
ENDBRANCH   2   8
TORSDOF 5
ENDMDL
MODEL      166
REMARK 921   NORMALIZED FREE ENERGY PREDICTED BY IDOCK:   -3.65 KCAL/MOL
REMARK 922        TOTAL FREE ENERGY PREDICTED BY IDOCK:   -5.30 KCAL/MOL
REMARK 923 INTER-LIGAND FREE ENERGY PREDICTED BY IDOCK:   -4.98 KCAL/MOL
REMARK 924 INTRA-LIGAND FREE ENERGY PREDICTED BY IDOCK:   -0.32 KCAL/MOL
REMARK 927      BINDING AFFINITY PREDICTED BY RF-SCORE:    0.00 PKD
ROOT
HETATM    1  N   UNL     1      -8.927  14.169  68.296  1.00  0.00    -0.184 NA 
HETATM    2  CA  UNL     1      -9.839  14.560  67.169  1.00  0.00    -0.245 C  
HETATM    3  H1  UNL     1      -8.070  14.721  68.346  1.00  0.00     0.000 HD 
HETATM    4  H2  UNL     1      -8.709  13.173  68.251  1.00  0.00     0.000 HD 
HETATM    5  C   UNL     1     -10.205  16.041  67.358  1.00  0.00    -0.273 C  
HETATM    6  O   UNL     1      -9.487  16.602  68.368  1.00  0.00    -0.217 OA 
HETATM    7  OXT UNL     1     -11.023  16.657  66.695  1.00  0.00    -0.092 OA 
ENDROOT
BRANCH   2   8
HETATM    8  C   UNL     1     -11.133  13.726  67.094  1.00  0.00    -0.315 C  
BRANCH   8   9
HETATM    9  C   UNL     1     -11.133  12.529  68.015  1.00  0.00    -0.285 A  
HETATM   10  C   UNL     1     -11.687  12.610  69.296  1.00  0.00    -0.379 A  
HETATM   11  C   UNL     1     -11.590  11.534  70.190  1.00  0.00    -0.336 A  
HETATM   12  C   UNL     1     -10.938  10.342  69.845  1.00  0.00    -0.305 A  
HETATM   13  C   UNL     1     -10.473  10.253  68.521  1.00  0.00    -0.217 A  
HETATM   14  C   UNL     1     -10.552  11.325  67.624  1.00  0.00    -0.252 A  
BRANCH  12  15
HETATM   15  N   UNL     1     -10.731   9.304  70.749  1.00  0.00    -0.258 NA 
BRANCH  15  16
HETATM   16  C   UNL     1      -9.389   8.960  71.260  1.00  0.00    -0.266 C  
HETATM   17 CL   UNL     1      -8.906   7.226  69.173  1.00  0.00    -0.136 Cl 
HETATM   18  C   UNL     1      -8.972   7.525  70.932  1.00  0.00    -0.149 C  
ENDBRANCH  15  16
BRANCH  15  19
HETATM   19  C   UNL     1     -11.754   8.236  70.840  1.00  0.00    -0.239 C  
HETATM   20  C   UNL     1     -12.577   8.264  72.135  1.00  0.00    -0.337 C  
HETATM   21 CL   UNL     1     -13.526   9.764  72.311  1.00  0.00    -0.498 Cl 
ENDBRANCH  15  19
ENDBRANCH  12  15
ENDBRANCH   8   9
ENDBRANCH   2   8
TORSDOF 5
ENDMDL
MODEL      167
REMARK 921   NORMALIZED FREE ENERGY PREDICTED BY IDOCK:   -3.64 KCAL/MOL
REMARK 922        TOTAL FREE ENERGY PREDICTED BY IDOCK:   -5.29 KCAL/MOL
REMARK 923 INTER-LIGAND FREE ENERGY PREDICTED BY IDOCK:   -5.58 KCAL/MOL
REMARK 924 INTRA-LIGAND FREE ENERGY PREDICTED BY IDOCK:    0.29 KCAL/MOL
REMARK 927      BINDING AFFINITY PREDICTED BY RF-SCORE:    0.00 PKD
ROOT
HETATM    1  N   UNL     1     -10.695  10.768  62.712  1.00  0.00    -0.612 NA 
HETATM    2  CA  UNL     1      -9.845  11.407  63.772  1.00  0.00    -0.319 C  
HETATM    3  H1  UNL     1     -10.168  10.433  61.904  1.00  0.00     0.000 HD 
HETATM    4  H2  UNL     1     -11.438  11.402  62.417  1.00  0.00     0.000 HD 
HETATM    5  C   UNL     1      -8.817  10.363  64.238  1.00  0.00    -0.208 C  
HETATM    6  O   UNL     1      -8.862   9.247  63.463  1.00  0.00    -0.205 OA 
HETATM    7  OXT UNL     1      -8.045  10.500  65.173  1.00  0.00    -0.155 OA 
ENDROOT
BRANCH   2   8
HETATM    8  C   UNL     1     -10.641  11.912  64.991  1.00  0.00    -0.335 C  
BRANCH   8   9
HETATM    9  C   UNL     1     -10.197  13.271  65.479  1.00  0.00    -0.298 A  
HETATM   10  C   UNL     1      -9.263  13.392  66.511  1.00  0.00    -0.182 A  
HETATM   11  C   UNL     1      -8.933  14.649  67.038  1.00  0.00    -0.258 A  
HETATM   12  C   UNL     1      -9.520  15.829  66.560  1.00  0.00    -0.272 A  
HETATM   13  C   UNL     1     -10.385  15.687  65.460  1.00  0.00    -0.421 A  
HETATM   14  C   UNL     1     -10.732  14.436  64.935  1.00  0.00    -0.444 A  
BRANCH  12  15
HETATM   15  N   UNL     1      -9.294  17.075  67.139  1.00  0.00    -0.232 NA 
BRANCH  15  16
HETATM   16  C   UNL     1      -7.960  17.709  67.148  1.00  0.00    -0.211 C  
HETATM   17 CL   UNL     1      -7.121  16.187  69.288  1.00  0.00    -0.213 Cl 
HETATM   18  C   UNL     1      -7.349  17.797  68.549  1.00  0.00    -0.266 C  
ENDBRANCH  15  16
BRANCH  15  19
HETATM   19  C   UNL     1     -10.252  17.561  68.158  1.00  0.00    -0.359 C  
HETATM   20  C   UNL     1     -11.117  16.458  68.783  1.00  0.00    -0.337 C  
HETATM   21 CL   UNL     1     -10.149  15.247  69.666  1.00  0.00    -0.256 Cl 
ENDBRANCH  15  19
ENDBRANCH  12  15
ENDBRANCH   8   9
ENDBRANCH   2   8
TORSDOF 5
ENDMDL
MODEL      168
REMARK 921   NORMALIZED FREE ENERGY PREDICTED BY IDOCK:   -3.63 KCAL/MOL
REMARK 922        TOTAL FREE ENERGY PREDICTED BY IDOCK:   -5.28 KCAL/MOL
REMARK 923 INTER-LIGAND FREE ENERGY PREDICTED BY IDOCK:   -5.35 KCAL/MOL
REMARK 924 INTRA-LIGAND FREE ENERGY PREDICTED BY IDOCK:    0.08 KCAL/MOL
REMARK 927      BINDING AFFINITY PREDICTED BY RF-SCORE:    0.00 PKD
ROOT
HETATM    1  N   UNL     1      -9.716  13.870  68.861  1.00  0.00    -0.414 NA 
HETATM    2  CA  UNL     1     -11.118  14.376  68.671  1.00  0.00    -0.251 C  
HETATM    3  H1  UNL     1      -9.036  14.603  69.063  1.00  0.00     0.000 HD 
HETATM    4  H2  UNL     1      -9.421  13.320  68.054  1.00  0.00     0.000 HD 
HETATM    5  C   UNL     1     -11.529  15.105  69.960  1.00  0.00    -0.286 C  
HETATM    6  O   UNL     1     -10.480  15.224  70.816  1.00  0.00    -0.176 OA 
HETATM    7  OXT UNL     1     -12.645  15.536  70.202  1.00  0.00    -0.380 OA 
ENDROOT
BRANCH   2   8
HETATM    8  C   UNL     1     -12.145  13.269  68.366  1.00  0.00    -0.244 C  
BRANCH   8   9
HETATM    9  C   UNL     1     -11.666  11.884  68.731  1.00  0.00    -0.379 A  
HETATM   10  C   UNL     1     -11.110  11.039  67.767  1.00  0.00    -0.356 A  
HETATM   11  C   UNL     1     -10.766   9.717  68.082  1.00  0.00    -0.280 A  
HETATM   12  C   UNL     1     -10.963   9.187  69.364  1.00  0.00    -0.092 A  
HETATM   13  C   UNL     1     -11.436  10.084  70.338  1.00  0.00    -0.389 A  
HETATM   14  C   UNL     1     -11.796  11.402  70.032  1.00  0.00    -0.440 A  
BRANCH  12  15
HETATM   15  N   UNL     1     -10.735   7.848  69.673  1.00  0.00    -0.240 NA 
BRANCH  15  16
HETATM   16  C   UNL     1     -11.618   7.087  70.579  1.00  0.00    -0.319 C  
HETATM   17 CL   UNL     1     -10.454   8.179  72.826  1.00  0.00    -0.404 Cl 
HETATM   18  C   UNL     1     -10.949   6.729  71.908  1.00  0.00    -0.239 C  
ENDBRANCH  15  16
BRANCH  15  19
HETATM   19  C   UNL     1      -9.367   7.309  69.495  1.00  0.00    -0.152 C  
HETATM   20  C   UNL     1      -8.273   8.383  69.428  1.00  0.00    -0.116 C  
HETATM   21 CL   UNL     1      -8.152   9.333  70.934  1.00  0.00    -0.200 Cl 
ENDBRANCH  15  19
ENDBRANCH  12  15
ENDBRANCH   8   9
ENDBRANCH   2   8
TORSDOF 5
ENDMDL
MODEL      169
REMARK 921   NORMALIZED FREE ENERGY PREDICTED BY IDOCK:   -3.61 KCAL/MOL
REMARK 922        TOTAL FREE ENERGY PREDICTED BY IDOCK:   -5.26 KCAL/MOL
REMARK 923 INTER-LIGAND FREE ENERGY PREDICTED BY IDOCK:   -4.65 KCAL/MOL
REMARK 924 INTRA-LIGAND FREE ENERGY PREDICTED BY IDOCK:   -0.61 KCAL/MOL
REMARK 927      BINDING AFFINITY PREDICTED BY RF-SCORE:    0.00 PKD
ROOT
HETATM    1  N   UNL     1     -10.593   5.421  71.851  1.00  0.00    -0.227 NA 
HETATM    2  CA  UNL     1     -10.218   6.871  71.740  1.00  0.00    -0.189 C  
HETATM    3  H1  UNL     1      -9.795   4.793  71.953  1.00  0.00     0.000 HD 
HETATM    4  H2  UNL     1     -11.172   5.139  71.059  1.00  0.00     0.000 HD 
HETATM    5  C   UNL     1      -9.438   7.249  73.010  1.00  0.00    -0.168 C  
HETATM    6  O   UNL     1      -9.175   6.154  73.772  1.00  0.00    -0.127 OA 
HETATM    7  OXT UNL     1      -9.083   8.377  73.312  1.00  0.00    -0.229 OA 
ENDROOT
BRANCH   2   8
HETATM    8  C   UNL     1     -11.423   7.819  71.586  1.00  0.00    -0.299 C  
BRANCH   8   9
HETATM    9  C   UNL     1     -11.225   8.878  70.528  1.00  0.00    -0.287 A  
HETATM   10  C   UNL     1     -10.637   8.564  69.299  1.00  0.00    -0.193 A  
HETATM   11  C   UNL     1     -10.354   9.566  68.361  1.00  0.00    -0.237 A  
HETATM   12  C   UNL     1     -10.644  10.915  68.609  1.00  0.00    -0.195 A  
HETATM   13  C   UNL     1     -11.320  11.191  69.811  1.00  0.00    -0.354 A  
HETATM   14  C   UNL     1     -11.595  10.201  70.762  1.00  0.00    -0.445 A  
BRANCH  12  15
HETATM   15  N   UNL     1     -10.273  11.941  67.743  1.00  0.00    -0.196 NA 
BRANCH  15  16
HETATM   16  C   UNL     1     -10.678  11.958  66.323  1.00  0.00    -0.271 C  
HETATM   17 CL   UNL     1     -11.895  14.418  66.575  1.00  0.00    -0.409 Cl 
HETATM   18  C   UNL     1     -11.993  12.704  66.084  1.00  0.00    -0.395 C  
ENDBRANCH  15  16
BRANCH  15  19
HETATM   19  C   UNL     1      -9.091  12.762  68.091  1.00  0.00    -0.203 C  
HETATM   20  C   UNL     1      -7.863  11.946  68.519  1.00  0.00    -0.136 C  
HETATM   21 CL   UNL     1      -7.261  10.882  67.219  1.00  0.00    -0.094 Cl 
ENDBRANCH  15  19
ENDBRANCH  12  15
ENDBRANCH   8   9
ENDBRANCH   2   8
TORSDOF 5
ENDMDL
MODEL      170
REMARK 921   NORMALIZED FREE ENERGY PREDICTED BY IDOCK:   -3.60 KCAL/MOL
REMARK 922        TOTAL FREE ENERGY PREDICTED BY IDOCK:   -5.25 KCAL/MOL
REMARK 923 INTER-LIGAND FREE ENERGY PREDICTED BY IDOCK:   -5.36 KCAL/MOL
REMARK 924 INTRA-LIGAND FREE ENERGY PREDICTED BY IDOCK:    0.12 KCAL/MOL
REMARK 927      BINDING AFFINITY PREDICTED BY RF-SCORE:    0.00 PKD
ROOT
HETATM    1  N   UNL     1      -8.844  13.220  68.913  1.00  0.00    -0.363 NA 
HETATM    2  CA  UNL     1      -9.873  13.329  67.824  1.00  0.00    -0.224 C  
HETATM    3  H1  UNL     1      -8.410  14.109  69.162  1.00  0.00     0.000 HD 
HETATM    4  H2  UNL     1      -8.134  12.530  68.667  1.00  0.00     0.000 HD 
HETATM    5  C   UNL     1     -10.959  14.304  68.304  1.00  0.00    -0.247 C  
HETATM    6  O   UNL     1     -10.606  14.900  69.474  1.00  0.00    -0.246 OA 
HETATM    7  OXT UNL     1     -12.007  14.536  67.724  1.00  0.00    -0.363 OA 
ENDROOT
BRANCH   2   8
HETATM    8  C   UNL     1     -10.529  11.987  67.447  1.00  0.00    -0.239 C  
BRANCH   8   9
HETATM    9  C   UNL     1     -10.709  11.054  68.621  1.00  0.00    -0.234 A  
HETATM   10  C   UNL     1     -11.767  11.226  69.518  1.00  0.00    -0.415 A  
HETATM   11  C   UNL     1     -11.871  10.428  70.667  1.00  0.00    -0.445 A  
HETATM   12  C   UNL     1     -10.930   9.434  70.966  1.00  0.00    -0.338 A  
HETATM   13  C   UNL     1      -9.930   9.220  70.000  1.00  0.00    -0.238 A  
HETATM   14  C   UNL     1      -9.807  10.018  68.857  1.00  0.00    -0.187 A  
BRANCH  12  15
HETATM   15  N   UNL     1     -10.948   8.706  72.153  1.00  0.00    -0.364 NA 
BRANCH  15  16
HETATM   16  C   UNL     1      -9.721   8.432  72.927  1.00  0.00    -0.183 C  
HETATM   17 CL   UNL     1      -9.066   6.267  71.352  1.00  0.00    -0.143 Cl 
HETATM   18  C   UNL     1      -9.364   6.944  72.978  1.00  0.00    -0.140 C  
ENDBRANCH  15  16
BRANCH  15  19
HETATM   19  C   UNL     1     -12.091   7.798  72.403  1.00  0.00    -0.250 C  
HETATM   20  C   UNL     1     -12.806   7.323  71.130  1.00  0.00    -0.286 C  
HETATM   21 CL   UNL     1     -11.742   6.367  70.064  1.00  0.00    -0.456 Cl 
ENDBRANCH  15  19
ENDBRANCH  12  15
ENDBRANCH   8   9
ENDBRANCH   2   8
TORSDOF 5
ENDMDL
MODEL      171
REMARK 921   NORMALIZED FREE ENERGY PREDICTED BY IDOCK:   -3.57 KCAL/MOL
REMARK 922        TOTAL FREE ENERGY PREDICTED BY IDOCK:   -5.20 KCAL/MOL
REMARK 923 INTER-LIGAND FREE ENERGY PREDICTED BY IDOCK:   -4.64 KCAL/MOL
REMARK 924 INTRA-LIGAND FREE ENERGY PREDICTED BY IDOCK:   -0.55 KCAL/MOL
REMARK 927      BINDING AFFINITY PREDICTED BY RF-SCORE:    0.00 PKD
ROOT
HETATM    1  N   UNL     1     -12.717  15.197  69.784  1.00  0.00    -0.613 NA 
HETATM    2  CA  UNL     1     -12.159  13.882  69.322  1.00  0.00    -0.339 C  
HETATM    3  H1  UNL     1     -13.710  15.167  70.017  1.00  0.00     0.000 HD 
HETATM    4  H2  UNL     1     -12.533  15.926  69.094  1.00  0.00     0.000 HD 
HETATM    5  C   UNL     1     -12.381  12.860  70.449  1.00  0.00    -0.258 C  
HETATM    6  O   UNL     1     -13.145  13.382  71.445  1.00  0.00    -0.340 OA 
HETATM    7  OXT UNL     1     -11.946  11.720  70.464  1.00  0.00    -0.356 OA 
ENDROOT
BRANCH   2   8
HETATM    8  C   UNL     1     -10.659  13.928  68.971  1.00  0.00    -0.187 C  
BRANCH   8   9
HETATM    9  C   UNL     1     -10.221  12.812  68.052  1.00  0.00    -0.228 A  
HETATM   10  C   UNL     1     -11.026  12.403  66.984  1.00  0.00    -0.303 A  
HETATM   11  C   UNL     1     -10.671  11.297  66.199  1.00  0.00    -0.307 A  
HETATM   12  C   UNL     1      -9.507  10.557  66.446  1.00  0.00    -0.171 A  
HETATM   13  C   UNL     1      -8.669  11.045  67.465  1.00  0.00    -0.128 A  
HETATM   14  C   UNL     1      -9.019  12.140  68.265  1.00  0.00    -0.186 A  
BRANCH  12  15
HETATM   15  N   UNL     1      -9.189   9.391  65.754  1.00  0.00    -0.201 NA 
BRANCH  15  16
HETATM   16  C   UNL     1      -9.502   8.050  66.286  1.00  0.00    -0.172 C  
HETATM   17 CL   UNL     1      -7.233   8.009  67.850  1.00  0.00    -0.089 Cl 
HETATM   18  C   UNL     1      -8.253   7.227  66.609  1.00  0.00    -0.118 C  
ENDBRANCH  15  16
BRANCH  15  19
HETATM   19  C   UNL     1      -8.123   9.451  64.728  1.00  0.00    -0.131 C  
HETATM   20  C   UNL     1      -8.620   9.233  63.292  1.00  0.00    -0.201 C  
HETATM   21 CL   UNL     1      -9.772  10.490  62.768  1.00  0.00    -0.316 Cl 
ENDBRANCH  15  19
ENDBRANCH  12  15
ENDBRANCH   8   9
ENDBRANCH   2   8
TORSDOF 5
ENDMDL
MODEL      172
REMARK 921   NORMALIZED FREE ENERGY PREDICTED BY IDOCK:   -3.51 KCAL/MOL
REMARK 922        TOTAL FREE ENERGY PREDICTED BY IDOCK:   -5.13 KCAL/MOL
REMARK 923 INTER-LIGAND FREE ENERGY PREDICTED BY IDOCK:   -4.90 KCAL/MOL
REMARK 924 INTRA-LIGAND FREE ENERGY PREDICTED BY IDOCK:   -0.23 KCAL/MOL
REMARK 927      BINDING AFFINITY PREDICTED BY RF-SCORE:    0.00 PKD
ROOT
HETATM    1  N   UNL     1      -9.111   6.156  71.860  1.00  0.00    -0.141 NA 
HETATM    2  CA  UNL     1     -10.411   6.613  72.457  1.00  0.00    -0.205 C  
HETATM    3  H1  UNL     1      -9.072   5.154  71.670  1.00  0.00     0.000 HD 
HETATM    4  H2  UNL     1      -8.327   6.441  72.448  1.00  0.00     0.000 HD 
HETATM    5  C   UNL     1     -11.532   6.241  71.473  1.00  0.00    -0.293 C  
HETATM    6  O   UNL     1     -11.059   5.480  70.450  1.00  0.00    -0.217 OA 
HETATM    7  OXT UNL     1     -12.703   6.568  71.579  1.00  0.00    -0.257 OA 
ENDROOT
BRANCH   2   8
HETATM    8  C   UNL     1     -10.471   8.126  72.743  1.00  0.00    -0.385 C  
BRANCH   8   9
HETATM    9  C   UNL     1     -10.384   8.978  71.498  1.00  0.00    -0.412 A  
HETATM   10  C   UNL     1      -9.171   9.144  70.825  1.00  0.00    -0.321 A  
HETATM   11  C   UNL     1      -9.067  10.021  69.736  1.00  0.00    -0.219 A  
HETATM   12  C   UNL     1     -10.163  10.764  69.278  1.00  0.00    -0.194 A  
HETATM   13  C   UNL     1     -11.393  10.508  69.912  1.00  0.00    -0.380 A  
HETATM   14  C   UNL     1     -11.505   9.645  71.009  1.00  0.00    -0.444 A  
BRANCH  12  15
HETATM   15  N   UNL     1     -10.062  11.722  68.272  1.00  0.00    -0.192 NA 
BRANCH  15  16
HETATM   16  C   UNL     1      -9.297  12.972  68.450  1.00  0.00    -0.149 C  
HETATM   17 CL   UNL     1      -7.243  12.085  66.839  1.00  0.00    -0.091 Cl 
HETATM   18  C   UNL     1      -7.782  12.759  68.403  1.00  0.00    -0.132 C  
ENDBRANCH  15  16
BRANCH  15  19
HETATM   19  C   UNL     1     -11.092  11.736  67.208  1.00  0.00    -0.287 C  
HETATM   20  C   UNL     1     -10.609  11.184  65.859  1.00  0.00    -0.234 C  
HETATM   21 CL   UNL     1     -10.132   9.467  65.953  1.00  0.00    -0.343 Cl 
ENDBRANCH  15  19
ENDBRANCH  12  15
ENDBRANCH   8   9
ENDBRANCH   2   8
TORSDOF 5
ENDMDL
MODEL      173
REMARK 921   NORMALIZED FREE ENERGY PREDICTED BY IDOCK:   -3.49 KCAL/MOL
REMARK 922        TOTAL FREE ENERGY PREDICTED BY IDOCK:   -5.10 KCAL/MOL
REMARK 923 INTER-LIGAND FREE ENERGY PREDICTED BY IDOCK:   -4.39 KCAL/MOL
REMARK 924 INTRA-LIGAND FREE ENERGY PREDICTED BY IDOCK:   -0.71 KCAL/MOL
REMARK 927      BINDING AFFINITY PREDICTED BY RF-SCORE:    0.00 PKD
ROOT
HETATM    1  N   UNL     1     -11.509   6.506  67.236  1.00  0.00    -0.743 NA 
HETATM    2  CA  UNL     1     -10.157   7.134  67.419  1.00  0.00    -0.202 C  
HETATM    3  H1  UNL     1     -11.608   5.983  66.366  1.00  0.00     0.000 HD 
HETATM    4  H2  UNL     1     -12.244   7.208  67.318  1.00  0.00     0.000 HD 
HETATM    5  C   UNL     1      -9.111   6.008  67.386  1.00  0.00    -0.106 C  
HETATM    6  O   UNL     1      -9.676   4.819  67.044  1.00  0.00    -0.158 OA 
HETATM    7  OXT UNL     1      -7.921   6.141  67.623  1.00  0.00    -0.104 OA 
ENDROOT
BRANCH   2   8
HETATM    8  C   UNL     1     -10.007   7.924  68.734  1.00  0.00    -0.194 C  
BRANCH   8   9
HETATM    9  C   UNL     1      -9.987   9.421  68.538  1.00  0.00    -0.190 A  
HETATM   10  C   UNL     1      -8.833  10.072  68.094  1.00  0.00    -0.122 A  
HETATM   11  C   UNL     1      -8.781  11.471  68.016  1.00  0.00    -0.151 A  
HETATM   12  C   UNL     1      -9.871  12.273  68.379  1.00  0.00    -0.199 A  
HETATM   13  C   UNL     1     -11.050  11.591  68.733  1.00  0.00    -0.288 A  
HETATM   14  C   UNL     1     -11.109  10.195  68.827  1.00  0.00    -0.250 A  
BRANCH  12  15
HETATM   15  N   UNL     1      -9.809  13.663  68.418  1.00  0.00    -0.228 NA 
BRANCH  15  16
HETATM   16  C   UNL     1     -10.969  14.493  68.801  1.00  0.00    -0.250 C  
HETATM   17 CL   UNL     1     -12.242  14.033  66.400  1.00  0.00    -0.486 Cl 
HETATM   18  C   UNL     1     -11.624  15.194  67.608  1.00  0.00    -0.277 C  
ENDBRANCH  15  16
BRANCH  15  19
HETATM   19  C   UNL     1      -8.757  14.342  67.628  1.00  0.00    -0.189 C  
HETATM   20  C   UNL     1      -7.903  15.329  68.436  1.00  0.00    -0.122 C  
HETATM   21 CL   UNL     1      -6.990  14.532  69.745  1.00  0.00    -0.132 Cl 
ENDBRANCH  15  19
ENDBRANCH  12  15
ENDBRANCH   8   9
ENDBRANCH   2   8
TORSDOF 5
ENDMDL
MODEL      174
REMARK 921   NORMALIZED FREE ENERGY PREDICTED BY IDOCK:   -3.49 KCAL/MOL
REMARK 922        TOTAL FREE ENERGY PREDICTED BY IDOCK:   -5.10 KCAL/MOL
REMARK 923 INTER-LIGAND FREE ENERGY PREDICTED BY IDOCK:   -4.31 KCAL/MOL
REMARK 924 INTRA-LIGAND FREE ENERGY PREDICTED BY IDOCK:   -0.79 KCAL/MOL
REMARK 927      BINDING AFFINITY PREDICTED BY RF-SCORE:    0.00 PKD
ROOT
HETATM    1  N   UNL     1     -10.986   2.862  63.983  1.00  0.00    -0.564 NA 
HETATM    2  CA  UNL     1     -10.207   3.984  64.608  1.00  0.00    -0.214 C  
HETATM    3  H1  UNL     1     -11.350   3.079  63.055  1.00  0.00     0.000 HD 
HETATM    4  H2  UNL     1     -11.738   2.560  64.602  1.00  0.00     0.000 HD 
HETATM    5  C   UNL     1      -9.035   4.317  63.671  1.00  0.00    -0.138 C  
HETATM    6  O   UNL     1      -9.131   3.635  62.499  1.00  0.00    -0.089 OA 
HETATM    7  OXT UNL     1      -8.130   5.096  63.921  1.00  0.00    -0.105 OA 
ENDROOT
BRANCH   2   8
HETATM    8  C   UNL     1      -9.656   3.657  66.010  1.00  0.00    -0.143 C  
BRANCH   8   9
HETATM    9  C   UNL     1      -9.927   4.737  67.031  1.00  0.00    -0.235 A  
HETATM   10  C   UNL     1     -10.576   5.921  66.668  1.00  0.00    -0.330 A  
HETATM   11  C   UNL     1     -10.730   6.967  67.589  1.00  0.00    -0.331 A  
HETATM   12  C   UNL     1     -10.245   6.876  68.900  1.00  0.00    -0.177 A  
HETATM   13  C   UNL     1      -9.681   5.640  69.266  1.00  0.00    -0.205 A  
HETATM   14  C   UNL     1      -9.509   4.594  68.352  1.00  0.00    -0.201 A  
BRANCH  12  15
HETATM   15  N   UNL     1     -10.286   7.939  69.799  1.00  0.00    -0.207 NA 
BRANCH  15  16
HETATM   16  C   UNL     1     -10.277   7.735  71.261  1.00  0.00    -0.193 C  
HETATM   17 CL   UNL     1     -12.953   7.078  71.307  1.00  0.00    -0.406 Cl 
HETATM   18  C   UNL     1     -11.612   8.083  71.923  1.00  0.00    -0.298 C  
ENDBRANCH  15  16
BRANCH  15  19
HETATM   19  C   UNL     1     -10.818   9.238  69.327  1.00  0.00    -0.152 C  
HETATM   20  C   UNL     1      -9.798  10.384  69.360  1.00  0.00    -0.213 C  
HETATM   21 CL   UNL     1      -8.405  10.091  68.284  1.00  0.00    -0.109 Cl 
ENDBRANCH  15  19
ENDBRANCH  12  15
ENDBRANCH   8   9
ENDBRANCH   2   8
TORSDOF 5
ENDMDL
MODEL      175
REMARK 921   NORMALIZED FREE ENERGY PREDICTED BY IDOCK:   -3.48 KCAL/MOL
REMARK 922        TOTAL FREE ENERGY PREDICTED BY IDOCK:   -5.09 KCAL/MOL
REMARK 923 INTER-LIGAND FREE ENERGY PREDICTED BY IDOCK:   -4.45 KCAL/MOL
REMARK 924 INTRA-LIGAND FREE ENERGY PREDICTED BY IDOCK:   -0.65 KCAL/MOL
REMARK 927      BINDING AFFINITY PREDICTED BY RF-SCORE:    0.00 PKD
ROOT
HETATM    1  N   UNL     1      -8.343   5.102  64.842  1.00  0.00    -0.139 NA 
HETATM    2  CA  UNL     1      -9.598   4.336  65.148  1.00  0.00    -0.183 C  
HETATM    3  H1  UNL     1      -7.595   4.530  64.448  1.00  0.00     0.000 HD 
HETATM    4  H2  UNL     1      -8.016   5.600  65.670  1.00  0.00     0.000 HD 
HETATM    5  C   UNL     1     -10.087   3.698  63.838  1.00  0.00    -0.208 C  
HETATM    6  O   UNL     1      -9.180   3.867  62.838  1.00  0.00    -0.102 OA 
HETATM    7  OXT UNL     1     -11.143   3.105  63.692  1.00  0.00    -0.289 OA 
ENDROOT
BRANCH   2   8
HETATM    8  C   UNL     1     -10.728   5.198  65.743  1.00  0.00    -0.044 C  
BRANCH   8   9
HETATM    9  C   UNL     1     -10.616   5.390  67.237  1.00  0.00    -0.250 A  
HETATM   10  C   UNL     1      -9.888   4.493  68.023  1.00  0.00    -0.154 A  
HETATM   11  C   UNL     1      -9.875   4.609  69.421  1.00  0.00    -0.272 A  
HETATM   12  C   UNL     1     -10.585   5.618  70.086  1.00  0.00    -0.309 A  
HETATM   13  C   UNL     1     -11.232   6.561  69.268  1.00  0.00    -0.390 A  
HETATM   14  C   UNL     1     -11.263   6.448  67.872  1.00  0.00    -0.262 A  
BRANCH  12  15
HETATM   15  N   UNL     1     -10.679   5.688  71.474  1.00  0.00    -0.248 NA 
BRANCH  15  16
HETATM   16  C   UNL     1     -11.719   6.488  72.152  1.00  0.00    -0.311 C  
HETATM   17 CL   UNL     1     -10.258   8.813  71.912  1.00  0.00    -0.399 Cl 
HETATM   18  C   UNL     1     -11.146   7.662  72.950  1.00  0.00    -0.393 C  
ENDBRANCH  15  16
BRANCH  15  19
HETATM   19  C   UNL     1      -9.477   5.369  72.277  1.00  0.00    -0.145 C  
HETATM   20  C   UNL     1      -9.641   4.150  73.195  1.00  0.00    -0.120 C  
HETATM   21 CL   UNL     1      -9.946   2.645  72.287  1.00  0.00    -0.229 Cl 
ENDBRANCH  15  19
ENDBRANCH  12  15
ENDBRANCH   8   9
ENDBRANCH   2   8
TORSDOF 5
ENDMDL
MODEL      176
REMARK 921   NORMALIZED FREE ENERGY PREDICTED BY IDOCK:   -3.47 KCAL/MOL
REMARK 922        TOTAL FREE ENERGY PREDICTED BY IDOCK:   -5.08 KCAL/MOL
REMARK 923 INTER-LIGAND FREE ENERGY PREDICTED BY IDOCK:   -4.62 KCAL/MOL
REMARK 924 INTRA-LIGAND FREE ENERGY PREDICTED BY IDOCK:   -0.46 KCAL/MOL
REMARK 927      BINDING AFFINITY PREDICTED BY RF-SCORE:    0.00 PKD
ROOT
HETATM    1  N   UNL     1      -8.414   5.113  65.149  1.00  0.00    -0.141 NA 
HETATM    2  CA  UNL     1      -9.628   4.236  65.269  1.00  0.00    -0.185 C  
HETATM    3  H1  UNL     1      -7.600   4.639  64.757  1.00  0.00     0.000 HD 
HETATM    4  H2  UNL     1      -8.186   5.533  66.049  1.00  0.00     0.000 HD 
HETATM    5  C   UNL     1      -9.972   3.720  63.862  1.00  0.00    -0.189 C  
HETATM    6  O   UNL     1      -9.011   4.061  62.963  1.00  0.00    -0.102 OA 
HETATM    7  OXT UNL     1     -10.968   3.080  63.569  1.00  0.00    -0.244 OA 
ENDROOT
BRANCH   2   8
HETATM    8  C   UNL     1     -10.859   4.950  65.860  1.00  0.00    -0.140 C  
BRANCH   8   9
HETATM    9  C   UNL     1     -10.552   5.744  67.108  1.00  0.00    -0.365 A  
HETATM   10  C   UNL     1     -10.241   5.101  68.310  1.00  0.00    -0.179 A  
HETATM   11  C   UNL     1     -10.065   5.834  69.492  1.00  0.00    -0.278 A  
HETATM   12  C   UNL     1     -10.192   7.229  69.524  1.00  0.00    -0.198 A  
HETATM   13  C   UNL     1     -10.412   7.858  68.285  1.00  0.00    -0.212 A  
HETATM   14  C   UNL     1     -10.604   7.136  67.101  1.00  0.00    -0.417 A  
BRANCH  12  15
HETATM   15  N   UNL     1     -10.131   7.968  70.703  1.00  0.00    -0.193 NA 
BRANCH  15  16
HETATM   16  C   UNL     1     -10.203   9.443  70.711  1.00  0.00    -0.299 C  
HETATM   17 CL   UNL     1     -12.682   9.435  71.917  1.00  0.00    -0.455 Cl 
HETATM   18  C   UNL     1     -11.632   9.974  70.577  1.00  0.00    -0.323 C  
ENDBRANCH  15  16
BRANCH  15  19
HETATM   19  C   UNL     1      -9.519   7.340  71.896  1.00  0.00    -0.148 C  
HETATM   20  C   UNL     1     -10.501   7.093  73.049  1.00  0.00    -0.292 C  
HETATM   21 CL   UNL     1     -11.805   5.959  72.606  1.00  0.00    -0.263 Cl 
ENDBRANCH  15  19
ENDBRANCH  12  15
ENDBRANCH   8   9
ENDBRANCH   2   8
TORSDOF 5
ENDMDL
MODEL      177
REMARK 921   NORMALIZED FREE ENERGY PREDICTED BY IDOCK:   -3.47 KCAL/MOL
REMARK 922        TOTAL FREE ENERGY PREDICTED BY IDOCK:   -5.07 KCAL/MOL
REMARK 923 INTER-LIGAND FREE ENERGY PREDICTED BY IDOCK:   -4.63 KCAL/MOL
REMARK 924 INTRA-LIGAND FREE ENERGY PREDICTED BY IDOCK:   -0.45 KCAL/MOL
REMARK 927      BINDING AFFINITY PREDICTED BY RF-SCORE:    0.00 PKD
ROOT
HETATM    1  N   UNL     1      -9.838  17.863  68.798  1.00  0.00    -0.357 NA 
HETATM    2  CA  UNL     1     -10.030  17.931  67.310  1.00  0.00    -0.325 C  
HETATM    3  H1  UNL     1      -9.048  18.413  69.138  1.00  0.00     0.000 HD 
HETATM    4  H2  UNL     1      -9.758  16.894  69.105  1.00  0.00     0.000 HD 
HETATM    5  C   UNL     1     -10.243  19.406  66.933  1.00  0.00    -0.410 C  
HETATM    6  O   UNL     1     -10.037  20.222  68.001  1.00  0.00    -0.397 OA 
HETATM    7  OXT UNL     1     -10.549  19.815  65.825  1.00  0.00    -0.523 OA 
ENDROOT
BRANCH   2   8
HETATM    8  C   UNL     1     -11.222  17.101  66.795  1.00  0.00     0.546 C  
BRANCH   8   9
HETATM    9  C   UNL     1     -10.906  15.633  66.624  1.00  0.00    -0.266 A  
HETATM   10  C   UNL     1     -11.076  14.735  67.680  1.00  0.00    -0.311 A  
HETATM   11  C   UNL     1     -10.679  13.395  67.555  1.00  0.00    -0.263 A  
HETATM   12  C   UNL     1     -10.100  12.902  66.379  1.00  0.00    -0.269 A  
HETATM   13  C   UNL     1     -10.026  13.803  65.301  1.00  0.00    -0.245 A  
HETATM   14  C   UNL     1     -10.406  15.146  65.418  1.00  0.00    -0.415 A  
BRANCH  12  15
HETATM   15  N   UNL     1      -9.597  11.609  66.267  1.00  0.00    -0.215 NA 
BRANCH  15  16
HETATM   16  C   UNL     1     -10.264  10.572  65.453  1.00  0.00    -0.270 C  
HETATM   17 CL   UNL     1      -7.979  10.080  63.991  1.00  0.00    -0.148 Cl 
HETATM   18  C   UNL     1      -9.718  10.488  64.025  1.00  0.00    -0.323 C  
ENDBRANCH  15  16
BRANCH  15  19
HETATM   19  C   UNL     1      -8.679  11.117  67.320  1.00  0.00    -0.139 C  
HETATM   20  C   UNL     1      -7.240  11.634  67.190  1.00  0.00    -0.145 C  
HETATM   21 CL   UNL     1      -7.133  13.408  67.342  1.00  0.00    -0.153 Cl 
ENDBRANCH  15  19
ENDBRANCH  12  15
ENDBRANCH   8   9
ENDBRANCH   2   8
TORSDOF 5
ENDMDL
MODEL      178
REMARK 921   NORMALIZED FREE ENERGY PREDICTED BY IDOCK:   -3.47 KCAL/MOL
REMARK 922        TOTAL FREE ENERGY PREDICTED BY IDOCK:   -5.07 KCAL/MOL
REMARK 923 INTER-LIGAND FREE ENERGY PREDICTED BY IDOCK:   -4.46 KCAL/MOL
REMARK 924 INTRA-LIGAND FREE ENERGY PREDICTED BY IDOCK:   -0.61 KCAL/MOL
REMARK 927      BINDING AFFINITY PREDICTED BY RF-SCORE:    0.00 PKD
ROOT
HETATM    1  N   UNL     1      -7.662  18.353  65.587  1.00  0.00    -0.494 NA 
HETATM    2  CA  UNL     1      -8.782  17.880  66.468  1.00  0.00    -0.256 C  
HETATM    3  H1  UNL     1      -7.970  18.715  64.684  1.00  0.00     0.000 HD 
HETATM    4  H2  UNL     1      -6.970  17.613  65.459  1.00  0.00     0.000 HD 
HETATM    5  C   UNL     1      -9.728  19.070  66.698  1.00  0.00    -0.341 C  
HETATM    6  O   UNL     1      -9.380  20.133  65.926  1.00  0.00    -0.318 OA 
HETATM    7  OXT UNL     1     -10.679  19.079  67.463  1.00  0.00    -0.455 OA 
ENDROOT
BRANCH   2   8
HETATM    8  C   UNL     1      -8.316  17.334  67.832  1.00  0.00    -0.220 C  
BRANCH   8   9
HETATM    9  C   UNL     1      -8.335  15.826  67.915  1.00  0.00    -0.154 A  
HETATM   10  C   UNL     1      -7.187  15.078  67.639  1.00  0.00    -0.208 A  
HETATM   11  C   UNL     1      -7.232  13.677  67.609  1.00  0.00    -0.179 A  
HETATM   12  C   UNL     1      -8.417  12.969  67.850  1.00  0.00    -0.185 A  
HETATM   13  C   UNL     1      -9.534  13.742  68.217  1.00  0.00    -0.214 A  
HETATM   14  C   UNL     1      -9.505  15.141  68.237  1.00  0.00    -0.201 A  
BRANCH  12  15
HETATM   15  N   UNL     1      -8.514  11.586  67.718  1.00  0.00    -0.132 NA 
BRANCH  15  16
HETATM   16  C   UNL     1      -7.434  10.676  68.148  1.00  0.00    -0.090 C  
HETATM   17 CL   UNL     1      -6.096  10.939  65.752  1.00  0.00    -0.111 Cl 
HETATM   18  C   UNL     1      -6.826   9.879  66.991  1.00  0.00    -0.083 C  
ENDBRANCH  15  16
BRANCH  15  19
HETATM   19  C   UNL     1      -9.467  11.041  66.724  1.00  0.00    -0.182 C  
HETATM   20  C   UNL     1     -10.538  10.118  67.321  1.00  0.00    -0.261 C  
HETATM   21 CL   UNL     1     -11.593  10.959  68.489  1.00  0.00    -0.376 Cl 
ENDBRANCH  15  19
ENDBRANCH  12  15
ENDBRANCH   8   9
ENDBRANCH   2   8
TORSDOF 5
ENDMDL
MODEL      179
REMARK 921   NORMALIZED FREE ENERGY PREDICTED BY IDOCK:   -3.46 KCAL/MOL
REMARK 922        TOTAL FREE ENERGY PREDICTED BY IDOCK:   -5.07 KCAL/MOL
REMARK 923 INTER-LIGAND FREE ENERGY PREDICTED BY IDOCK:   -4.81 KCAL/MOL
REMARK 924 INTRA-LIGAND FREE ENERGY PREDICTED BY IDOCK:   -0.26 KCAL/MOL
REMARK 927      BINDING AFFINITY PREDICTED BY RF-SCORE:    0.00 PKD
ROOT
HETATM    1  N   UNL     1      -9.655   6.211  72.141  1.00  0.00    -0.152 NA 
HETATM    2  CA  UNL     1     -11.038   6.779  72.289  1.00  0.00    -0.251 C  
HETATM    3  H1  UNL     1      -9.638   5.205  71.971  1.00  0.00     0.000 HD 
HETATM    4  H2  UNL     1      -9.083   6.447  72.952  1.00  0.00     0.000 HD 
HETATM    5  C   UNL     1     -11.808   6.474  70.994  1.00  0.00    -0.330 C  
HETATM    6  O   UNL     1     -11.094   5.656  70.176  1.00  0.00    -0.296 OA 
HETATM    7  OXT UNL     1     -12.921   6.892  70.719  1.00  0.00    -0.193 OA 
ENDROOT
BRANCH   2   8
HETATM    8  C   UNL     1     -11.065   8.298  72.546  1.00  0.00    -0.439 C  
BRANCH   8   9
HETATM    9  C   UNL     1     -10.460   9.110  71.425  1.00  0.00    -0.414 A  
HETATM   10  C   UNL     1     -11.241   9.998  70.680  1.00  0.00    -0.425 A  
HETATM   11  C   UNL     1     -10.706  10.669  69.571  1.00  0.00    -0.290 A  
HETATM   12  C   UNL     1      -9.378  10.483  69.164  1.00  0.00    -0.187 A  
HETATM   13  C   UNL     1      -8.589   9.658  69.986  1.00  0.00    -0.237 A  
HETATM   14  C   UNL     1      -9.116   8.971  71.087  1.00  0.00    -0.316 A  
BRANCH  12  15
HETATM   15  N   UNL     1      -8.855  11.050  68.004  1.00  0.00    -0.134 NA 
BRANCH  15  16
HETATM   16  C   UNL     1      -9.023  10.425  66.677  1.00  0.00    -0.141 C  
HETATM   17 CL   UNL     1     -10.997  12.207  65.955  1.00  0.00    -0.317 Cl 
HETATM   18  C   UNL     1     -10.456  10.516  66.149  1.00  0.00    -0.168 C  
ENDBRANCH  15  16
BRANCH  15  19
HETATM   19  C   UNL     1      -7.732  12.007  68.135  1.00  0.00    -0.135 C  
HETATM   20  C   UNL     1      -7.987  13.367  67.470  1.00  0.00    -0.183 C  
HETATM   21 CL   UNL     1      -9.363  14.238  68.199  1.00  0.00    -0.200 Cl 
ENDBRANCH  15  19
ENDBRANCH  12  15
ENDBRANCH   8   9
ENDBRANCH   2   8
TORSDOF 5
ENDMDL
MODEL      180
REMARK 921   NORMALIZED FREE ENERGY PREDICTED BY IDOCK:   -3.46 KCAL/MOL
REMARK 922        TOTAL FREE ENERGY PREDICTED BY IDOCK:   -5.06 KCAL/MOL
REMARK 923 INTER-LIGAND FREE ENERGY PREDICTED BY IDOCK:   -4.37 KCAL/MOL
REMARK 924 INTRA-LIGAND FREE ENERGY PREDICTED BY IDOCK:   -0.69 KCAL/MOL
REMARK 927      BINDING AFFINITY PREDICTED BY RF-SCORE:    0.00 PKD
ROOT
HETATM    1  N   UNL     1     -11.208  15.416  67.291  1.00  0.00    -0.308 NA 
HETATM    2  CA  UNL     1     -10.183  14.326  67.421  1.00  0.00    -0.247 C  
HETATM    3  H1  UNL     1     -11.107  16.163  67.979  1.00  0.00     0.000 HD 
HETATM    4  H2  UNL     1     -12.151  15.027  67.319  1.00  0.00     0.000 HD 
HETATM    5  C   UNL     1      -8.795  14.969  67.268  1.00  0.00    -0.201 C  
HETATM    6  O   UNL     1      -8.882  16.325  67.226  1.00  0.00    -0.183 OA 
HETATM    7  OXT UNL     1      -7.739  14.362  67.200  1.00  0.00    -0.171 OA 
ENDROOT
BRANCH   2   8
HETATM    8  C   UNL     1     -10.335  13.198  66.382  1.00  0.00    -0.289 C  
BRANCH   8   9
HETATM    9  C   UNL     1     -10.337  11.815  66.989  1.00  0.00    -0.243 A  
HETATM   10  C   UNL     1     -11.434  11.356  67.723  1.00  0.00    -0.353 A  
HETATM   11  C   UNL     1     -11.392  10.117  68.378  1.00  0.00    -0.179 A  
HETATM   12  C   UNL     1     -10.261   9.291  68.328  1.00  0.00    -0.201 A  
HETATM   13  C   UNL     1      -9.208   9.734  67.507  1.00  0.00    -0.145 A  
HETATM   14  C   UNL     1      -9.233  10.975  66.860  1.00  0.00    -0.168 A  
BRANCH  12  15
HETATM   15  N   UNL     1     -10.152   8.110  69.058  1.00  0.00    -0.200 NA 
BRANCH  15  16
HETATM   16  C   UNL     1      -9.003   7.835  69.944  1.00  0.00    -0.146 C  
HETATM   17 CL   UNL     1     -10.394   8.614  72.192  1.00  0.00    -0.405 Cl 
HETATM   18  C   UNL     1      -8.946   8.765  71.158  1.00  0.00    -0.222 C  
ENDBRANCH  15  16
BRANCH  15  19
HETATM   19  C   UNL     1     -10.919   6.928  68.602  1.00  0.00    -0.145 C  
HETATM   20  C   UNL     1     -10.829   6.667  67.092  1.00  0.00    -0.401 C  
HETATM   21 CL   UNL     1      -9.164   6.314  66.556  1.00  0.00    -0.161 Cl 
ENDBRANCH  15  19
ENDBRANCH  12  15
ENDBRANCH   8   9
ENDBRANCH   2   8
TORSDOF 5
ENDMDL
MODEL      181
REMARK 921   NORMALIZED FREE ENERGY PREDICTED BY IDOCK:   -3.45 KCAL/MOL
REMARK 922        TOTAL FREE ENERGY PREDICTED BY IDOCK:   -5.04 KCAL/MOL
REMARK 923 INTER-LIGAND FREE ENERGY PREDICTED BY IDOCK:   -4.48 KCAL/MOL
REMARK 924 INTRA-LIGAND FREE ENERGY PREDICTED BY IDOCK:   -0.56 KCAL/MOL
REMARK 927      BINDING AFFINITY PREDICTED BY RF-SCORE:    0.00 PKD
ROOT
HETATM    1  N   UNL     1      -9.944   4.604  71.539  1.00  0.00    -0.189 NA 
HETATM    2  CA  UNL     1     -10.590   5.892  71.115  1.00  0.00    -0.246 C  
HETATM    3  H1  UNL     1      -9.654   4.589  72.517  1.00  0.00     0.000 HD 
HETATM    4  H2  UNL     1      -9.159   4.379  70.928  1.00  0.00     0.000 HD 
HETATM    5  C   UNL     1     -11.820   6.114  72.010  1.00  0.00    -0.280 C  
HETATM    6  O   UNL     1     -11.876   5.194  73.009  1.00  0.00    -0.273 OA 
HETATM    7  OXT UNL     1     -12.647   7.000  71.867  1.00  0.00    -0.331 OA 
ENDROOT
BRANCH   2   8
HETATM    8  C   UNL     1     -11.028   5.915  69.638  1.00  0.00    -0.447 C  
BRANCH   8   9
HETATM    9  C   UNL     1     -10.521   7.118  68.878  1.00  0.00    -0.218 A  
HETATM   10  C   UNL     1     -10.631   8.404  69.413  1.00  0.00    -0.204 A  
HETATM   11  C   UNL     1     -10.261   9.529  68.662  1.00  0.00    -0.215 A  
HETATM   12  C   UNL     1      -9.770   9.417  67.355  1.00  0.00    -0.159 A  
HETATM   13  C   UNL     1      -9.581   8.108  66.875  1.00  0.00    -0.269 A  
HETATM   14  C   UNL     1      -9.960   6.978  67.610  1.00  0.00    -0.194 A  
BRANCH  12  15
HETATM   15  N   UNL     1      -9.500  10.521  66.550  1.00  0.00    -0.162 NA 
BRANCH  15  16
HETATM   16  C   UNL     1      -8.147  10.805  66.031  1.00  0.00    -0.158 C  
HETATM   17 CL   UNL     1      -7.124  11.182  68.563  1.00  0.00    -0.074 Cl 
HETATM   18  C   UNL     1      -7.366  11.793  66.902  1.00  0.00    -0.104 C  
ENDBRANCH  15  16
BRANCH  15  19
HETATM   19  C   UNL     1     -10.433  11.670  66.597  1.00  0.00    -0.233 C  
HETATM   20  C   UNL     1     -10.549  12.438  65.273  1.00  0.00    -0.290 C  
HETATM   21 CL   UNL     1     -11.198  11.431  63.951  1.00  0.00    -0.433 Cl 
ENDBRANCH  15  19
ENDBRANCH  12  15
ENDBRANCH   8   9
ENDBRANCH   2   8
TORSDOF 5
ENDMDL
MODEL      182
REMARK 921   NORMALIZED FREE ENERGY PREDICTED BY IDOCK:   -3.44 KCAL/MOL
REMARK 922        TOTAL FREE ENERGY PREDICTED BY IDOCK:   -5.04 KCAL/MOL
REMARK 923 INTER-LIGAND FREE ENERGY PREDICTED BY IDOCK:   -4.60 KCAL/MOL
REMARK 924 INTRA-LIGAND FREE ENERGY PREDICTED BY IDOCK:   -0.44 KCAL/MOL
REMARK 927      BINDING AFFINITY PREDICTED BY RF-SCORE:    0.00 PKD
ROOT
HETATM    1  N   UNL     1     -11.532   6.499  66.838  1.00  0.00    -0.780 NA 
HETATM    2  CA  UNL     1     -10.132   7.027  66.709  1.00  0.00    -0.200 C  
HETATM    3  H1  UNL     1     -11.876   6.028  66.000  1.00  0.00     0.000 HD 
HETATM    4  H2  UNL     1     -12.171   7.243  67.118  1.00  0.00     0.000 HD 
HETATM    5  C   UNL     1      -9.213   5.837  66.386  1.00  0.00    -0.151 C  
HETATM    6  O   UNL     1      -9.933   4.707  66.152  1.00  0.00    -0.199 OA 
HETATM    7  OXT UNL     1      -7.995   5.880  66.333  1.00  0.00    -0.100 OA 
ENDROOT
BRANCH   2   8
HETATM    8  C   UNL     1      -9.613   7.738  67.974  1.00  0.00    -0.166 C  
BRANCH   8   9
HETATM    9  C   UNL     1      -9.681   9.244  67.888  1.00  0.00    -0.180 A  
HETATM   10  C   UNL     1      -9.287  10.042  68.966  1.00  0.00    -0.183 A  
HETATM   11  C   UNL     1      -9.452  11.434  68.928  1.00  0.00    -0.064 A  
HETATM   12  C   UNL     1     -10.015  12.082  67.820  1.00  0.00    -0.195 A  
HETATM   13  C   UNL     1     -10.316  11.267  66.714  1.00  0.00    -0.278 A  
HETATM   14  C   UNL     1     -10.168   9.875  66.746  1.00  0.00    -0.301 A  
BRANCH  12  15
HETATM   15  N   UNL     1     -10.292  13.447  67.801  1.00  0.00    -0.237 NA 
BRANCH  15  16
HETATM   16  C   UNL     1     -10.349  14.221  66.545  1.00  0.00    -0.278 C  
HETATM   17 CL   UNL     1      -7.834  15.278  66.941  1.00  0.00    -0.217 Cl 
HETATM   18  C   UNL     1      -9.571  15.537  66.616  1.00  0.00    -0.253 C  
ENDBRANCH  15  16
BRANCH  15  19
HETATM   19  C   UNL     1     -10.058  14.229  69.037  1.00  0.00    -0.123 C  
HETATM   20  C   UNL     1     -11.339  14.596  69.799  1.00  0.00    -0.275 C  
HETATM   21 CL   UNL     1     -12.226  13.160  70.378  1.00  0.00    -0.416 Cl 
ENDBRANCH  15  19
ENDBRANCH  12  15
ENDBRANCH   8   9
ENDBRANCH   2   8
TORSDOF 5
ENDMDL
MODEL      183
REMARK 921   NORMALIZED FREE ENERGY PREDICTED BY IDOCK:   -3.44 KCAL/MOL
REMARK 922        TOTAL FREE ENERGY PREDICTED BY IDOCK:   -5.04 KCAL/MOL
REMARK 923 INTER-LIGAND FREE ENERGY PREDICTED BY IDOCK:   -4.50 KCAL/MOL
REMARK 924 INTRA-LIGAND FREE ENERGY PREDICTED BY IDOCK:   -0.54 KCAL/MOL
REMARK 927      BINDING AFFINITY PREDICTED BY RF-SCORE:    0.00 PKD
ROOT
HETATM    1  N   UNL     1     -12.461  14.142  66.810  1.00  0.00    -0.553 NA 
HETATM    2  CA  UNL     1     -12.250  14.893  68.094  1.00  0.00     0.046 C  
HETATM    3  H1  UNL     1     -12.718  14.736  66.021  1.00  0.00     0.000 HD 
HETATM    4  H2  UNL     1     -13.148  13.399  66.939  1.00  0.00     0.000 HD 
HETATM    5  C   UNL     1     -11.136  15.924  67.853  1.00  0.00    -0.317 C  
HETATM    6  O   UNL     1     -10.784  15.974  66.541  1.00  0.00    -0.306 OA 
HETATM    7  OXT UNL     1     -10.624  16.624  68.711  1.00  0.00    -0.296 OA 
ENDROOT
BRANCH   2   8
HETATM    8  C   UNL     1     -11.861  13.997  69.286  1.00  0.00    -0.389 C  
BRANCH   8   9
HETATM    9  C   UNL     1     -11.130  12.739  68.880  1.00  0.00    -0.310 A  
HETATM   10  C   UNL     1     -11.731  11.485  69.017  1.00  0.00    -0.400 A  
HETATM   11  C   UNL     1     -11.014  10.311  68.744  1.00  0.00    -0.285 A  
HETATM   12  C   UNL     1      -9.677  10.341  68.327  1.00  0.00    -0.142 A  
HETATM   13  C   UNL     1      -9.126  11.616  68.108  1.00  0.00    -0.183 A  
HETATM   14  C   UNL     1      -9.828  12.795  68.390  1.00  0.00    -0.196 A  
BRANCH  12  15
HETATM   15  N   UNL     1      -8.910   9.191  68.157  1.00  0.00    -0.129 NA 
BRANCH  15  16
HETATM   16  C   UNL     1      -8.724   8.557  66.837  1.00  0.00    -0.128 C  
HETATM   17 CL   UNL     1     -10.991   7.014  67.124  1.00  0.00    -0.429 Cl 
HETATM   18  C   UNL     1      -9.240   7.116  66.785  1.00  0.00    -0.158 C  
ENDBRANCH  15  16
BRANCH  15  19
HETATM   19  C   UNL     1      -8.674   8.323  69.334  1.00  0.00    -0.142 C  
HETATM   20  C   UNL     1      -7.223   8.326  69.834  1.00  0.00    -0.059 C  
HETATM   21 CL   UNL     1      -6.695   9.936  70.393  1.00  0.00    -0.123 Cl 
ENDBRANCH  15  19
ENDBRANCH  12  15
ENDBRANCH   8   9
ENDBRANCH   2   8
TORSDOF 5
ENDMDL
MODEL      184
REMARK 921   NORMALIZED FREE ENERGY PREDICTED BY IDOCK:   -3.43 KCAL/MOL
REMARK 922        TOTAL FREE ENERGY PREDICTED BY IDOCK:   -5.03 KCAL/MOL
REMARK 923 INTER-LIGAND FREE ENERGY PREDICTED BY IDOCK:   -5.41 KCAL/MOL
REMARK 924 INTRA-LIGAND FREE ENERGY PREDICTED BY IDOCK:    0.38 KCAL/MOL
REMARK 927      BINDING AFFINITY PREDICTED BY RF-SCORE:    0.00 PKD
ROOT
HETATM    1  N   UNL     1     -10.638  11.091  62.740  1.00  0.00    -0.778 NA 
HETATM    2  CA  UNL     1      -9.868  11.318  64.009  1.00  0.00    -0.291 C  
HETATM    3  H1  UNL     1     -10.050  10.901  61.928  1.00  0.00     0.000 HD 
HETATM    4  H2  UNL     1     -11.263  11.876  62.555  1.00  0.00     0.000 HD 
HETATM    5  C   UNL     1      -9.028  10.059  64.278  1.00  0.00    -0.236 C  
HETATM    6  O   UNL     1      -9.093   9.191  63.233  1.00  0.00    -0.086 OA 
HETATM    7  OXT UNL     1      -8.374   9.848  65.285  1.00  0.00    -0.136 OA 
ENDROOT
BRANCH   2   8
HETATM    8  C   UNL     1     -10.756  11.604  65.236  1.00  0.00    -0.346 C  
BRANCH   8   9
HETATM    9  C   UNL     1     -10.405  12.891  65.946  1.00  0.00    -0.297 A  
HETATM   10  C   UNL     1      -9.183  13.035  66.608  1.00  0.00    -0.222 A  
HETATM   11  C   UNL     1      -8.904  14.186  67.358  1.00  0.00    -0.211 A  
HETATM   12  C   UNL     1      -9.827  15.233  67.478  1.00  0.00    -0.213 A  
HETATM   13  C   UNL     1     -11.009  15.104  66.727  1.00  0.00    -0.321 A  
HETATM   14  C   UNL     1     -11.305  13.954  65.986  1.00  0.00    -0.324 A  
BRANCH  12  15
HETATM   15  N   UNL     1      -9.620  16.335  68.305  1.00  0.00    -0.215 NA 
BRANCH  15  16
HETATM   16  C   UNL     1     -10.675  17.336  68.561  1.00  0.00    -0.305 C  
HETATM   17 CL   UNL     1     -10.466  18.383  66.020  1.00  0.00    -0.447 Cl 
HETATM   18  C   UNL     1     -10.464  18.640  67.788  1.00  0.00    -0.411 C  
ENDBRANCH  15  16
BRANCH  15  19
HETATM   19  C   UNL     1      -8.229  16.780  68.549  1.00  0.00    -0.242 C  
HETATM   20  C   UNL     1      -7.243  16.394  67.438  1.00  0.00    -0.160 C  
HETATM   21 CL   UNL     1      -7.650  17.143  65.870  1.00  0.00    -0.170 Cl 
ENDBRANCH  15  19
ENDBRANCH  12  15
ENDBRANCH   8   9
ENDBRANCH   2   8
TORSDOF 5
ENDMDL
MODEL      185
REMARK 921   NORMALIZED FREE ENERGY PREDICTED BY IDOCK:   -3.41 KCAL/MOL
REMARK 922        TOTAL FREE ENERGY PREDICTED BY IDOCK:   -5.00 KCAL/MOL
REMARK 923 INTER-LIGAND FREE ENERGY PREDICTED BY IDOCK:   -4.61 KCAL/MOL
REMARK 924 INTRA-LIGAND FREE ENERGY PREDICTED BY IDOCK:   -0.39 KCAL/MOL
REMARK 927      BINDING AFFINITY PREDICTED BY RF-SCORE:    0.00 PKD
ROOT
HETATM    1  N   UNL     1      -9.514   8.455  71.736  1.00  0.00    -0.208 NA 
HETATM    2  CA  UNL     1     -10.917   8.513  71.205  1.00  0.00    -0.256 C  
HETATM    3  H1  UNL     1      -9.458   8.300  72.743  1.00  0.00     0.000 HD 
HETATM    4  H2  UNL     1      -8.997   9.295  71.474  1.00  0.00     0.000 HD 
HETATM    5  C   UNL     1     -11.601   7.180  71.548  1.00  0.00    -0.278 C  
HETATM    6  O   UNL     1     -10.817   6.416  72.355  1.00  0.00    -0.217 OA 
HETATM    7  OXT UNL     1     -12.706   6.833  71.165  1.00  0.00    -0.332 OA 
ENDROOT
BRANCH   2   8
HETATM    8  C   UNL     1     -11.001   8.748  69.685  1.00  0.00    -0.114 C  
BRANCH   8   9
HETATM    9  C   UNL     1     -10.965  10.207  69.297  1.00  0.00    -0.279 A  
HETATM   10  C   UNL     1      -9.757  10.838  68.988  1.00  0.00    -0.201 A  
HETATM   11  C   UNL     1      -9.710  12.216  68.735  1.00  0.00    -0.001 A  
HETATM   12  C   UNL     1     -10.860  13.017  68.782  1.00  0.00    -0.244 A  
HETATM   13  C   UNL     1     -12.074  12.342  69.003  1.00  0.00    -0.185 A  
HETATM   14  C   UNL     1     -12.132  10.969  69.270  1.00  0.00    -0.363 A  
BRANCH  12  15
HETATM   15  N   UNL     1     -10.824  14.402  68.645  1.00  0.00    -0.243 NA 
BRANCH  15  16
HETATM   16  C   UNL     1     -10.582  15.301  69.792  1.00  0.00    -0.282 C  
HETATM   17 CL   UNL     1     -13.219  15.190  70.589  1.00  0.00    -0.388 Cl 
HETATM   18  C   UNL     1     -11.794  16.169  70.139  1.00  0.00    -0.123 C  
ENDBRANCH  15  16
BRANCH  15  19
HETATM   19  C   UNL     1     -11.495  15.010  67.473  1.00  0.00    -0.328 C  
HETATM   20  C   UNL     1     -10.782  16.250  66.915  1.00  0.00    -0.217 C  
HETATM   21 CL   UNL     1      -9.143  15.884  66.313  1.00  0.00    -0.351 Cl 
ENDBRANCH  15  19
ENDBRANCH  12  15
ENDBRANCH   8   9
ENDBRANCH   2   8
TORSDOF 5
ENDMDL
MODEL      186
REMARK 921   NORMALIZED FREE ENERGY PREDICTED BY IDOCK:   -3.41 KCAL/MOL
REMARK 922        TOTAL FREE ENERGY PREDICTED BY IDOCK:   -4.99 KCAL/MOL
REMARK 923 INTER-LIGAND FREE ENERGY PREDICTED BY IDOCK:   -4.30 KCAL/MOL
REMARK 924 INTRA-LIGAND FREE ENERGY PREDICTED BY IDOCK:   -0.69 KCAL/MOL
REMARK 927      BINDING AFFINITY PREDICTED BY RF-SCORE:    0.00 PKD
ROOT
HETATM    1  N   UNL     1      -8.545   8.260  64.668  1.00  0.00    -0.388 NA 
HETATM    2  CA  UNL     1      -8.345   7.605  66.005  1.00  0.00    -0.135 C  
HETATM    3  H1  UNL     1      -7.774   8.865  64.383  1.00  0.00     0.000 HD 
HETATM    4  H2  UNL     1      -9.428   8.771  64.648  1.00  0.00     0.000 HD 
HETATM    5  C   UNL     1      -7.053   6.775  65.929  1.00  0.00    -0.069 C  
HETATM    6  O   UNL     1      -6.393   6.995  64.761  1.00  0.00    -0.036 OA 
HETATM    7  OXT UNL     1      -6.649   6.016  66.795  1.00  0.00    -0.052 OA 
ENDROOT
BRANCH   2   8
HETATM    8  C   UNL     1      -9.509   6.692  66.434  1.00  0.00    -0.166 C  
BRANCH   8   9
HETATM    9  C   UNL     1      -9.844   6.794  67.904  1.00  0.00    -0.146 A  
HETATM   10  C   UNL     1     -10.703   5.872  68.509  1.00  0.00    -0.327 A  
HETATM   11  C   UNL     1     -11.100   6.030  69.845  1.00  0.00    -0.469 A  
HETATM   12  C   UNL     1     -10.660   7.107  70.625  1.00  0.00    -0.225 A  
HETATM   13  C   UNL     1      -9.724   7.967  70.021  1.00  0.00    -0.179 A  
HETATM   14  C   UNL     1      -9.331   7.827  68.684  1.00  0.00    -0.148 A  
BRANCH  12  15
HETATM   15  N   UNL     1     -11.125   7.348  71.915  1.00  0.00    -0.237 NA 
BRANCH  15  16
HETATM   16  C   UNL     1     -11.329   6.261  72.894  1.00  0.00    -0.152 C  
HETATM   17 CL   UNL     1      -9.139   7.028  74.382  1.00  0.00    -0.244 Cl 
HETATM   18  C   UNL     1     -10.021   5.749  73.502  1.00  0.00    -0.180 C  
ENDBRANCH  15  16
BRANCH  15  19
HETATM   19  C   UNL     1     -11.870   8.602  72.172  1.00  0.00    -0.377 C  
HETATM   20  C   UNL     1     -13.088   8.806  71.260  1.00  0.00    -0.177 C  
HETATM   21 CL   UNL     1     -14.324   7.537  71.475  1.00  0.00    -0.592 Cl 
ENDBRANCH  15  19
ENDBRANCH  12  15
ENDBRANCH   8   9
ENDBRANCH   2   8
TORSDOF 5
ENDMDL
MODEL      187
REMARK 921   NORMALIZED FREE ENERGY PREDICTED BY IDOCK:   -3.39 KCAL/MOL
REMARK 922        TOTAL FREE ENERGY PREDICTED BY IDOCK:   -4.97 KCAL/MOL
REMARK 923 INTER-LIGAND FREE ENERGY PREDICTED BY IDOCK:   -4.89 KCAL/MOL
REMARK 924 INTRA-LIGAND FREE ENERGY PREDICTED BY IDOCK:   -0.08 KCAL/MOL
REMARK 927      BINDING AFFINITY PREDICTED BY RF-SCORE:    0.00 PKD
ROOT
HETATM    1  N   UNL     1     -11.382   6.720  67.782  1.00  0.00    -0.622 NA 
HETATM    2  CA  UNL     1     -10.188   7.616  67.943  1.00  0.00    -0.198 C  
HETATM    3  H1  UNL     1     -11.350   6.135  66.947  1.00  0.00     0.000 HD 
HETATM    4  H2  UNL     1     -12.244   7.265  67.806  1.00  0.00     0.000 HD 
HETATM    5  C   UNL     1      -8.938   6.723  68.001  1.00  0.00    -0.117 C  
HETATM    6  O   UNL     1      -9.246   5.426  67.731  1.00  0.00    -0.108 OA 
HETATM    7  OXT UNL     1      -7.806   7.106  68.246  1.00  0.00    -0.117 OA 
ENDROOT
BRANCH   2   8
HETATM    8  C   UNL     1     -10.235   8.501  69.204  1.00  0.00    -0.218 C  
BRANCH   8   9
HETATM    9  C   UNL     1     -10.468   9.963  68.907  1.00  0.00    -0.229 A  
HETATM   10  C   UNL     1     -11.552  10.646  69.464  1.00  0.00    -0.360 A  
HETATM   11  C   UNL     1     -11.830  11.972  69.103  1.00  0.00    -0.369 A  
HETATM   12  C   UNL     1     -11.043  12.665  68.174  1.00  0.00    -0.249 A  
HETATM   13  C   UNL     1      -9.905  11.988  67.700  1.00  0.00    -0.191 A  
HETATM   14  C   UNL     1      -9.625  10.660  68.043  1.00  0.00    -0.167 A  
BRANCH  12  15
HETATM   15  N   UNL     1     -11.360  13.941  67.715  1.00  0.00    -0.293 NA 
BRANCH  15  16
HETATM   16  C   UNL     1     -10.433  14.732  66.882  1.00  0.00    -0.277 C  
HETATM   17 CL   UNL     1     -12.187  14.775  64.756  1.00  0.00    -0.392 Cl 
HETATM   18  C   UNL     1     -10.555  14.421  65.388  1.00  0.00    -0.365 C  
ENDBRANCH  15  16
BRANCH  15  19
HETATM   19  C   UNL     1     -12.401  14.709  68.436  1.00  0.00     0.044 C  
HETATM   20  C   UNL     1     -11.984  15.167  69.840  1.00  0.00    -0.337 C  
HETATM   21 CL   UNL     1     -10.591  16.282  69.811  1.00  0.00    -0.322 Cl 
ENDBRANCH  15  19
ENDBRANCH  12  15
ENDBRANCH   8   9
ENDBRANCH   2   8
TORSDOF 5
ENDMDL
MODEL      188
REMARK 921   NORMALIZED FREE ENERGY PREDICTED BY IDOCK:   -3.37 KCAL/MOL
REMARK 922        TOTAL FREE ENERGY PREDICTED BY IDOCK:   -4.95 KCAL/MOL
REMARK 923 INTER-LIGAND FREE ENERGY PREDICTED BY IDOCK:   -4.38 KCAL/MOL
REMARK 924 INTRA-LIGAND FREE ENERGY PREDICTED BY IDOCK:   -0.56 KCAL/MOL
REMARK 927      BINDING AFFINITY PREDICTED BY RF-SCORE:    0.00 PKD
ROOT
HETATM    1  N   UNL     1      -9.877   9.956  63.951  1.00  0.00    -0.471 NA 
HETATM    2  CA  UNL     1      -8.553   9.859  64.653  1.00  0.00    -0.182 C  
HETATM    3  H1  UNL     1     -10.082  10.885  63.581  1.00  0.00     0.000 HD 
HETATM    4  H2  UNL     1     -10.631   9.640  64.561  1.00  0.00     0.000 HD 
HETATM    5  C   UNL     1      -7.461  10.253  63.646  1.00  0.00    -0.087 C  
HETATM    6  O   UNL     1      -8.001  10.723  62.491  1.00  0.00    -0.168 OA 
HETATM    7  OXT UNL     1      -6.259  10.171  63.840  1.00  0.00    -0.127 OA 
ENDROOT
BRANCH   2   8
HETATM    8  C   UNL     1      -8.244   8.457  65.213  1.00  0.00    -0.151 C  
BRANCH   8   9
HETATM    9  C   UNL     1      -8.915   8.174  66.536  1.00  0.00    -0.191 A  
HETATM   10  C   UNL     1     -10.173   7.566  66.587  1.00  0.00    -0.261 A  
HETATM   11  C   UNL     1     -10.843   7.403  67.807  1.00  0.00    -0.186 A  
HETATM   12  C   UNL     1     -10.290   7.839  69.019  1.00  0.00    -0.211 A  
HETATM   13  C   UNL     1      -8.986   8.361  68.951  1.00  0.00    -0.146 A  
HETATM   14  C   UNL     1      -8.312   8.541  67.737  1.00  0.00    -0.130 A  
BRANCH  12  15
HETATM   15  N   UNL     1     -10.981   7.790  70.227  1.00  0.00    -0.250 NA 
BRANCH  15  16
HETATM   16  C   UNL     1     -10.816   8.822  71.271  1.00  0.00    -0.277 C  
HETATM   17 CL   UNL     1     -13.499   9.452  71.241  1.00  0.00    -0.378 Cl 
HETATM   18  C   UNL     1     -11.799   9.986  71.123  1.00  0.00    -0.393 C  
ENDBRANCH  15  16
BRANCH  15  19
HETATM   19  C   UNL     1     -11.509   6.484  70.683  1.00  0.00    -0.374 C  
HETATM   20  C   UNL     1     -10.470   5.353  70.686  1.00  0.00    -0.259 C  
HETATM   21 CL   UNL     1      -9.118   5.668  71.807  1.00  0.00    -0.142 Cl 
ENDBRANCH  15  19
ENDBRANCH  12  15
ENDBRANCH   8   9
ENDBRANCH   2   8
TORSDOF 5
ENDMDL
MODEL      189
REMARK 921   NORMALIZED FREE ENERGY PREDICTED BY IDOCK:   -3.35 KCAL/MOL
REMARK 922        TOTAL FREE ENERGY PREDICTED BY IDOCK:   -4.91 KCAL/MOL
REMARK 923 INTER-LIGAND FREE ENERGY PREDICTED BY IDOCK:   -4.61 KCAL/MOL
REMARK 924 INTRA-LIGAND FREE ENERGY PREDICTED BY IDOCK:   -0.30 KCAL/MOL
REMARK 927      BINDING AFFINITY PREDICTED BY RF-SCORE:    0.00 PKD
ROOT
HETATM    1  N   UNL     1     -11.002  14.611  71.158  1.00  0.00    -0.407 NA 
HETATM    2  CA  UNL     1     -12.482  14.562  70.908  1.00  0.00    -0.345 C  
HETATM    3  H1  UNL     1     -10.640  15.552  71.317  1.00  0.00     0.000 HD 
HETATM    4  H2  UNL     1     -10.495  14.156  70.399  1.00  0.00     0.000 HD 
HETATM    5  C   UNL     1     -13.182  15.171  72.133  1.00  0.00    -0.376 C  
HETATM    6  O   UNL     1     -12.283  15.716  72.996  1.00  0.00    -0.382 OA 
HETATM    7  OXT UNL     1     -14.387  15.184  72.325  1.00  0.00    -0.508 OA 
ENDROOT
BRANCH   2   8
HETATM    8  C   UNL     1     -13.028  13.142  70.668  1.00  0.00     0.010 C  
BRANCH   8   9
HETATM    9  C   UNL     1     -11.977  12.163  70.199  1.00  0.00    -0.394 A  
HETATM   10  C   UNL     1     -11.718  10.991  70.915  1.00  0.00    -0.185 A  
HETATM   11  C   UNL     1     -10.670  10.138  70.542  1.00  0.00    -0.295 A  
HETATM   12  C   UNL     1      -9.842  10.418  69.447  1.00  0.00    -0.213 A  
HETATM   13  C   UNL     1     -10.183  11.553  68.689  1.00  0.00    -0.217 A  
HETATM   14  C   UNL     1     -11.218  12.420  69.060  1.00  0.00    -0.320 A  
BRANCH  12  15
HETATM   15  N   UNL     1      -8.728   9.648  69.122  1.00  0.00    -0.142 NA 
BRANCH  15  16
HETATM   16  C   UNL     1      -8.229   9.530  67.737  1.00  0.00    -0.114 C  
HETATM   17 CL   UNL     1     -10.538   8.289  66.884  1.00  0.00    -0.369 Cl 
HETATM   18  C   UNL     1      -8.756   8.288  67.015  1.00  0.00    -0.127 C  
ENDBRANCH  15  16
BRANCH  15  19
HETATM   19  C   UNL     1      -8.323   8.570  70.053  1.00  0.00    -0.123 C  
HETATM   20  C   UNL     1      -6.811   8.490  70.301  1.00  0.00    -0.039 C  
HETATM   21 CL   UNL     1      -6.163   9.966  71.067  1.00  0.00    -0.068 Cl 
ENDBRANCH  15  19
ENDBRANCH  12  15
ENDBRANCH   8   9
ENDBRANCH   2   8
TORSDOF 5
ENDMDL
MODEL      190
REMARK 921   NORMALIZED FREE ENERGY PREDICTED BY IDOCK:   -3.35 KCAL/MOL
REMARK 922        TOTAL FREE ENERGY PREDICTED BY IDOCK:   -4.91 KCAL/MOL
REMARK 923 INTER-LIGAND FREE ENERGY PREDICTED BY IDOCK:   -4.56 KCAL/MOL
REMARK 924 INTRA-LIGAND FREE ENERGY PREDICTED BY IDOCK:   -0.35 KCAL/MOL
REMARK 927      BINDING AFFINITY PREDICTED BY RF-SCORE:    0.00 PKD
ROOT
HETATM    1  N   UNL     1      -8.628   7.678  64.567  1.00  0.00    -0.367 NA 
HETATM    2  CA  UNL     1      -8.501   9.172  64.498  1.00  0.00    -0.180 C  
HETATM    3  H1  UNL     1      -7.817   7.176  64.204  1.00  0.00     0.000 HD 
HETATM    4  H2  UNL     1      -9.480   7.368  64.098  1.00  0.00     0.000 HD 
HETATM    5  C   UNL     1      -7.257   9.573  65.307  1.00  0.00    -0.104 C  
HETATM    6  O   UNL     1      -6.554   8.479  65.704  1.00  0.00    -0.058 OA 
HETATM    7  OXT UNL     1      -6.919  10.717  65.564  1.00  0.00    -0.128 OA 
ENDROOT
BRANCH   2   8
HETATM    8  C   UNL     1      -9.726   9.930  65.045  1.00  0.00    -0.359 C  
BRANCH   8   9
HETATM    9  C   UNL     1     -10.022   9.628  66.496  1.00  0.00    -0.313 A  
HETATM   10  C   UNL     1      -9.957  10.632  67.466  1.00  0.00    -0.201 A  
HETATM   11  C   UNL     1     -10.125  10.331  68.825  1.00  0.00    -0.198 A  
HETATM   12  C   UNL     1     -10.361   9.023  69.268  1.00  0.00    -0.219 A  
HETATM   13  C   UNL     1     -10.516   8.048  68.266  1.00  0.00    -0.210 A  
HETATM   14  C   UNL     1     -10.337   8.335  66.907  1.00  0.00    -0.391 A  
BRANCH  12  15
HETATM   15  N   UNL     1     -10.421   8.679  70.617  1.00  0.00    -0.198 NA 
BRANCH  15  16
HETATM   16  C   UNL     1      -9.206   8.479  71.432  1.00  0.00    -0.210 C  
HETATM   17 CL   UNL     1      -8.894   5.887  70.549  1.00  0.00    -0.142 Cl 
HETATM   18  C   UNL     1      -9.036   7.035  71.910  1.00  0.00    -0.139 C  
ENDBRANCH  15  16
BRANCH  15  19
HETATM   19  C   UNL     1     -11.658   8.046  71.127  1.00  0.00    -0.282 C  
HETATM   20  C   UNL     1     -12.540   8.978  71.968  1.00  0.00    -0.394 C  
HETATM   21 CL   UNL     1     -13.143  10.375  71.036  1.00  0.00    -0.469 Cl 
ENDBRANCH  15  19
ENDBRANCH  12  15
ENDBRANCH   8   9
ENDBRANCH   2   8
TORSDOF 5
ENDMDL
MODEL      191
REMARK 921   NORMALIZED FREE ENERGY PREDICTED BY IDOCK:   -3.34 KCAL/MOL
REMARK 922        TOTAL FREE ENERGY PREDICTED BY IDOCK:   -4.91 KCAL/MOL
REMARK 923 INTER-LIGAND FREE ENERGY PREDICTED BY IDOCK:   -4.26 KCAL/MOL
REMARK 924 INTRA-LIGAND FREE ENERGY PREDICTED BY IDOCK:   -0.64 KCAL/MOL
REMARK 927      BINDING AFFINITY PREDICTED BY RF-SCORE:    0.00 PKD
ROOT
HETATM    1  N   UNL     1      -9.354   9.147  70.003  1.00  0.00    -0.184 NA 
HETATM    2  CA  UNL     1      -9.787   9.462  68.599  1.00  0.00    -0.163 C  
HETATM    3  H1  UNL     1     -10.090   8.739  70.580  1.00  0.00     0.000 HD 
HETATM    4  H2  UNL     1      -8.963   9.975  70.452  1.00  0.00     0.000 HD 
HETATM    5  C   UNL     1     -10.268   8.153  67.954  1.00  0.00    -0.218 C  
HETATM    6  O   UNL     1     -10.319   7.144  68.864  1.00  0.00    -0.185 OA 
HETATM    7  OXT UNL     1     -10.577   8.015  66.781  1.00  0.00    -0.320 OA 
ENDROOT
BRANCH   2   8
HETATM    8  C   UNL     1      -8.676  10.078  67.727  1.00  0.00    -0.125 C  
BRANCH   8   9
HETATM    9  C   UNL     1      -8.829  11.566  67.517  1.00  0.00    -0.155 A  
HETATM   10  C   UNL     1      -8.269  12.478  68.416  1.00  0.00    -0.136 A  
HETATM   11  C   UNL     1      -8.503  13.854  68.282  1.00  0.00    -0.169 A  
HETATM   12  C   UNL     1      -9.301  14.372  67.254  1.00  0.00    -0.208 A  
HETATM   13  C   UNL     1      -9.775  13.443  66.310  1.00  0.00    -0.280 A  
HETATM   14  C   UNL     1      -9.559  12.065  66.441  1.00  0.00    -0.239 A  
BRANCH  12  15
HETATM   15  N   UNL     1      -9.640  15.720  67.163  1.00  0.00    -0.216 NA 
BRANCH  15  16
HETATM   16  C   UNL     1      -9.189  16.572  66.045  1.00  0.00    -0.260 C  
HETATM   17 CL   UNL     1      -6.577  16.554  66.926  1.00  0.00    -0.230 Cl 
HETATM   18  C   UNL     1      -8.016  17.482  66.420  1.00  0.00    -0.285 C  
ENDBRANCH  15  16
BRANCH  15  19
HETATM   19  C   UNL     1     -10.039  16.429  68.401  1.00  0.00    -0.245 C  
HETATM   20  C   UNL     1     -11.516  16.254  68.777  1.00  0.00    -0.289 C  
HETATM   21 CL   UNL     1     -11.939  14.554  69.118  1.00  0.00    -0.354 Cl 
ENDBRANCH  15  19
ENDBRANCH  12  15
ENDBRANCH   8   9
ENDBRANCH   2   8
TORSDOF 5
ENDMDL
MODEL      192
REMARK 921   NORMALIZED FREE ENERGY PREDICTED BY IDOCK:   -3.34 KCAL/MOL
REMARK 922        TOTAL FREE ENERGY PREDICTED BY IDOCK:   -4.90 KCAL/MOL
REMARK 923 INTER-LIGAND FREE ENERGY PREDICTED BY IDOCK:   -4.57 KCAL/MOL
REMARK 924 INTRA-LIGAND FREE ENERGY PREDICTED BY IDOCK:   -0.33 KCAL/MOL
REMARK 927      BINDING AFFINITY PREDICTED BY RF-SCORE:    0.00 PKD
ROOT
HETATM    1  N   UNL     1     -10.129  19.008  69.094  1.00  0.00    -0.515 NA 
HETATM    2  CA  UNL     1      -9.402  18.026  68.220  1.00  0.00    -0.295 C  
HETATM    3  H1  UNL     1      -9.642  19.227  69.964  1.00  0.00     0.000 HD 
HETATM    4  H2  UNL     1     -11.077  18.684  69.286  1.00  0.00     0.000 HD 
HETATM    5  C   UNL     1      -8.025  18.624  67.891  1.00  0.00    -0.259 C  
HETATM    6  O   UNL     1      -7.799  19.762  68.599  1.00  0.00    -0.321 OA 
HETATM    7  OXT UNL     1      -7.219  18.151  67.106  1.00  0.00    -0.194 OA 
ENDROOT
BRANCH   2   8
HETATM    8  C   UNL     1     -10.137  17.696  66.907  1.00  0.00    -0.331 C  
BRANCH   8   9
HETATM    9  C   UNL     1      -9.995  16.253  66.483  1.00  0.00    -0.290 A  
HETATM   10  C   UNL     1     -10.081  15.888  65.137  1.00  0.00    -0.093 A  
HETATM   11  C   UNL     1     -10.058  14.540  64.754  1.00  0.00    -0.109 A  
HETATM   12  C   UNL     1      -9.952  13.506  65.694  1.00  0.00    -0.236 A  
HETATM   13  C   UNL     1      -9.774  13.903  67.032  1.00  0.00    -0.250 A  
HETATM   14  C   UNL     1      -9.808  15.246  67.427  1.00  0.00    -0.217 A  
BRANCH  12  15
HETATM   15  N   UNL     1     -10.040  12.159  65.352  1.00  0.00    -0.253 NA 
BRANCH  15  16
HETATM   16  C   UNL     1     -10.515  11.712  64.027  1.00  0.00    -0.367 C  
HETATM   17 CL   UNL     1     -12.830  13.197  64.224  1.00  0.00    -0.151 Cl 
HETATM   18  C   UNL     1     -12.040  11.620  63.937  1.00  0.00    -0.195 C  
ENDBRANCH  15  16
BRANCH  15  19
HETATM   19  C   UNL     1     -10.122  11.160  66.442  1.00  0.00    -0.226 C  
HETATM   20  C   UNL     1      -9.010  10.102  66.410  1.00  0.00    -0.144 C  
HETATM   21 CL   UNL     1      -7.385  10.810  66.617  1.00  0.00    -0.127 Cl 
ENDBRANCH  15  19
ENDBRANCH  12  15
ENDBRANCH   8   9
ENDBRANCH   2   8
TORSDOF 5
ENDMDL
MODEL      193
REMARK 921   NORMALIZED FREE ENERGY PREDICTED BY IDOCK:   -3.33 KCAL/MOL
REMARK 922        TOTAL FREE ENERGY PREDICTED BY IDOCK:   -4.89 KCAL/MOL
REMARK 923 INTER-LIGAND FREE ENERGY PREDICTED BY IDOCK:   -4.23 KCAL/MOL
REMARK 924 INTRA-LIGAND FREE ENERGY PREDICTED BY IDOCK:   -0.66 KCAL/MOL
REMARK 927      BINDING AFFINITY PREDICTED BY RF-SCORE:    0.00 PKD
ROOT
HETATM    1  N   UNL     1      -7.692   7.406  68.963  1.00  0.00    -0.115 NA 
HETATM    2  CA  UNL     1      -8.730   7.978  69.886  1.00  0.00    -0.139 C  
HETATM    3  H1  UNL     1      -6.774   7.290  69.393  1.00  0.00     0.000 HD 
HETATM    4  H2  UNL     1      -7.621   7.966  68.113  1.00  0.00     0.000 HD 
HETATM    5  C   UNL     1      -8.854   7.032  71.091  1.00  0.00    -0.141 C  
HETATM    6  O   UNL     1      -7.899   6.064  71.059  1.00  0.00    -0.106 OA 
HETATM    7  OXT UNL     1      -9.687   7.123  71.978  1.00  0.00    -0.158 OA 
ENDROOT
BRANCH   2   8
HETATM    8  C   UNL     1     -10.116   8.153  69.236  1.00  0.00    -0.202 C  
BRANCH   8   9
HETATM    9  C   UNL     1     -10.396   9.568  68.786  1.00  0.00    -0.228 A  
HETATM   10  C   UNL     1     -11.134  10.443  69.588  1.00  0.00    -0.328 A  
HETATM   11  C   UNL     1     -11.486  11.719  69.124  1.00  0.00    -0.358 A  
HETATM   12  C   UNL     1     -11.120  12.169  67.849  1.00  0.00    -0.245 A  
HETATM   13  C   UNL     1     -10.299  11.307  67.100  1.00  0.00    -0.244 A  
HETATM   14  C   UNL     1      -9.952  10.026  67.547  1.00  0.00    -0.232 A  
BRANCH  12  15
HETATM   15  N   UNL     1     -11.550  13.385  67.323  1.00  0.00    -0.339 NA 
BRANCH  15  16
HETATM   16  C   UNL     1     -11.422  14.654  68.066  1.00  0.00    -0.324 C  
HETATM   17 CL   UNL     1      -8.847  15.059  67.168  1.00  0.00    -0.216 Cl 
HETATM   18  C   UNL     1      -9.992  14.933  68.534  1.00  0.00    -0.223 C  
ENDBRANCH  15  16
BRANCH  15  19
HETATM   19  C   UNL     1     -12.562  13.364  66.242  1.00  0.00    -0.168 C  
HETATM   20  C   UNL     1     -12.518  14.588  65.316  1.00  0.00    -0.279 C  
HETATM   21 CL   UNL     1     -10.972  14.724  64.435  1.00  0.00    -0.188 Cl 
ENDBRANCH  15  19
ENDBRANCH  12  15
ENDBRANCH   8   9
ENDBRANCH   2   8
TORSDOF 5
ENDMDL
MODEL      194
REMARK 921   NORMALIZED FREE ENERGY PREDICTED BY IDOCK:   -3.30 KCAL/MOL
REMARK 922        TOTAL FREE ENERGY PREDICTED BY IDOCK:   -4.86 KCAL/MOL
REMARK 923 INTER-LIGAND FREE ENERGY PREDICTED BY IDOCK:   -4.30 KCAL/MOL
REMARK 924 INTRA-LIGAND FREE ENERGY PREDICTED BY IDOCK:   -0.56 KCAL/MOL
REMARK 927      BINDING AFFINITY PREDICTED BY RF-SCORE:    0.00 PKD
ROOT
HETATM    1  N   UNL     1     -11.107  14.829  72.153  1.00  0.00    -0.118 NA 
HETATM    2  CA  UNL     1     -12.094  14.786  71.022  1.00  0.00    -0.330 C  
HETATM    3  H1  UNL     1     -10.855  15.773  72.448  1.00  0.00     0.000 HD 
HETATM    4  H2  UNL     1     -10.271  14.292  71.920  1.00  0.00     0.000 HD 
HETATM    5  C   UNL     1     -13.361  15.525  71.480  1.00  0.00    -0.509 C  
HETATM    6  O   UNL     1     -13.170  16.132  72.682  1.00  0.00    -0.426 OA 
HETATM    7  OXT UNL     1     -14.410  15.581  70.860  1.00  0.00    -0.392 OA 
ENDROOT
BRANCH   2   8
HETATM    8  C   UNL     1     -12.473  13.360  70.577  1.00  0.00    -0.350 C  
BRANCH   8   9
HETATM    9  C   UNL     1     -11.414  12.690  69.734  1.00  0.00    -0.200 A  
HETATM   10  C   UNL     1     -11.248  11.303  69.760  1.00  0.00    -0.294 A  
HETATM   11  C   UNL     1     -10.196  10.691  69.064  1.00  0.00    -0.231 A  
HETATM   12  C   UNL     1      -9.271  11.435  68.319  1.00  0.00    -0.183 A  
HETATM   13  C   UNL     1      -9.515  12.818  68.233  1.00  0.00    -0.203 A  
HETATM   14  C   UNL     1     -10.555  13.441  68.935  1.00  0.00    -0.181 A  
BRANCH  12  15
HETATM   15  N   UNL     1      -8.155  10.865  67.711  1.00  0.00    -0.114 NA 
BRANCH  15  16
HETATM   16  C   UNL     1      -6.908  10.591  68.453  1.00  0.00    -0.064 C  
HETATM   17 CL   UNL     1      -5.805  13.012  67.735  1.00  0.00    -0.131 Cl 
HETATM   18  C   UNL     1      -5.675  11.233  67.812  1.00  0.00    -0.044 C  
ENDBRANCH  15  16
BRANCH  15  19
HETATM   19  C   UNL     1      -8.026  10.971  66.240  1.00  0.00    -0.148 C  
HETATM   20  C   UNL     1      -8.430   9.699  65.481  1.00  0.00    -0.142 C  
HETATM   21 CL   UNL     1     -10.147   9.278  65.718  1.00  0.00    -0.242 Cl 
ENDBRANCH  15  19
ENDBRANCH  12  15
ENDBRANCH   8   9
ENDBRANCH   2   8
TORSDOF 5
ENDMDL
MODEL      195
REMARK 921   NORMALIZED FREE ENERGY PREDICTED BY IDOCK:   -3.29 KCAL/MOL
REMARK 922        TOTAL FREE ENERGY PREDICTED BY IDOCK:   -4.85 KCAL/MOL
REMARK 923 INTER-LIGAND FREE ENERGY PREDICTED BY IDOCK:   -4.27 KCAL/MOL
REMARK 924 INTRA-LIGAND FREE ENERGY PREDICTED BY IDOCK:   -0.57 KCAL/MOL
REMARK 927      BINDING AFFINITY PREDICTED BY RF-SCORE:    0.00 PKD
ROOT
HETATM    1  N   UNL     1     -10.815  14.857  71.388  1.00  0.00    -0.446 NA 
HETATM    2  CA  UNL     1     -12.069  14.690  70.578  1.00  0.00    -0.321 C  
HETATM    3  H1  UNL     1     -10.517  15.827  71.494  1.00  0.00     0.000 HD 
HETATM    4  H2  UNL     1     -10.060  14.290  71.000  1.00  0.00     0.000 HD 
HETATM    5  C   UNL     1     -13.183  15.486  71.276  1.00  0.00    -0.515 C  
HETATM    6  O   UNL     1     -12.691  16.228  72.304  1.00  0.00    -0.389 OA 
HETATM    7  OXT UNL     1     -14.362  15.477  70.960  1.00  0.00    -0.462 OA 
ENDROOT
BRANCH   2   8
HETATM    8  C   UNL     1     -12.519  13.225  70.418  1.00  0.00    -0.295 C  
BRANCH   8   9
HETATM    9  C   UNL     1     -11.456  12.329  69.828  1.00  0.00    -0.237 A  
HETATM   10  C   UNL     1     -10.754  12.708  68.680  1.00  0.00    -0.269 A  
HETATM   11  C   UNL     1      -9.846  11.830  68.070  1.00  0.00    -0.184 A  
HETATM   12  C   UNL     1      -9.604  10.547  68.578  1.00  0.00    -0.163 A  
HETATM   13  C   UNL     1     -10.251  10.227  69.785  1.00  0.00    -0.262 A  
HETATM   14  C   UNL     1     -11.170  11.089  70.395  1.00  0.00    -0.102 A  
BRANCH  12  15
HETATM   15  N   UNL     1      -8.793   9.617  67.931  1.00  0.00    -0.119 NA 
BRANCH  15  16
HETATM   16  C   UNL     1      -9.348   8.448  67.220  1.00  0.00    -0.146 C  
HETATM   17 CL   UNL     1      -9.492   9.817  64.832  1.00  0.00    -0.339 Cl 
HETATM   18  C   UNL     1     -10.300   8.833  66.085  1.00  0.00     0.215 C  
ENDBRANCH  15  16
BRANCH  15  19
HETATM   19  C   UNL     1      -7.374   9.514  68.344  1.00  0.00    -0.076 C  
HETATM   20  C   UNL     1      -6.421   9.100  67.215  1.00  0.00    -0.060 C  
HETATM   21 CL   UNL     1      -6.380  10.286  65.883  1.00  0.00    -0.098 Cl 
ENDBRANCH  15  19
ENDBRANCH  12  15
ENDBRANCH   8   9
ENDBRANCH   2   8
TORSDOF 5
ENDMDL
MODEL      196
REMARK 921   NORMALIZED FREE ENERGY PREDICTED BY IDOCK:   -3.25 KCAL/MOL
REMARK 922        TOTAL FREE ENERGY PREDICTED BY IDOCK:   -4.79 KCAL/MOL
REMARK 923 INTER-LIGAND FREE ENERGY PREDICTED BY IDOCK:   -4.35 KCAL/MOL
REMARK 924 INTRA-LIGAND FREE ENERGY PREDICTED BY IDOCK:   -0.44 KCAL/MOL
REMARK 927      BINDING AFFINITY PREDICTED BY RF-SCORE:    0.00 PKD
ROOT
HETATM    1  N   UNL     1      -8.670  12.441  68.676  1.00  0.00    -0.372 NA 
HETATM    2  CA  UNL     1      -8.413  11.756  67.364  1.00  0.00    -0.158 C  
HETATM    3  H1  UNL     1      -8.922  13.426  68.586  1.00  0.00     0.000 HD 
HETATM    4  H2  UNL     1      -7.871  12.332  69.300  1.00  0.00     0.000 HD 
HETATM    5  C   UNL     1      -9.690  11.874  66.518  1.00  0.00    -0.210 C  
HETATM    6  O   UNL     1     -10.604  12.684  67.115  1.00  0.00    -0.233 OA 
HETATM    7  OXT UNL     1      -9.878  11.328  65.443  1.00  0.00    -0.216 OA 
ENDROOT
BRANCH   2   8
HETATM    8  C   UNL     1      -8.031  10.269  67.500  1.00  0.00    -0.106 C  
BRANCH   8   9
HETATM    9  C   UNL     1      -8.712   9.576  68.657  1.00  0.00    -0.127 A  
HETATM   10  C   UNL     1      -8.120   9.543  69.923  1.00  0.00    -0.163 A  
HETATM   11  C   UNL     1      -8.698   8.808  70.967  1.00  0.00    -0.248 A  
HETATM   12  C   UNL     1      -9.882   8.079  70.792  1.00  0.00    -0.183 A  
HETATM   13  C   UNL     1     -10.506   8.205  69.538  1.00  0.00    -0.227 A  
HETATM   14  C   UNL     1      -9.931   8.925  68.483  1.00  0.00    -0.195 A  
BRANCH  12  15
HETATM   15  N   UNL     1     -10.416   7.253  71.778  1.00  0.00    -0.197 NA 
BRANCH  15  16
HETATM   16  C   UNL     1     -10.571   5.797  71.587  1.00  0.00    -0.245 C  
HETATM   17 CL   UNL     1      -8.158   5.259  72.806  1.00  0.00    -0.109 Cl 
HETATM   18  C   UNL     1      -9.236   5.072  71.394  1.00  0.00    -0.146 C  
ENDBRANCH  15  16
BRANCH  15  19
HETATM   19  C   UNL     1     -11.269   7.866  72.823  1.00  0.00    -0.405 C  
HETATM   20  C   UNL     1     -12.494   8.610  72.276  1.00  0.00    -0.395 C  
HETATM   21 CL   UNL     1     -13.617   7.532  71.403  1.00  0.00    -0.415 Cl 
ENDBRANCH  15  19
ENDBRANCH  12  15
ENDBRANCH   8   9
ENDBRANCH   2   8
TORSDOF 5
ENDMDL
MODEL      197
REMARK 921   NORMALIZED FREE ENERGY PREDICTED BY IDOCK:   -3.23 KCAL/MOL
REMARK 922        TOTAL FREE ENERGY PREDICTED BY IDOCK:   -4.77 KCAL/MOL
REMARK 923 INTER-LIGAND FREE ENERGY PREDICTED BY IDOCK:   -4.05 KCAL/MOL
REMARK 924 INTRA-LIGAND FREE ENERGY PREDICTED BY IDOCK:   -0.72 KCAL/MOL
REMARK 927      BINDING AFFINITY PREDICTED BY RF-SCORE:    0.00 PKD
ROOT
HETATM    1  N   UNL     1     -10.217  14.702  69.856  1.00  0.00    -0.437 NA 
HETATM    2  CA  UNL     1     -10.581  13.856  68.670  1.00  0.00    -0.257 C  
HETATM    3  H1  UNL     1      -9.820  15.610  69.610  1.00  0.00     0.000 HD 
HETATM    4  H2  UNL     1      -9.590  14.194  70.480  1.00  0.00     0.000 HD 
HETATM    5  C   UNL     1     -11.601  14.642  67.831  1.00  0.00    -0.348 C  
HETATM    6  O   UNL     1     -11.752  15.910  68.299  1.00  0.00    -0.327 OA 
HETATM    7  OXT UNL     1     -12.202  14.209  66.861  1.00  0.00    -0.439 OA 
ENDROOT
BRANCH   2   8
HETATM    8  C   UNL     1     -11.180  12.485  69.041  1.00  0.00    -0.321 C  
BRANCH   8   9
HETATM    9  C   UNL     1     -10.499  11.324  68.355  1.00  0.00    -0.219 A  
HETATM   10  C   UNL     1     -11.189  10.527  67.438  1.00  0.00    -0.249 A  
HETATM   11  C   UNL     1     -10.591   9.386  66.885  1.00  0.00    -0.238 A  
HETATM   12  C   UNL     1      -9.288   8.996  67.223  1.00  0.00    -0.139 A  
HETATM   13  C   UNL     1      -8.584   9.866  68.075  1.00  0.00    -0.121 A  
HETATM   14  C   UNL     1      -9.175  11.000  68.644  1.00  0.00    -0.186 A  
BRANCH  12  15
HETATM   15  N   UNL     1      -8.713   7.809  66.775  1.00  0.00    -0.130 NA 
BRANCH  15  16
HETATM   16  C   UNL     1      -9.490   6.562  66.631  1.00  0.00    -0.159 C  
HETATM   17 CL   UNL     1      -9.987   6.417  69.339  1.00  0.00    -0.174 Cl 
HETATM   18  C   UNL     1      -9.378   5.642  67.849  1.00  0.00    -0.107 C  
ENDBRANCH  15  16
BRANCH  15  19
HETATM   19  C   UNL     1      -7.246   7.650  66.897  1.00  0.00    -0.088 C  
HETATM   20  C   UNL     1      -6.540   7.306  65.578  1.00  0.00    -0.048 C  
HETATM   21 CL   UNL     1      -6.718   8.588  64.350  1.00  0.00    -0.066 Cl 
ENDBRANCH  15  19
ENDBRANCH  12  15
ENDBRANCH   8   9
ENDBRANCH   2   8
TORSDOF 5
ENDMDL
MODEL      198
REMARK 921   NORMALIZED FREE ENERGY PREDICTED BY IDOCK:   -3.21 KCAL/MOL
REMARK 922        TOTAL FREE ENERGY PREDICTED BY IDOCK:   -4.74 KCAL/MOL
REMARK 923 INTER-LIGAND FREE ENERGY PREDICTED BY IDOCK:   -4.35 KCAL/MOL
REMARK 924 INTRA-LIGAND FREE ENERGY PREDICTED BY IDOCK:   -0.39 KCAL/MOL
REMARK 927      BINDING AFFINITY PREDICTED BY RF-SCORE:    0.00 PKD
ROOT
HETATM    1  N   UNL     1     -10.237  13.852  67.342  1.00  0.00    -0.250 NA 
HETATM    2  CA  UNL     1     -11.013  12.825  66.569  1.00  0.00    -0.262 C  
HETATM    3  H1  UNL     1      -9.889  14.623  66.772  1.00  0.00     0.000 HD 
HETATM    4  H2  UNL     1      -9.472  13.412  67.855  1.00  0.00     0.000 HD 
HETATM    5  C   UNL     1     -12.202  13.539  65.907  1.00  0.00    -0.460 C  
HETATM    6  O   UNL     1     -12.121  14.887  66.070  1.00  0.00    -0.156 OA 
HETATM    7  OXT UNL     1     -13.108  12.990  65.302  1.00  0.00    -0.689 OA 
ENDROOT
BRANCH   2   8
HETATM    8  C   UNL     1     -11.538  11.660  67.430  1.00  0.00    -0.330 C  
BRANCH   8   9
HETATM    9  C   UNL     1     -10.612  10.467  67.460  1.00  0.00    -0.312 A  
HETATM   10  C   UNL     1     -10.569   9.565  66.394  1.00  0.00    -0.083 A  
HETATM   11  C   UNL     1      -9.791   8.401  66.468  1.00  0.00    -0.338 A  
HETATM   12  C   UNL     1      -9.031   8.090  67.603  1.00  0.00    -0.135 A  
HETATM   13  C   UNL     1      -9.018   9.060  68.623  1.00  0.00    -0.137 A  
HETATM   14  C   UNL     1      -9.801  10.219  68.565  1.00  0.00    -0.174 A  
BRANCH  12  15
HETATM   15  N   UNL     1      -8.339   6.890  67.747  1.00  0.00    -0.120 NA 
BRANCH  15  16
HETATM   16  C   UNL     1      -7.427   6.638  68.880  1.00  0.00    -0.096 C  
HETATM   17 CL   UNL     1      -9.115   4.754  69.976  1.00  0.00    -0.143 Cl 
HETATM   18  C   UNL     1      -8.162   6.252  70.167  1.00  0.00    -0.121 C  
ENDBRANCH  15  16
BRANCH  15  19
HETATM   19  C   UNL     1      -8.130   6.051  66.545  1.00  0.00    -0.109 C  
HETATM   20  C   UNL     1      -8.977   4.772  66.517  1.00  0.00    -0.112 C  
HETATM   21 CL   UNL     1     -10.728   5.110  66.486  1.00  0.00    -0.324 Cl 
ENDBRANCH  15  19
ENDBRANCH  12  15
ENDBRANCH   8   9
ENDBRANCH   2   8
TORSDOF 5
ENDMDL
MODEL      199
REMARK 921   NORMALIZED FREE ENERGY PREDICTED BY IDOCK:   -3.21 KCAL/MOL
REMARK 922        TOTAL FREE ENERGY PREDICTED BY IDOCK:   -4.74 KCAL/MOL
REMARK 923 INTER-LIGAND FREE ENERGY PREDICTED BY IDOCK:   -4.15 KCAL/MOL
REMARK 924 INTRA-LIGAND FREE ENERGY PREDICTED BY IDOCK:   -0.59 KCAL/MOL
REMARK 927      BINDING AFFINITY PREDICTED BY RF-SCORE:    0.00 PKD
ROOT
HETATM    1  N   UNL     1      -7.504   8.633  67.349  1.00  0.00    -0.089 NA 
HETATM    2  CA  UNL     1      -7.231   7.319  66.674  1.00  0.00    -0.080 C  
HETATM    3  H1  UNL     1      -7.347   9.445  66.751  1.00  0.00     0.000 HD 
HETATM    4  H2  UNL     1      -6.964   8.712  68.211  1.00  0.00     0.000 HD 
HETATM    5  C   UNL     1      -8.149   7.226  65.445  1.00  0.00    -0.133 C  
HETATM    6  O   UNL     1      -8.807   8.396  65.231  1.00  0.00    -0.160 OA 
HETATM    7  OXT UNL     1      -8.279   6.244  64.733  1.00  0.00    -0.137 OA 
ENDROOT
BRANCH   2   8
HETATM    8  C   UNL     1      -7.468   6.092  67.576  1.00  0.00    -0.082 C  
BRANCH   8   9
HETATM    9  C   UNL     1      -8.548   6.305  68.611  1.00  0.00    -0.121 A  
HETATM   10  C   UNL     1      -8.226   6.688  69.915  1.00  0.00    -0.127 A  
HETATM   11  C   UNL     1      -9.217   6.779  70.903  1.00  0.00    -0.157 A  
HETATM   12  C   UNL     1     -10.561   6.491  70.631  1.00  0.00    -0.233 A  
HETATM   13  C   UNL     1     -10.871   6.199  69.290  1.00  0.00    -0.418 A  
HETATM   14  C   UNL     1      -9.889   6.092  68.299  1.00  0.00    -0.138 A  
BRANCH  12  15
HETATM   15  N   UNL     1     -11.544   6.466  71.616  1.00  0.00    -0.301 NA 
BRANCH  15  16
HETATM   16  C   UNL     1     -12.821   7.195  71.474  1.00  0.00    -0.391 C  
HETATM   17 CL   UNL     1     -11.578   9.649  71.653  1.00  0.00    -0.449 Cl 
HETATM   18  C   UNL     1     -12.839   8.524  72.232  1.00  0.00    -0.355 C  
ENDBRANCH  15  16
BRANCH  15  19
HETATM   19  C   UNL     1     -11.145   6.119  72.999  1.00  0.00    -0.218 C  
HETATM   20  C   UNL     1     -11.244   4.622  73.325  1.00  0.00    -0.325 C  
HETATM   21 CL   UNL     1     -10.158   3.628  72.317  1.00  0.00    -0.237 Cl 
ENDBRANCH  15  19
ENDBRANCH  12  15
ENDBRANCH   8   9
ENDBRANCH   2   8
TORSDOF 5
ENDMDL
MODEL      200
REMARK 921   NORMALIZED FREE ENERGY PREDICTED BY IDOCK:   -3.17 KCAL/MOL
REMARK 922        TOTAL FREE ENERGY PREDICTED BY IDOCK:   -4.69 KCAL/MOL
REMARK 923 INTER-LIGAND FREE ENERGY PREDICTED BY IDOCK:   -4.10 KCAL/MOL
REMARK 924 INTRA-LIGAND FREE ENERGY PREDICTED BY IDOCK:   -0.59 KCAL/MOL
REMARK 927      BINDING AFFINITY PREDICTED BY RF-SCORE:    0.00 PKD
ROOT
HETATM    1  N   UNL     1     -10.644   3.079  72.610  1.00  0.00    -0.092 NA 
HETATM    2  CA  UNL     1      -9.253   2.725  72.167  1.00  0.00    -0.095 C  
HETATM    3  H1  UNL     1     -11.023   2.454  73.323  1.00  0.00     0.000 HD 
HETATM    4  H2  UNL     1     -11.273   3.131  71.808  1.00  0.00     0.000 HD 
HETATM    5  C   UNL     1      -8.345   2.765  73.406  1.00  0.00    -0.071 C  
HETATM    6  O   UNL     1      -9.069   2.940  74.544  1.00  0.00    -0.078 OA 
HETATM    7  OXT UNL     1      -7.130   2.647  73.396  1.00  0.00    -0.033 OA 
ENDROOT
BRANCH   2   8
HETATM    8  C   UNL     1      -8.681   3.668  71.091  1.00  0.00    -0.122 C  
BRANCH   8   9
HETATM    9  C   UNL     1      -9.452   4.960  70.951  1.00  0.00    -0.227 A  
HETATM   10  C   UNL     1     -10.372   5.139  69.914  1.00  0.00    -0.347 A  
HETATM   11  C   UNL     1     -11.005   6.374  69.720  1.00  0.00    -0.417 A  
HETATM   12  C   UNL     1     -10.746   7.476  70.546  1.00  0.00    -0.235 A  
HETATM   13  C   UNL     1      -9.889   7.243  71.637  1.00  0.00    -0.176 A  
HETATM   14  C   UNL     1      -9.240   6.018  71.833  1.00  0.00    -0.156 A  
BRANCH  12  15
HETATM   15  N   UNL     1     -11.276   8.742  70.309  1.00  0.00    -0.233 NA 
BRANCH  15  16
HETATM   16  C   UNL     1     -10.969   9.506  69.083  1.00  0.00    -0.125 C  
HETATM   17 CL   UNL     1      -8.402  10.057  69.925  1.00  0.00    -0.193 Cl 
HETATM   18  C   UNL     1      -9.976  10.647  69.321  1.00  0.00    -0.193 C  
ENDBRANCH  15  16
BRANCH  15  19
HETATM   19  C   UNL     1     -11.752   9.534  71.466  1.00  0.00    -0.402 C  
HETATM   20  C   UNL     1     -13.266   9.788  71.472  1.00  0.00    -0.404 C  
HETATM   21 CL   UNL     1     -14.213   8.280  71.583  1.00  0.00    -0.503 Cl 
ENDBRANCH  15  19
ENDBRANCH  12  15
ENDBRANCH   8   9
ENDBRANCH   2   8
TORSDOF 5
ENDMDL
MODEL      201
REMARK 921   NORMALIZED FREE ENERGY PREDICTED BY IDOCK:   -3.17 KCAL/MOL
REMARK 922        TOTAL FREE ENERGY PREDICTED BY IDOCK:   -4.69 KCAL/MOL
REMARK 923 INTER-LIGAND FREE ENERGY PREDICTED BY IDOCK:   -4.11 KCAL/MOL
REMARK 924 INTRA-LIGAND FREE ENERGY PREDICTED BY IDOCK:   -0.58 KCAL/MOL
REMARK 927      BINDING AFFINITY PREDICTED BY RF-SCORE:    0.00 PKD
ROOT
HETATM    1  N   UNL     1      -6.222  12.037  69.874  1.00  0.00    -0.219 NA 
HETATM    2  CA  UNL     1      -7.349  12.502  68.997  1.00  0.00     0.043 C  
HETATM    3  H1  UNL     1      -6.524  11.676  70.779  1.00  0.00     0.000 HD 
HETATM    4  H2  UNL     1      -5.532  12.779  69.995  1.00  0.00     0.000 HD 
HETATM    5  C   UNL     1      -8.291  11.308  68.775  1.00  0.00    -0.120 C  
HETATM    6  O   UNL     1      -7.935  10.248  69.549  1.00  0.00    -0.148 OA 
HETATM    7  OXT UNL     1      -9.246  11.293  68.016  1.00  0.00    -0.149 OA 
ENDROOT
BRANCH   2   8
HETATM    8  C   UNL     1      -6.893  13.046  67.629  1.00  0.00    -0.155 C  
BRANCH   8   9
HETATM    9  C   UNL     1      -7.100  14.534  67.473  1.00  0.00    -0.199 A  
HETATM   10  C   UNL     1      -6.057  15.433  67.714  1.00  0.00    -0.173 A  
HETATM   11  C   UNL     1      -6.277  16.817  67.676  1.00  0.00    -0.173 A  
HETATM   12  C   UNL     1      -7.540  17.357  67.399  1.00  0.00    -0.191 A  
HETATM   13  C   UNL     1      -8.549  16.434  67.068  1.00  0.00    -0.223 A  
HETATM   14  C   UNL     1      -8.344  15.050  67.117  1.00  0.00    -0.244 A  
BRANCH  12  15
HETATM   15  N   UNL     1      -7.811  18.722  67.464  1.00  0.00    -0.233 NA 
BRANCH  15  16
HETATM   16  C   UNL     1      -8.115  19.404  68.738  1.00  0.00    -0.353 C  
HETATM   17 CL   UNL     1      -5.890  21.019  68.543  1.00  0.00    -0.381 Cl 
HETATM   18  C   UNL     1      -6.861  19.857  69.490  1.00  0.00    -0.278 C  
ENDBRANCH  15  16
BRANCH  15  19
HETATM   19  C   UNL     1      -8.270  19.407  66.235  1.00  0.00    -0.330 C  
HETATM   20  C   UNL     1      -7.138  20.023  65.400  1.00  0.00    -0.278 C  
HETATM   21 CL   UNL     1      -5.993  18.799  64.790  1.00  0.00    -0.306 Cl 
ENDBRANCH  15  19
ENDBRANCH  12  15
ENDBRANCH   8   9
ENDBRANCH   2   8
TORSDOF 5
ENDMDL
MODEL      202
REMARK 921   NORMALIZED FREE ENERGY PREDICTED BY IDOCK:   -3.16 KCAL/MOL
REMARK 922        TOTAL FREE ENERGY PREDICTED BY IDOCK:   -4.68 KCAL/MOL
REMARK 923 INTER-LIGAND FREE ENERGY PREDICTED BY IDOCK:   -4.94 KCAL/MOL
REMARK 924 INTRA-LIGAND FREE ENERGY PREDICTED BY IDOCK:    0.26 KCAL/MOL
REMARK 927      BINDING AFFINITY PREDICTED BY RF-SCORE:    0.00 PKD
ROOT
HETATM    1  N   UNL     1     -10.455  14.574  69.744  1.00  0.00    -0.448 NA 
HETATM    2  CA  UNL     1     -10.919  13.485  68.821  1.00  0.00    -0.261 C  
HETATM    3  H1  UNL     1      -9.763  15.201  69.331  1.00  0.00     0.000 HD 
HETATM    4  H2  UNL     1     -10.104  14.179  70.617  1.00  0.00     0.000 HD 
HETATM    5  C   UNL     1     -11.525  14.154  67.577  1.00  0.00    -0.340 C  
HETATM    6  O   UNL     1     -11.323  15.499  67.593  1.00  0.00    -0.324 OA 
HETATM    7  OXT UNL     1     -12.109  13.574  66.676  1.00  0.00    -0.399 OA 
ENDROOT
BRANCH   2   8
HETATM    8  C   UNL     1     -11.964  12.540  69.446  1.00  0.00    -0.315 C  
BRANCH   8   9
HETATM    9  C   UNL     1     -11.431  11.153  69.724  1.00  0.00    -0.388 A  
HETATM   10  C   UNL     1     -12.051  10.322  70.661  1.00  0.00    -0.433 A  
HETATM   11  C   UNL     1     -11.495   9.080  70.999  1.00  0.00    -0.358 A  
HETATM   12  C   UNL     1     -10.304   8.621  70.421  1.00  0.00    -0.200 A  
HETATM   13  C   UNL     1      -9.751   9.434  69.414  1.00  0.00    -0.181 A  
HETATM   14  C   UNL     1     -10.291  10.682  69.078  1.00  0.00    -0.237 A  
BRANCH  12  15
HETATM   15  N   UNL     1      -9.672   7.445  70.819  1.00  0.00    -0.171 NA 
BRANCH  15  16
HETATM   16  C   UNL     1      -9.881   6.853  72.155  1.00  0.00    -0.147 C  
HETATM   17 CL   UNL     1      -9.725   4.282  71.171  1.00  0.00    -0.249 Cl 
HETATM   18  C   UNL     1     -10.620   5.513  72.107  1.00  0.00    -0.226 C  
ENDBRANCH  15  16
BRANCH  15  19
HETATM   19  C   UNL     1      -8.435   7.038  70.114  1.00  0.00    -0.139 C  
HETATM   20  C   UNL     1      -7.283   8.045  70.234  1.00  0.00    -0.053 C  
HETATM   21 CL   UNL     1      -6.745   8.271  71.920  1.00  0.00    -0.070 Cl 
ENDBRANCH  15  19
ENDBRANCH  12  15
ENDBRANCH   8   9
ENDBRANCH   2   8
TORSDOF 5
ENDMDL
MODEL      203
REMARK 921   NORMALIZED FREE ENERGY PREDICTED BY IDOCK:   -3.15 KCAL/MOL
REMARK 922        TOTAL FREE ENERGY PREDICTED BY IDOCK:   -4.67 KCAL/MOL
REMARK 923 INTER-LIGAND FREE ENERGY PREDICTED BY IDOCK:   -4.31 KCAL/MOL
REMARK 924 INTRA-LIGAND FREE ENERGY PREDICTED BY IDOCK:   -0.36 KCAL/MOL
REMARK 927      BINDING AFFINITY PREDICTED BY RF-SCORE:    0.00 PKD
ROOT
HETATM    1  N   UNL     1      -8.733  13.392  68.850  1.00  0.00    -0.363 NA 
HETATM    2  CA  UNL     1      -9.947  13.208  67.986  1.00  0.00    -0.233 C  
HETATM    3  H1  UNL     1      -8.495  14.369  69.026  1.00  0.00     0.000 HD 
HETATM    4  H2  UNL     1      -7.934  12.894  68.456  1.00  0.00     0.000 HD 
HETATM    5  C   UNL     1     -11.129  13.895  68.689  1.00  0.00    -0.265 C  
HETATM    6  O   UNL     1     -10.715  14.596  69.778  1.00  0.00    -0.204 OA 
HETATM    7  OXT UNL     1     -12.294  13.841  68.329  1.00  0.00    -0.242 OA 
ENDROOT
BRANCH   2   8
HETATM    8  C   UNL     1     -10.307  11.733  67.719  1.00  0.00    -0.211 C  
BRANCH   8   9
HETATM    9  C   UNL     1     -10.049  10.827  68.900  1.00  0.00    -0.217 A  
HETATM   10  C   UNL     1      -8.777  10.298  69.135  1.00  0.00    -0.176 A  
HETATM   11  C   UNL     1      -8.563   9.372  70.165  1.00  0.00    -0.233 A  
HETATM   12  C   UNL     1      -9.603   8.938  70.998  1.00  0.00    -0.255 A  
HETATM   13  C   UNL     1     -10.851   9.555  70.801  1.00  0.00    -0.386 A  
HETATM   14  C   UNL     1     -11.080  10.471  69.766  1.00  0.00    -0.354 A  
BRANCH  12  15
HETATM   15  N   UNL     1      -9.441   7.939  71.954  1.00  0.00    -0.159 NA 
BRANCH  15  16
HETATM   16  C   UNL     1     -10.301   6.738  71.993  1.00  0.00    -0.196 C  
HETATM   17 CL   UNL     1      -8.891   5.517  69.963  1.00  0.00    -0.130 Cl 
HETATM   18  C   UNL     1     -10.456   6.068  70.625  1.00  0.00    -0.246 C  
ENDBRANCH  15  16
BRANCH  15  19
HETATM   19  C   UNL     1      -8.743   8.279  73.215  1.00  0.00    -0.215 C  
HETATM   20  C   UNL     1      -8.291   7.060  74.031  1.00  0.00    -0.142 C  
HETATM   21 CL   UNL     1      -7.103   6.054  73.159  1.00  0.00    -0.084 Cl 
ENDBRANCH  15  19
ENDBRANCH  12  15
ENDBRANCH   8   9
ENDBRANCH   2   8
TORSDOF 5
ENDMDL
MODEL      204
REMARK 921   NORMALIZED FREE ENERGY PREDICTED BY IDOCK:   -3.14 KCAL/MOL
REMARK 922        TOTAL FREE ENERGY PREDICTED BY IDOCK:   -4.65 KCAL/MOL
REMARK 923 INTER-LIGAND FREE ENERGY PREDICTED BY IDOCK:   -3.96 KCAL/MOL
REMARK 924 INTRA-LIGAND FREE ENERGY PREDICTED BY IDOCK:   -0.70 KCAL/MOL
REMARK 927      BINDING AFFINITY PREDICTED BY RF-SCORE:    0.00 PKD
ROOT
HETATM    1  N   UNL     1     -10.569   6.738  70.298  1.00  0.00    -0.207 NA 
HETATM    2  CA  UNL     1     -10.356   7.579  69.072  1.00  0.00    -0.212 C  
HETATM    3  H1  UNL     1     -11.423   6.179  70.273  1.00  0.00     0.000 HD 
HETATM    4  H2  UNL     1     -10.544   7.316  71.138  1.00  0.00     0.000 HD 
HETATM    5  C   UNL     1     -10.304   6.634  67.861  1.00  0.00    -0.189 C  
HETATM    6  O   UNL     1     -10.623   5.361  68.215  1.00  0.00    -0.160 OA 
HETATM    7  OXT UNL     1     -10.025   6.963  66.720  1.00  0.00    -0.182 OA 
ENDROOT
BRANCH   2   8
HETATM    8  C   UNL     1      -9.067   8.423  69.110  1.00  0.00    -0.147 C  
BRANCH   8   9
HETATM    9  C   UNL     1      -9.218   9.782  68.467  1.00  0.00    -0.134 A  
HETATM   10  C   UNL     1      -8.105  10.596  68.241  1.00  0.00    -0.118 A  
HETATM   11  C   UNL     1      -8.256  11.899  67.746  1.00  0.00    -0.148 A  
HETATM   12  C   UNL     1      -9.516  12.440  67.459  1.00  0.00    -0.187 A  
HETATM   13  C   UNL     1     -10.611  11.568  67.606  1.00  0.00    -0.235 A  
HETATM   14  C   UNL     1     -10.473  10.270  68.113  1.00  0.00    -0.224 A  
BRANCH  12  15
HETATM   15  N   UNL     1      -9.702  13.765  67.072  1.00  0.00    -0.243 NA 
BRANCH  15  16
HETATM   16  C   UNL     1      -8.573  14.699  66.895  1.00  0.00    -0.204 C  
HETATM   17 CL   UNL     1      -8.568  15.390  69.563  1.00  0.00    -0.255 Cl 
HETATM   18  C   UNL     1      -8.626  15.893  67.850  1.00  0.00    -0.163 C  
ENDBRANCH  15  16
BRANCH  15  19
HETATM   19  C   UNL     1     -11.028  14.384  67.299  1.00  0.00    -0.297 C  
HETATM   20  C   UNL     1     -11.751  14.808  66.014  1.00  0.00    -0.248 C  
HETATM   21 CL   UNL     1     -12.116  13.427  64.945  1.00  0.00    -0.403 Cl 
ENDBRANCH  15  19
ENDBRANCH  12  15
ENDBRANCH   8   9
ENDBRANCH   2   8
TORSDOF 5
ENDMDL
MODEL      205
REMARK 921   NORMALIZED FREE ENERGY PREDICTED BY IDOCK:   -3.14 KCAL/MOL
REMARK 922        TOTAL FREE ENERGY PREDICTED BY IDOCK:   -4.65 KCAL/MOL
REMARK 923 INTER-LIGAND FREE ENERGY PREDICTED BY IDOCK:   -4.27 KCAL/MOL
REMARK 924 INTRA-LIGAND FREE ENERGY PREDICTED BY IDOCK:   -0.38 KCAL/MOL
REMARK 927      BINDING AFFINITY PREDICTED BY RF-SCORE:    0.00 PKD
ROOT
HETATM    1  N   UNL     1      -8.757   9.147  64.671  1.00  0.00    -0.253 NA 
HETATM    2  CA  UNL     1      -8.519  10.549  65.154  1.00  0.00    -0.166 C  
HETATM    3  H1  UNL     1      -7.982   8.757  64.133  1.00  0.00     0.000 HD 
HETATM    4  H2  UNL     1      -9.626   9.093  64.139  1.00  0.00     0.000 HD 
HETATM    5  C   UNL     1      -7.255  10.534  66.028  1.00  0.00    -0.137 C  
HETATM    6  O   UNL     1      -6.638   9.323  65.982  1.00  0.00    -0.070 OA 
HETATM    7  OXT UNL     1      -6.836  11.475  66.681  1.00  0.00    -0.134 OA 
ENDROOT
BRANCH   2   8
HETATM    8  C   UNL     1      -9.689  11.137  65.966  1.00  0.00    -0.263 C  
BRANCH   8   9
HETATM    9  C   UNL     1      -9.933  10.422  67.275  1.00  0.00    -0.229 A  
HETATM   10  C   UNL     1     -10.516   9.153  67.301  1.00  0.00    -0.335 A  
HETATM   11  C   UNL     1     -10.843   8.536  68.517  1.00  0.00     0.020 A  
HETATM   12  C   UNL     1     -10.603   9.159  69.750  1.00  0.00    -0.229 A  
HETATM   13  C   UNL     1      -9.930  10.393  69.698  1.00  0.00    -0.209 A  
HETATM   14  C   UNL     1      -9.612  11.025  68.489  1.00  0.00    -0.187 A  
BRANCH  12  15
HETATM   15  N   UNL     1     -11.017   8.619  70.964  1.00  0.00    -0.248 NA 
BRANCH  15  16
HETATM   16  C   UNL     1     -12.439   8.361  71.267  1.00  0.00    -0.244 C  
HETATM   17 CL   UNL     1     -12.952  11.031  71.720  1.00  0.00    -0.574 Cl 
HETATM   18  C   UNL     1     -13.022   9.340  72.290  1.00  0.00    -0.412 C  
ENDBRANCH  15  16
BRANCH  15  19
HETATM   19  C   UNL     1     -10.116   8.743  72.133  1.00  0.00    -0.292 C  
HETATM   20  C   UNL     1      -9.680   7.401  72.735  1.00  0.00    -0.173 C  
HETATM   21 CL   UNL     1      -8.739   6.409  71.589  1.00  0.00    -0.133 Cl 
ENDBRANCH  15  19
ENDBRANCH  12  15
ENDBRANCH   8   9
ENDBRANCH   2   8
TORSDOF 5
ENDMDL
MODEL      206
REMARK 921   NORMALIZED FREE ENERGY PREDICTED BY IDOCK:   -3.13 KCAL/MOL
REMARK 922        TOTAL FREE ENERGY PREDICTED BY IDOCK:   -4.64 KCAL/MOL
REMARK 923 INTER-LIGAND FREE ENERGY PREDICTED BY IDOCK:   -3.85 KCAL/MOL
REMARK 924 INTRA-LIGAND FREE ENERGY PREDICTED BY IDOCK:   -0.78 KCAL/MOL
REMARK 927      BINDING AFFINITY PREDICTED BY RF-SCORE:    0.00 PKD
ROOT
HETATM    1  N   UNL     1      -8.884   8.304  65.106  1.00  0.00    -0.391 NA 
HETATM    2  CA  UNL     1      -8.925   7.263  66.189  1.00  0.00    -0.149 C  
HETATM    3  H1  UNL     1      -8.003   8.333  64.593  1.00  0.00     0.000 HD 
HETATM    4  H2  UNL     1      -9.109   9.224  65.485  1.00  0.00     0.000 HD 
HETATM    5  C   UNL     1      -8.679   5.896  65.531  1.00  0.00    -0.129 C  
HETATM    6  O   UNL     1      -8.340   6.032  64.221  1.00  0.00    -0.102 OA 
HETATM    7  OXT UNL     1      -8.763   4.817  66.094  1.00  0.00    -0.114 OA 
ENDROOT
BRANCH   2   8
HETATM    8  C   UNL     1     -10.256   7.220  66.964  1.00  0.00    -0.348 C  
BRANCH   8   9
HETATM    9  C   UNL     1     -10.090   6.885  68.428  1.00  0.00    -0.177 A  
HETATM   10  C   UNL     1     -11.190   6.518  69.209  1.00  0.00    -0.390 A  
HETATM   11  C   UNL     1     -11.054   6.314  70.589  1.00  0.00    -0.389 A  
HETATM   12  C   UNL     1      -9.824   6.468  71.243  1.00  0.00    -0.181 A  
HETATM   13  C   UNL     1      -8.717   6.745  70.420  1.00  0.00    -0.151 A  
HETATM   14  C   UNL     1      -8.843   6.965  69.042  1.00  0.00    -0.130 A  
BRANCH  12  15
HETATM   15  N   UNL     1      -9.685   6.380  72.625  1.00  0.00    -0.161 NA 
BRANCH  15  16
HETATM   16  C   UNL     1      -9.939   5.128  73.365  1.00  0.00    -0.166 C  
HETATM   17 CL   UNL     1      -7.255   4.513  73.486  1.00  0.00    -0.078 Cl 
HETATM   18  C   UNL     1      -8.919   4.030  73.053  1.00  0.00    -0.101 C  
ENDBRANCH  15  16
BRANCH  15  19
HETATM   19  C   UNL     1      -9.753   7.629  73.419  1.00  0.00    -0.304 C  
HETATM   20  C   UNL     1      -8.469   7.949  74.197  1.00  0.00    -0.256 C  
HETATM   21 CL   UNL     1      -7.067   8.214  73.126  1.00  0.00    -0.136 Cl 
ENDBRANCH  15  19
ENDBRANCH  12  15
ENDBRANCH   8   9
ENDBRANCH   2   8
TORSDOF 5
ENDMDL
MODEL      207
REMARK 921   NORMALIZED FREE ENERGY PREDICTED BY IDOCK:   -3.12 KCAL/MOL
REMARK 922        TOTAL FREE ENERGY PREDICTED BY IDOCK:   -4.62 KCAL/MOL
REMARK 923 INTER-LIGAND FREE ENERGY PREDICTED BY IDOCK:   -3.96 KCAL/MOL
REMARK 924 INTRA-LIGAND FREE ENERGY PREDICTED BY IDOCK:   -0.66 KCAL/MOL
REMARK 927      BINDING AFFINITY PREDICTED BY RF-SCORE:    0.00 PKD
ROOT
HETATM    1  N   UNL     1      -8.500   9.096  70.339  1.00  0.00    -0.178 NA 
HETATM    2  CA  UNL     1      -9.100   8.865  68.982  1.00  0.00    -0.137 C  
HETATM    3  H1  UNL     1      -8.912   8.524  71.077  1.00  0.00     0.000 HD 
HETATM    4  H2  UNL     1      -8.542  10.085  70.586  1.00  0.00     0.000 HD 
HETATM    5  C   UNL     1      -8.910   7.380  68.635  1.00  0.00    -0.126 C  
HETATM    6  O   UNL     1      -8.416   6.685  69.694  1.00  0.00    -0.129 OA 
HETATM    7  OXT UNL     1      -9.170   6.867  67.559  1.00  0.00    -0.123 OA 
ENDROOT
BRANCH   2   8
HETATM    8  C   UNL     1      -8.477   9.728  67.868  1.00  0.00    -0.125 C  
BRANCH   8   9
HETATM    9  C   UNL     1      -9.167  11.059  67.680  1.00  0.00    -0.151 A  
HETATM   10  C   UNL     1      -8.509  12.256  67.972  1.00  0.00    -0.171 A  
HETATM   11  C   UNL     1      -9.183  13.483  67.902  1.00  0.00    -0.211 A  
HETATM   12  C   UNL     1     -10.535  13.565  67.541  1.00  0.00    -0.237 A  
HETATM   13  C   UNL     1     -11.148  12.357  67.162  1.00  0.00    -0.328 A  
HETATM   14  C   UNL     1     -10.488  11.124  67.241  1.00  0.00    -0.263 A  
BRANCH  12  15
HETATM   15  N   UNL     1     -11.256  14.755  67.572  1.00  0.00    -0.320 NA 
BRANCH  15  16
HETATM   16  C   UNL     1     -10.742  16.003  66.972  1.00  0.00    -0.277 C  
HETATM   17 CL   UNL     1     -11.848  15.419  64.515  1.00  0.00    -0.332 Cl 
HETATM   18  C   UNL     1     -10.414  15.862  65.484  1.00  0.00    -0.404 C  
ENDBRANCH  15  16
BRANCH  15  19
HETATM   19  C   UNL     1     -12.307  14.915  68.603  1.00  0.00     0.058 C  
HETATM   20  C   UNL     1     -11.862  14.522  70.019  1.00  0.00    -0.313 C  
HETATM   21 CL   UNL     1     -10.527  15.540  70.624  1.00  0.00    -0.196 Cl 
ENDBRANCH  15  19
ENDBRANCH  12  15
ENDBRANCH   8   9
ENDBRANCH   2   8
TORSDOF 5
ENDMDL
MODEL      208
REMARK 921   NORMALIZED FREE ENERGY PREDICTED BY IDOCK:   -3.10 KCAL/MOL
REMARK 922        TOTAL FREE ENERGY PREDICTED BY IDOCK:   -4.59 KCAL/MOL
REMARK 923 INTER-LIGAND FREE ENERGY PREDICTED BY IDOCK:   -5.22 KCAL/MOL
REMARK 924 INTRA-LIGAND FREE ENERGY PREDICTED BY IDOCK:    0.63 KCAL/MOL
REMARK 927      BINDING AFFINITY PREDICTED BY RF-SCORE:    0.00 PKD
ROOT
HETATM    1  N   UNL     1      -5.816  16.598  66.996  1.00  0.00    -0.233 NA 
HETATM    2  CA  UNL     1      -6.391  17.984  67.056  1.00  0.00    -0.169 C  
HETATM    3  H1  UNL     1      -4.953  16.485  67.530  1.00  0.00     0.000 HD 
HETATM    4  H2  UNL     1      -5.678  16.309  66.027  1.00  0.00     0.000 HD 
HETATM    5  C   UNL     1      -6.666  18.311  68.533  1.00  0.00    -0.238 C  
HETATM    6  O   UNL     1      -6.169  17.347  69.353  1.00  0.00    -0.227 OA 
HETATM    7  OXT UNL     1      -7.244  19.306  68.940  1.00  0.00    -0.332 OA 
ENDROOT
BRANCH   2   8
HETATM    8  C   UNL     1      -7.693  18.155  66.250  1.00  0.00    -0.290 C  
BRANCH   8   9
HETATM    9  C   UNL     1      -8.707  17.063  66.503  1.00  0.00    -0.297 A  
HETATM   10  C   UNL     1      -9.917  17.342  67.143  1.00  0.00    -0.291 A  
HETATM   11  C   UNL     1     -10.808  16.312  67.475  1.00  0.00    -0.268 A  
HETATM   12  C   UNL     1     -10.529  14.970  67.184  1.00  0.00    -0.277 A  
HETATM   13  C   UNL     1      -9.350  14.727  66.456  1.00  0.00    -0.316 A  
HETATM   14  C   UNL     1      -8.446  15.746  66.132  1.00  0.00    -0.118 A  
BRANCH  12  15
HETATM   15  N   UNL     1     -11.343  13.919  67.600  1.00  0.00    -0.295 NA 
BRANCH  15  16
HETATM   16  C   UNL     1     -11.263  13.353  68.961  1.00  0.00    -0.275 C  
HETATM   17 CL   UNL     1     -12.832  15.358  70.018  1.00  0.00    -0.202 Cl 
HETATM   18  C   UNL     1     -11.313  14.419  70.058  1.00  0.00    -0.198 C  
ENDBRANCH  15  16
BRANCH  15  19
HETATM   19  C   UNL     1     -11.948  13.047  66.567  1.00  0.00    -0.391 C  
HETATM   20  C   UNL     1     -12.863  13.783  65.580  1.00  0.00    -0.408 C  
HETATM   21 CL   UNL     1     -11.992  15.013  64.626  1.00  0.00    -0.401 Cl 
ENDBRANCH  15  19
ENDBRANCH  12  15
ENDBRANCH   8   9
ENDBRANCH   2   8
TORSDOF 5
ENDMDL
MODEL      209
REMARK 921   NORMALIZED FREE ENERGY PREDICTED BY IDOCK:   -3.09 KCAL/MOL
REMARK 922        TOTAL FREE ENERGY PREDICTED BY IDOCK:   -4.58 KCAL/MOL
REMARK 923 INTER-LIGAND FREE ENERGY PREDICTED BY IDOCK:   -4.60 KCAL/MOL
REMARK 924 INTRA-LIGAND FREE ENERGY PREDICTED BY IDOCK:    0.02 KCAL/MOL
REMARK 927      BINDING AFFINITY PREDICTED BY RF-SCORE:    0.00 PKD
ROOT
HETATM    1  N   UNL     1      -9.306   5.189  71.506  1.00  0.00    -0.145 NA 
HETATM    2  CA  UNL     1     -10.262   6.239  71.018  1.00  0.00    -0.192 C  
HETATM    3  H1  UNL     1      -9.062   5.277  72.493  1.00  0.00     0.000 HD 
HETATM    4  H2  UNL     1      -8.465   5.174  70.928  1.00  0.00     0.000 HD 
HETATM    5  C   UNL     1     -11.541   6.135  71.865  1.00  0.00    -0.296 C  
HETATM    6  O   UNL     1     -11.382   5.258  72.892  1.00  0.00    -0.294 OA 
HETATM    7  OXT UNL     1     -12.573   6.755  71.666  1.00  0.00    -0.359 OA 
ENDROOT
BRANCH   2   8
HETATM    8  C   UNL     1     -10.631   6.105  69.528  1.00  0.00    -0.350 C  
BRANCH   8   9
HETATM    9  C   UNL     1     -10.600   7.417  68.780  1.00  0.00    -0.189 A  
HETATM   10  C   UNL     1     -10.588   7.446  67.382  1.00  0.00    -0.371 A  
HETATM   11  C   UNL     1     -10.450   8.657  66.690  1.00  0.00    -0.239 A  
HETATM   12  C   UNL     1     -10.317   9.881  67.359  1.00  0.00    -0.246 A  
HETATM   13  C   UNL     1     -10.426   9.834  68.761  1.00  0.00    -0.240 A  
HETATM   14  C   UNL     1     -10.550   8.630  69.464  1.00  0.00    -0.218 A  
BRANCH  12  15
HETATM   15  N   UNL     1     -10.067  11.082  66.699  1.00  0.00    -0.212 NA 
BRANCH  15  16
HETATM   16  C   UNL     1     -10.901  11.551  65.575  1.00  0.00    -0.254 C  
HETATM   17 CL   UNL     1      -9.370  10.206  63.720  1.00  0.00    -0.319 Cl 
HETATM   18  C   UNL     1     -10.111  11.732  64.277  1.00  0.00    -0.290 C  
ENDBRANCH  15  16
BRANCH  15  19
HETATM   19  C   UNL     1      -8.707  11.662  66.786  1.00  0.00    -0.189 C  
HETATM   20  C   UNL     1      -7.641  10.687  67.304  1.00  0.00    -0.100 C  
HETATM   21 CL   UNL     1      -7.423   9.277  66.233  1.00  0.00    -0.095 Cl 
ENDBRANCH  15  19
ENDBRANCH  12  15
ENDBRANCH   8   9
ENDBRANCH   2   8
TORSDOF 5
ENDMDL
MODEL      210
REMARK 921   NORMALIZED FREE ENERGY PREDICTED BY IDOCK:   -3.07 KCAL/MOL
REMARK 922        TOTAL FREE ENERGY PREDICTED BY IDOCK:   -4.55 KCAL/MOL
REMARK 923 INTER-LIGAND FREE ENERGY PREDICTED BY IDOCK:   -3.76 KCAL/MOL
REMARK 924 INTRA-LIGAND FREE ENERGY PREDICTED BY IDOCK:   -0.79 KCAL/MOL
REMARK 927      BINDING AFFINITY PREDICTED BY RF-SCORE:    0.00 PKD
ROOT
HETATM    1  N   UNL     1      -8.300   6.204  64.179  1.00  0.00    -0.315 NA 
HETATM    2  CA  UNL     1      -8.508   5.357  65.401  1.00  0.00    -0.144 C  
HETATM    3  H1  UNL     1      -7.406   6.046  63.713  1.00  0.00     0.000 HD 
HETATM    4  H2  UNL     1      -8.419   7.192  64.403  1.00  0.00     0.000 HD 
HETATM    5  C   UNL     1      -8.416   3.884  64.970  1.00  0.00    -0.109 C  
HETATM    6  O   UNL     1      -8.020   3.774  63.674  1.00  0.00    -0.084 OA 
HETATM    7  OXT UNL     1      -8.655   2.923  65.682  1.00  0.00    -0.106 OA 
ENDROOT
BRANCH   2   8
HETATM    8  C   UNL     1      -9.859   5.594  66.104  1.00  0.00    -0.114 C  
BRANCH   8   9
HETATM    9  C   UNL     1      -9.741   5.745  67.602  1.00  0.00    -0.127 A  
HETATM   10  C   UNL     1      -8.503   5.620  68.240  1.00  0.00    -0.105 A  
HETATM   11  C   UNL     1      -8.410   5.651  69.639  1.00  0.00    -0.107 A  
HETATM   12  C   UNL     1      -9.540   5.806  70.453  1.00  0.00    -0.168 A  
HETATM   13  C   UNL     1     -10.758   6.022  69.784  1.00  0.00    -0.399 A  
HETATM   14  C   UNL     1     -10.866   5.979  68.388  1.00  0.00    -0.361 A  
BRANCH  12  15
HETATM   15  N   UNL     1      -9.489   5.729  71.842  1.00  0.00    -0.151 NA 
BRANCH  15  16
HETATM   16  C   UNL     1      -8.495   4.896  72.549  1.00  0.00    -0.120 C  
HETATM   17 CL   UNL     1      -9.716   2.554  71.760  1.00  0.00    -0.217 Cl 
HETATM   18  C   UNL     1      -9.078   3.582  73.074  1.00  0.00    -0.098 C  
ENDBRANCH  15  16
BRANCH  15  19
HETATM   19  C   UNL     1     -10.704   6.082  72.611  1.00  0.00    -0.232 C  
HETATM   20  C   UNL     1     -10.641   7.459  73.286  1.00  0.00    -0.392 C  
HETATM   21 CL   UNL     1     -10.491   8.793  72.110  1.00  0.00    -0.409 Cl 
ENDBRANCH  15  19
ENDBRANCH  12  15
ENDBRANCH   8   9
ENDBRANCH   2   8
TORSDOF 5
ENDMDL
MODEL      211
REMARK 921   NORMALIZED FREE ENERGY PREDICTED BY IDOCK:   -3.06 KCAL/MOL
REMARK 922        TOTAL FREE ENERGY PREDICTED BY IDOCK:   -4.55 KCAL/MOL
REMARK 923 INTER-LIGAND FREE ENERGY PREDICTED BY IDOCK:   -3.88 KCAL/MOL
REMARK 924 INTRA-LIGAND FREE ENERGY PREDICTED BY IDOCK:   -0.67 KCAL/MOL
REMARK 927      BINDING AFFINITY PREDICTED BY RF-SCORE:    0.00 PKD
ROOT
HETATM    1  N   UNL     1      -8.625   6.583  66.070  1.00  0.00    -0.144 NA 
HETATM    2  CA  UNL     1      -7.743   5.367  66.094  1.00  0.00    -0.092 C  
HETATM    3  H1  UNL     1      -9.006   6.799  65.148  1.00  0.00     0.000 HD 
HETATM    4  H2  UNL     1      -8.132   7.390  66.453  1.00  0.00     0.000 HD 
HETATM    5  C   UNL     1      -8.578   4.175  65.601  1.00  0.00    -0.114 C  
HETATM    6  O   UNL     1      -9.792   4.580  65.140  1.00  0.00    -0.177 OA 
HETATM    7  OXT UNL     1      -8.217   3.010  65.605  1.00  0.00    -0.086 OA 
ENDROOT
BRANCH   2   8
HETATM    8  C   UNL     1      -7.167   5.040  67.486  1.00  0.00    -0.070 C  
BRANCH   8   9
HETATM    9  C   UNL     1      -8.134   5.306  68.615  1.00  0.00    -0.090 A  
HETATM   10  C   UNL     1      -9.113   4.368  68.957  1.00  0.00    -0.180 A  
HETATM   11  C   UNL     1     -10.078   4.660  69.931  1.00  0.00    -0.257 A  
HETATM   12  C   UNL     1     -10.107   5.891  70.599  1.00  0.00    -0.197 A  
HETATM   13  C   UNL     1      -9.056   6.779  70.304  1.00  0.00    -0.153 A  
HETATM   14  C   UNL     1      -8.095   6.505  69.323  1.00  0.00    -0.112 A  
BRANCH  12  15
HETATM   15  N   UNL     1     -11.118   6.248  71.488  1.00  0.00    -0.270 NA 
BRANCH  15  16
HETATM   16  C   UNL     1     -11.298   5.571  72.788  1.00  0.00    -0.303 C  
HETATM   17 CL   UNL     1      -9.596   7.319  74.071  1.00  0.00    -0.313 Cl 
HETATM   18  C   UNL     1     -10.054   5.638  73.676  1.00  0.00    -0.200 C  
ENDBRANCH  15  16
BRANCH  15  19
HETATM   19  C   UNL     1     -12.302   6.960  70.957  1.00  0.00    -0.351 C  
HETATM   20  C   UNL     1     -12.573   8.314  71.627  1.00  0.00    -0.327 C  
HETATM   21 CL   UNL     1     -11.243   9.478  71.381  1.00  0.00    -0.445 Cl 
ENDBRANCH  15  19
ENDBRANCH  12  15
ENDBRANCH   8   9
ENDBRANCH   2   8
TORSDOF 5
ENDMDL
MODEL      212
REMARK 921   NORMALIZED FREE ENERGY PREDICTED BY IDOCK:   -3.06 KCAL/MOL
REMARK 922        TOTAL FREE ENERGY PREDICTED BY IDOCK:   -4.54 KCAL/MOL
REMARK 923 INTER-LIGAND FREE ENERGY PREDICTED BY IDOCK:   -3.81 KCAL/MOL
REMARK 924 INTRA-LIGAND FREE ENERGY PREDICTED BY IDOCK:   -0.73 KCAL/MOL
REMARK 927      BINDING AFFINITY PREDICTED BY RF-SCORE:    0.00 PKD
ROOT
HETATM    1  N   UNL     1     -11.075   2.956  63.929  1.00  0.00    -0.585 NA 
HETATM    2  CA  UNL     1      -9.995   3.846  64.475  1.00  0.00    -0.202 C  
HETATM    3  H1  UNL     1     -11.230   3.061  62.926  1.00  0.00     0.000 HD 
HETATM    4  H2  UNL     1     -11.946   3.094  64.443  1.00  0.00     0.000 HD 
HETATM    5  C   UNL     1      -8.694   3.513  63.726  1.00  0.00    -0.094 C  
HETATM    6  O   UNL     1      -8.922   2.652  62.699  1.00  0.00    -0.087 OA 
HETATM    7  OXT UNL     1      -7.591   3.959  63.995  1.00  0.00    -0.075 OA 
ENDROOT
BRANCH   2   8
HETATM    8  C   UNL     1      -9.761   3.687  65.990  1.00  0.00    -0.093 C  
BRANCH   8   9
HETATM    9  C   UNL     1      -9.796   4.995  66.745  1.00  0.00    -0.212 A  
HETATM   10  C   UNL     1      -8.841   5.284  67.724  1.00  0.00    -0.105 A  
HETATM   11  C   UNL     1      -8.937   6.447  68.501  1.00  0.00    -0.125 A  
HETATM   12  C   UNL     1      -9.984   7.364  68.333  1.00  0.00    -0.164 A  
HETATM   13  C   UNL     1     -10.877   7.097  67.280  1.00  0.00    -0.382 A  
HETATM   14  C   UNL     1     -10.799   5.931  66.507  1.00  0.00    -0.214 A  
BRANCH  12  15
HETATM   15  N   UNL     1     -10.165   8.467  69.163  1.00  0.00    -0.207 NA 
BRANCH  15  16
HETATM   16  C   UNL     1     -10.112   9.852  68.654  1.00  0.00    -0.175 C  
HETATM   17 CL   UNL     1      -7.390   9.722  68.235  1.00  0.00    -0.079 Cl 
HETATM   18  C   UNL     1      -8.789  10.557  68.968  1.00  0.00    -0.169 C  
ENDBRANCH  15  16
BRANCH  15  19
HETATM   19  C   UNL     1      -9.932   8.300  70.616  1.00  0.00    -0.183 C  
HETATM   20  C   UNL     1     -11.204   8.010  71.426  1.00  0.00    -0.252 C  
HETATM   21 CL   UNL     1     -11.984   6.477  70.950  1.00  0.00    -0.407 Cl 
ENDBRANCH  15  19
ENDBRANCH  12  15
ENDBRANCH   8   9
ENDBRANCH   2   8
TORSDOF 5
ENDMDL
MODEL      213
REMARK 921   NORMALIZED FREE ENERGY PREDICTED BY IDOCK:   -3.03 KCAL/MOL
REMARK 922        TOTAL FREE ENERGY PREDICTED BY IDOCK:   -4.50 KCAL/MOL
REMARK 923 INTER-LIGAND FREE ENERGY PREDICTED BY IDOCK:   -3.93 KCAL/MOL
REMARK 924 INTRA-LIGAND FREE ENERGY PREDICTED BY IDOCK:   -0.57 KCAL/MOL
REMARK 927      BINDING AFFINITY PREDICTED BY RF-SCORE:    0.00 PKD
ROOT
HETATM    1  N   UNL     1     -11.650   5.930  73.065  1.00  0.00    -0.509 NA 
HETATM    2  CA  UNL     1     -10.760   4.725  72.961  1.00  0.00    -0.237 C  
HETATM    3  H1  UNL     1     -11.908   6.174  74.022  1.00  0.00     0.000 HD 
HETATM    4  H2  UNL     1     -12.484   5.811  72.488  1.00  0.00     0.000 HD 
HETATM    5  C   UNL     1      -9.485   5.017  73.768  1.00  0.00    -0.129 C  
HETATM    6  O   UNL     1      -9.595   6.182  74.461  1.00  0.00    -0.184 OA 
HETATM    7  OXT UNL     1      -8.494   4.307  73.805  1.00  0.00    -0.092 OA 
ENDROOT
BRANCH   2   8
HETATM    8  C   UNL     1     -10.371   4.358  71.516  1.00  0.00    -0.096 C  
BRANCH   8   9
HETATM    9  C   UNL     1      -9.941   5.546  70.687  1.00  0.00    -0.270 A  
HETATM   10  C   UNL     1      -8.666   6.098  70.832  1.00  0.00    -0.136 A  
HETATM   11  C   UNL     1      -8.305   7.265  70.143  1.00  0.00    -0.137 A  
HETATM   12  C   UNL     1      -9.199   7.925  69.289  1.00  0.00    -0.148 A  
HETATM   13  C   UNL     1     -10.441   7.297  69.089  1.00  0.00    -0.222 A  
HETATM   14  C   UNL     1     -10.817   6.140  69.781  1.00  0.00    -0.421 A  
BRANCH  12  15
HETATM   15  N   UNL     1      -8.905   9.143  68.681  1.00  0.00    -0.132 NA 
BRANCH  15  16
HETATM   16  C   UNL     1      -7.967   9.251  67.545  1.00  0.00    -0.099 C  
HETATM   17 CL   UNL     1     -10.018   9.469  65.716  1.00  0.00    -0.365 Cl 
HETATM   18  C   UNL     1      -8.522   8.652  66.250  1.00  0.00    -0.125 C  
ENDBRANCH  15  16
BRANCH  15  19
HETATM   19  C   UNL     1      -9.142  10.387  69.448  1.00  0.00    -0.152 C  
HETATM   20  C   UNL     1     -10.096  11.375  68.764  1.00  0.00    -0.188 C  
HETATM   21 CL   UNL     1     -11.735  10.705  68.546  1.00  0.00    -0.285 Cl 
ENDBRANCH  15  19
ENDBRANCH  12  15
ENDBRANCH   8   9
ENDBRANCH   2   8
TORSDOF 5
ENDMDL
MODEL      214
REMARK 921   NORMALIZED FREE ENERGY PREDICTED BY IDOCK:   -3.01 KCAL/MOL
REMARK 922        TOTAL FREE ENERGY PREDICTED BY IDOCK:   -4.48 KCAL/MOL
REMARK 923 INTER-LIGAND FREE ENERGY PREDICTED BY IDOCK:   -3.86 KCAL/MOL
REMARK 924 INTRA-LIGAND FREE ENERGY PREDICTED BY IDOCK:   -0.62 KCAL/MOL
REMARK 927      BINDING AFFINITY PREDICTED BY RF-SCORE:    0.00 PKD
ROOT
HETATM    1  N   UNL     1     -10.264   4.794  71.094  1.00  0.00    -0.188 NA 
HETATM    2  CA  UNL     1     -10.769   6.172  70.777  1.00  0.00    -0.266 C  
HETATM    3  H1  UNL     1      -9.949   4.680  72.058  1.00  0.00     0.000 HD 
HETATM    4  H2  UNL     1      -9.527   4.523  70.442  1.00  0.00     0.000 HD 
HETATM    5  C   UNL     1     -11.939   6.470  71.728  1.00  0.00    -0.344 C  
HETATM    6  O   UNL     1     -12.071   5.497  72.668  1.00  0.00    -0.199 OA 
HETATM    7  OXT UNL     1     -12.663   7.451  71.672  1.00  0.00    -0.338 OA 
ENDROOT
BRANCH   2   8
HETATM    8  C   UNL     1     -11.245   6.344  69.322  1.00  0.00    -0.440 C  
BRANCH   8   9
HETATM    9  C   UNL     1     -10.385   7.287  68.514  1.00  0.00    -0.210 A  
HETATM   10  C   UNL     1     -10.782   7.709  67.242  1.00  0.00    -0.344 A  
HETATM   11  C   UNL     1      -9.935   8.495  66.448  1.00  0.00    -0.314 A  
HETATM   12  C   UNL     1      -8.664   8.889  66.889  1.00  0.00    -0.119 A  
HETATM   13  C   UNL     1      -8.327   8.530  68.206  1.00  0.00    -0.124 A  
HETATM   14  C   UNL     1      -9.159   7.733  69.003  1.00  0.00    -0.144 A  
BRANCH  12  15
HETATM   15  N   UNL     1      -7.761   9.574  66.080  1.00  0.00    -0.100 NA 
BRANCH  15  16
HETATM   16  C   UNL     1      -8.045   9.876  64.662  1.00  0.00    -0.152 C  
HETATM   17 CL   UNL     1      -7.861   7.223  63.936  1.00  0.00    -0.125 Cl 
HETATM   18  C   UNL     1      -7.348   8.917  63.694  1.00  0.00    -0.102 C  
ENDBRANCH  15  16
BRANCH  15  19
HETATM   19  C   UNL     1      -6.333   9.586  66.473  1.00  0.00    -0.066 C  
HETATM   20  C   UNL     1      -5.616  10.914  66.195  1.00  0.00    -0.134 C  
HETATM   21 CL   UNL     1      -6.312  12.274  67.117  1.00  0.00    -0.147 Cl 
ENDBRANCH  15  19
ENDBRANCH  12  15
ENDBRANCH   8   9
ENDBRANCH   2   8
TORSDOF 5
ENDMDL
MODEL      215
REMARK 921   NORMALIZED FREE ENERGY PREDICTED BY IDOCK:   -2.98 KCAL/MOL
REMARK 922        TOTAL FREE ENERGY PREDICTED BY IDOCK:   -4.45 KCAL/MOL
REMARK 923 INTER-LIGAND FREE ENERGY PREDICTED BY IDOCK:   -3.78 KCAL/MOL
REMARK 924 INTRA-LIGAND FREE ENERGY PREDICTED BY IDOCK:   -0.67 KCAL/MOL
REMARK 927      BINDING AFFINITY PREDICTED BY RF-SCORE:    0.00 PKD
ROOT
HETATM    1  N   UNL     1      -8.201   8.584  70.807  1.00  0.00    -0.117 NA 
HETATM    2  CA  UNL     1      -9.002   8.349  69.558  1.00  0.00    -0.149 C  
HETATM    3  H1  UNL     1      -8.698   8.351  71.667  1.00  0.00     0.000 HD 
HETATM    4  H2  UNL     1      -7.861   9.546  70.838  1.00  0.00     0.000 HD 
HETATM    5  C   UNL     1      -9.393   6.863  69.528  1.00  0.00    -0.147 C  
HETATM    6  O   UNL     1      -9.054   6.240  70.688  1.00  0.00    -0.149 OA 
HETATM    7  OXT UNL     1      -9.945   6.296  68.598  1.00  0.00    -0.135 OA 
ENDROOT
BRANCH   2   8
HETATM    8  C   UNL     1      -8.252   8.701  68.259  1.00  0.00    -0.122 C  
BRANCH   8   9
HETATM    9  C   UNL     1      -8.725   9.986  67.619  1.00  0.00    -0.121 A  
HETATM   10  C   UNL     1      -9.969  10.533  67.944  1.00  0.00    -0.193 A  
HETATM   11  C   UNL     1     -10.454  11.664  67.272  1.00  0.00    -0.247 A  
HETATM   12  C   UNL     1      -9.722  12.290  66.254  1.00  0.00    -0.244 A  
HETATM   13  C   UNL     1      -8.435  11.776  66.012  1.00  0.00     0.125 A  
HETATM   14  C   UNL     1      -7.946  10.639  66.667  1.00  0.00    -0.134 A  
BRANCH  12  15
HETATM   15  N   UNL     1     -10.227  13.344  65.496  1.00  0.00    -0.294 NA 
BRANCH  15  16
HETATM   16  C   UNL     1     -10.956  14.473  66.106  1.00  0.00    -0.322 C  
HETATM   17 CL   UNL     1      -8.751  16.122  65.979  1.00  0.00    -0.350 Cl 
HETATM   18  C   UNL     1     -10.057  15.383  66.947  1.00  0.00    -0.257 C  
ENDBRANCH  15  16
BRANCH  15  19
HETATM   19  C   UNL     1     -10.466  13.120  64.052  1.00  0.00    -0.234 C  
HETATM   20  C   UNL     1     -11.455  11.987  63.747  1.00  0.00    -0.461 C  
HETATM   21 CL   UNL     1     -13.087  12.311  64.392  1.00  0.00    -0.227 Cl 
ENDBRANCH  15  19
ENDBRANCH  12  15
ENDBRANCH   8   9
ENDBRANCH   2   8
TORSDOF 5
ENDMDL
MODEL      216
REMARK 921   NORMALIZED FREE ENERGY PREDICTED BY IDOCK:   -2.96 KCAL/MOL
REMARK 922        TOTAL FREE ENERGY PREDICTED BY IDOCK:   -4.42 KCAL/MOL
REMARK 923 INTER-LIGAND FREE ENERGY PREDICTED BY IDOCK:   -3.85 KCAL/MOL
REMARK 924 INTRA-LIGAND FREE ENERGY PREDICTED BY IDOCK:   -0.57 KCAL/MOL
REMARK 927      BINDING AFFINITY PREDICTED BY RF-SCORE:    0.00 PKD
ROOT
HETATM    1  N   UNL     1     -10.775   2.831  72.368  1.00  0.00     0.063 NA 
HETATM    2  CA  UNL     1      -9.557   2.287  71.677  1.00  0.00    -0.141 C  
HETATM    3  H1  UNL     1     -11.175   2.198  73.061  1.00  0.00     0.000 HD 
HETATM    4  H2  UNL     1     -11.481   3.108  71.685  1.00  0.00     0.000 HD 
HETATM    5  C   UNL     1      -8.503   1.988  72.755  1.00  0.00    -0.062 C  
HETATM    6  O   UNL     1      -9.018   2.141  74.004  1.00  0.00    -0.068 OA 
HETATM    7  OXT UNL     1      -7.351   1.648  72.541  1.00  0.00    -0.029 OA 
ENDROOT
BRANCH   2   8
HETATM    8  C   UNL     1      -8.953   3.243  70.630  1.00  0.00    -0.163 C  
BRANCH   8   9
HETATM    9  C   UNL     1      -9.469   4.659  70.738  1.00  0.00    -0.235 A  
HETATM   10  C   UNL     1      -9.045   5.500  71.770  1.00  0.00    -0.151 A  
HETATM   11  C   UNL     1      -9.606   6.775  71.934  1.00  0.00    -0.150 A  
HETATM   12  C   UNL     1     -10.606   7.258  71.080  1.00  0.00    -0.222 A  
HETATM   13  C   UNL     1     -10.947   6.430  69.996  1.00  0.00    -0.397 A  
HETATM   14  C   UNL     1     -10.405   5.150  69.830  1.00  0.00    -0.347 A  
BRANCH  12  15
HETATM   15  N   UNL     1     -11.257   8.473  71.287  1.00  0.00    -0.252 NA 
BRANCH  15  16
HETATM   16  C   UNL     1     -12.067   8.737  72.492  1.00  0.00    -0.250 C  
HETATM   17 CL   UNL     1     -14.225   7.341  71.496  1.00  0.00    -0.560 Cl 
HETATM   18  C   UNL     1     -13.565   8.845  72.196  1.00  0.00    -0.453 C  
ENDBRANCH  15  16
BRANCH  15  19
HETATM   19  C   UNL     1     -11.545   9.324  70.110  1.00  0.00    -0.045 C  
HETATM   20  C   UNL     1     -10.600  10.523  69.956  1.00  0.00    -0.169 C  
HETATM   21 CL   UNL     1      -8.904  10.030  69.705  1.00  0.00    -0.221 Cl 
ENDBRANCH  15  19
ENDBRANCH  12  15
ENDBRANCH   8   9
ENDBRANCH   2   8
TORSDOF 5
ENDMDL
MODEL      217
REMARK 921   NORMALIZED FREE ENERGY PREDICTED BY IDOCK:   -2.94 KCAL/MOL
REMARK 922        TOTAL FREE ENERGY PREDICTED BY IDOCK:   -4.39 KCAL/MOL
REMARK 923 INTER-LIGAND FREE ENERGY PREDICTED BY IDOCK:   -3.87 KCAL/MOL
REMARK 924 INTRA-LIGAND FREE ENERGY PREDICTED BY IDOCK:   -0.52 KCAL/MOL
REMARK 927      BINDING AFFINITY PREDICTED BY RF-SCORE:    0.00 PKD
ROOT
HETATM    1  N   UNL     1      -7.140   8.409  67.019  1.00  0.00    -0.078 NA 
HETATM    2  CA  UNL     1      -7.118   7.008  66.480  1.00  0.00    -0.077 C  
HETATM    3  H1  UNL     1      -6.979   9.128  66.312  1.00  0.00     0.000 HD 
HETATM    4  H2  UNL     1      -6.477   8.508  67.788  1.00  0.00     0.000 HD 
HETATM    5  C   UNL     1      -8.208   6.906  65.401  1.00  0.00    -0.134 C  
HETATM    6  O   UNL     1      -8.753   8.123  65.133  1.00  0.00    -0.122 OA 
HETATM    7  OXT UNL     1      -8.550   5.879  64.837  1.00  0.00    -0.127 OA 
ENDROOT
BRANCH   2   8
HETATM    8  C   UNL     1      -7.361   5.923  67.547  1.00  0.00    -0.077 C  
BRANCH   8   9
HETATM    9  C   UNL     1      -8.400   6.310  68.574  1.00  0.00    -0.115 A  
HETATM   10  C   UNL     1      -8.025   6.873  69.797  1.00  0.00    -0.124 A  
HETATM   11  C   UNL     1      -8.979   7.131  70.792  1.00  0.00    -0.152 A  
HETATM   12  C   UNL     1     -10.337   6.838  70.608  1.00  0.00    -0.201 A  
HETATM   13  C   UNL     1     -10.700   6.360  69.336  1.00  0.00    -0.347 A  
HETATM   14  C   UNL     1      -9.754   6.086  68.340  1.00  0.00    -0.142 A  
BRANCH  12  15
HETATM   15  N   UNL     1     -11.286   6.980  71.617  1.00  0.00    -0.239 NA 
BRANCH  15  16
HETATM   16  C   UNL     1     -11.011   6.593  73.016  1.00  0.00    -0.247 C  
HETATM   17 CL   UNL     1     -10.248   4.046  72.289  1.00  0.00    -0.247 Cl 
HETATM   18  C   UNL     1     -11.275   5.111  73.291  1.00  0.00    -0.321 C  
ENDBRANCH  15  16
BRANCH  15  19
HETATM   19  C   UNL     1     -12.714   7.060  71.234  1.00  0.00    -0.351 C  
HETATM   20  C   UNL     1     -13.439   8.301  71.772  1.00  0.00    -0.352 C  
HETATM   21 CL   UNL     1     -12.754   9.823  71.143  1.00  0.00    -0.417 Cl 
ENDBRANCH  15  19
ENDBRANCH  12  15
ENDBRANCH   8   9
ENDBRANCH   2   8
TORSDOF 5
ENDMDL
MODEL      218
REMARK 921   NORMALIZED FREE ENERGY PREDICTED BY IDOCK:   -2.93 KCAL/MOL
REMARK 922        TOTAL FREE ENERGY PREDICTED BY IDOCK:   -4.38 KCAL/MOL
REMARK 923 INTER-LIGAND FREE ENERGY PREDICTED BY IDOCK:   -4.34 KCAL/MOL
REMARK 924 INTRA-LIGAND FREE ENERGY PREDICTED BY IDOCK:   -0.04 KCAL/MOL
REMARK 927      BINDING AFFINITY PREDICTED BY RF-SCORE:    0.00 PKD
ROOT
HETATM    1  N   UNL     1      -8.121  19.879  68.811  1.00  0.00    -0.172 NA 
HETATM    2  CA  UNL     1      -7.742  19.106  67.580  1.00  0.00    -0.243 C  
HETATM    3  H1  UNL     1      -7.323  20.209  69.355  1.00  0.00     0.000 HD 
HETATM    4  H2  UNL     1      -8.752  19.332  69.398  1.00  0.00     0.000 HD 
HETATM    5  C   UNL     1      -6.878  20.025  66.701  1.00  0.00    -0.218 C  
HETATM    6  O   UNL     1      -6.575  21.183  67.346  1.00  0.00    -0.344 OA 
HETATM    7  OXT UNL     1      -6.495  19.766  65.572  1.00  0.00    -0.220 OA 
ENDROOT
BRANCH   2   8
HETATM    8  C   UNL     1      -8.946  18.607  66.760  1.00  0.00    -0.297 C  
BRANCH   8   9
HETATM    9  C   UNL     1      -9.261  17.146  66.978  1.00  0.00    -0.251 A  
HETATM   10  C   UNL     1      -8.979  16.526  68.198  1.00  0.00    -0.207 A  
HETATM   11  C   UNL     1      -9.169  15.146  68.364  1.00  0.00    -0.189 A  
HETATM   12  C   UNL     1      -9.643  14.335  67.325  1.00  0.00    -0.232 A  
HETATM   13  C   UNL     1     -10.008  14.998  66.140  1.00  0.00    -0.313 A  
HETATM   14  C   UNL     1      -9.809  16.372  65.958  1.00  0.00    -0.362 A  
BRANCH  12  15
HETATM   15  N   UNL     1      -9.735  12.949  67.429  1.00  0.00    -0.198 NA 
BRANCH  15  16
HETATM   16  C   UNL     1     -10.395  12.287  68.572  1.00  0.00    -0.223 C  
HETATM   17 CL   UNL     1     -10.703   9.927  67.182  1.00  0.00    -0.303 Cl 
HETATM   18  C   UNL     1     -11.430  11.243  68.145  1.00  0.00    -0.306 C  
ENDBRANCH  15  16
BRANCH  15  19
HETATM   19  C   UNL     1      -8.774  12.122  66.664  1.00  0.00    -0.153 C  
HETATM   20  C   UNL     1      -7.303  12.381  67.017  1.00  0.00    -0.012 C  
HETATM   21 CL   UNL     1      -6.927  11.991  68.716  1.00  0.00    -0.096 Cl 
ENDBRANCH  15  19
ENDBRANCH  12  15
ENDBRANCH   8   9
ENDBRANCH   2   8
TORSDOF 5
ENDMDL
MODEL      219
REMARK 921   NORMALIZED FREE ENERGY PREDICTED BY IDOCK:   -2.93 KCAL/MOL
REMARK 922        TOTAL FREE ENERGY PREDICTED BY IDOCK:   -4.37 KCAL/MOL
REMARK 923 INTER-LIGAND FREE ENERGY PREDICTED BY IDOCK:   -4.89 KCAL/MOL
REMARK 924 INTRA-LIGAND FREE ENERGY PREDICTED BY IDOCK:    0.52 KCAL/MOL
REMARK 927      BINDING AFFINITY PREDICTED BY RF-SCORE:    0.00 PKD
ROOT
HETATM    1  N   UNL     1      -7.230  19.553  66.290  1.00  0.00    -0.246 NA 
HETATM    2  CA  UNL     1      -7.645  18.336  67.067  1.00  0.00    -0.219 C  
HETATM    3  H1  UNL     1      -7.403  20.434  66.777  1.00  0.00     0.000 HD 
HETATM    4  H2  UNL     1      -7.673  19.560  65.371  1.00  0.00     0.000 HD 
HETATM    5  C   UNL     1      -6.866  18.341  68.392  1.00  0.00    -0.234 C  
HETATM    6  O   UNL     1      -6.169  19.497  68.551  1.00  0.00    -0.231 OA 
HETATM    7  OXT UNL     1      -6.865  17.439  69.214  1.00  0.00    -0.244 OA 
ENDROOT
BRANCH   2   8
HETATM    8  C   UNL     1      -7.385  17.008  66.332  1.00  0.00    -0.328 C  
BRANCH   8   9
HETATM    9  C   UNL     1      -8.352  15.910  66.710  1.00  0.00    -0.306 A  
HETATM   10  C   UNL     1      -9.671  15.926  66.248  1.00  0.00    -0.332 A  
HETATM   11  C   UNL     1     -10.597  14.969  66.686  1.00  0.00    -0.301 A  
HETATM   12  C   UNL     1     -10.247  13.964  67.598  1.00  0.00    -0.242 A  
HETATM   13  C   UNL     1      -8.893  13.915  67.974  1.00  0.00    -0.184 A  
HETATM   14  C   UNL     1      -7.962  14.873  67.554  1.00  0.00    -0.198 A  
BRANCH  12  15
HETATM   15  N   UNL     1     -11.173  13.072  68.133  1.00  0.00    -0.256 NA 
BRANCH  15  16
HETATM   16  C   UNL     1     -11.679  13.196  69.515  1.00  0.00    -0.319 C  
HETATM   17 CL   UNL     1     -12.012  15.922  69.275  1.00  0.00    -0.327 Cl 
HETATM   18  C   UNL     1     -11.323  14.535  70.165  1.00  0.00    -0.197 C  
ENDBRANCH  15  16
BRANCH  15  19
HETATM   19  C   UNL     1     -11.297  11.732  67.514  1.00  0.00    -0.310 C  
HETATM   20  C   UNL     1     -10.159  10.767  67.872  1.00  0.00    -0.172 C  
HETATM   21 CL   UNL     1     -10.088  10.411  69.619  1.00  0.00    -0.249 Cl 
ENDBRANCH  15  19
ENDBRANCH  12  15
ENDBRANCH   8   9
ENDBRANCH   2   8
TORSDOF 5
ENDMDL
MODEL      220
REMARK 921   NORMALIZED FREE ENERGY PREDICTED BY IDOCK:   -2.90 KCAL/MOL
REMARK 922        TOTAL FREE ENERGY PREDICTED BY IDOCK:   -4.34 KCAL/MOL
REMARK 923 INTER-LIGAND FREE ENERGY PREDICTED BY IDOCK:   -3.66 KCAL/MOL
REMARK 924 INTRA-LIGAND FREE ENERGY PREDICTED BY IDOCK:   -0.68 KCAL/MOL
REMARK 927      BINDING AFFINITY PREDICTED BY RF-SCORE:    0.00 PKD
ROOT
HETATM    1  N   UNL     1     -10.426   7.836  71.501  1.00  0.00    -0.204 NA 
HETATM    2  CA  UNL     1     -11.171   9.138  71.572  1.00  0.00    -0.360 C  
HETATM    3  H1  UNL     1     -10.663   7.182  72.247  1.00  0.00     0.000 HD 
HETATM    4  H2  UNL     1      -9.419   8.001  71.475  1.00  0.00     0.000 HD 
HETATM    5  C   UNL     1     -12.674   8.819  71.504  1.00  0.00    -0.328 C  
HETATM    6  O   UNL     1     -12.897   7.479  71.565  1.00  0.00    -0.340 OA 
HETATM    7  OXT UNL     1     -13.568   9.645  71.416  1.00  0.00    -0.358 OA 
ENDROOT
BRANCH   2   8
HETATM    8  C   UNL     1     -10.813  10.126  70.445  1.00  0.00    -0.365 C  
BRANCH   8   9
HETATM    9  C   UNL     1     -10.143   9.471  69.260  1.00  0.00    -0.203 A  
HETATM   10  C   UNL     1      -8.751   9.466  69.135  1.00  0.00    -0.142 A  
HETATM   11  C   UNL     1      -8.134   8.956  67.984  1.00  0.00    -0.106 A  
HETATM   12  C   UNL     1      -8.877   8.434  66.916  1.00  0.00    -0.142 A  
HETATM   13  C   UNL     1     -10.269   8.365  67.107  1.00  0.00    -0.362 A  
HETATM   14  C   UNL     1     -10.897   8.884  68.246  1.00  0.00    -0.048 A  
BRANCH  12  15
HETATM   15  N   UNL     1      -8.297   8.024  65.719  1.00  0.00    -0.131 NA 
BRANCH  15  16
HETATM   16  C   UNL     1      -8.507   8.754  64.452  1.00  0.00    -0.129 C  
HETATM   17 CL   UNL     1      -6.213  10.245  64.791  1.00  0.00    -0.132 Cl 
HETATM   18  C   UNL     1      -7.973  10.188  64.490  1.00  0.00    -0.147 C  
ENDBRANCH  15  16
BRANCH  15  19
HETATM   19  C   UNL     1      -7.867   6.613  65.592  1.00  0.00    -0.105 C  
HETATM   20  C   UNL     1      -6.375   6.437  65.278  1.00  0.00    -0.038 C  
HETATM   21 CL   UNL     1      -5.322   7.078  66.568  1.00  0.00    -0.021 Cl 
ENDBRANCH  15  19
ENDBRANCH  12  15
ENDBRANCH   8   9
ENDBRANCH   2   8
TORSDOF 5
ENDMDL
MODEL      221
REMARK 921   NORMALIZED FREE ENERGY PREDICTED BY IDOCK:   -2.88 KCAL/MOL
REMARK 922        TOTAL FREE ENERGY PREDICTED BY IDOCK:   -4.31 KCAL/MOL
REMARK 923 INTER-LIGAND FREE ENERGY PREDICTED BY IDOCK:   -3.63 KCAL/MOL
REMARK 924 INTRA-LIGAND FREE ENERGY PREDICTED BY IDOCK:   -0.68 KCAL/MOL
REMARK 927      BINDING AFFINITY PREDICTED BY RF-SCORE:    0.00 PKD
ROOT
HETATM    1  N   UNL     1      -9.057   5.467  63.364  1.00  0.00    -0.324 NA 
HETATM    2  CA  UNL     1      -8.814   4.042  63.774  1.00  0.00    -0.118 C  
HETATM    3  H1  UNL     1      -9.216   5.587  62.363  1.00  0.00     0.000 HD 
HETATM    4  H2  UNL     1      -8.294   6.066  63.680  1.00  0.00     0.000 HD 
HETATM    5  C   UNL     1     -10.044   3.220  63.357  1.00  0.00    -0.164 C  
HETATM    6  O   UNL     1     -10.903   3.963  62.609  1.00  0.00    -0.195 OA 
HETATM    7  OXT UNL     1     -10.241   2.050  63.640  1.00  0.00    -0.140 OA 
ENDROOT
BRANCH   2   8
HETATM    8  C   UNL     1      -8.574   3.859  65.285  1.00  0.00    -0.114 C  
BRANCH   8   9
HETATM    9  C   UNL     1      -9.049   5.028  66.117  1.00  0.00    -0.138 A  
HETATM   10  C   UNL     1      -8.151   6.001  66.565  1.00  0.00    -0.109 A  
HETATM   11  C   UNL     1      -8.572   7.024  67.426  1.00  0.00    -0.121 A  
HETATM   12  C   UNL     1      -9.897   7.116  67.874  1.00  0.00    -0.144 A  
HETATM   13  C   UNL     1     -10.798   6.181  67.334  1.00  0.00    -0.431 A  
HETATM   14  C   UNL     1     -10.387   5.147  66.484  1.00  0.00    -0.336 A  
BRANCH  12  15
HETATM   15  N   UNL     1     -10.315   8.054  68.814  1.00  0.00    -0.210 NA 
BRANCH  15  16
HETATM   16  C   UNL     1     -10.962   7.663  70.083  1.00  0.00    -0.246 C  
HETATM   17 CL   UNL     1      -8.548   7.517  71.407  1.00  0.00    -0.120 Cl 
HETATM   18  C   UNL     1     -10.089   6.743  70.941  1.00  0.00    -0.190 C  
ENDBRANCH  15  16
BRANCH  15  19
HETATM   19  C   UNL     1     -10.560   9.443  68.362  1.00  0.00    -0.204 C  
HETATM   20  C   UNL     1      -9.805  10.508  69.169  1.00  0.00    -0.218 C  
HETATM   21 CL   UNL     1      -8.034  10.336  69.041  1.00  0.00    -0.114 Cl 
ENDBRANCH  15  19
ENDBRANCH  12  15
ENDBRANCH   8   9
ENDBRANCH   2   8
TORSDOF 5
ENDMDL
MODEL      222
REMARK 921   NORMALIZED FREE ENERGY PREDICTED BY IDOCK:   -2.87 KCAL/MOL
REMARK 922        TOTAL FREE ENERGY PREDICTED BY IDOCK:   -4.30 KCAL/MOL
REMARK 923 INTER-LIGAND FREE ENERGY PREDICTED BY IDOCK:   -3.87 KCAL/MOL
REMARK 924 INTRA-LIGAND FREE ENERGY PREDICTED BY IDOCK:   -0.43 KCAL/MOL
REMARK 927      BINDING AFFINITY PREDICTED BY RF-SCORE:    0.00 PKD
ROOT
HETATM    1  N   UNL     1     -11.788   5.905  72.962  1.00  0.00    -0.484 NA 
HETATM    2  CA  UNL     1     -10.668   4.931  73.189  1.00  0.00    -0.254 C  
HETATM    3  H1  UNL     1     -12.163   6.313  73.819  1.00  0.00     0.000 HD 
HETATM    4  H2  UNL     1     -12.534   5.472  72.416  1.00  0.00     0.000 HD 
HETATM    5  C   UNL     1      -9.543   5.678  73.925  1.00  0.00    -0.146 C  
HETATM    6  O   UNL     1      -9.940   6.924  74.297  1.00  0.00    -0.319 OA 
HETATM    7  OXT UNL     1      -8.435   5.227  74.165  1.00  0.00    -0.112 OA 
ENDROOT
BRANCH   2   8
HETATM    8  C   UNL     1     -10.102   4.315  71.895  1.00  0.00    -0.237 C  
BRANCH   8   9
HETATM    9  C   UNL     1      -9.898   5.323  70.788  1.00  0.00    -0.261 A  
HETATM   10  C   UNL     1      -8.636   5.866  70.535  1.00  0.00    -0.136 A  
HETATM   11  C   UNL     1      -8.467   6.880  69.582  1.00  0.00    -0.133 A  
HETATM   12  C   UNL     1      -9.545   7.390  68.846  1.00  0.00    -0.148 A  
HETATM   13  C   UNL     1     -10.787   6.762  69.052  1.00  0.00    -0.290 A  
HETATM   14  C   UNL     1     -10.970   5.758  70.011  1.00  0.00    -0.382 A  
BRANCH  12  15
HETATM   15  N   UNL     1      -9.425   8.470  67.975  1.00  0.00    -0.139 NA 
BRANCH  15  16
HETATM   16  C   UNL     1      -9.569   9.868  68.430  1.00  0.00    -0.148 C  
HETATM   17 CL   UNL     1      -6.848  10.301  68.355  1.00  0.00    -0.061 Cl 
HETATM   18  C   UNL     1      -8.383  10.352  69.267  1.00  0.00    -0.155 C  
ENDBRANCH  15  16
BRANCH  15  19
HETATM   19  C   UNL     1      -9.629   8.233  66.528  1.00  0.00    -0.244 C  
HETATM   20  C   UNL     1      -8.367   8.423  65.676  1.00  0.00    -0.154 C  
HETATM   21 CL   UNL     1      -7.071   7.275  66.106  1.00  0.00    -0.068 Cl 
ENDBRANCH  15  19
ENDBRANCH  12  15
ENDBRANCH   8   9
ENDBRANCH   2   8
TORSDOF 5
ENDMDL
MODEL      223
REMARK 921   NORMALIZED FREE ENERGY PREDICTED BY IDOCK:   -2.83 KCAL/MOL
REMARK 922        TOTAL FREE ENERGY PREDICTED BY IDOCK:   -4.25 KCAL/MOL
REMARK 923 INTER-LIGAND FREE ENERGY PREDICTED BY IDOCK:   -3.82 KCAL/MOL
REMARK 924 INTRA-LIGAND FREE ENERGY PREDICTED BY IDOCK:   -0.43 KCAL/MOL
REMARK 927      BINDING AFFINITY PREDICTED BY RF-SCORE:    0.00 PKD
ROOT
HETATM    1  N   UNL     1      -8.449   9.986  68.674  1.00  0.00    -0.113 NA 
HETATM    2  CA  UNL     1      -9.884  10.427  68.629  1.00  0.00    -0.177 C  
HETATM    3  H1  UNL     1      -7.945  10.302  69.503  1.00  0.00     0.000 HD 
HETATM    4  H2  UNL     1      -7.960  10.271  67.826  1.00  0.00     0.000 HD 
HETATM    5  C   UNL     1     -10.581   9.877  69.883  1.00  0.00    -0.273 C  
HETATM    6  O   UNL     1      -9.687   9.306  70.734  1.00  0.00    -0.246 OA 
HETATM    7  OXT UNL     1     -11.778   9.941  70.112  1.00  0.00    -0.239 OA 
ENDROOT
BRANCH   2   8
HETATM    8  C   UNL     1     -10.646   9.949  67.377  1.00  0.00    -0.338 C  
BRANCH   8   9
HETATM    9  C   UNL     1     -10.247   8.565  66.921  1.00  0.00    -0.375 A  
HETATM   10  C   UNL     1     -11.015   7.448  67.261  1.00  0.00    -0.234 A  
HETATM   11  C   UNL     1     -10.588   6.154  66.931  1.00  0.00    -0.380 A  
HETATM   12  C   UNL     1      -9.383   5.923  66.254  1.00  0.00    -0.152 A  
HETATM   13  C   UNL     1      -8.676   7.068  65.842  1.00  0.00    -0.140 A  
HETATM   14  C   UNL     1      -9.086   8.364  66.177  1.00  0.00    -0.238 A  
BRANCH  12  15
HETATM   15  N   UNL     1      -8.882   4.646  66.014  1.00  0.00    -0.118 NA 
BRANCH  15  16
HETATM   16  C   UNL     1      -9.673   3.607  65.324  1.00  0.00    -0.144 C  
HETATM   17 CL   UNL     1      -8.666   4.308  62.856  1.00  0.00    -0.104 Cl 
HETATM   18  C   UNL     1     -10.081   4.008  63.904  1.00  0.00    -0.144 C  
ENDBRANCH  15  16
BRANCH  15  19
HETATM   19  C   UNL     1      -7.762   4.161  66.851  1.00  0.00    -0.092 C  
HETATM   20  C   UNL     1      -8.005   4.291  68.361  1.00  0.00    -0.078 C  
HETATM   21 CL   UNL     1      -9.392   3.316  68.918  1.00  0.00    -0.229 Cl 
ENDBRANCH  15  19
ENDBRANCH  12  15
ENDBRANCH   8   9
ENDBRANCH   2   8
TORSDOF 5
ENDMDL
MODEL      224
REMARK 921   NORMALIZED FREE ENERGY PREDICTED BY IDOCK:   -2.82 KCAL/MOL
REMARK 922        TOTAL FREE ENERGY PREDICTED BY IDOCK:   -4.24 KCAL/MOL
REMARK 923 INTER-LIGAND FREE ENERGY PREDICTED BY IDOCK:   -5.23 KCAL/MOL
REMARK 924 INTRA-LIGAND FREE ENERGY PREDICTED BY IDOCK:    0.99 KCAL/MOL
REMARK 927      BINDING AFFINITY PREDICTED BY RF-SCORE:    0.00 PKD
ROOT
HETATM    1  N   UNL     1      -9.381   8.905  71.892  1.00  0.00    -0.352 NA 
HETATM    2  CA  UNL     1     -10.804   8.558  72.228  1.00  0.00    -0.348 C  
HETATM    3  H1  UNL     1      -8.694   8.268  72.296  1.00  0.00     0.000 HD 
HETATM    4  H2  UNL     1      -9.175   9.869  72.156  1.00  0.00     0.000 HD 
HETATM    5  C   UNL     1     -11.071   7.135  71.712  1.00  0.00    -0.236 C  
HETATM    6  O   UNL     1      -9.929   6.551  71.261  1.00  0.00    -0.181 OA 
HETATM    7  OXT UNL     1     -12.157   6.578  71.707  1.00  0.00    -0.338 OA 
ENDROOT
BRANCH   2   8
HETATM    8  C   UNL     1     -11.842   9.520  71.618  1.00  0.00    -0.468 C  
BRANCH   8   9
HETATM    9  C   UNL     1     -11.550   9.890  70.182  1.00  0.00    -0.281 A  
HETATM   10  C   UNL     1     -10.777   9.057  69.369  1.00  0.00    -0.202 A  
HETATM   11  C   UNL     1     -10.415   9.451  68.073  1.00  0.00    -0.278 A  
HETATM   12  C   UNL     1     -10.806  10.686  67.540  1.00  0.00    -0.296 A  
HETATM   13  C   UNL     1     -11.661  11.464  68.343  1.00  0.00    -0.385 A  
HETATM   14  C   UNL     1     -12.017  11.087  69.643  1.00  0.00    -0.424 A  
BRANCH  12  15
HETATM   15  N   UNL     1     -10.370  11.149  66.301  1.00  0.00    -0.242 NA 
BRANCH  15  16
HETATM   16  C   UNL     1     -10.030  10.233  65.193  1.00  0.00    -0.325 C  
HETATM   17 CL   UNL     1      -7.526   9.721  66.225  1.00  0.00    -0.098 Cl 
HETATM   18  C   UNL     1      -8.539  10.237  64.848  1.00  0.00    -0.182 C  
ENDBRANCH  15  16
BRANCH  15  19
HETATM   19  C   UNL     1      -9.783  12.506  66.224  1.00  0.00    -0.254 C  
HETATM   20  C   UNL     1      -9.255  13.039  67.563  1.00  0.00    -0.195 C  
HETATM   21 CL   UNL     1      -7.924  12.048  68.218  1.00  0.00    -0.142 Cl 
ENDBRANCH  15  19
ENDBRANCH  12  15
ENDBRANCH   8   9
ENDBRANCH   2   8
TORSDOF 5
ENDMDL
MODEL      225
REMARK 921   NORMALIZED FREE ENERGY PREDICTED BY IDOCK:   -2.80 KCAL/MOL
REMARK 922        TOTAL FREE ENERGY PREDICTED BY IDOCK:   -4.21 KCAL/MOL
REMARK 923 INTER-LIGAND FREE ENERGY PREDICTED BY IDOCK:   -3.72 KCAL/MOL
REMARK 924 INTRA-LIGAND FREE ENERGY PREDICTED BY IDOCK:   -0.50 KCAL/MOL
REMARK 927      BINDING AFFINITY PREDICTED BY RF-SCORE:    0.00 PKD
ROOT
HETATM    1  N   UNL     1     -11.378   6.563  67.197  1.00  0.00    -0.771 NA 
HETATM    2  CA  UNL     1     -10.647   7.862  67.013  1.00  0.00    -0.311 C  
HETATM    3  H1  UNL     1     -11.535   6.051  66.328  1.00  0.00     0.000 HD 
HETATM    4  H2  UNL     1     -12.260   6.715  67.688  1.00  0.00     0.000 HD 
HETATM    5  C   UNL     1      -9.291   7.546  66.362  1.00  0.00    -0.157 C  
HETATM    6  O   UNL     1      -9.212   6.239  65.996  1.00  0.00    -0.152 OA 
HETATM    7  OXT UNL     1      -8.391   8.349  66.178  1.00  0.00    -0.113 OA 
ENDROOT
BRANCH   2   8
HETATM    8  C   UNL     1     -10.410   8.636  68.324  1.00  0.00    -0.252 C  
BRANCH   8   9
HETATM    9  C   UNL     1     -10.039   7.749  69.489  1.00  0.00    -0.194 A  
HETATM   10  C   UNL     1     -10.969   7.454  70.490  1.00  0.00    -0.270 A  
HETATM   11  C   UNL     1     -10.594   6.722  71.626  1.00  0.00    -0.239 A  
HETATM   12  C   UNL     1      -9.285   6.258  71.808  1.00  0.00    -0.144 A  
HETATM   13  C   UNL     1      -8.394   6.487  70.744  1.00  0.00    -0.130 A  
HETATM   14  C   UNL     1      -8.753   7.229  69.611  1.00  0.00    -0.141 A  
BRANCH  12  15
HETATM   15  N   UNL     1      -8.860   5.627  72.974  1.00  0.00    -0.124 NA 
BRANCH  15  16
HETATM   16  C   UNL     1      -8.108   6.339  74.027  1.00  0.00    -0.104 C  
HETATM   17 CL   UNL     1      -5.707   5.985  72.719  1.00  0.00    -0.036 Cl 
HETATM   18  C   UNL     1      -6.682   5.812  74.206  1.00  0.00    -0.080 C  
ENDBRANCH  15  16
BRANCH  15  19
HETATM   19  C   UNL     1      -8.729   4.152  72.967  1.00  0.00    -0.099 C  
HETATM   20  C   UNL     1      -9.704   3.430  73.907  1.00  0.00    -0.104 C  
HETATM   21 CL   UNL     1     -11.411   3.697  73.459  1.00  0.00    -0.297 Cl 
ENDBRANCH  15  19
ENDBRANCH  12  15
ENDBRANCH   8   9
ENDBRANCH   2   8
TORSDOF 5
ENDMDL
MODEL      226
REMARK 921   NORMALIZED FREE ENERGY PREDICTED BY IDOCK:   -2.69 KCAL/MOL
REMARK 922        TOTAL FREE ENERGY PREDICTED BY IDOCK:   -4.07 KCAL/MOL
REMARK 923 INTER-LIGAND FREE ENERGY PREDICTED BY IDOCK:   -3.47 KCAL/MOL
REMARK 924 INTRA-LIGAND FREE ENERGY PREDICTED BY IDOCK:   -0.60 KCAL/MOL
REMARK 927      BINDING AFFINITY PREDICTED BY RF-SCORE:    0.00 PKD
ROOT
HETATM    1  N   UNL     1     -10.989   8.183  71.361  1.00  0.00    -0.231 NA 
HETATM    2  CA  UNL     1     -10.810   9.439  70.558  1.00  0.00    -0.277 C  
HETATM    3  H1  UNL     1     -11.030   8.338  72.369  1.00  0.00     0.000 HD 
HETATM    4  H2  UNL     1     -10.263   7.504  71.131  1.00  0.00     0.000 HD 
HETATM    5  C   UNL     1     -11.990  10.370  70.878  1.00  0.00    -0.377 C  
HETATM    6  O   UNL     1     -12.749   9.874  71.891  1.00  0.00    -0.394 OA 
HETATM    7  OXT UNL     1     -12.230  11.426  70.315  1.00  0.00    -0.332 OA 
ENDROOT
BRANCH   2   8
HETATM    8  C   UNL     1     -10.749   9.205  69.036  1.00  0.00    -0.176 C  
BRANCH   8   9
HETATM    9  C   UNL     1     -10.172   7.862  68.656  1.00  0.00    -0.223 A  
HETATM   10  C   UNL     1      -8.792   7.640  68.680  1.00  0.00    -0.127 A  
HETATM   11  C   UNL     1      -8.250   6.431  68.223  1.00  0.00    -0.116 A  
HETATM   12  C   UNL     1      -9.058   5.400  67.725  1.00  0.00    -0.108 A  
HETATM   13  C   UNL     1     -10.447   5.611  67.800  1.00  0.00    -0.275 A  
HETATM   14  C   UNL     1     -10.999   6.820  68.241  1.00  0.00    -0.270 A  
BRANCH  12  15
HETATM   15  N   UNL     1      -8.540   4.235  67.164  1.00  0.00    -0.104 NA 
BRANCH  15  16
HETATM   16  C   UNL     1      -8.846   3.826  65.778  1.00  0.00    -0.124 C  
HETATM   17 CL   UNL     1      -7.028   5.608  64.722  1.00  0.00    -0.051 Cl 
HETATM   18  C   UNL     1      -8.694   4.966  64.769  1.00  0.00    -0.154 C  
ENDBRANCH  15  16
BRANCH  15  19
HETATM   19  C   UNL     1      -8.080   3.160  68.073  1.00  0.00    -0.077 C  
HETATM   20  C   UNL     1      -6.646   2.683  67.806  1.00  0.00    -0.036 C  
HETATM   21 CL   UNL     1      -5.439   3.975  68.047  1.00  0.00    -0.015 Cl 
ENDBRANCH  15  19
ENDBRANCH  12  15
ENDBRANCH   8   9
ENDBRANCH   2   8
TORSDOF 5
ENDMDL
MODEL      227
REMARK 921   NORMALIZED FREE ENERGY PREDICTED BY IDOCK:   -2.68 KCAL/MOL
REMARK 922        TOTAL FREE ENERGY PREDICTED BY IDOCK:   -4.05 KCAL/MOL
REMARK 923 INTER-LIGAND FREE ENERGY PREDICTED BY IDOCK:   -4.88 KCAL/MOL
REMARK 924 INTRA-LIGAND FREE ENERGY PREDICTED BY IDOCK:    0.84 KCAL/MOL
REMARK 927      BINDING AFFINITY PREDICTED BY RF-SCORE:    0.00 PKD
ROOT
HETATM    1  N   UNL     1      -7.023  18.308  66.218  1.00  0.00    -0.229 NA 
HETATM    2  CA  UNL     1      -7.778  18.887  67.379  1.00  0.00    -0.231 C  
HETATM    3  H1  UNL     1      -6.711  19.003  65.539  1.00  0.00     0.000 HD 
HETATM    4  H2  UNL     1      -7.573  17.581  65.759  1.00  0.00     0.000 HD 
HETATM    5  C   UNL     1      -6.855  19.897  68.080  1.00  0.00    -0.274 C  
HETATM    6  O   UNL     1      -5.711  20.094  67.371  1.00  0.00    -0.176 OA 
HETATM    7  OXT UNL     1      -7.099  20.467  69.131  1.00  0.00    -0.074 OA 
ENDROOT
BRANCH   2   8
HETATM    8  C   UNL     1      -8.250  17.838  68.404  1.00  0.00    -0.298 C  
BRANCH   8   9
HETATM    9  C   UNL     1      -8.754  16.562  67.772  1.00  0.00    -0.197 A  
HETATM   10  C   UNL     1      -8.050  15.364  67.914  1.00  0.00    -0.148 A  
HETATM   11  C   UNL     1      -8.458  14.205  67.239  1.00  0.00    -0.228 A  
HETATM   12  C   UNL     1      -9.579  14.196  66.397  1.00  0.00    -0.293 A  
HETATM   13  C   UNL     1     -10.323  15.388  66.345  1.00  0.00    -0.303 A  
HETATM   14  C   UNL     1      -9.917  16.555  67.005  1.00  0.00    -0.268 A  
BRANCH  12  15
HETATM   15  N   UNL     1      -9.940  13.092  65.629  1.00  0.00    -0.261 NA 
BRANCH  15  16
HETATM   16  C   UNL     1     -10.860  13.200  64.479  1.00  0.00    -0.383 C  
HETATM   17 CL   UNL     1     -12.905  14.171  66.052  1.00  0.00    -0.352 Cl 
HETATM   18  C   UNL     1     -12.325  12.974  64.860  1.00  0.00    -0.459 C  
ENDBRANCH  15  16
BRANCH  15  19
HETATM   19  C   UNL     1      -9.803  11.744  66.227  1.00  0.00    -0.221 C  
HETATM   20  C   UNL     1      -9.777  11.738  67.762  1.00  0.00    -0.183 C  
HETATM   21 CL   UNL     1     -11.291  12.356  68.475  1.00  0.00    -0.307 Cl 
ENDBRANCH  15  19
ENDBRANCH  12  15
ENDBRANCH   8   9
ENDBRANCH   2   8
TORSDOF 5
ENDMDL
MODEL      228
REMARK 921   NORMALIZED FREE ENERGY PREDICTED BY IDOCK:   -2.67 KCAL/MOL
REMARK 922        TOTAL FREE ENERGY PREDICTED BY IDOCK:   -4.04 KCAL/MOL
REMARK 923 INTER-LIGAND FREE ENERGY PREDICTED BY IDOCK:   -3.71 KCAL/MOL
REMARK 924 INTRA-LIGAND FREE ENERGY PREDICTED BY IDOCK:   -0.33 KCAL/MOL
REMARK 927      BINDING AFFINITY PREDICTED BY RF-SCORE:    0.00 PKD
ROOT
HETATM    1  N   UNL     1      -6.133  11.958  69.869  1.00  0.00    -0.144 NA 
HETATM    2  CA  UNL     1      -7.165  12.606  68.990  1.00  0.00     0.009 C  
HETATM    3  H1  UNL     1      -6.521  11.509  70.699  1.00  0.00     0.000 HD 
HETATM    4  H2  UNL     1      -5.411  12.631  70.129  1.00  0.00     0.000 HD 
HETATM    5  C   UNL     1      -8.159  11.516  68.556  1.00  0.00    -0.146 C  
HETATM    6  O   UNL     1      -7.922  10.346  69.207  1.00  0.00    -0.133 OA 
HETATM    7  OXT UNL     1      -9.056  11.661  67.743  1.00  0.00    -0.164 OA 
ENDROOT
BRANCH   2   8
HETATM    8  C   UNL     1      -6.580  13.284  67.736  1.00  0.00    -0.156 C  
BRANCH   8   9
HETATM    9  C   UNL     1      -6.768  14.783  67.719  1.00  0.00    -0.193 A  
HETATM   10  C   UNL     1      -7.975  15.360  68.125  1.00  0.00    -0.132 A  
HETATM   11  C   UNL     1      -8.187  16.741  68.006  1.00  0.00    -0.192 A  
HETATM   12  C   UNL     1      -7.211  17.597  67.480  1.00  0.00    -0.181 A  
HETATM   13  C   UNL     1      -5.973  17.005  67.167  1.00  0.00    -0.200 A  
HETATM   14  C   UNL     1      -5.755  15.626  67.268  1.00  0.00     0.123 A  
BRANCH  12  15
HETATM   15  N   UNL     1      -7.436  18.951  67.248  1.00  0.00    -0.224 NA 
BRANCH  15  16
HETATM   16  C   UNL     1      -8.412  19.427  66.248  1.00  0.00    -0.334 C  
HETATM   17 CL   UNL     1     -10.225  20.163  68.190  1.00  0.00    -0.530 Cl 
HETATM   18  C   UNL     1      -9.865  19.251  66.697  1.00  0.00    -0.367 C  
ENDBRANCH  15  16
BRANCH  15  19
HETATM   19  C   UNL     1      -6.383  19.916  67.639  1.00  0.00    -0.213 C  
HETATM   20  C   UNL     1      -6.349  20.236  69.139  1.00  0.00    -0.304 C  
HETATM   21 CL   UNL     1      -5.988  18.801  70.137  1.00  0.00    -0.233 Cl 
ENDBRANCH  15  19
ENDBRANCH  12  15
ENDBRANCH   8   9
ENDBRANCH   2   8
TORSDOF 5
ENDMDL
MODEL      229
REMARK 921   NORMALIZED FREE ENERGY PREDICTED BY IDOCK:   -2.67 KCAL/MOL
REMARK 922        TOTAL FREE ENERGY PREDICTED BY IDOCK:   -4.04 KCAL/MOL
REMARK 923 INTER-LIGAND FREE ENERGY PREDICTED BY IDOCK:   -4.08 KCAL/MOL
REMARK 924 INTRA-LIGAND FREE ENERGY PREDICTED BY IDOCK:    0.04 KCAL/MOL
REMARK 927      BINDING AFFINITY PREDICTED BY RF-SCORE:    0.00 PKD
ROOT
HETATM    1  N   UNL     1      -9.009   8.005  74.336  1.00  0.00    -0.312 NA 
HETATM    2  CA  UNL     1      -7.921   7.174  73.717  1.00  0.00    -0.107 C  
HETATM    3  H1  UNL     1      -8.793   8.334  75.278  1.00  0.00     0.000 HD 
HETATM    4  H2  UNL     1      -9.895   7.501  74.326  1.00  0.00     0.000 HD 
HETATM    5  C   UNL     1      -6.646   8.031  73.674  1.00  0.00    -0.105 C  
HETATM    6  O   UNL     1      -6.818   9.205  74.339  1.00  0.00    -0.384 OA 
HETATM    7  OXT UNL     1      -5.602   7.717  73.127  1.00  0.00    -0.044 OA 
ENDROOT
BRANCH   2   8
HETATM    8  C   UNL     1      -8.246   6.679  72.295  1.00  0.00    -0.104 C  
BRANCH   8   9
HETATM    9  C   UNL     1      -8.926   7.718  71.435  1.00  0.00    -0.151 A  
HETATM   10  C   UNL     1      -8.187   8.721  70.802  1.00  0.00    -0.178 A  
HETATM   11  C   UNL     1      -8.827   9.748  70.094  1.00  0.00    -0.226 A  
HETATM   12  C   UNL     1     -10.223   9.817  69.992  1.00  0.00    -0.263 A  
HETATM   13  C   UNL     1     -10.938   8.746  70.558  1.00  0.00    -0.272 A  
HETATM   14  C   UNL     1     -10.310   7.722  71.278  1.00  0.00    -0.222 A  
BRANCH  12  15
HETATM   15  N   UNL     1     -10.887  10.884  69.392  1.00  0.00    -0.234 NA 
BRANCH  15  16
HETATM   16  C   UNL     1     -10.173  12.080  68.901  1.00  0.00    -0.058 C  
HETATM   17 CL   UNL     1     -11.410  11.956  66.440  1.00  0.00    -0.399 Cl 
HETATM   18  C   UNL     1      -9.902  12.040  67.395  1.00  0.00    -0.184 C  
ENDBRANCH  15  16
BRANCH  15  19
HETATM   19  C   UNL     1     -12.332  11.056  69.665  1.00  0.00    -0.234 C  
HETATM   20  C   UNL     1     -12.639  11.827  70.956  1.00  0.00    -0.310 C  
HETATM   21 CL   UNL     1     -12.022  13.501  70.918  1.00  0.00    -0.289 Cl 
ENDBRANCH  15  19
ENDBRANCH  12  15
ENDBRANCH   8   9
ENDBRANCH   2   8
TORSDOF 5
ENDMDL
MODEL      230
REMARK 921   NORMALIZED FREE ENERGY PREDICTED BY IDOCK:   -2.66 KCAL/MOL
REMARK 922        TOTAL FREE ENERGY PREDICTED BY IDOCK:   -4.02 KCAL/MOL
REMARK 923 INTER-LIGAND FREE ENERGY PREDICTED BY IDOCK:   -3.31 KCAL/MOL
REMARK 924 INTRA-LIGAND FREE ENERGY PREDICTED BY IDOCK:   -0.72 KCAL/MOL
REMARK 927      BINDING AFFINITY PREDICTED BY RF-SCORE:    0.00 PKD
ROOT
HETATM    1  N   UNL     1      -6.858   6.759  65.216  1.00  0.00    -0.050 NA 
HETATM    2  CA  UNL     1      -7.125   5.633  66.174  1.00  0.00    -0.068 C  
HETATM    3  H1  UNL     1      -5.885   7.068  65.203  1.00  0.00     0.000 HD 
HETATM    4  H2  UNL     1      -7.481   7.545  65.403  1.00  0.00     0.000 HD 
HETATM    5  C   UNL     1      -6.227   4.453  65.771  1.00  0.00    -0.031 C  
HETATM    6  O   UNL     1      -5.352   4.811  64.793  1.00  0.00    -0.012 OA 
HETATM    7  OXT UNL     1      -6.269   3.335  66.256  1.00  0.00    -0.027 OA 
ENDROOT
BRANCH   2   8
HETATM    8  C   UNL     1      -8.594   5.166  66.195  1.00  0.00    -0.117 C  
BRANCH   8   9
HETATM    9  C   UNL     1      -9.221   5.212  67.569  1.00  0.00    -0.124 A  
HETATM   10  C   UNL     1     -10.176   6.180  67.890  1.00  0.00    -0.212 A  
HETATM   11  C   UNL     1     -10.677   6.290  69.195  1.00  0.00    -0.362 A  
HETATM   12  C   UNL     1     -10.247   5.445  70.226  1.00  0.00    -0.267 A  
HETATM   13  C   UNL     1      -9.357   4.420  69.855  1.00  0.00    -0.225 A  
HETATM   14  C   UNL     1      -8.840   4.309  68.559  1.00  0.00    -0.134 A  
BRANCH  12  15
HETATM   15  N   UNL     1     -10.644   5.604  71.551  1.00  0.00    -0.238 NA 
BRANCH  15  16
HETATM   16  C   UNL     1     -11.602   6.648  71.966  1.00  0.00    -0.301 C  
HETATM   17 CL   UNL     1      -9.675   8.618  71.883  1.00  0.00    -0.358 Cl 
HETATM   18  C   UNL     1     -10.954   7.763  72.791  1.00  0.00    -0.388 C  
ENDBRANCH  15  16
BRANCH  15  19
HETATM   19  C   UNL     1      -9.769   5.064  72.617  1.00  0.00    -0.153 C  
HETATM   20  C   UNL     1     -10.368   3.873  73.378  1.00  0.00    -0.162 C  
HETATM   21 CL   UNL     1     -10.658   2.463  72.324  1.00  0.00    -0.076 Cl 
ENDBRANCH  15  19
ENDBRANCH  12  15
ENDBRANCH   8   9
ENDBRANCH   2   8
TORSDOF 5
ENDMDL
MODEL      231
REMARK 921   NORMALIZED FREE ENERGY PREDICTED BY IDOCK:   -2.65 KCAL/MOL
REMARK 922        TOTAL FREE ENERGY PREDICTED BY IDOCK:   -4.02 KCAL/MOL
REMARK 923 INTER-LIGAND FREE ENERGY PREDICTED BY IDOCK:   -4.89 KCAL/MOL
REMARK 924 INTRA-LIGAND FREE ENERGY PREDICTED BY IDOCK:    0.87 KCAL/MOL
REMARK 927      BINDING AFFINITY PREDICTED BY RF-SCORE:    0.00 PKD
ROOT
HETATM    1  N   UNL     1     -13.180  15.709  70.419  1.00  0.00    -0.748 NA 
HETATM    2  CA  UNL     1     -12.482  14.510  69.845  1.00  0.00    -0.252 C  
HETATM    3  H1  UNL     1     -14.164  15.550  70.638  1.00  0.00     0.000 HD 
HETATM    4  H2  UNL     1     -13.075  16.515  69.802  1.00  0.00     0.000 HD 
HETATM    5  C   UNL     1     -12.594  13.370  70.870  1.00  0.00    -0.327 C  
HETATM    6  O   UNL     1     -13.412  13.712  71.901  1.00  0.00    -0.383 OA 
HETATM    7  OXT UNL     1     -12.038  12.287  70.785  1.00  0.00    -0.340 OA 
ENDROOT
BRANCH   2   8
HETATM    8  C   UNL     1     -10.996  14.749  69.516  1.00  0.00    -0.287 C  
BRANCH   8   9
HETATM    9  C   UNL     1     -10.450  13.802  68.473  1.00  0.00    -0.248 A  
HETATM   10  C   UNL     1     -11.263  13.325  67.441  1.00  0.00    -0.316 A  
HETATM   11  C   UNL     1     -10.787  12.363  66.538  1.00  0.00    -0.284 A  
HETATM   12  C   UNL     1      -9.490  11.841  66.629  1.00  0.00    -0.205 A  
HETATM   13  C   UNL     1      -8.664  12.406  67.617  1.00  0.00    -0.178 A  
HETATM   14  C   UNL     1      -9.131  13.357  68.532  1.00  0.00    -0.077 A  
BRANCH  12  15
HETATM   15  N   UNL     1      -9.032  10.807  65.817  1.00  0.00    -0.181 NA 
BRANCH  15  16
HETATM   16  C   UNL     1      -9.860   9.625  65.503  1.00  0.00    -0.281 C  
HETATM   17 CL   UNL     1     -10.822   9.465  68.081  1.00  0.00    -0.220 Cl 
HETATM   18  C   UNL     1     -10.024   8.675  66.691  1.00  0.00    -0.287 C  
ENDBRANCH  15  16
BRANCH  15  19
HETATM   19  C   UNL     1      -7.570  10.637  65.652  1.00  0.00    -0.100 C  
HETATM   20  C   UNL     1      -6.804  10.473  66.972  1.00  0.00    -0.087 C  
HETATM   21 CL   UNL     1      -7.293   9.011  67.870  1.00  0.00    -0.083 Cl 
ENDBRANCH  15  19
ENDBRANCH  12  15
ENDBRANCH   8   9
ENDBRANCH   2   8
TORSDOF 5
ENDMDL
MODEL      232
REMARK 921   NORMALIZED FREE ENERGY PREDICTED BY IDOCK:   -2.64 KCAL/MOL
REMARK 922        TOTAL FREE ENERGY PREDICTED BY IDOCK:   -4.00 KCAL/MOL
REMARK 923 INTER-LIGAND FREE ENERGY PREDICTED BY IDOCK:   -3.41 KCAL/MOL
REMARK 924 INTRA-LIGAND FREE ENERGY PREDICTED BY IDOCK:   -0.59 KCAL/MOL
REMARK 927      BINDING AFFINITY PREDICTED BY RF-SCORE:    0.00 PKD
ROOT
HETATM    1  N   UNL     1      -8.987   8.630  65.160  1.00  0.00    -0.405 NA 
HETATM    2  CA  UNL     1      -9.741   9.580  66.045  1.00  0.00    -0.272 C  
HETATM    3  H1  UNL     1      -8.390   9.090  64.472  1.00  0.00     0.000 HD 
HETATM    4  H2  UNL     1      -9.628   7.982  64.701  1.00  0.00     0.000 HD 
HETATM    5  C   UNL     1      -8.709  10.453  66.777  1.00  0.00    -0.127 C  
HETATM    6  O   UNL     1      -7.453  10.236  66.303  1.00  0.00    -0.106 OA 
HETATM    7  OXT UNL     1      -8.962  11.252  67.665  1.00  0.00    -0.138 OA 
ENDROOT
BRANCH   2   8
HETATM    8  C   UNL     1     -10.642   8.884  67.084  1.00  0.00    -0.301 C  
BRANCH   8   9
HETATM    9  C   UNL     1     -10.184   7.490  67.442  1.00  0.00    -0.318 A  
HETATM   10  C   UNL     1      -9.056   7.288  68.242  1.00  0.00    -0.134 A  
HETATM   11  C   UNL     1      -8.567   5.996  68.484  1.00  0.00    -0.111 A  
HETATM   12  C   UNL     1      -9.180   4.860  67.939  1.00  0.00    -0.122 A  
HETATM   13  C   UNL     1     -10.366   5.084  67.216  1.00  0.00    -0.193 A  
HETATM   14  C   UNL     1     -10.855   6.370  66.957  1.00  0.00    -0.464 A  
BRANCH  12  15
HETATM   15  N   UNL     1      -8.653   3.578  68.071  1.00  0.00    -0.094 NA 
BRANCH  15  16
HETATM   16  C   UNL     1      -9.463   2.439  68.548  1.00  0.00    -0.145 C  
HETATM   17 CL   UNL     1      -9.910   3.625  70.995  1.00  0.00    -0.235 Cl 
HETATM   18  C   UNL     1      -9.349   2.212  70.057  1.00  0.00    -0.102 C  
ENDBRANCH  15  16
BRANCH  15  19
HETATM   19  C   UNL     1      -7.185   3.432  68.202  1.00  0.00    -0.051 C  
HETATM   20  C   UNL     1      -6.479   3.006  66.907  1.00  0.00    -0.036 C  
HETATM   21 CL   UNL     1      -6.662   4.207  65.601  1.00  0.00    -0.051 Cl 
ENDBRANCH  15  19
ENDBRANCH  12  15
ENDBRANCH   8   9
ENDBRANCH   2   8
TORSDOF 5
ENDMDL
MODEL      233
REMARK 921   NORMALIZED FREE ENERGY PREDICTED BY IDOCK:   -2.64 KCAL/MOL
REMARK 922        TOTAL FREE ENERGY PREDICTED BY IDOCK:   -4.00 KCAL/MOL
REMARK 923 INTER-LIGAND FREE ENERGY PREDICTED BY IDOCK:   -4.06 KCAL/MOL
REMARK 924 INTRA-LIGAND FREE ENERGY PREDICTED BY IDOCK:    0.06 KCAL/MOL
REMARK 927      BINDING AFFINITY PREDICTED BY RF-SCORE:    0.00 PKD
ROOT
HETATM    1  N   UNL     1      -9.335  10.368  69.789  1.00  0.00    -0.411 NA 
HETATM    2  CA  UNL     1     -10.741  10.890  69.698  1.00  0.00    -0.180 C  
HETATM    3  H1  UNL     1      -8.924  10.447  70.720  1.00  0.00     0.000 HD 
HETATM    4  H2  UNL     1      -8.740  10.821  69.095  1.00  0.00     0.000 HD 
HETATM    5  C   UNL     1     -11.598  10.096  70.697  1.00  0.00    -0.343 C  
HETATM    6  O   UNL     1     -10.829   9.287  71.473  1.00  0.00    -0.339 OA 
HETATM    7  OXT UNL     1     -12.811  10.173  70.804  1.00  0.00    -0.342 OA 
ENDROOT
BRANCH   2   8
HETATM    8  C   UNL     1     -11.362  10.771  68.293  1.00  0.00    -0.376 C  
BRANCH   8   9
HETATM    9  C   UNL     1     -10.635   9.800  67.393  1.00  0.00    -0.330 A  
HETATM   10  C   UNL     1     -10.579   8.438  67.703  1.00  0.00    -0.265 A  
HETATM   11  C   UNL     1      -9.814   7.555  66.928  1.00  0.00    -0.295 A  
HETATM   12  C   UNL     1      -9.077   7.993  65.819  1.00  0.00    -0.055 A  
HETATM   13  C   UNL     1      -9.225   9.349  65.474  1.00  0.00    -0.292 A  
HETATM   14  C   UNL     1      -9.975  10.242  66.248  1.00  0.00    -0.295 A  
BRANCH  12  15
HETATM   15  N   UNL     1      -8.223   7.160  65.101  1.00  0.00    -0.132 NA 
BRANCH  15  16
HETATM   16  C   UNL     1      -8.085   5.722  65.406  1.00  0.00    -0.131 C  
HETATM   17 CL   UNL     1      -9.017   4.982  62.920  1.00  0.00    -0.068 Cl 
HETATM   18  C   UNL     1      -9.130   4.856  64.698  1.00  0.00    -0.074 C  
ENDBRANCH  15  16
BRANCH  15  19
HETATM   19  C   UNL     1      -7.102   7.777  64.356  1.00  0.00    -0.070 C  
HETATM   20  C   UNL     1      -5.893   8.142  65.229  1.00  0.00    -0.044 C  
HETATM   21 CL   UNL     1      -5.147   6.715  65.996  1.00  0.00    -0.017 Cl 
ENDBRANCH  15  19
ENDBRANCH  12  15
ENDBRANCH   8   9
ENDBRANCH   2   8
TORSDOF 5
ENDMDL
MODEL      234
REMARK 921   NORMALIZED FREE ENERGY PREDICTED BY IDOCK:   -2.63 KCAL/MOL
REMARK 922        TOTAL FREE ENERGY PREDICTED BY IDOCK:   -3.99 KCAL/MOL
REMARK 923 INTER-LIGAND FREE ENERGY PREDICTED BY IDOCK:   -4.86 KCAL/MOL
REMARK 924 INTRA-LIGAND FREE ENERGY PREDICTED BY IDOCK:    0.88 KCAL/MOL
REMARK 927      BINDING AFFINITY PREDICTED BY RF-SCORE:    0.00 PKD
ROOT
HETATM    1  N   UNL     1      -5.636  16.328  66.836  1.00  0.00    -0.341 NA 
HETATM    2  CA  UNL     1      -6.111  17.610  67.457  1.00  0.00    -0.153 C  
HETATM    3  H1  UNL     1      -4.647  16.133  66.994  1.00  0.00     0.000 HD 
HETATM    4  H2  UNL     1      -5.850  16.312  65.838  1.00  0.00     0.000 HD 
HETATM    5  C   UNL     1      -5.850  17.521  68.969  1.00  0.00    -0.194 C  
HETATM    6  O   UNL     1      -5.133  16.409  69.281  1.00  0.00    -0.116 OA 
HETATM    7  OXT UNL     1      -6.220  18.335  69.799  1.00  0.00    -0.239 OA 
ENDROOT
BRANCH   2   8
HETATM    8  C   UNL     1      -7.605  17.905  67.218  1.00  0.00    -0.217 C  
BRANCH   8   9
HETATM    9  C   UNL     1      -8.464  16.663  67.176  1.00  0.00    -0.213 A  
HETATM   10  C   UNL     1      -8.804  15.986  68.350  1.00  0.00    -0.188 A  
HETATM   11  C   UNL     1      -9.509  14.774  68.302  1.00  0.00    -0.207 A  
HETATM   12  C   UNL     1      -9.900  14.194  67.089  1.00  0.00    -0.253 A  
HETATM   13  C   UNL     1      -9.628  14.942  65.929  1.00  0.00    -0.343 A  
HETATM   14  C   UNL     1      -8.913  16.145  65.963  1.00  0.00    -0.334 A  
BRANCH  12  15
HETATM   15  N   UNL     1     -10.502  12.940  67.008  1.00  0.00    -0.238 NA 
BRANCH  15  16
HETATM   16  C   UNL     1     -10.638  12.055  68.182  1.00  0.00    -0.210 C  
HETATM   17 CL   UNL     1     -10.345   9.781  66.653  1.00  0.00    -0.295 Cl 
HETATM   18  C   UNL     1     -11.291  10.712  67.848  1.00  0.00    -0.268 C  
ENDBRANCH  15  16
BRANCH  15  19
HETATM   19  C   UNL     1     -10.576  12.280  65.684  1.00  0.00    -0.260 C  
HETATM   20  C   UNL     1     -11.962  12.345  65.028  1.00  0.00    -0.402 C  
HETATM   21 CL   UNL     1     -12.481  14.018  64.687  1.00  0.00    -0.396 Cl 
ENDBRANCH  15  19
ENDBRANCH  12  15
ENDBRANCH   8   9
ENDBRANCH   2   8
TORSDOF 5
ENDMDL
MODEL      235
REMARK 921   NORMALIZED FREE ENERGY PREDICTED BY IDOCK:   -2.61 KCAL/MOL
REMARK 922        TOTAL FREE ENERGY PREDICTED BY IDOCK:   -3.97 KCAL/MOL
REMARK 923 INTER-LIGAND FREE ENERGY PREDICTED BY IDOCK:   -3.52 KCAL/MOL
REMARK 924 INTRA-LIGAND FREE ENERGY PREDICTED BY IDOCK:   -0.45 KCAL/MOL
REMARK 927      BINDING AFFINITY PREDICTED BY RF-SCORE:    0.00 PKD
ROOT
HETATM    1  N   UNL     1      -7.545   6.098  71.462  1.00  0.00    -0.097 NA 
HETATM    2  CA  UNL     1      -9.001   5.739  71.373  1.00  0.00    -0.140 C  
HETATM    3  H1  UNL     1      -6.920   5.292  71.469  1.00  0.00     0.000 HD 
HETATM    4  H2  UNL     1      -7.372   6.694  72.272  1.00  0.00     0.000 HD 
HETATM    5  C   UNL     1      -9.205   4.931  70.082  1.00  0.00    -0.130 C  
HETATM    6  O   UNL     1      -8.016   4.638  69.490  1.00  0.00    -0.062 OA 
HETATM    7  OXT UNL     1     -10.283   4.579  69.631  1.00  0.00    -0.188 OA 
ENDROOT
BRANCH   2   8
HETATM    8  C   UNL     1      -9.946   6.957  71.362  1.00  0.00    -0.190 C  
BRANCH   8   9
HETATM    9  C   UNL     1      -9.601   7.976  70.302  1.00  0.00    -0.171 A  
HETATM   10  C   UNL     1      -8.613   8.938  70.525  1.00  0.00    -0.208 A  
HETATM   11  C   UNL     1      -8.369   9.951  69.586  1.00  0.00    -0.181 A  
HETATM   12  C   UNL     1      -9.099  10.044  68.394  1.00  0.00    -0.121 A  
HETATM   13  C   UNL     1     -10.022   9.011  68.151  1.00  0.00    -0.206 A  
HETATM   14  C   UNL     1     -10.283   8.003  69.087  1.00  0.00    -0.221 A  
BRANCH  12  15
HETATM   15  N   UNL     1      -8.954  11.101  67.499  1.00  0.00    -0.138 NA 
BRANCH  15  16
HETATM   16  C   UNL     1      -7.902  11.117  66.462  1.00  0.00    -0.151 C  
HETATM   17 CL   UNL     1      -9.664  10.335  64.492  1.00  0.00    -0.383 Cl 
HETATM   18  C   UNL     1      -8.127  10.074  65.364  1.00  0.00    -0.143 C  
ENDBRANCH  15  16
BRANCH  15  19
HETATM   19  C   UNL     1      -9.523  12.418  67.867  1.00  0.00    -0.198 C  
HETATM   20  C   UNL     1     -10.464  13.013  66.810  1.00  0.00    -0.259 C  
HETATM   21 CL   UNL     1     -11.906  12.002  66.530  1.00  0.00    -0.335 Cl 
ENDBRANCH  15  19
ENDBRANCH  12  15
ENDBRANCH   8   9
ENDBRANCH   2   8
TORSDOF 5
ENDMDL
MODEL      236
REMARK 921   NORMALIZED FREE ENERGY PREDICTED BY IDOCK:   -2.60 KCAL/MOL
REMARK 922        TOTAL FREE ENERGY PREDICTED BY IDOCK:   -3.95 KCAL/MOL
REMARK 923 INTER-LIGAND FREE ENERGY PREDICTED BY IDOCK:   -4.30 KCAL/MOL
REMARK 924 INTRA-LIGAND FREE ENERGY PREDICTED BY IDOCK:    0.35 KCAL/MOL
REMARK 927      BINDING AFFINITY PREDICTED BY RF-SCORE:    0.00 PKD
ROOT
HETATM    1  N   UNL     1      -9.445   7.418  73.975  1.00  0.00    -0.368 NA 
HETATM    2  CA  UNL     1     -10.219   6.152  73.741  1.00  0.00    -0.261 C  
HETATM    3  H1  UNL     1      -8.620   7.296  74.563  1.00  0.00     0.000 HD 
HETATM    4  H2  UNL     1     -10.053   8.144  74.356  1.00  0.00     0.000 HD 
HETATM    5  C   UNL     1      -9.270   5.143  73.075  1.00  0.00    -0.123 C  
HETATM    6  O   UNL     1      -7.994   5.613  73.041  1.00  0.00    -0.104 OA 
HETATM    7  OXT UNL     1      -9.595   4.052  72.636  1.00  0.00    -0.127 OA 
ENDROOT
BRANCH   2   8
HETATM    8  C   UNL     1     -11.465   6.336  72.854  1.00  0.00    -0.126 C  
BRANCH   8   9
HETATM    9  C   UNL     1     -11.264   7.326  71.730  1.00  0.00    -0.278 A  
HETATM   10  C   UNL     1     -10.971   6.892  70.435  1.00  0.00    -0.315 A  
HETATM   11  C   UNL     1     -10.677   7.811  69.417  1.00  0.00    -0.177 A  
HETATM   12  C   UNL     1     -10.663   9.193  69.651  1.00  0.00    -0.225 A  
HETATM   13  C   UNL     1     -11.052   9.606  70.938  1.00  0.00    -0.422 A  
HETATM   14  C   UNL     1     -11.334   8.697  71.965  1.00  0.00    -0.432 A  
BRANCH  12  15
HETATM   15  N   UNL     1     -10.267  10.119  68.689  1.00  0.00    -0.168 NA 
BRANCH  15  16
HETATM   16  C   UNL     1     -10.908  10.198  67.361  1.00  0.00    -0.261 C  
HETATM   17 CL   UNL     1      -9.255   8.257  66.314  1.00  0.00    -0.241 Cl 
HETATM   18  C   UNL     1      -9.943   9.902  66.211  1.00  0.00    -0.256 C  
ENDBRANCH  15  16
BRANCH  15  19
HETATM   19  C   UNL     1      -8.909  10.702  68.792  1.00  0.00    -0.161 C  
HETATM   20  C   UNL     1      -7.920   9.851  69.600  1.00  0.00    -0.162 C  
HETATM   21 CL   UNL     1      -7.631   8.252  68.863  1.00  0.00    -0.092 Cl 
ENDBRANCH  15  19
ENDBRANCH  12  15
ENDBRANCH   8   9
ENDBRANCH   2   8
TORSDOF 5
ENDMDL
MODEL      237
REMARK 921   NORMALIZED FREE ENERGY PREDICTED BY IDOCK:   -2.53 KCAL/MOL
REMARK 922        TOTAL FREE ENERGY PREDICTED BY IDOCK:   -3.86 KCAL/MOL
REMARK 923 INTER-LIGAND FREE ENERGY PREDICTED BY IDOCK:   -3.48 KCAL/MOL
REMARK 924 INTRA-LIGAND FREE ENERGY PREDICTED BY IDOCK:   -0.38 KCAL/MOL
REMARK 927      BINDING AFFINITY PREDICTED BY RF-SCORE:    0.00 PKD
ROOT
HETATM    1  N   UNL     1      -9.386  11.624  66.828  1.00  0.00    -0.181 NA 
HETATM    2  CA  UNL     1      -8.197  10.899  66.266  1.00  0.00    -0.165 C  
HETATM    3  H1  UNL     1     -10.083  11.880  66.128  1.00  0.00     0.000 HD 
HETATM    4  H2  UNL     1      -9.089  12.445  67.355  1.00  0.00     0.000 HD 
HETATM    5  C   UNL     1      -8.710   9.625  65.575  1.00  0.00    -0.153 C  
HETATM    6  O   UNL     1     -10.069   9.603  65.528  1.00  0.00    -0.290 OA 
HETATM    7  OXT UNL     1      -8.008   8.740  65.115  1.00  0.00    -0.111 OA 
ENDROOT
BRANCH   2   8
HETATM    8  C   UNL     1      -7.143  10.513  67.322  1.00  0.00    -0.088 C  
BRANCH   8   9
HETATM    9  C   UNL     1      -7.699   9.672  68.447  1.00  0.00    -0.081 A  
HETATM   10  C   UNL     1      -7.323   8.335  68.598  1.00  0.00    -0.089 A  
HETATM   11  C   UNL     1      -7.920   7.525  69.574  1.00  0.00    -0.126 A  
HETATM   12  C   UNL     1      -8.912   8.014  70.434  1.00  0.00    -0.146 A  
HETATM   13  C   UNL     1      -9.205   9.386  70.324  1.00  0.00    -0.285 A  
HETATM   14  C   UNL     1      -8.625  10.200  69.344  1.00  0.00    -0.183 A  
BRANCH  12  15
HETATM   15  N   UNL     1      -9.599   7.205  71.336  1.00  0.00    -0.162 NA 
BRANCH  15  16
HETATM   16  C   UNL     1     -10.366   7.762  72.468  1.00  0.00    -0.268 C  
HETATM   17 CL   UNL     1      -8.092   8.144  73.977  1.00  0.00    -0.297 Cl 
HETATM   18  C   UNL     1      -9.734   7.458  73.828  1.00  0.00    -0.280 C  
ENDBRANCH  15  16
BRANCH  15  19
HETATM   19  C   UNL     1      -9.187   5.789  71.465  1.00  0.00    -0.146 C  
HETATM   20  C   UNL     1     -10.152   4.791  70.811  1.00  0.00    -0.216 C  
HETATM   21 CL   UNL     1     -10.287   5.025  69.047  1.00  0.00    -0.212 Cl 
ENDBRANCH  15  19
ENDBRANCH  12  15
ENDBRANCH   8   9
ENDBRANCH   2   8
TORSDOF 5
ENDMDL
MODEL      238
REMARK 921   NORMALIZED FREE ENERGY PREDICTED BY IDOCK:   -2.49 KCAL/MOL
REMARK 922        TOTAL FREE ENERGY PREDICTED BY IDOCK:   -3.81 KCAL/MOL
REMARK 923 INTER-LIGAND FREE ENERGY PREDICTED BY IDOCK:   -3.37 KCAL/MOL
REMARK 924 INTRA-LIGAND FREE ENERGY PREDICTED BY IDOCK:   -0.45 KCAL/MOL
REMARK 927      BINDING AFFINITY PREDICTED BY RF-SCORE:    0.00 PKD
ROOT
HETATM    1  N   UNL     1     -11.331   6.415  67.269  1.00  0.00    -0.731 NA 
HETATM    2  CA  UNL     1     -10.374   7.546  67.026  1.00  0.00    -0.324 C  
HETATM    3  H1  UNL     1     -11.651   5.953  66.417  1.00  0.00     0.000 HD 
HETATM    4  H2  UNL     1     -12.126   6.731  67.825  1.00  0.00     0.000 HD 
HETATM    5  C   UNL     1      -9.159   6.977  66.275  1.00  0.00    -0.147 C  
HETATM    6  O   UNL     1      -9.367   5.683  65.910  1.00  0.00    -0.159 OA 
HETATM    7  OXT UNL     1      -8.135   7.589  66.021  1.00  0.00    -0.110 OA 
ENDROOT
BRANCH   2   8
HETATM    8  C   UNL     1      -9.891   8.244  68.312  1.00  0.00    -0.192 C  
BRANCH   8   9
HETATM    9  C   UNL     1      -9.527   7.282  69.419  1.00  0.00    -0.154 A  
HETATM   10  C   UNL     1     -10.335   7.152  70.552  1.00  0.00    -0.215 A  
HETATM   11  C   UNL     1      -9.942   6.342  71.627  1.00  0.00    -0.195 A  
HETATM   12  C   UNL     1      -8.733   5.634  71.615  1.00  0.00    -0.136 A  
HETATM   13  C   UNL     1      -7.984   5.707  70.426  1.00  0.00    -0.104 A  
HETATM   14  C   UNL     1      -8.360   6.524  69.352  1.00  0.00    -0.123 A  
BRANCH  12  15
HETATM   15  N   UNL     1      -8.267   4.913  72.711  1.00  0.00    -0.104 NA 
BRANCH  15  16
HETATM   16  C   UNL     1      -8.359   3.440  72.782  1.00  0.00    -0.081 C  
HETATM   17 CL   UNL     1     -10.818   3.533  74.025  1.00  0.00    -0.283 Cl 
HETATM   18  C   UNL     1      -9.131   2.946  74.008  1.00  0.00    -0.081 C  
ENDBRANCH  15  16
BRANCH  15  19
HETATM   19  C   UNL     1      -8.120   5.617  74.006  1.00  0.00    -0.109 C  
HETATM   20  C   UNL     1      -6.664   5.849  74.433  1.00  0.00    -0.076 C  
HETATM   21 CL   UNL     1      -5.772   6.889  73.290  1.00  0.00    -0.046 Cl 
ENDBRANCH  15  19
ENDBRANCH  12  15
ENDBRANCH   8   9
ENDBRANCH   2   8
TORSDOF 5
ENDMDL
MODEL      239
REMARK 921   NORMALIZED FREE ENERGY PREDICTED BY IDOCK:   -2.46 KCAL/MOL
REMARK 922        TOTAL FREE ENERGY PREDICTED BY IDOCK:   -3.77 KCAL/MOL
REMARK 923 INTER-LIGAND FREE ENERGY PREDICTED BY IDOCK:   -3.36 KCAL/MOL
REMARK 924 INTRA-LIGAND FREE ENERGY PREDICTED BY IDOCK:   -0.41 KCAL/MOL
REMARK 927      BINDING AFFINITY PREDICTED BY RF-SCORE:    0.00 PKD
ROOT
HETATM    1  N   UNL     1      -8.574   3.535  64.655  1.00  0.00    -0.100 NA 
HETATM    2  CA  UNL     1      -8.689   5.022  64.835  1.00  0.00    -0.150 C  
HETATM    3  H1  UNL     1      -9.055   3.180  63.828  1.00  0.00     0.000 HD 
HETATM    4  H2  UNL     1      -8.894   3.047  65.492  1.00  0.00     0.000 HD 
HETATM    5  C   UNL     1      -8.099   5.691  63.584  1.00  0.00    -0.116 C  
HETATM    6  O   UNL     1      -7.801   4.771  62.627  1.00  0.00    -0.062 OA 
HETATM    7  OXT UNL     1      -7.920   6.889  63.441  1.00  0.00    -0.122 OA 
ENDROOT
BRANCH   2   8
HETATM    8  C   UNL     1      -7.964   5.558  66.085  1.00  0.00    -0.105 C  
BRANCH   8   9
HETATM    9  C   UNL     1      -8.633   6.766  66.698  1.00  0.00    -0.123 A  
HETATM   10  C   UNL     1     -10.026   6.863  66.753  1.00  0.00    -0.248 A  
HETATM   11  C   UNL     1     -10.647   8.030  67.222  1.00  0.00    -0.360 A  
HETATM   12  C   UNL     1      -9.907   9.140  67.651  1.00  0.00    -0.172 A  
HETATM   13  C   UNL     1      -8.510   8.981  67.673  1.00  0.00    -0.117 A  
HETATM   14  C   UNL     1      -7.879   7.826  67.195  1.00  0.00    -0.113 A  
BRANCH  12  15
HETATM   15  N   UNL     1     -10.496  10.348  68.016  1.00  0.00    -0.182 NA 
BRANCH  15  16
HETATM   16  C   UNL     1     -11.404  10.463  69.175  1.00  0.00    -0.226 C  
HETATM   17 CL   UNL     1      -9.469   9.587  70.931  1.00  0.00    -0.267 Cl 
HETATM   18  C   UNL     1     -11.118   9.428  70.265  1.00  0.00    -0.257 C  
ENDBRANCH  15  16
BRANCH  15  19
HETATM   19  C   UNL     1     -10.612  11.411  66.992  1.00  0.00    -0.248 C  
HETATM   20  C   UNL     1     -10.242  12.812  67.497  1.00  0.00    -0.216 C  
HETATM   21 CL   UNL     1      -8.540  12.924  68.020  1.00  0.00    -0.178 Cl 
ENDBRANCH  15  19
ENDBRANCH  12  15
ENDBRANCH   8   9
ENDBRANCH   2   8
TORSDOF 5
ENDMDL
MODEL      240
REMARK 921   NORMALIZED FREE ENERGY PREDICTED BY IDOCK:   -2.40 KCAL/MOL
REMARK 922        TOTAL FREE ENERGY PREDICTED BY IDOCK:   -3.69 KCAL/MOL
REMARK 923 INTER-LIGAND FREE ENERGY PREDICTED BY IDOCK:   -4.46 KCAL/MOL
REMARK 924 INTRA-LIGAND FREE ENERGY PREDICTED BY IDOCK:    0.77 KCAL/MOL
REMARK 927      BINDING AFFINITY PREDICTED BY RF-SCORE:    0.00 PKD
ROOT
HETATM    1  N   UNL     1      -6.466  19.282  66.350  1.00  0.00    -0.185 NA 
HETATM    2  CA  UNL     1      -7.342  18.456  67.246  1.00  0.00    -0.212 C  
HETATM    3  H1  UNL     1      -5.869  19.943  66.849  1.00  0.00     0.000 HD 
HETATM    4  H2  UNL     1      -7.026  19.765  65.647  1.00  0.00     0.000 HD 
HETATM    5  C   UNL     1      -6.427  17.682  68.209  1.00  0.00    -0.188 C  
HETATM    6  O   UNL     1      -5.133  18.081  68.087  1.00  0.00    -0.151 OA 
HETATM    7  OXT UNL     1      -6.793  16.823  68.995  1.00  0.00    -0.193 OA 
ENDROOT
BRANCH   2   8
HETATM    8  C   UNL     1      -8.243  17.458  66.493  1.00  0.00    -0.311 C  
BRANCH   8   9
HETATM    9  C   UNL     1      -9.214  16.727  67.390  1.00  0.00    -0.220 A  
HETATM   10  C   UNL     1     -10.058  17.428  68.255  1.00  0.00    -0.339 A  
HETATM   11  C   UNL     1     -10.881  16.749  69.165  1.00  0.00    -0.287 A  
HETATM   12  C   UNL     1     -10.894  15.350  69.248  1.00  0.00    -0.253 A  
HETATM   13  C   UNL     1     -10.106  14.667  68.304  1.00  0.00    -0.228 A  
HETATM   14  C   UNL     1      -9.270  15.335  67.400  1.00  0.00    -0.201 A  
BRANCH  12  15
HETATM   15  N   UNL     1     -11.616  14.655  70.215  1.00  0.00    -0.278 NA 
BRANCH  15  16
HETATM   16  C   UNL     1     -12.783  13.817  69.875  1.00  0.00     0.061 C  
HETATM   17 CL   UNL     1     -11.413  11.484  70.403  1.00  0.00    -0.211 Cl 
HETATM   18  C   UNL     1     -12.395  12.463  69.276  1.00  0.00     0.137 C  
ENDBRANCH  15  16
BRANCH  15  19
HETATM   19  C   UNL     1     -11.534  15.116  71.620  1.00  0.00    -0.380 C  
HETATM   20  C   UNL     1     -12.896  15.263  72.312  1.00  0.00    -0.360 C  
HETATM   21 CL   UNL     1     -13.773  13.714  72.434  1.00  0.00    -0.665 Cl 
ENDBRANCH  15  19
ENDBRANCH  12  15
ENDBRANCH   8   9
ENDBRANCH   2   8
TORSDOF 5
ENDMDL
MODEL      241
REMARK 921   NORMALIZED FREE ENERGY PREDICTED BY IDOCK:   -2.39 KCAL/MOL
REMARK 922        TOTAL FREE ENERGY PREDICTED BY IDOCK:   -3.68 KCAL/MOL
REMARK 923 INTER-LIGAND FREE ENERGY PREDICTED BY IDOCK:   -3.32 KCAL/MOL
REMARK 924 INTRA-LIGAND FREE ENERGY PREDICTED BY IDOCK:   -0.36 KCAL/MOL
REMARK 927      BINDING AFFINITY PREDICTED BY RF-SCORE:    0.00 PKD
ROOT
HETATM    1  N   UNL     1      -9.010   5.437  63.310  1.00  0.00    -0.336 NA 
HETATM    2  CA  UNL     1      -9.153   4.072  63.919  1.00  0.00    -0.139 C  
HETATM    3  H1  UNL     1      -8.986   5.434  62.290  1.00  0.00     0.000 HD 
HETATM    4  H2  UNL     1      -8.190   5.913  63.686  1.00  0.00     0.000 HD 
HETATM    5  C   UNL     1     -10.457   3.457  63.386  1.00  0.00    -0.241 C  
HETATM    6  O   UNL     1     -11.007   4.234  62.415  1.00  0.00    -0.119 OA 
HETATM    7  OXT UNL     1     -10.948   2.406  63.763  1.00  0.00    -0.105 OA 
ENDROOT
BRANCH   2   8
HETATM    8  C   UNL     1      -9.189   4.076  65.460  1.00  0.00    -0.150 C  
BRANCH   8   9
HETATM    9  C   UNL     1      -9.075   5.457  66.062  1.00  0.00    -0.159 A  
HETATM   10  C   UNL     1     -10.216   6.196  66.383  1.00  0.00    -0.107 A  
HETATM   11  C   UNL     1     -10.112   7.518  66.839  1.00  0.00    -0.336 A  
HETATM   12  C   UNL     1      -8.872   8.152  66.991  1.00  0.00    -0.132 A  
HETATM   13  C   UNL     1      -7.737   7.356  66.751  1.00  0.00    -0.109 A  
HETATM   14  C   UNL     1      -7.829   6.040  66.282  1.00  0.00    -0.104 A  
BRANCH  12  15
HETATM   15  N   UNL     1      -8.745   9.496  67.334  1.00  0.00    -0.125 NA 
BRANCH  15  16
HETATM   16  C   UNL     1      -8.168  10.493  66.411  1.00  0.00    -0.140 C  
HETATM   17 CL   UNL     1     -10.646  11.538  65.802  1.00  0.00    -0.306 Cl 
HETATM   18  C   UNL     1      -9.099  10.840  65.246  1.00  0.00    -0.195 C  
ENDBRANCH  15  16
BRANCH  15  19
HETATM   19  C   UNL     1      -8.732   9.856  68.770  1.00  0.00    -0.132 C  
HETATM   20  C   UNL     1      -9.623  11.055  69.125  1.00  0.00    -0.061 C  
HETATM   21 CL   UNL     1     -11.348  10.749  68.789  1.00  0.00    -0.324 Cl 
ENDBRANCH  15  19
ENDBRANCH  12  15
ENDBRANCH   8   9
ENDBRANCH   2   8
TORSDOF 5
ENDMDL
MODEL      242
REMARK 921   NORMALIZED FREE ENERGY PREDICTED BY IDOCK:   -2.34 KCAL/MOL
REMARK 922        TOTAL FREE ENERGY PREDICTED BY IDOCK:   -3.61 KCAL/MOL
REMARK 923 INTER-LIGAND FREE ENERGY PREDICTED BY IDOCK:   -3.03 KCAL/MOL
REMARK 924 INTRA-LIGAND FREE ENERGY PREDICTED BY IDOCK:   -0.59 KCAL/MOL
REMARK 927      BINDING AFFINITY PREDICTED BY RF-SCORE:    0.00 PKD
ROOT
HETATM    1  N   UNL     1      -9.194   3.216  64.904  1.00  0.00    -0.143 NA 
HETATM    2  CA  UNL     1      -8.980   4.698  65.027  1.00  0.00    -0.152 C  
HETATM    3  H1  UNL     1      -9.876   2.955  64.191  1.00  0.00     0.000 HD 
HETATM    4  H2  UNL     1      -9.448   2.815  65.807  1.00  0.00     0.000 HD 
HETATM    5  C   UNL     1      -8.504   5.215  63.660  1.00  0.00    -0.115 C  
HETATM    6  O   UNL     1      -8.570   4.242  62.714  1.00  0.00    -0.089 OA 
HETATM    7  OXT UNL     1      -8.120   6.350  63.429  1.00  0.00    -0.105 OA 
ENDROOT
BRANCH   2   8
HETATM    8  C   UNL     1      -7.951   5.093  66.104  1.00  0.00    -0.104 C  
BRANCH   8   9
HETATM    9  C   UNL     1      -8.385   6.267  66.949  1.00  0.00    -0.109 A  
HETATM   10  C   UNL     1      -9.644   6.850  66.777  1.00  0.00    -0.215 A  
HETATM   11  C   UNL     1     -10.004   8.006  67.484  1.00  0.00    -0.253 A  
HETATM   12  C   UNL     1      -9.127   8.624  68.386  1.00  0.00    -0.138 A  
HETATM   13  C   UNL     1      -7.905   7.966  68.610  1.00  0.00    -0.119 A  
HETATM   14  C   UNL     1      -7.529   6.819  67.900  1.00  0.00    -0.098 A  
BRANCH  12  15
HETATM   15  N   UNL     1      -9.417   9.832  69.016  1.00  0.00    -0.165 NA 
BRANCH  15  16
HETATM   16  C   UNL     1      -8.366  10.807  69.370  1.00  0.00    -0.004 C  
HETATM   17 CL   UNL     1      -8.756  12.250  67.055  1.00  0.00    -0.194 Cl 
HETATM   18  C   UNL     1      -7.644  11.381  68.149  1.00  0.00    -0.114 C  
ENDBRANCH  15  16
BRANCH  15  19
HETATM   19  C   UNL     1     -10.689   9.947  69.765  1.00  0.00    -0.267 C  
HETATM   20  C   UNL     1     -11.356  11.325  69.663  1.00  0.00    -0.287 C  
HETATM   21 CL   UNL     1     -11.819  11.740  67.991  1.00  0.00    -0.352 Cl 
ENDBRANCH  15  19
ENDBRANCH  12  15
ENDBRANCH   8   9
ENDBRANCH   2   8
TORSDOF 5
ENDMDL
MODEL      243
REMARK 921   NORMALIZED FREE ENERGY PREDICTED BY IDOCK:   -2.14 KCAL/MOL
REMARK 922        TOTAL FREE ENERGY PREDICTED BY IDOCK:   -3.35 KCAL/MOL
REMARK 923 INTER-LIGAND FREE ENERGY PREDICTED BY IDOCK:   -2.87 KCAL/MOL
REMARK 924 INTRA-LIGAND FREE ENERGY PREDICTED BY IDOCK:   -0.49 KCAL/MOL
REMARK 927      BINDING AFFINITY PREDICTED BY RF-SCORE:    0.00 PKD
ROOT
HETATM    1  N   UNL     1      -9.235   2.840  64.566  1.00  0.00    -0.129 NA 
HETATM    2  CA  UNL     1      -8.651   4.145  65.026  1.00  0.00    -0.117 C  
HETATM    3  H1  UNL     1      -9.804   2.916  63.722  1.00  0.00     0.000 HD 
HETATM    4  H2  UNL     1      -9.766   2.400  65.318  1.00  0.00     0.000 HD 
HETATM    5  C   UNL     1      -7.786   4.698  63.883  1.00  0.00    -0.073 C  
HETATM    6  O   UNL     1      -7.925   3.953  62.754  1.00  0.00    -0.071 OA 
HETATM    7  OXT UNL     1      -7.067   5.682  63.953  1.00  0.00    -0.048 OA 
ENDROOT
BRANCH   2   8
HETATM    8  C   UNL     1      -7.792   4.031  66.300  1.00  0.00    -0.090 C  
BRANCH   8   9
HETATM    9  C   UNL     1      -8.291   4.886  67.442  1.00  0.00    -0.105 A  
HETATM   10  C   UNL     1      -9.033   6.045  67.199  1.00  0.00    -0.114 A  
HETATM   11  C   UNL     1      -9.402   6.896  68.251  1.00  0.00    -0.125 A  
HETATM   12  C   UNL     1      -9.047   6.626  69.579  1.00  0.00    -0.144 A  
HETATM   13  C   UNL     1      -8.383   5.407  69.807  1.00  0.00    -0.100 A  
HETATM   14  C   UNL     1      -7.997   4.557  68.763  1.00  0.00    -0.078 A  
BRANCH  12  15
HETATM   15  N   UNL     1      -9.304   7.508  70.626  1.00  0.00    -0.163 NA 
BRANCH  15  16
HETATM   16  C   UNL     1      -8.791   8.893  70.632  1.00  0.00    -0.198 C  
HETATM   17 CL   UNL     1     -11.332   9.961  70.608  1.00  0.00    -0.380 Cl 
HETATM   18  C   UNL     1      -9.701   9.872  69.887  1.00  0.00    -0.235 C  
ENDBRANCH  15  16
BRANCH  15  19
HETATM   19  C   UNL     1      -9.672   6.945  71.945  1.00  0.00    -0.161 C  
HETATM   20  C   UNL     1     -11.139   7.171  72.337  1.00  0.00    -0.266 C  
HETATM   21 CL   UNL     1     -12.277   6.378  71.215  1.00  0.00    -0.269 Cl 
ENDBRANCH  15  19
ENDBRANCH  12  15
ENDBRANCH   8   9
ENDBRANCH   2   8
TORSDOF 5
ENDMDL
MODEL      244
REMARK 921   NORMALIZED FREE ENERGY PREDICTED BY IDOCK:   -2.07 KCAL/MOL
REMARK 922        TOTAL FREE ENERGY PREDICTED BY IDOCK:   -3.27 KCAL/MOL
REMARK 923 INTER-LIGAND FREE ENERGY PREDICTED BY IDOCK:   -3.54 KCAL/MOL
REMARK 924 INTRA-LIGAND FREE ENERGY PREDICTED BY IDOCK:    0.27 KCAL/MOL
REMARK 927      BINDING AFFINITY PREDICTED BY RF-SCORE:    0.00 PKD
ROOT
HETATM    1  N   UNL     1     -10.608   8.232  70.982  1.00  0.00    -0.201 NA 
HETATM    2  CA  UNL     1     -10.721   9.686  70.625  1.00  0.00    -0.322 C  
HETATM    3  H1  UNL     1     -10.626   8.050  71.987  1.00  0.00     0.000 HD 
HETATM    4  H2  UNL     1      -9.775   7.823  70.558  1.00  0.00     0.000 HD 
HETATM    5  C   UNL     1     -12.044  10.209  71.210  1.00  0.00    -0.394 C  
HETATM    6  O   UNL     1     -12.636   9.275  72.001  1.00  0.00    -0.362 OA 
HETATM    7  OXT UNL     1     -12.516  11.316  71.010  1.00  0.00    -0.382 OA 
ENDROOT
BRANCH   2   8
HETATM    8  C   UNL     1     -10.695   9.962  69.110  1.00  0.00    -0.247 C  
BRANCH   8   9
HETATM    9  C   UNL     1     -10.027   8.868  68.310  1.00  0.00    -0.201 A  
HETATM   10  C   UNL     1      -8.637   8.721  68.316  1.00  0.00    -0.134 A  
HETATM   11  C   UNL     1      -8.010   7.776  67.490  1.00  0.00    -0.123 A  
HETATM   12  C   UNL     1      -8.741   6.947  66.629  1.00  0.00    -0.128 A  
HETATM   13  C   UNL     1     -10.141   7.050  66.711  1.00  0.00    -0.270 A  
HETATM   14  C   UNL     1     -10.777   7.998  67.522  1.00  0.00    -0.238 A  
BRANCH  12  15
HETATM   15  N   UNL     1      -8.138   6.081  65.720  1.00  0.00    -0.116 NA 
BRANCH  15  16
HETATM   16  C   UNL     1      -7.873   6.469  64.320  1.00  0.00    -0.113 C  
HETATM   17 CL   UNL     1      -5.178   6.796  64.794  1.00  0.00    -0.026 Cl 
HETATM   18  C   UNL     1      -6.718   7.463  64.181  1.00  0.00    -0.048 C  
ENDBRANCH  15  16
BRANCH  15  19
HETATM   19  C   UNL     1      -8.193   4.627  65.992  1.00  0.00    -0.110 C  
HETATM   20  C   UNL     1      -8.014   3.748  64.747  1.00  0.00    -0.090 C  
HETATM   21 CL   UNL     1      -6.419   3.966  63.977  1.00  0.00    -0.036 Cl 
ENDBRANCH  15  19
ENDBRANCH  12  15
ENDBRANCH   8   9
ENDBRANCH   2   8
TORSDOF 5
ENDMDL
MODEL      245
REMARK 921   NORMALIZED FREE ENERGY PREDICTED BY IDOCK:   -2.01 KCAL/MOL
REMARK 922        TOTAL FREE ENERGY PREDICTED BY IDOCK:   -3.19 KCAL/MOL
REMARK 923 INTER-LIGAND FREE ENERGY PREDICTED BY IDOCK:   -3.84 KCAL/MOL
REMARK 924 INTRA-LIGAND FREE ENERGY PREDICTED BY IDOCK:    0.65 KCAL/MOL
REMARK 927      BINDING AFFINITY PREDICTED BY RF-SCORE:    0.00 PKD
ROOT
HETATM    1  N   UNL     1      -8.933   5.746  64.370  1.00  0.00    -0.330 NA 
HETATM    2  CA  UNL     1      -9.414   4.420  64.884  1.00  0.00    -0.162 C  
HETATM    3  H1  UNL     1      -8.287   5.675  63.583  1.00  0.00     0.000 HD 
HETATM    4  H2  UNL     1      -8.519   6.294  65.125  1.00  0.00     0.000 HD 
HETATM    5  C   UNL     1     -10.113   3.695  63.723  1.00  0.00    -0.204 C  
HETATM    6  O   UNL     1      -9.955   4.370  62.553  1.00  0.00    -0.136 OA 
HETATM    7  OXT UNL     1     -10.728   2.645  63.813  1.00  0.00    -0.169 OA 
ENDROOT
BRANCH   2   8
HETATM    8  C   UNL     1     -10.389   4.526  66.073  1.00  0.00    -0.276 C  
BRANCH   8   9
HETATM    9  C   UNL     1     -10.197   5.777  66.899  1.00  0.00    -0.265 A  
HETATM   10  C   UNL     1     -10.892   5.958  68.098  1.00  0.00    -0.323 A  
HETATM   11  C   UNL     1     -10.797   7.163  68.808  1.00  0.00    -0.157 A  
HETATM   12  C   UNL     1     -10.012   8.231  68.352  1.00  0.00    -0.190 A  
HETATM   13  C   UNL     1      -9.251   7.989  67.194  1.00  0.00    -0.172 A  
HETATM   14  C   UNL     1      -9.348   6.794  66.470  1.00  0.00    -0.197 A  
BRANCH  12  15
HETATM   15  N   UNL     1      -9.988   9.475  68.978  1.00  0.00    -0.174 NA 
BRANCH  15  16
HETATM   16  C   UNL     1      -9.468   9.657  70.348  1.00  0.00    -0.222 C  
HETATM   17 CL   UNL     1      -6.946  10.295  69.433  1.00  0.00    -0.071 Cl 
HETATM   18  C   UNL     1      -7.988   9.290  70.480  1.00  0.00    -0.167 C  
ENDBRANCH  15  16
BRANCH  15  19
HETATM   19  C   UNL     1     -10.908  10.527  68.487  1.00  0.00    -0.234 C  
HETATM   20  C   UNL     1     -10.228  11.874  68.206  1.00  0.00    -0.204 C  
HETATM   21 CL   UNL     1      -8.997  11.764  66.919  1.00  0.00    -0.189 Cl 
ENDBRANCH  15  19
ENDBRANCH  12  15
ENDBRANCH   8   9
ENDBRANCH   2   8
TORSDOF 5
ENDMDL
MODEL      246
REMARK 921   NORMALIZED FREE ENERGY PREDICTED BY IDOCK:   -1.91 KCAL/MOL
REMARK 922        TOTAL FREE ENERGY PREDICTED BY IDOCK:   -3.06 KCAL/MOL
REMARK 923 INTER-LIGAND FREE ENERGY PREDICTED BY IDOCK:   -2.57 KCAL/MOL
REMARK 924 INTRA-LIGAND FREE ENERGY PREDICTED BY IDOCK:   -0.49 KCAL/MOL
REMARK 927      BINDING AFFINITY PREDICTED BY RF-SCORE:    0.00 PKD
ROOT
HETATM    1  N   UNL     1      -9.236   2.824  64.570  1.00  0.00    -0.129 NA 
HETATM    2  CA  UNL     1      -8.598   4.012  65.233  1.00  0.00    -0.114 C  
HETATM    3  H1  UNL     1      -9.820   3.063  63.768  1.00  0.00     0.000 HD 
HETATM    4  H2  UNL     1      -9.765   2.276  65.249  1.00  0.00     0.000 HD 
HETATM    5  C   UNL     1      -7.740   4.729  64.180  1.00  0.00    -0.079 C  
HETATM    6  O   UNL     1      -7.928   4.196  62.943  1.00  0.00    -0.068 OA 
HETATM    7  OXT UNL     1      -6.986   5.664  64.399  1.00  0.00    -0.049 OA 
ENDROOT
BRANCH   2   8
HETATM    8  C   UNL     1      -7.717   3.652  66.445  1.00  0.00    -0.085 C  
BRANCH   8   9
HETATM    9  C   UNL     1      -8.204   4.250  67.744  1.00  0.00    -0.095 A  
HETATM   10  C   UNL     1      -7.325   4.917  68.601  1.00  0.00    -0.062 A  
HETATM   11  C   UNL     1      -7.753   5.376  69.855  1.00  0.00    -0.080 A  
HETATM   12  C   UNL     1      -9.068   5.188  70.301  1.00  0.00    -0.126 A  
HETATM   13  C   UNL     1      -9.955   4.599  69.382  1.00  0.00    -0.249 A  
HETATM   14  C   UNL     1      -9.535   4.124  68.134  1.00  0.00    -0.215 A  
BRANCH  12  15
HETATM   15  N   UNL     1      -9.489   5.534  71.583  1.00  0.00    -0.146 NA 
BRANCH  15  16
HETATM   16  C   UNL     1      -8.908   4.922  72.795  1.00  0.00    -0.121 C  
HETATM   17 CL   UNL     1      -7.808   7.311  73.619  1.00  0.00    -0.122 Cl 
HETATM   18  C   UNL     1      -7.597   5.581  73.229  1.00  0.00    -0.096 C  
ENDBRANCH  15  16
BRANCH  15  19
HETATM   19  C   UNL     1     -10.829   6.144  71.742  1.00  0.00    -0.255 C  
HETATM   20  C   UNL     1     -10.801   7.632  72.115  1.00  0.00    -0.247 C  
HETATM   21 CL   UNL     1     -10.033   8.639  70.859  1.00  0.00    -0.238 Cl 
ENDBRANCH  15  19
ENDBRANCH  12  15
ENDBRANCH   8   9
ENDBRANCH   2   8
TORSDOF 5
ENDMDL
MODEL      247
REMARK 921   NORMALIZED FREE ENERGY PREDICTED BY IDOCK:   -1.76 KCAL/MOL
REMARK 922        TOTAL FREE ENERGY PREDICTED BY IDOCK:   -2.87 KCAL/MOL
REMARK 923 INTER-LIGAND FREE ENERGY PREDICTED BY IDOCK:   -3.45 KCAL/MOL
REMARK 924 INTRA-LIGAND FREE ENERGY PREDICTED BY IDOCK:    0.58 KCAL/MOL
REMARK 927      BINDING AFFINITY PREDICTED BY RF-SCORE:    0.00 PKD
ROOT
HETATM    1  N   UNL     1      -5.320  12.297  69.107  1.00  0.00    -0.062 NA 
HETATM    2  CA  UNL     1      -6.507  13.183  68.855  1.00  0.00    -0.097 C  
HETATM    3  H1  UNL     1      -5.349  11.811  70.004  1.00  0.00     0.000 HD 
HETATM    4  H2  UNL     1      -4.452  12.826  69.013  1.00  0.00     0.000 HD 
HETATM    5  C   UNL     1      -7.765  12.302  68.911  1.00  0.00     0.059 C  
HETATM    6  O   UNL     1      -7.468  11.042  69.325  1.00  0.00    -0.123 OA 
HETATM    7  OXT UNL     1      -8.896  12.668  68.633  1.00  0.00    -0.089 OA 
ENDROOT
BRANCH   2   8
HETATM    8  C   UNL     1      -6.463  13.916  67.501  1.00  0.00    -0.077 C  
BRANCH   8   9
HETATM    9  C   UNL     1      -6.958  15.342  67.572  1.00  0.00    -0.225 A  
HETATM   10  C   UNL     1      -8.144  15.657  68.241  1.00  0.00    -0.134 A  
HETATM   11  C   UNL     1      -8.660  16.960  68.214  1.00  0.00    -0.230 A  
HETATM   12  C   UNL     1      -8.019  17.995  67.521  1.00  0.00    -0.222 A  
HETATM   13  C   UNL     1      -6.781  17.674  66.935  1.00  0.00    -0.212 A  
HETATM   14  C   UNL     1      -6.263  16.373  66.944  1.00  0.00    -0.079 A  
BRANCH  12  15
HETATM   15  N   UNL     1      -8.566  19.269  67.385  1.00  0.00    -0.288 NA 
BRANCH  15  16
HETATM   16  C   UNL     1      -7.837  20.487  67.793  1.00  0.00    -0.179 C  
HETATM   17 CL   UNL     1      -6.645  20.745  65.320  1.00  0.00    -0.245 Cl 
HETATM   18  C   UNL     1      -6.482  20.635  67.096  1.00  0.00    -0.269 C  
ENDBRANCH  15  16
BRANCH  15  19
HETATM   19  C   UNL     1     -10.038  19.395  67.289  1.00  0.00    -0.390 C  
HETATM   20  C   UNL     1     -10.611  19.028  65.913  1.00  0.00    -0.393 C  
HETATM   21 CL   UNL     1     -10.311  17.324  65.478  1.00  0.00    -0.191 Cl 
ENDBRANCH  15  19
ENDBRANCH  12  15
ENDBRANCH   8   9
ENDBRANCH   2   8
TORSDOF 5
ENDMDL
MODEL      248
REMARK 921   NORMALIZED FREE ENERGY PREDICTED BY IDOCK:   -1.57 KCAL/MOL
REMARK 922        TOTAL FREE ENERGY PREDICTED BY IDOCK:   -2.62 KCAL/MOL
REMARK 923 INTER-LIGAND FREE ENERGY PREDICTED BY IDOCK:   -3.61 KCAL/MOL
REMARK 924 INTRA-LIGAND FREE ENERGY PREDICTED BY IDOCK:    0.99 KCAL/MOL
REMARK 927      BINDING AFFINITY PREDICTED BY RF-SCORE:    0.00 PKD
ROOT
HETATM    1  N   UNL     1     -12.592  12.674  65.519  1.00  0.00    -0.605 NA 
HETATM    2  CA  UNL     1     -11.458  13.535  65.995  1.00  0.00    -0.325 C  
HETATM    3  H1  UNL     1     -12.930  12.914  64.586  1.00  0.00     0.000 HD 
HETATM    4  H2  UNL     1     -13.359  12.686  66.192  1.00  0.00     0.000 HD 
HETATM    5  C   UNL     1     -10.306  13.388  64.988  1.00  0.00    -0.347 C  
HETATM    6  O   UNL     1     -10.691  12.673  63.898  1.00  0.00    -0.391 OA 
HETATM    7  OXT UNL     1      -9.186  13.852  65.124  1.00  0.00     0.541 OA 
ENDROOT
BRANCH   2   8
HETATM    8  C   UNL     1     -10.947  13.173  67.403  1.00  0.00    -0.283 C  
BRANCH   8   9
HETATM    9  C   UNL     1      -9.970  14.178  67.967  1.00  0.00    -0.226 A  
HETATM   10  C   UNL     1     -10.357  15.499  68.205  1.00  0.00    -0.237 A  
HETATM   11  C   UNL     1      -9.423  16.457  68.624  1.00  0.00    -0.239 A  
HETATM   12  C   UNL     1      -8.072  16.137  68.820  1.00  0.00    -0.218 A  
HETATM   13  C   UNL     1      -7.729  14.782  68.665  1.00  0.00    -0.130 A  
HETATM   14  C   UNL     1      -8.650  13.820  68.233  1.00  0.00    -0.175 A  
BRANCH  12  15
HETATM   15  N   UNL     1      -7.105  17.091  69.128  1.00  0.00    -0.239 NA 
BRANCH  15  16
HETATM   16  C   UNL     1      -5.931  16.779  69.966  1.00  0.00    -0.187 C  
HETATM   17 CL   UNL     1      -6.204  19.102  71.424  1.00  0.00     0.416 Cl 
HETATM   18  C   UNL     1      -5.178  18.027  70.433  1.00  0.00    -0.257 C  
ENDBRANCH  15  16
BRANCH  15  19
HETATM   19  C   UNL     1      -7.473  18.522  69.031  1.00  0.00    -0.201 C  
HETATM   20  C   UNL     1      -7.286  19.125  67.632  1.00  0.00    -0.223 C  
HETATM   21 CL   UNL     1      -8.322  18.347  66.406  1.00  0.00    -0.287 Cl 
ENDBRANCH  15  19
ENDBRANCH  12  15
ENDBRANCH   8   9
ENDBRANCH   2   8
TORSDOF 5
ENDMDL
MODEL      249
REMARK 921   NORMALIZED FREE ENERGY PREDICTED BY IDOCK:   -0.35 KCAL/MOL
REMARK 922        TOTAL FREE ENERGY PREDICTED BY IDOCK:   -1.04 KCAL/MOL
REMARK 923 INTER-LIGAND FREE ENERGY PREDICTED BY IDOCK:   -1.37 KCAL/MOL
REMARK 924 INTRA-LIGAND FREE ENERGY PREDICTED BY IDOCK:    0.33 KCAL/MOL
REMARK 927      BINDING AFFINITY PREDICTED BY RF-SCORE:    0.00 PKD
ROOT
HETATM    1  N   UNL     1      -5.147  21.325  64.571  1.00  0.00    -0.192 NA 
HETATM    2  CA  UNL     1      -5.797  20.133  65.213  1.00  0.00    -0.189 C  
HETATM    3  H1  UNL     1      -5.318  21.398  63.567  1.00  0.00     0.000 HD 
HETATM    4  H2  UNL     1      -4.146  21.335  64.766  1.00  0.00     0.000 HD 
HETATM    5  C   UNL     1      -7.311  20.238  64.965  1.00  0.00     0.167 C  
HETATM    6  O   UNL     1      -7.603  21.261  64.118  1.00  0.00     0.769 OA 
HETATM    7  OXT UNL     1      -8.158  19.504  65.448  1.00  0.00    -0.263 OA 
ENDROOT
BRANCH   2   8
HETATM    8  C   UNL     1      -5.540  20.022  66.728  1.00  0.00    -0.178 C  
BRANCH   8   9
HETATM    9  C   UNL     1      -5.664  18.613  67.259  1.00  0.00    -0.148 A  
HETATM   10  C   UNL     1      -5.142  17.530  66.547  1.00  0.00    -0.212 A  
HETATM   11  C   UNL     1      -5.352  16.214  66.984  1.00  0.00     0.144 A  
HETATM   12  C   UNL     1      -6.088  15.928  68.141  1.00  0.00    -0.122 A  
HETATM   13  C   UNL     1      -6.522  17.038  68.888  1.00  0.00    -0.189 A  
HETATM   14  C   UNL     1      -6.330  18.355  68.455  1.00  0.00    -0.202 A  
BRANCH  12  15
HETATM   15  N   UNL     1      -6.405  14.630  68.535  1.00  0.00    -0.082 NA 
BRANCH  15  16
HETATM   16  C   UNL     1      -5.830  13.443  67.872  1.00  0.00    -0.135 C  
HETATM   17 CL   UNL     1      -6.374  11.823  70.035  1.00  0.00    -0.133 Cl 
HETATM   18  C   UNL     1      -5.193  12.458  68.855  1.00  0.00    -0.055 C  
ENDBRANCH  15  16
BRANCH  15  19
HETATM   19  C   UNL     1      -7.665  14.411  69.283  1.00  0.00    -0.002 C  
HETATM   20  C   UNL     1      -8.864  14.042  68.399  1.00  0.00    -0.180 C  
HETATM   21 CL   UNL     1      -8.625  12.504  67.527  1.00  0.00    -0.172 Cl 
ENDBRANCH  15  19
ENDBRANCH  12  15
ENDBRANCH   8   9
ENDBRANCH   2   8
TORSDOF 5
ENDMDL
