MODEL        1
REMARK 921   NORMALIZED FREE ENERGY PREDICTED BY IDOCK:   -7.00 KCAL/MOL
REMARK 922        TOTAL FREE ENERGY PREDICTED BY IDOCK:   -8.23 KCAL/MOL
REMARK 923 INTER-LIGAND FREE ENERGY PREDICTED BY IDOCK:   -7.81 KCAL/MOL
REMARK 924 INTRA-LIGAND FREE ENERGY PREDICTED BY IDOCK:   -0.41 KCAL/MOL
REMARK 927      BINDING AFFINITY PREDICTED BY RF-SCORE:    0.00 PKD
ROOT
HETATM    1  C   UNL     1     -10.253   8.743  66.775  1.00  0.00    -0.354 C  
HETATM    2  C   UNL     1     -10.701  10.064  67.353  1.00  0.00    -0.336 A  
HETATM    3  C   UNL     1     -11.106  10.385  68.673  1.00  0.00    -0.262 A  
HETATM    4  C   UNL     1     -11.514  11.708  69.001  1.00  0.00    -0.356 A  
HETATM    5  C   UNL     1     -10.749  11.079  66.381  1.00  0.00    -0.286 A  
HETATM    6  C   UNL     1     -11.158  12.370  66.688  1.00  0.00    -0.289 A  
HETATM    7  C   UNL     1     -11.930  12.071  70.300  1.00  0.00    -0.398 A  
HETATM    8  C   UNL     1     -11.544  12.705  67.991  1.00  0.00    -0.394 A  
HETATM    9  C   UNL     1     -11.983  14.006  68.312  1.00  0.00    -0.384 A  
HETATM   10  C   UNL     1     -12.390  14.331  69.602  1.00  0.00    -0.312 A  
HETATM   11  C   UNL     1     -12.366  13.363  70.597  1.00  0.00    -0.423 A  
ENDROOT
BRANCH   3  12
HETATM   12  O   UNL     1     -11.178   9.488  69.738  1.00  0.00    -0.223 OA 
HETATM   13  O   UNL     1      -9.827   7.692  70.008  1.00  0.00    -0.179 OA 
HETATM   14  O   UNL     1      -8.361   8.990  71.340  1.00  0.00    -0.273 OA 
HETATM   15  P   UNL     1      -9.691   9.225  70.583  1.00  0.00    -0.259 P  
HETATM   16  O   UNL     1     -10.664   9.001  71.886  1.00  0.00    -0.347 OA 
ENDBRANCH   3  12
BRANCH   6  17
HETATM   17  O   UNL     1     -11.317  13.295  65.694  1.00  0.00    -0.299 OA 
HETATM   18  P   UNL     1     -12.176  13.055  64.362  1.00  0.00    -0.400 P  
HETATM   19  O   UNL     1     -11.053  12.589  63.322  1.00  0.00    -0.438 OA 
HETATM   20  O   UNL     1     -13.398  12.217  64.436  1.00  0.00    -0.786 OA 
HETATM   21  O   UNL     1     -12.422  14.578  63.923  1.00  0.00    -0.814 OA 
ENDBRANCH   6  17
TORSDOF 2
ENDMDL
MODEL        2
REMARK 921   NORMALIZED FREE ENERGY PREDICTED BY IDOCK:   -6.97 KCAL/MOL
REMARK 922        TOTAL FREE ENERGY PREDICTED BY IDOCK:   -8.20 KCAL/MOL
REMARK 923 INTER-LIGAND FREE ENERGY PREDICTED BY IDOCK:   -7.97 KCAL/MOL
REMARK 924 INTRA-LIGAND FREE ENERGY PREDICTED BY IDOCK:   -0.23 KCAL/MOL
REMARK 927      BINDING AFFINITY PREDICTED BY RF-SCORE:    0.00 PKD
ROOT
HETATM    1  C   UNL     1     -11.157  16.470  67.719  1.00  0.00    -0.179 C  
HETATM    2  C   UNL     1     -11.485  15.242  68.534  1.00  0.00    -0.355 A  
HETATM    3  C   UNL     1     -11.311  13.872  68.218  1.00  0.00    -0.294 A  
HETATM    4  C   UNL     1     -11.713  12.863  69.136  1.00  0.00    -0.376 A  
HETATM    5  C   UNL     1     -12.096  15.566  69.759  1.00  0.00    -0.372 A  
HETATM    6  C   UNL     1     -12.503  14.589  70.656  1.00  0.00    -0.343 A  
HETATM    7  C   UNL     1     -11.564  11.486  68.862  1.00  0.00    -0.384 A  
HETATM    8  C   UNL     1     -12.322  13.232  70.365  1.00  0.00    -0.365 A  
HETATM    9  C   UNL     1     -12.752  12.228  71.257  1.00  0.00    -0.351 A  
HETATM   10  C   UNL     1     -12.593  10.880  70.954  1.00  0.00    -0.494 A  
HETATM   11  C   UNL     1     -12.000  10.508  69.755  1.00  0.00    -0.309 A  
ENDROOT
BRANCH   3  12
HETATM   12  O   UNL     1     -10.782  13.378  67.026  1.00  0.00    -0.266 OA 
HETATM   13  O   UNL     1     -11.818  11.889  65.672  1.00  0.00    -0.398 OA 
HETATM   14  O   UNL     1     -12.729  13.669  64.404  1.00  0.00    -0.642 OA 
HETATM   15  P   UNL     1     -11.810  13.531  65.643  1.00  0.00    -0.421 P  
HETATM   16  O   UNL     1     -10.399  13.677  64.818  1.00  0.00    -0.400 OA 
ENDBRANCH   3  12
BRANCH   6  17
HETATM   17  O   UNL     1     -13.210  14.935  71.775  1.00  0.00    -0.308 OA 
HETATM   18  P   UNL     1     -12.609  15.774  73.002  1.00  0.00    -0.607 P  
HETATM   19  O   UNL     1     -12.174  14.615  74.015  1.00  0.00    -0.464 OA 
HETATM   20  O   UNL     1     -11.599  16.826  72.728  1.00  0.00    -0.303 OA 
HETATM   21  O   UNL     1     -13.973  16.298  73.663  1.00  0.00    -0.337 OA 
ENDBRANCH   6  17
TORSDOF 2
ENDMDL
MODEL        3
REMARK 921   NORMALIZED FREE ENERGY PREDICTED BY IDOCK:   -6.72 KCAL/MOL
REMARK 922        TOTAL FREE ENERGY PREDICTED BY IDOCK:   -7.92 KCAL/MOL
REMARK 923 INTER-LIGAND FREE ENERGY PREDICTED BY IDOCK:   -7.50 KCAL/MOL
REMARK 924 INTRA-LIGAND FREE ENERGY PREDICTED BY IDOCK:   -0.42 KCAL/MOL
REMARK 927      BINDING AFFINITY PREDICTED BY RF-SCORE:    0.00 PKD
ROOT
HETATM    1  C   UNL     1     -10.147  10.418  65.650  1.00  0.00    -0.337 C  
HETATM    2  C   UNL     1     -10.700  11.189  66.825  1.00  0.00    -0.326 A  
HETATM    3  C   UNL     1     -10.852  12.587  67.001  1.00  0.00    -0.254 A  
HETATM    4  C   UNL     1     -11.385  13.108  68.213  1.00  0.00    -0.333 A  
HETATM    5  C   UNL     1     -11.057  10.345  67.892  1.00  0.00    -0.363 A  
HETATM    6  C   UNL     1     -11.566  10.844  69.083  1.00  0.00    -0.319 A  
HETATM    7  C   UNL     1     -11.549  14.492  68.435  1.00  0.00    -0.356 A  
HETATM    8  C   UNL     1     -11.738  12.221  69.265  1.00  0.00    -0.388 A  
HETATM    9  C   UNL     1     -12.232  12.743  70.477  1.00  0.00    -0.389 A  
HETATM   10  C   UNL     1     -12.378  14.114  70.665  1.00  0.00    -0.435 A  
HETATM   11  C   UNL     1     -12.035  14.989  69.644  1.00  0.00    -0.356 A  
ENDROOT
BRANCH   3  12
HETATM   12  O   UNL     1     -10.491  13.563  66.074  1.00  0.00    -0.288 OA 
HETATM   13  O   UNL     1     -10.378  13.241  63.837  1.00  0.00    -0.326 OA 
HETATM   14  O   UNL     1     -12.608  14.005  63.610  1.00  0.00    -0.818 OA 
HETATM   15  P   UNL     1     -11.608  13.795  64.773  1.00  0.00    -0.404 P  
HETATM   16  O   UNL     1     -11.089  15.352  64.826  1.00  0.00    -0.416 OA 
ENDBRANCH   3  12
BRANCH   6  17
HETATM   17  O   UNL     1     -11.779  10.006  70.143  1.00  0.00    -0.252 OA 
HETATM   18  P   UNL     1     -10.686   8.994  70.733  1.00  0.00    -0.292 P  
HETATM   19  O   UNL     1     -11.056   7.631  69.982  1.00  0.00    -0.254 OA 
HETATM   20  O   UNL     1      -9.256   9.391  70.716  1.00  0.00    -0.247 OA 
HETATM   21  O   UNL     1     -11.305   8.748  72.192  1.00  0.00    -0.351 OA 
ENDBRANCH   6  17
TORSDOF 2
ENDMDL
MODEL        4
REMARK 921   NORMALIZED FREE ENERGY PREDICTED BY IDOCK:   -6.65 KCAL/MOL
REMARK 922        TOTAL FREE ENERGY PREDICTED BY IDOCK:   -7.85 KCAL/MOL
REMARK 923 INTER-LIGAND FREE ENERGY PREDICTED BY IDOCK:   -7.44 KCAL/MOL
REMARK 924 INTRA-LIGAND FREE ENERGY PREDICTED BY IDOCK:   -0.41 KCAL/MOL
REMARK 927      BINDING AFFINITY PREDICTED BY RF-SCORE:    0.00 PKD
ROOT
HETATM    1  C   UNL     1      -9.959  10.345  66.898  1.00  0.00    -0.254 C  
HETATM    2  C   UNL     1     -10.732  10.882  68.079  1.00  0.00    -0.263 A  
HETATM    3  C   UNL     1     -11.137  12.209  68.370  1.00  0.00    -0.245 A  
HETATM    4  C   UNL     1     -11.851  12.499  69.566  1.00  0.00    -0.375 A  
HETATM    5  C   UNL     1     -11.027   9.879  69.019  1.00  0.00    -0.223 A  
HETATM    6  C   UNL     1     -11.713  10.154  70.195  1.00  0.00    -0.256 A  
HETATM    7  C   UNL     1     -12.268  13.806  69.899  1.00  0.00    -0.383 A  
HETATM    8  C   UNL     1     -12.133  11.457  70.488  1.00  0.00    -0.487 A  
HETATM    9  C   UNL     1     -12.809  11.755  71.688  1.00  0.00    -0.433 A  
HETATM   10  C   UNL     1     -13.204  13.054  71.988  1.00  0.00    -0.543 A  
HETATM   11  C   UNL     1     -12.932  14.081  71.095  1.00  0.00    -0.402 A  
ENDROOT
BRANCH   3  12
HETATM   12  O   UNL     1     -10.872  13.326  67.580  1.00  0.00    -0.251 OA 
HETATM   13  O   UNL     1     -10.791  13.321  65.319  1.00  0.00    -0.288 OA 
HETATM   14  O   UNL     1     -13.076  13.934  65.230  1.00  0.00    -0.777 OA 
HETATM   15  P   UNL     1     -12.035  13.646  66.340  1.00  0.00    -0.429 P  
HETATM   16  O   UNL     1     -11.633  15.216  66.599  1.00  0.00    -0.263 OA 
ENDBRANCH   3  12
BRANCH   6  17
HETATM   17  O   UNL     1     -11.867   9.182  71.144  1.00  0.00    -0.281 OA 
HETATM   18  P   UNL     1     -10.660   8.356  71.799  1.00  0.00    -0.337 P  
HETATM   19  O   UNL     1     -10.633   7.035  70.897  1.00  0.00    -0.214 OA 
HETATM   20  O   UNL     1      -9.358   9.034  72.016  1.00  0.00    -0.358 OA 
HETATM   21  O   UNL     1     -11.383   7.833  73.132  1.00  0.00    -0.374 OA 
ENDBRANCH   6  17
TORSDOF 2
ENDMDL
MODEL        5
REMARK 921   NORMALIZED FREE ENERGY PREDICTED BY IDOCK:   -6.60 KCAL/MOL
REMARK 922        TOTAL FREE ENERGY PREDICTED BY IDOCK:   -7.79 KCAL/MOL
REMARK 923 INTER-LIGAND FREE ENERGY PREDICTED BY IDOCK:   -7.39 KCAL/MOL
REMARK 924 INTRA-LIGAND FREE ENERGY PREDICTED BY IDOCK:   -0.40 KCAL/MOL
REMARK 927      BINDING AFFINITY PREDICTED BY RF-SCORE:    0.00 PKD
ROOT
HETATM    1  C   UNL     1     -11.018   9.710  68.305  1.00  0.00    -0.172 C  
HETATM    2  C   UNL     1     -11.416  10.944  69.080  1.00  0.00    -0.371 A  
HETATM    3  C   UNL     1     -12.263  11.071  70.209  1.00  0.00    -0.363 A  
HETATM    4  C   UNL     1     -12.522  12.350  70.776  1.00  0.00    -0.356 A  
HETATM    5  C   UNL     1     -10.873  12.117  68.524  1.00  0.00    -0.267 A  
HETATM    6  C   UNL     1     -11.129  13.370  69.063  1.00  0.00    -0.249 A  
HETATM    7  C   UNL     1     -13.363  12.525  71.896  1.00  0.00    -0.467 A  
HETATM    8  C   UNL     1     -11.951  13.509  70.187  1.00  0.00    -0.399 A  
HETATM    9  C   UNL     1     -12.237  14.778  70.731  1.00  0.00    -0.380 A  
HETATM   10  C   UNL     1     -13.074  14.916  71.834  1.00  0.00    -0.425 A  
HETATM   11  C   UNL     1     -13.639  13.790  72.417  1.00  0.00    -0.690 A  
ENDROOT
BRANCH   3  12
HETATM   12  O   UNL     1     -12.929  10.023  70.842  1.00  0.00    -0.356 OA 
HETATM   13  O   UNL     1     -12.242   7.867  70.842  1.00  0.00    -0.243 OA 
HETATM   14  O   UNL     1     -11.095   8.228  72.882  1.00  0.00    -0.332 OA 
HETATM   15  P   UNL     1     -11.960   9.076  71.918  1.00  0.00    -0.354 P  
HETATM   16  O   UNL     1     -13.363   8.889  72.750  1.00  0.00    -0.405 OA 
ENDBRANCH   3  12
BRANCH   6  17
HETATM   17  O   UNL     1     -10.693  14.496  68.421  1.00  0.00    -0.233 OA 
HETATM   18  P   UNL     1     -10.909  14.791  66.860  1.00  0.00    -0.327 P  
HETATM   19  O   UNL     1      -9.532  14.274  66.230  1.00  0.00    -0.284 OA 
HETATM   20  O   UNL     1     -12.154  14.318  66.205  1.00  0.00    -0.415 OA 
HETATM   21  O   UNL     1     -10.700  16.381  66.855  1.00  0.00    -0.296 OA 
ENDBRANCH   6  17
TORSDOF 2
ENDMDL
MODEL        6
REMARK 921   NORMALIZED FREE ENERGY PREDICTED BY IDOCK:   -6.56 KCAL/MOL
REMARK 922        TOTAL FREE ENERGY PREDICTED BY IDOCK:   -7.75 KCAL/MOL
REMARK 923 INTER-LIGAND FREE ENERGY PREDICTED BY IDOCK:   -7.40 KCAL/MOL
REMARK 924 INTRA-LIGAND FREE ENERGY PREDICTED BY IDOCK:   -0.34 KCAL/MOL
REMARK 927      BINDING AFFINITY PREDICTED BY RF-SCORE:    0.00 PKD
ROOT
HETATM    1  C   UNL     1     -11.369  15.446  67.638  1.00  0.00    -0.292 C  
HETATM    2  C   UNL     1     -11.692  14.382  68.660  1.00  0.00    -0.367 A  
HETATM    3  C   UNL     1     -11.545  12.974  68.580  1.00  0.00    -0.328 A  
HETATM    4  C   UNL     1     -11.936  12.146  69.668  1.00  0.00    -0.351 A  
HETATM    5  C   UNL     1     -12.264  14.922  69.826  1.00  0.00    -0.328 A  
HETATM    6  C   UNL     1     -12.660  14.121  70.888  1.00  0.00    -0.363 A  
HETATM    7  C   UNL     1     -11.813  10.740  69.631  1.00  0.00    -0.392 A  
HETATM    8  C   UNL     1     -12.505  12.731  70.830  1.00  0.00    -0.357 A  
HETATM    9  C   UNL     1     -12.924  11.904  71.892  1.00  0.00    -0.434 A  
HETATM   10  C   UNL     1     -12.792  10.521  71.822  1.00  0.00    -0.559 A  
HETATM   11  C   UNL     1     -12.238   9.937  70.690  1.00  0.00    -0.325 A  
ENDROOT
BRANCH   3  12
HETATM   12  O   UNL     1     -11.057  12.273  67.479  1.00  0.00    -0.247 OA 
HETATM   13  O   UNL     1      -9.729  13.153  65.871  1.00  0.00    -0.256 OA 
HETATM   14  O   UNL     1      -7.810  12.423  67.051  1.00  0.00    -0.157 OA 
HETATM   15  P   UNL     1      -9.344  12.353  67.253  1.00  0.00    -0.197 P  
HETATM   16  O   UNL     1      -9.523  10.846  66.628  1.00  0.00    -0.174 OA 
ENDBRANCH   3  12
BRANCH   6  17
HETATM   17  O   UNL     1     -13.330  14.668  71.948  1.00  0.00    -0.320 OA 
HETATM   18  P   UNL     1     -12.684  15.694  72.995  1.00  0.00    -0.601 P  
HETATM   19  O   UNL     1     -12.236  14.720  74.182  1.00  0.00    -0.533 OA 
HETATM   20  O   UNL     1     -11.669  16.666  72.518  1.00  0.00    -0.485 OA 
HETATM   21  O   UNL     1     -14.023  16.348  73.591  1.00  0.00    -0.338 OA 
ENDBRANCH   6  17
TORSDOF 2
ENDMDL
MODEL        7
REMARK 921   NORMALIZED FREE ENERGY PREDICTED BY IDOCK:   -6.53 KCAL/MOL
REMARK 922        TOTAL FREE ENERGY PREDICTED BY IDOCK:   -7.71 KCAL/MOL
REMARK 923 INTER-LIGAND FREE ENERGY PREDICTED BY IDOCK:   -7.35 KCAL/MOL
REMARK 924 INTRA-LIGAND FREE ENERGY PREDICTED BY IDOCK:   -0.37 KCAL/MOL
REMARK 927      BINDING AFFINITY PREDICTED BY RF-SCORE:    0.00 PKD
ROOT
HETATM    1  C   UNL     1     -11.203  10.571  67.619  1.00  0.00    -0.338 C  
HETATM    2  C   UNL     1     -11.644  11.644  68.586  1.00  0.00    -0.373 A  
HETATM    3  C   UNL     1     -12.252  11.522  69.860  1.00  0.00    -0.258 A  
HETATM    4  C   UNL     1     -12.608  12.681  70.604  1.00  0.00    -0.241 A  
HETATM    5  C   UNL     1     -11.438  12.938  68.073  1.00  0.00    -0.361 A  
HETATM    6  C   UNL     1     -11.793  14.075  68.786  1.00  0.00    -0.361 A  
HETATM    7  C   UNL     1     -13.221  12.606  71.874  1.00  0.00    -0.504 A  
HETATM    8  C   UNL     1     -12.379  13.969  70.052  1.00  0.00    -0.397 A  
HETATM    9  C   UNL     1     -12.766  15.114  70.777  1.00  0.00    -0.463 A  
HETATM   10  C   UNL     1     -13.372  15.006  72.025  1.00  0.00    -0.475 A  
HETATM   11  C   UNL     1     -13.601  13.752  72.573  1.00  0.00    -0.680 A  
ENDROOT
BRANCH   3  12
HETATM   12  O   UNL     1     -12.583  10.321  70.486  1.00  0.00    -0.301 OA 
HETATM   13  O   UNL     1     -11.471   8.370  70.210  1.00  0.00    -0.198 OA 
HETATM   14  O   UNL     1     -10.130   8.861  72.099  1.00  0.00    -0.325 OA 
HETATM   15  P   UNL     1     -11.288   9.551  71.336  1.00  0.00    -0.331 P  
HETATM   16  O   UNL     1     -12.481   9.017  72.331  1.00  0.00    -0.361 OA 
ENDBRANCH   3  12
BRANCH   6  17
HETATM   17  O   UNL     1     -11.698  15.308  68.203  1.00  0.00    -0.345 OA 
HETATM   18  P   UNL     1     -10.342  16.154  68.086  1.00  0.00    -0.291 P  
HETATM   19  O   UNL     1     -10.436  17.110  69.365  1.00  0.00    -0.321 OA 
HETATM   20  O   UNL     1      -9.060  15.433  67.892  1.00  0.00    -0.177 OA 
HETATM   21  O   UNL     1     -10.747  17.151  66.896  1.00  0.00    -0.248 OA 
ENDBRANCH   6  17
TORSDOF 2
ENDMDL
MODEL        8
REMARK 921   NORMALIZED FREE ENERGY PREDICTED BY IDOCK:   -6.53 KCAL/MOL
REMARK 922        TOTAL FREE ENERGY PREDICTED BY IDOCK:   -7.71 KCAL/MOL
REMARK 923 INTER-LIGAND FREE ENERGY PREDICTED BY IDOCK:   -7.48 KCAL/MOL
REMARK 924 INTRA-LIGAND FREE ENERGY PREDICTED BY IDOCK:   -0.23 KCAL/MOL
REMARK 927      BINDING AFFINITY PREDICTED BY RF-SCORE:    0.00 PKD
ROOT
HETATM    1  C   UNL     1     -10.995   9.634  67.953  1.00  0.00    -0.205 C  
HETATM    2  C   UNL     1     -11.149  11.118  68.181  1.00  0.00    -0.324 A  
HETATM    3  C   UNL     1     -11.342  11.834  69.389  1.00  0.00    -0.272 A  
HETATM    4  C   UNL     1     -11.484  13.249  69.374  1.00  0.00    -0.323 A  
HETATM    5  C   UNL     1     -11.138  11.844  66.977  1.00  0.00    -0.354 A  
HETATM    6  C   UNL     1     -11.289  13.224  66.950  1.00  0.00    -0.318 A  
HETATM    7  C   UNL     1     -11.684  14.003  70.551  1.00  0.00    -0.262 A  
HETATM    8  C   UNL     1     -11.463  13.945  68.137  1.00  0.00    -0.346 A  
HETATM    9  C   UNL     1     -11.640  15.344  68.123  1.00  0.00    -0.331 A  
HETATM   10  C   UNL     1     -11.839  16.056  69.301  1.00  0.00    -0.264 A  
HETATM   11  C   UNL     1     -11.862  15.386  70.517  1.00  0.00    -0.373 A  
ENDROOT
BRANCH   3  12
HETATM   12  O   UNL     1     -11.440  11.267  70.659  1.00  0.00    -0.174 OA 
HETATM   13  O   UNL     1     -13.180  11.560  72.075  1.00  0.00    -0.509 OA 
HETATM   14  O   UNL     1     -14.201   9.595  71.236  1.00  0.00    -0.013 OA 
HETATM   15  P   UNL     1     -12.897  10.385  70.963  1.00  0.00    -0.380 P  
HETATM   16  O   UNL     1     -11.942   9.465  71.931  1.00  0.00    -0.369 OA 
ENDBRANCH   3  12
BRANCH   6  17
HETATM   17  O   UNL     1     -11.404  13.880  65.756  1.00  0.00    -0.302 OA 
HETATM   18  P   UNL     1     -12.182  13.305  64.478  1.00  0.00    -0.382 P  
HETATM   19  O   UNL     1     -10.996  12.634  63.640  1.00  0.00    -0.426 OA 
HETATM   20  O   UNL     1     -13.394  12.475  64.688  1.00  0.00    -0.804 OA 
HETATM   21  O   UNL     1     -12.426  14.671  63.673  1.00  0.00    -0.754 OA 
ENDBRANCH   6  17
TORSDOF 2
ENDMDL
MODEL        9
REMARK 921   NORMALIZED FREE ENERGY PREDICTED BY IDOCK:   -6.46 KCAL/MOL
REMARK 922        TOTAL FREE ENERGY PREDICTED BY IDOCK:   -7.63 KCAL/MOL
REMARK 923 INTER-LIGAND FREE ENERGY PREDICTED BY IDOCK:   -7.39 KCAL/MOL
REMARK 924 INTRA-LIGAND FREE ENERGY PREDICTED BY IDOCK:   -0.24 KCAL/MOL
REMARK 927      BINDING AFFINITY PREDICTED BY RF-SCORE:    0.00 PKD
ROOT
HETATM    1  C   UNL     1     -11.880   9.387  70.553  1.00  0.00    -0.207 C  
HETATM    2  C   UNL     1     -11.850  10.724  69.851  1.00  0.00    -0.413 A  
HETATM    3  C   UNL     1     -11.606  11.026  68.488  1.00  0.00    -0.310 A  
HETATM    4  C   UNL     1     -11.605  12.376  68.038  1.00  0.00    -0.403 A  
HETATM    5  C   UNL     1     -12.054  11.794  70.741  1.00  0.00    -0.352 A  
HETATM    6  C   UNL     1     -12.042  13.115  70.314  1.00  0.00    -0.328 A  
HETATM    7  C   UNL     1     -11.361  12.725  66.692  1.00  0.00    -0.364 A  
HETATM    8  C   UNL     1     -11.820  13.428  68.968  1.00  0.00    -0.378 A  
HETATM    9  C   UNL     1     -11.783  14.766  68.524  1.00  0.00    -0.347 A  
HETATM   10  C   UNL     1     -11.536  15.075  67.191  1.00  0.00    -0.304 A  
HETATM   11  C   UNL     1     -11.324  14.055  66.274  1.00  0.00    -0.336 A  
ENDROOT
BRANCH   3  12
HETATM   12  O   UNL     1     -11.324  10.095  67.491  1.00  0.00    -0.275 OA 
HETATM   13  O   UNL     1      -9.434  10.063  66.248  1.00  0.00    -0.172 OA 
HETATM   14  O   UNL     1      -8.443   8.557  67.784  1.00  0.00    -0.128 OA 
HETATM   15  P   UNL     1      -9.803   9.284  67.646  1.00  0.00    -0.201 P  
HETATM   16  O   UNL     1     -10.588   8.029  66.935  1.00  0.00    -0.338 OA 
ENDBRANCH   3  12
BRANCH   6  17
HETATM   17  O   UNL     1     -12.114  14.132  71.225  1.00  0.00    -0.351 OA 
HETATM   18  P   UNL     1     -13.396  14.446  72.134  1.00  0.00    -0.490 P  
HETATM   19  O   UNL     1     -14.140  15.576  71.280  1.00  0.00    -0.548 OA 
HETATM   20  O   UNL     1     -14.235  13.317  72.609  1.00  0.00    -0.724 OA 
HETATM   21  O   UNL     1     -12.700  15.309  73.293  1.00  0.00    -0.418 OA 
ENDBRANCH   6  17
TORSDOF 2
ENDMDL
MODEL       10
REMARK 921   NORMALIZED FREE ENERGY PREDICTED BY IDOCK:   -6.41 KCAL/MOL
REMARK 922        TOTAL FREE ENERGY PREDICTED BY IDOCK:   -7.57 KCAL/MOL
REMARK 923 INTER-LIGAND FREE ENERGY PREDICTED BY IDOCK:   -7.35 KCAL/MOL
REMARK 924 INTRA-LIGAND FREE ENERGY PREDICTED BY IDOCK:   -0.22 KCAL/MOL
REMARK 927      BINDING AFFINITY PREDICTED BY RF-SCORE:    0.00 PKD
ROOT
HETATM    1  C   UNL     1     -11.883  15.528  69.037  1.00  0.00    -0.373 C  
HETATM    2  C   UNL     1     -11.830  14.063  69.398  1.00  0.00    -0.381 A  
HETATM    3  C   UNL     1     -12.498  13.360  70.432  1.00  0.00    -0.252 A  
HETATM    4  C   UNL     1     -12.286  11.964  70.608  1.00  0.00    -0.424 A  
HETATM    5  C   UNL     1     -10.934  13.348  68.584  1.00  0.00    -0.288 A  
HETATM    6  C   UNL     1     -10.711  11.989  68.755  1.00  0.00    -0.220 A  
HETATM    7  C   UNL     1     -12.924  11.224  71.627  1.00  0.00    -0.537 A  
HETATM    8  C   UNL     1     -11.376  11.278  69.761  1.00  0.00    -0.348 A  
HETATM    9  C   UNL     1     -11.142   9.902  69.962  1.00  0.00    -0.335 A  
HETATM   10  C   UNL     1     -11.785   9.203  70.978  1.00  0.00    -0.363 A  
HETATM   11  C   UNL     1     -12.675   9.864  71.813  1.00  0.00    -0.523 A  
ENDROOT
BRANCH   3  12
HETATM   12  O   UNL     1     -13.367  13.924  71.363  1.00  0.00    -0.333 OA 
HETATM   13  O   UNL     1     -12.940  14.122  73.577  1.00  0.00    -0.468 OA 
HETATM   14  O   UNL     1     -12.079  16.299  73.222  1.00  0.00    -0.489 OA 
HETATM   15  P   UNL     1     -12.687  15.177  72.344  1.00  0.00    -0.425 P  
HETATM   16  O   UNL     1     -14.211  15.787  72.331  1.00  0.00    -0.527 OA 
ENDBRANCH   3  12
BRANCH   6  17
HETATM   17  O   UNL     1      -9.738  11.356  68.032  1.00  0.00    -0.174 OA 
HETATM   18  P   UNL     1      -9.885  10.928  66.495  1.00  0.00    -0.219 P  
HETATM   19  O   UNL     1     -10.350   9.402  66.617  1.00  0.00    -0.249 OA 
HETATM   20  O   UNL     1     -10.676  11.789  65.582  1.00  0.00    -0.265 OA 
HETATM   21  O   UNL     1      -8.336  10.773  66.109  1.00  0.00    -0.156 OA 
ENDBRANCH   6  17
TORSDOF 2
ENDMDL
MODEL       11
REMARK 921   NORMALIZED FREE ENERGY PREDICTED BY IDOCK:   -6.36 KCAL/MOL
REMARK 922        TOTAL FREE ENERGY PREDICTED BY IDOCK:   -7.51 KCAL/MOL
REMARK 923 INTER-LIGAND FREE ENERGY PREDICTED BY IDOCK:   -7.23 KCAL/MOL
REMARK 924 INTRA-LIGAND FREE ENERGY PREDICTED BY IDOCK:   -0.29 KCAL/MOL
REMARK 927      BINDING AFFINITY PREDICTED BY RF-SCORE:    0.00 PKD
ROOT
HETATM    1  C   UNL     1     -10.794  14.092  64.905  1.00  0.00    -0.423 C  
HETATM    2  C   UNL     1     -11.182  14.020  66.363  1.00  0.00    -0.321 A  
HETATM    3  C   UNL     1     -11.305  15.057  67.320  1.00  0.00    -0.332 A  
HETATM    4  C   UNL     1     -11.669  14.760  68.663  1.00  0.00    -0.356 A  
HETATM    5  C   UNL     1     -11.394  12.696  66.790  1.00  0.00    -0.373 A  
HETATM    6  C   UNL     1     -11.736  12.395  68.101  1.00  0.00    -0.353 A  
HETATM    7  C   UNL     1     -11.798  15.760  69.651  1.00  0.00    -0.352 A  
HETATM    8  C   UNL     1     -11.878  13.411  69.053  1.00  0.00    -0.378 A  
HETATM    9  C   UNL     1     -12.204  13.117  70.393  1.00  0.00    -0.389 A  
HETATM   10  C   UNL     1     -12.320  14.126  71.343  1.00  0.00    -0.425 A  
HETATM   11  C   UNL     1     -12.116  15.448  70.974  1.00  0.00    -0.417 A  
ENDROOT
BRANCH   3  12
HETATM   12  O   UNL     1     -11.070  16.410  67.081  1.00  0.00    -0.149 OA 
HETATM   13  O   UNL     1      -9.326  17.586  67.915  1.00  0.00    -0.256 OA 
HETATM   14  O   UNL     1      -8.077  17.133  65.954  1.00  0.00    -0.516 OA 
HETATM   15  P   UNL     1      -9.490  16.791  66.487  1.00  0.00    -0.293 P  
HETATM   16  O   UNL     1     -10.261  18.012  65.705  1.00  0.00    -0.574 OA 
ENDBRANCH   3  12
BRANCH   6  17
HETATM   17  O   UNL     1     -11.806  11.092  68.510  1.00  0.00    -0.460 OA 
HETATM   18  P   UNL     1     -10.547  10.107  68.618  1.00  0.00    -0.234 P  
HETATM   19  O   UNL     1     -10.601   9.343  67.213  1.00  0.00    -0.267 OA 
HETATM   20  O   UNL     1      -9.231  10.664  69.017  1.00  0.00    -0.175 OA 
HETATM   21  O   UNL     1     -11.150   9.006  69.617  1.00  0.00    -0.187 OA 
ENDBRANCH   6  17
TORSDOF 2
ENDMDL
MODEL       12
REMARK 921   NORMALIZED FREE ENERGY PREDICTED BY IDOCK:   -6.33 KCAL/MOL
REMARK 922        TOTAL FREE ENERGY PREDICTED BY IDOCK:   -7.48 KCAL/MOL
REMARK 923 INTER-LIGAND FREE ENERGY PREDICTED BY IDOCK:   -7.39 KCAL/MOL
REMARK 924 INTRA-LIGAND FREE ENERGY PREDICTED BY IDOCK:   -0.09 KCAL/MOL
REMARK 927      BINDING AFFINITY PREDICTED BY RF-SCORE:    0.00 PKD
ROOT
HETATM    1  C   UNL     1     -10.816  15.292  70.619  1.00  0.00    -0.278 C  
HETATM    2  C   UNL     1     -11.032  15.162  69.130  1.00  0.00    -0.260 A  
HETATM    3  C   UNL     1     -11.682  14.139  68.395  1.00  0.00    -0.345 A  
HETATM    4  C   UNL     1     -11.755  14.206  66.975  1.00  0.00    -0.430 A  
HETATM    5  C   UNL     1     -10.438  16.216  68.414  1.00  0.00    -0.274 A  
HETATM    6  C   UNL     1     -10.493  16.285  67.028  1.00  0.00    -0.306 A  
HETATM    7  C   UNL     1     -12.386  13.209  66.202  1.00  0.00    -0.385 A  
HETATM    8  C   UNL     1     -11.146  15.291  66.290  1.00  0.00    -0.273 A  
HETATM    9  C   UNL     1     -11.190  15.336  64.882  1.00  0.00    -0.422 A  
HETATM   10  C   UNL     1     -11.817  14.333  64.149  1.00  0.00    -0.338 A  
HETATM   11  C   UNL     1     -12.415  13.268  64.808  1.00  0.00    -0.439 A  
ENDROOT
BRANCH   3  12
HETATM   12  O   UNL     1     -12.265  12.997  68.940  1.00  0.00    -0.232 OA 
HETATM   13  O   UNL     1     -11.992  10.898  68.141  1.00  0.00    -0.581 OA 
HETATM   14  O   UNL     1     -10.187  10.558  69.636  1.00  0.00    -0.226 OA 
HETATM   15  P   UNL     1     -11.168  11.710  69.307  1.00  0.00    -0.236 P  
HETATM   16  O   UNL     1     -12.225  11.378  70.519  1.00  0.00    -0.352 OA 
ENDBRANCH   3  12
BRANCH   6  17
HETATM   17  O   UNL     1      -9.794  17.252  66.360  1.00  0.00    -0.276 OA 
HETATM   18  P   UNL     1     -10.166  18.811  66.374  1.00  0.00    -0.435 P  
HETATM   19  O   UNL     1     -11.036  18.957  65.039  1.00  0.00    -0.420 OA 
HETATM   20  O   UNL     1     -10.743  19.402  67.606  1.00  0.00    -0.453 OA 
HETATM   21  O   UNL     1      -8.757  19.428  65.920  1.00  0.00    -0.427 OA 
ENDBRANCH   6  17
TORSDOF 2
ENDMDL
MODEL       13
REMARK 921   NORMALIZED FREE ENERGY PREDICTED BY IDOCK:   -6.30 KCAL/MOL
REMARK 922        TOTAL FREE ENERGY PREDICTED BY IDOCK:   -7.45 KCAL/MOL
REMARK 923 INTER-LIGAND FREE ENERGY PREDICTED BY IDOCK:   -7.17 KCAL/MOL
REMARK 924 INTRA-LIGAND FREE ENERGY PREDICTED BY IDOCK:   -0.28 KCAL/MOL
REMARK 927      BINDING AFFINITY PREDICTED BY RF-SCORE:    0.00 PKD
ROOT
HETATM    1  C   UNL     1     -10.841  12.018  66.816  1.00  0.00    -0.307 C  
HETATM    2  C   UNL     1     -11.471  12.381  68.140  1.00  0.00    -0.370 A  
HETATM    3  C   UNL     1     -11.830  13.651  68.655  1.00  0.00    -0.374 A  
HETATM    4  C   UNL     1     -12.401  13.769  69.953  1.00  0.00    -0.334 A  
HETATM    5  C   UNL     1     -11.664  11.255  68.961  1.00  0.00    -0.410 A  
HETATM    6  C   UNL     1     -12.209  11.361  70.234  1.00  0.00    -0.349 A  
HETATM    7  C   UNL     1     -12.768  15.013  70.508  1.00  0.00    -0.406 A  
HETATM    8  C   UNL     1     -12.583  12.607  70.748  1.00  0.00    -0.302 A  
HETATM    9  C   UNL     1     -13.116  12.731  72.048  1.00  0.00    -0.474 A  
HETATM   10  C   UNL     1     -13.464  13.974  72.567  1.00  0.00    -0.661 A  
HETATM   11  C   UNL     1     -13.289  15.116  71.799  1.00  0.00    -0.506 A  
ENDROOT
BRANCH   3  12
HETATM   12  O   UNL     1     -11.649  14.869  68.002  1.00  0.00    -0.324 OA 
HETATM   13  O   UNL     1     -10.417  16.592  68.797  1.00  0.00    -0.280 OA 
HETATM   14  O   UNL     1      -8.529  15.797  67.608  1.00  0.00    -0.154 OA 
HETATM   15  P   UNL     1     -10.003  15.359  67.795  1.00  0.00    -0.227 P  
HETATM   16  O   UNL     1     -10.559  16.066  66.422  1.00  0.00    -0.308 OA 
ENDBRANCH   3  12
BRANCH   6  17
HETATM   17  O   UNL     1     -12.261  10.265  71.051  1.00  0.00    -0.320 OA 
HETATM   18  P   UNL     1     -11.070   9.207  71.224  1.00  0.00    -0.393 P  
HETATM   19  O   UNL     1     -11.488   8.064  70.186  1.00  0.00    -0.159 OA 
HETATM   20  O   UNL     1      -9.667   9.685  71.152  1.00  0.00    -0.163 OA 
HETATM   21  O   UNL     1     -11.493   8.552  72.626  1.00  0.00    -0.351 OA 
ENDBRANCH   6  17
TORSDOF 2
ENDMDL
MODEL       14
REMARK 921   NORMALIZED FREE ENERGY PREDICTED BY IDOCK:   -6.28 KCAL/MOL
REMARK 922        TOTAL FREE ENERGY PREDICTED BY IDOCK:   -7.43 KCAL/MOL
REMARK 923 INTER-LIGAND FREE ENERGY PREDICTED BY IDOCK:   -7.36 KCAL/MOL
REMARK 924 INTRA-LIGAND FREE ENERGY PREDICTED BY IDOCK:   -0.07 KCAL/MOL
REMARK 927      BINDING AFFINITY PREDICTED BY RF-SCORE:    0.00 PKD
ROOT
HETATM    1  C   UNL     1     -10.112   9.933  67.090  1.00  0.00    -0.270 C  
HETATM    2  C   UNL     1     -10.841  10.715  68.156  1.00  0.00    -0.291 A  
HETATM    3  C   UNL     1     -11.218  12.082  68.180  1.00  0.00    -0.260 A  
HETATM    4  C   UNL     1     -11.890  12.625  69.310  1.00  0.00    -0.358 A  
HETATM    5  C   UNL     1     -11.121   9.933  69.291  1.00  0.00    -0.220 A  
HETATM    6  C   UNL     1     -11.765  10.456  70.403  1.00  0.00    -0.331 A  
HETATM    7  C   UNL     1     -12.279  13.980  69.379  1.00  0.00    -0.336 A  
HETATM    8  C   UNL     1     -12.158  11.799  70.433  1.00  0.00    -0.440 A  
HETATM    9  C   UNL     1     -12.793  12.350  71.565  1.00  0.00    -0.377 A  
HETATM   10  C   UNL     1     -13.160  13.692  71.603  1.00  0.00    -0.455 A  
HETATM   11  C   UNL     1     -12.902  14.508  70.511  1.00  0.00    -0.361 A  
ENDROOT
BRANCH   3  12
HETATM   12  O   UNL     1     -10.963  13.008  67.170  1.00  0.00    -0.260 OA 
HETATM   13  O   UNL     1     -10.682  12.495  64.985  1.00  0.00    -0.278 OA 
HETATM   14  O   UNL     1     -12.988  12.867  64.596  1.00  0.00    -0.734 OA 
HETATM   15  P   UNL     1     -12.031  12.933  65.812  1.00  0.00    -0.433 P  
HETATM   16  O   UNL     1     -11.763  14.550  65.722  1.00  0.00    -0.358 OA 
ENDBRANCH   3  12
BRANCH   6  17
HETATM   17  O   UNL     1     -11.903   9.702  71.535  1.00  0.00    -0.366 OA 
HETATM   18  P   UNL     1     -12.247   8.137  71.545  1.00  0.00    -0.303 P  
HETATM   19  O   UNL     1     -13.836   8.148  71.735  1.00  0.00    -0.366 OA 
HETATM   20  O   UNL     1     -11.717   7.277  70.459  1.00  0.00    -0.285 OA 
HETATM   21  O   UNL     1     -11.740   7.759  73.020  1.00  0.00    -0.277 OA 
ENDBRANCH   6  17
TORSDOF 2
ENDMDL
MODEL       15
REMARK 921   NORMALIZED FREE ENERGY PREDICTED BY IDOCK:   -6.23 KCAL/MOL
REMARK 922        TOTAL FREE ENERGY PREDICTED BY IDOCK:   -7.38 KCAL/MOL
REMARK 923 INTER-LIGAND FREE ENERGY PREDICTED BY IDOCK:   -7.26 KCAL/MOL
REMARK 924 INTRA-LIGAND FREE ENERGY PREDICTED BY IDOCK:   -0.12 KCAL/MOL
REMARK 927      BINDING AFFINITY PREDICTED BY RF-SCORE:    0.00 PKD
ROOT
HETATM    1  C   UNL     1      -8.643  16.368  68.929  1.00  0.00    -0.250 C  
HETATM    2  C   UNL     1      -9.543  15.547  68.037  1.00  0.00    -0.203 A  
HETATM    3  C   UNL     1      -9.941  15.774  66.696  1.00  0.00    -0.257 A  
HETATM    4  C   UNL     1     -10.824  14.869  66.043  1.00  0.00    -0.328 A  
HETATM    5  C   UNL     1     -10.073  14.428  68.704  1.00  0.00    -0.242 A  
HETATM    6  C   UNL     1     -10.944  13.546  68.080  1.00  0.00    -0.251 A  
HETATM    7  C   UNL     1     -11.251  15.058  64.711  1.00  0.00    -0.393 A  
HETATM    8  C   UNL     1     -11.333  13.749  66.750  1.00  0.00    -0.345 A  
HETATM    9  C   UNL     1     -12.235  12.874  66.111  1.00  0.00    -0.385 A  
HETATM   10  C   UNL     1     -12.640  13.091  64.798  1.00  0.00    -0.460 A  
HETATM   11  C   UNL     1     -12.149  14.184  64.097  1.00  0.00    -0.437 A  
ENDROOT
BRANCH   3  12
HETATM   12  O   UNL     1      -9.561  16.862  65.913  1.00  0.00    -0.469 OA 
HETATM   13  O   UNL     1     -10.994  18.326  64.952  1.00  0.00    -0.660 OA 
HETATM   14  O   UNL     1     -10.808  19.752  66.833  1.00  0.00    -0.472 OA 
HETATM   15  P   UNL     1     -10.220  18.387  66.399  1.00  0.00    -0.381 P  
HETATM   16  O   UNL     1      -8.813  18.994  65.809  1.00  0.00    -0.396 OA 
ENDBRANCH   3  12
BRANCH   6  17
HETATM   17  O   UNL     1     -11.540  12.546  68.797  1.00  0.00    -0.275 OA 
HETATM   18  P   UNL     1     -10.909  11.089  69.017  1.00  0.00    -0.256 P  
HETATM   19  O   UNL     1     -11.608  10.245  67.852  1.00  0.00    -0.338 OA 
HETATM   20  O   UNL     1      -9.437  10.955  69.139  1.00  0.00    -0.176 OA 
HETATM   21  O   UNL     1     -11.743  10.626  70.307  1.00  0.00    -0.287 OA 
ENDBRANCH   6  17
TORSDOF 2
ENDMDL
MODEL       16
REMARK 921   NORMALIZED FREE ENERGY PREDICTED BY IDOCK:   -6.23 KCAL/MOL
REMARK 922        TOTAL FREE ENERGY PREDICTED BY IDOCK:   -7.37 KCAL/MOL
REMARK 923 INTER-LIGAND FREE ENERGY PREDICTED BY IDOCK:   -7.10 KCAL/MOL
REMARK 924 INTRA-LIGAND FREE ENERGY PREDICTED BY IDOCK:   -0.27 KCAL/MOL
REMARK 927      BINDING AFFINITY PREDICTED BY RF-SCORE:    0.00 PKD
ROOT
HETATM    1  C   UNL     1     -10.819  11.392  66.013  1.00  0.00    -0.306 C  
HETATM    2  C   UNL     1     -11.112  12.397  67.101  1.00  0.00    -0.328 A  
HETATM    3  C   UNL     1     -11.602  12.193  68.415  1.00  0.00    -0.327 A  
HETATM    4  C   UNL     1     -11.827  13.299  69.281  1.00  0.00    -0.383 A  
HETATM    5  C   UNL     1     -10.892  13.719  66.675  1.00  0.00    -0.288 A  
HETATM    6  C   UNL     1     -11.121  14.806  67.508  1.00  0.00    -0.319 A  
HETATM    7  C   UNL     1     -12.320  13.144  70.595  1.00  0.00    -0.405 A  
HETATM    8  C   UNL     1     -11.588  14.618  68.814  1.00  0.00    -0.346 A  
HETATM    9  C   UNL     1     -11.847  15.714  69.663  1.00  0.00    -0.377 A  
HETATM   10  C   UNL     1     -12.335  15.526  70.952  1.00  0.00    -0.474 A  
HETATM   11  C   UNL     1     -12.574  14.241  71.418  1.00  0.00    -0.434 A  
ENDROOT
BRANCH   3  12
HETATM   12  O   UNL     1     -11.931  10.958  68.973  1.00  0.00    -0.342 OA 
HETATM   13  O   UNL     1     -10.714   9.066  68.733  1.00  0.00    -0.195 OA 
HETATM   14  O   UNL     1      -9.560   9.546  70.744  1.00  0.00    -0.259 OA 
HETATM   15  P   UNL     1     -10.679  10.213  69.907  1.00  0.00    -0.301 P  
HETATM   16  O   UNL     1     -11.926   9.597  70.779  1.00  0.00    -0.282 OA 
ENDBRANCH   3  12
BRANCH   6  17
HETATM   17  O   UNL     1     -11.021  16.079  67.019  1.00  0.00    -0.273 OA 
HETATM   18  P   UNL     1      -9.639  16.806  66.660  1.00  0.00    -0.289 P  
HETATM   19  O   UNL     1      -9.340  17.631  67.998  1.00  0.00    -0.261 OA 
HETATM   20  O   UNL     1      -8.520  15.996  66.118  1.00  0.00    -0.323 OA 
HETATM   21  O   UNL     1     -10.184  17.952  65.679  1.00  0.00    -0.589 OA 
ENDBRANCH   6  17
TORSDOF 2
ENDMDL
MODEL       17
REMARK 921   NORMALIZED FREE ENERGY PREDICTED BY IDOCK:   -6.22 KCAL/MOL
REMARK 922        TOTAL FREE ENERGY PREDICTED BY IDOCK:   -7.37 KCAL/MOL
REMARK 923 INTER-LIGAND FREE ENERGY PREDICTED BY IDOCK:   -6.99 KCAL/MOL
REMARK 924 INTRA-LIGAND FREE ENERGY PREDICTED BY IDOCK:   -0.37 KCAL/MOL
REMARK 927      BINDING AFFINITY PREDICTED BY RF-SCORE:    0.00 PKD
ROOT
HETATM    1  C   UNL     1     -12.717  11.160  71.053  1.00  0.00    -0.476 C  
HETATM    2  C   UNL     1     -12.046  12.210  70.201  1.00  0.00    -0.368 A  
HETATM    3  C   UNL     1     -12.278  13.607  70.134  1.00  0.00    -0.342 A  
HETATM    4  C   UNL     1     -11.534  14.420  69.234  1.00  0.00    -0.323 A  
HETATM    5  C   UNL     1     -11.090  11.656  69.330  1.00  0.00    -0.291 A  
HETATM    6  C   UNL     1     -10.369  12.439  68.439  1.00  0.00    -0.229 A  
HETATM    7  C   UNL     1     -11.735  15.813  69.130  1.00  0.00    -0.398 A  
HETATM    8  C   UNL     1     -10.575  13.822  68.374  1.00  0.00    -0.261 A  
HETATM    9  C   UNL     1      -9.866  14.625  67.459  1.00  0.00    -0.218 A  
HETATM   10  C   UNL     1     -10.091  15.996  67.379  1.00  0.00    -0.258 A  
HETATM   11  C   UNL     1     -11.027  16.591  68.213  1.00  0.00    -0.346 A  
ENDROOT
BRANCH   3  12
HETATM   12  O   UNL     1     -13.227  14.305  70.878  1.00  0.00    -0.342 OA 
HETATM   13  O   UNL     1     -14.128  13.586  72.825  1.00  0.00    -0.719 OA 
HETATM   14  O   UNL     1     -12.470  14.767  74.035  1.00  0.00    -0.490 OA 
HETATM   15  P   UNL     1     -12.827  14.548  72.544  1.00  0.00    -0.375 P  
HETATM   16  O   UNL     1     -13.683  15.939  72.374  1.00  0.00    -0.468 OA 
ENDBRANCH   3  12
BRANCH   6  17
HETATM   17  O   UNL     1      -9.545  11.850  67.519  1.00  0.00    -0.172 OA 
HETATM   18  P   UNL     1     -10.046  11.169  66.159  1.00  0.00    -0.256 P  
HETATM   19  O   UNL     1     -10.159   9.630  66.580  1.00  0.00    -0.215 OA 
HETATM   20  O   UNL     1     -11.215  11.748  65.452  1.00  0.00    -0.304 OA 
HETATM   21  O   UNL     1      -8.674  11.185  65.327  1.00  0.00    -0.142 OA 
ENDBRANCH   6  17
TORSDOF 2
ENDMDL
MODEL       18
REMARK 921   NORMALIZED FREE ENERGY PREDICTED BY IDOCK:   -6.21 KCAL/MOL
REMARK 922        TOTAL FREE ENERGY PREDICTED BY IDOCK:   -7.35 KCAL/MOL
REMARK 923 INTER-LIGAND FREE ENERGY PREDICTED BY IDOCK:   -7.18 KCAL/MOL
REMARK 924 INTRA-LIGAND FREE ENERGY PREDICTED BY IDOCK:   -0.17 KCAL/MOL
REMARK 927      BINDING AFFINITY PREDICTED BY RF-SCORE:    0.00 PKD
ROOT
HETATM    1  C   UNL     1     -11.875  12.186  69.738  1.00  0.00    -0.397 C  
HETATM    2  C   UNL     1     -11.538  12.196  68.266  1.00  0.00    -0.382 A  
HETATM    3  C   UNL     1     -11.024  11.160  67.447  1.00  0.00    -0.290 A  
HETATM    4  C   UNL     1     -10.757  11.395  66.069  1.00  0.00    -0.318 A  
HETATM    5  C   UNL     1     -11.741  13.461  67.685  1.00  0.00    -0.397 A  
HETATM    6  C   UNL     1     -11.472  13.704  66.344  1.00  0.00    -0.338 A  
HETATM    7  C   UNL     1     -10.240  10.396  65.217  1.00  0.00    -0.332 A  
HETATM    8  C   UNL     1     -10.980  12.686  65.520  1.00  0.00    -0.313 A  
HETATM    9  C   UNL     1     -10.681  12.924  64.163  1.00  0.00    -0.443 A  
HETATM   10  C   UNL     1     -10.169  11.917  63.351  1.00  0.00    -0.478 A  
HETATM   11  C   UNL     1      -9.946  10.653  63.878  1.00  0.00    -0.390 A  
ENDROOT
BRANCH   3  12
HETATM   12  O   UNL     1     -10.708   9.872  67.875  1.00  0.00    -0.238 OA 
HETATM   13  O   UNL     1      -8.607   9.056  68.076  1.00  0.00    -0.128 OA 
HETATM   14  O   UNL     1      -8.567   9.706  70.353  1.00  0.00    -0.207 OA 
HETATM   15  P   UNL     1      -9.578   9.785  69.182  1.00  0.00    -0.212 P  
HETATM   16  O   UNL     1     -10.410   8.431  69.592  1.00  0.00    -0.209 OA 
ENDBRANCH   3  12
BRANCH   6  17
HETATM   17  O   UNL     1     -11.557  14.974  65.846  1.00  0.00    -0.291 OA 
HETATM   18  P   UNL     1     -10.380  16.059  65.925  1.00  0.00    -0.380 P  
HETATM   19  O   UNL     1     -10.774  16.882  67.239  1.00  0.00    -0.297 OA 
HETATM   20  O   UNL     1      -8.972  15.600  65.830  1.00  0.00    -0.320 OA 
HETATM   21  O   UNL     1     -10.850  17.053  64.758  1.00  0.00    -0.820 OA 
ENDBRANCH   6  17
TORSDOF 2
ENDMDL
MODEL       19
REMARK 921   NORMALIZED FREE ENERGY PREDICTED BY IDOCK:   -6.20 KCAL/MOL
REMARK 922        TOTAL FREE ENERGY PREDICTED BY IDOCK:   -7.34 KCAL/MOL
REMARK 923 INTER-LIGAND FREE ENERGY PREDICTED BY IDOCK:   -7.03 KCAL/MOL
REMARK 924 INTRA-LIGAND FREE ENERGY PREDICTED BY IDOCK:   -0.30 KCAL/MOL
REMARK 927      BINDING AFFINITY PREDICTED BY RF-SCORE:    0.00 PKD
ROOT
HETATM    1  C   UNL     1     -11.934  14.223  69.129  1.00  0.00    -0.372 C  
HETATM    2  C   UNL     1     -11.492  13.389  67.950  1.00  0.00    -0.350 A  
HETATM    3  C   UNL     1     -11.287  13.766  66.599  1.00  0.00    -0.328 A  
HETATM    4  C   UNL     1     -10.883  12.802  65.635  1.00  0.00    -0.300 A  
HETATM    5  C   UNL     1     -11.317  12.037  68.294  1.00  0.00    -0.342 A  
HETATM    6  C   UNL     1     -10.934  11.086  67.357  1.00  0.00    -0.291 A  
HETATM    7  C   UNL     1     -10.673  13.130  64.278  1.00  0.00    -0.431 A  
HETATM    8  C   UNL     1     -10.713  11.447  66.023  1.00  0.00    -0.318 A  
HETATM    9  C   UNL     1     -10.346  10.488  65.057  1.00  0.00    -0.310 A  
HETATM   10  C   UNL     1     -10.151  10.844  63.727  1.00  0.00    -0.413 A  
HETATM   11  C   UNL     1     -10.316  12.165  63.336  1.00  0.00    -0.438 A  
ENDROOT
BRANCH   3  12
HETATM   12  O   UNL     1     -11.477  15.045  66.079  1.00  0.00    -0.321 OA 
HETATM   13  O   UNL     1     -10.887  16.965  67.122  1.00  0.00    -0.227 OA 
HETATM   14  O   UNL     1      -8.799  16.936  66.004  1.00  0.00    -0.464 OA 
HETATM   15  P   UNL     1     -10.064  16.043  66.040  1.00  0.00    -0.380 P  
HETATM   16  O   UNL     1     -10.761  16.692  64.703  1.00  0.00    -0.742 OA 
ENDBRANCH   3  12
BRANCH   6  17
HETATM   17  O   UNL     1     -10.901   9.762  67.698  1.00  0.00    -0.282 OA 
HETATM   18  P   UNL     1      -9.779   9.093  68.626  1.00  0.00    -0.163 P  
HETATM   19  O   UNL     1      -8.750   8.520  67.544  1.00  0.00    -0.133 OA 
HETATM   20  O   UNL     1      -9.197   9.887  69.736  1.00  0.00    -0.213 OA 
HETATM   21  O   UNL     1     -10.559   7.766  69.078  1.00  0.00    -0.216 OA 
ENDBRANCH   6  17
TORSDOF 2
ENDMDL
MODEL       20
REMARK 921   NORMALIZED FREE ENERGY PREDICTED BY IDOCK:   -6.14 KCAL/MOL
REMARK 922        TOTAL FREE ENERGY PREDICTED BY IDOCK:   -7.27 KCAL/MOL
REMARK 923 INTER-LIGAND FREE ENERGY PREDICTED BY IDOCK:   -6.95 KCAL/MOL
REMARK 924 INTRA-LIGAND FREE ENERGY PREDICTED BY IDOCK:   -0.32 KCAL/MOL
REMARK 927      BINDING AFFINITY PREDICTED BY RF-SCORE:    0.00 PKD
ROOT
HETATM    1  C   UNL     1      -9.538   9.736  65.387  1.00  0.00    -0.359 C  
HETATM    2  C   UNL     1     -10.180  10.123  66.698  1.00  0.00    -0.287 A  
HETATM    3  C   UNL     1     -10.770  11.350  67.090  1.00  0.00    -0.249 A  
HETATM    4  C   UNL     1     -11.306  11.507  68.399  1.00  0.00    -0.342 A  
HETATM    5  C   UNL     1     -10.112   9.088  67.647  1.00  0.00    -0.271 A  
HETATM    6  C   UNL     1     -10.620   9.235  68.931  1.00  0.00    -0.199 A  
HETATM    7  C   UNL     1     -11.897  12.713  68.835  1.00  0.00    -0.345 A  
HETATM    8  C   UNL     1     -11.220  10.436  69.327  1.00  0.00    -0.304 A  
HETATM    9  C   UNL     1     -11.720  10.607  70.634  1.00  0.00    -0.454 A  
HETATM   10  C   UNL     1     -12.294  11.810  71.034  1.00  0.00    -0.386 A  
HETATM   11  C   UNL     1     -12.381  12.864  70.135  1.00  0.00    -0.249 A  
ENDROOT
BRANCH   3  12
HETATM   12  O   UNL     1     -10.863  12.493  66.298  1.00  0.00    -0.258 OA 
HETATM   13  O   UNL     1     -10.727  12.514  64.039  1.00  0.00    -0.352 OA 
HETATM   14  O   UNL     1     -13.084  12.349  63.890  1.00  0.00    -0.763 OA 
HETATM   15  P   UNL     1     -12.035  12.416  65.027  1.00  0.00    -0.321 P  
HETATM   16  O   UNL     1     -12.172  14.032  65.281  1.00  0.00    -0.396 OA 
ENDBRANCH   3  12
BRANCH   6  17
HETATM   17  O   UNL     1     -10.419   8.257  69.865  1.00  0.00    -0.214 OA 
HETATM   18  P   UNL     1     -11.064   6.791  69.796  1.00  0.00    -0.302 P  
HETATM   19  O   UNL     1     -12.369   6.958  70.705  1.00  0.00    -0.376 OA 
HETATM   20  O   UNL     1     -11.259   6.154  68.470  1.00  0.00    -0.341 OA 
HETATM   21  O   UNL     1     -10.068   6.012  70.783  1.00  0.00    -0.185 OA 
ENDBRANCH   6  17
TORSDOF 2
ENDMDL
MODEL       21
REMARK 921   NORMALIZED FREE ENERGY PREDICTED BY IDOCK:   -6.13 KCAL/MOL
REMARK 922        TOTAL FREE ENERGY PREDICTED BY IDOCK:   -7.27 KCAL/MOL
REMARK 923 INTER-LIGAND FREE ENERGY PREDICTED BY IDOCK:   -7.12 KCAL/MOL
REMARK 924 INTRA-LIGAND FREE ENERGY PREDICTED BY IDOCK:   -0.15 KCAL/MOL
REMARK 927      BINDING AFFINITY PREDICTED BY RF-SCORE:    0.00 PKD
ROOT
HETATM    1  C   UNL     1     -12.535  13.498  70.274  1.00  0.00    -0.309 C  
HETATM    2  C   UNL     1     -11.979  12.457  69.332  1.00  0.00    -0.319 A  
HETATM    3  C   UNL     1     -11.502  11.150  69.605  1.00  0.00    -0.310 A  
HETATM    4  C   UNL     1     -10.995  10.333  68.557  1.00  0.00    -0.294 A  
HETATM    5  C   UNL     1     -11.903  12.925  68.008  1.00  0.00    -0.390 A  
HETATM    6  C   UNL     1     -11.399  12.141  66.980  1.00  0.00    -0.337 A  
HETATM    7  C   UNL     1     -10.505   9.029  68.783  1.00  0.00    -0.230 A  
HETATM    8  C   UNL     1     -10.940  10.843  67.232  1.00  0.00    -0.355 A  
HETATM    9  C   UNL     1     -10.405  10.043  66.202  1.00  0.00    -0.225 A  
HETATM   10  C   UNL     1      -9.926   8.763  66.459  1.00  0.00    -0.360 A  
HETATM   11  C   UNL     1      -9.974   8.255  67.750  1.00  0.00    -0.235 A  
ENDROOT
BRANCH   3  12
HETATM   12  O   UNL     1     -11.447  10.557  70.865  1.00  0.00    -0.328 OA 
HETATM   13  O   UNL     1     -13.083  10.677  72.424  1.00  0.00    -0.269 OA 
HETATM   14  O   UNL     1     -14.001   8.646  71.625  1.00  0.00    -0.393 OA 
HETATM   15  P   UNL     1     -12.795   9.549  71.266  1.00  0.00    -0.287 P  
HETATM   16  O   UNL     1     -11.690   8.699  72.133  1.00  0.00    -0.341 OA 
ENDBRANCH   3  12
BRANCH   6  17
HETATM   17  O   UNL     1     -11.220  12.674  65.733  1.00  0.00    -0.291 OA 
HETATM   18  P   UNL     1     -12.392  13.302  64.839  1.00  0.00    -0.404 P  
HETATM   19  O   UNL     1     -12.801  12.065  63.910  1.00  0.00    -0.624 OA 
HETATM   20  O   UNL     1     -13.504  14.019  65.512  1.00  0.00    -0.677 OA 
HETATM   21  O   UNL     1     -11.517  14.196  63.836  1.00  0.00    -0.137 OA 
ENDBRANCH   6  17
TORSDOF 2
ENDMDL
MODEL       22
REMARK 921   NORMALIZED FREE ENERGY PREDICTED BY IDOCK:   -6.09 KCAL/MOL
REMARK 922        TOTAL FREE ENERGY PREDICTED BY IDOCK:   -7.22 KCAL/MOL
REMARK 923 INTER-LIGAND FREE ENERGY PREDICTED BY IDOCK:   -6.82 KCAL/MOL
REMARK 924 INTRA-LIGAND FREE ENERGY PREDICTED BY IDOCK:   -0.40 KCAL/MOL
REMARK 927      BINDING AFFINITY PREDICTED BY RF-SCORE:    0.00 PKD
ROOT
HETATM    1  C   UNL     1     -10.300   8.693  67.843  1.00  0.00    -0.286 C  
HETATM    2  C   UNL     1     -10.846   9.913  68.545  1.00  0.00    -0.257 A  
HETATM    3  C   UNL     1     -11.491  10.023  69.803  1.00  0.00    -0.184 A  
HETATM    4  C   UNL     1     -11.950  11.285  70.270  1.00  0.00    -0.466 A  
HETATM    5  C   UNL     1     -10.709  11.078  67.769  1.00  0.00    -0.270 A  
HETATM    6  C   UNL     1     -11.166  12.312  68.210  1.00  0.00    -0.267 A  
HETATM    7  C   UNL     1     -12.602  11.441  71.513  1.00  0.00    -0.393 A  
HETATM    8  C   UNL     1     -11.789  12.438  69.457  1.00  0.00    -0.368 A  
HETATM    9  C   UNL     1     -12.277  13.681  69.909  1.00  0.00    -0.367 A  
HETATM   10  C   UNL     1     -12.919  13.799  71.137  1.00  0.00    -0.370 A  
HETATM   11  C   UNL     1     -13.083  12.679  71.940  1.00  0.00    -0.470 A  
ENDROOT
BRANCH   3  12
HETATM   12  O   UNL     1     -11.762   8.964  70.667  1.00  0.00    -0.264 OA 
HETATM   13  O   UNL     1     -10.489   7.105  70.874  1.00  0.00    -0.209 OA 
HETATM   14  O   UNL     1      -9.298   8.112  72.656  1.00  0.00    -0.217 OA 
HETATM   15  P   UNL     1     -10.461   8.514  71.716  1.00  0.00    -0.354 P  
HETATM   16  O   UNL     1     -11.663   8.109  72.759  1.00  0.00    -0.403 OA 
ENDBRANCH   3  12
BRANCH   6  17
HETATM   17  O   UNL     1     -11.133  13.395  67.376  1.00  0.00    -0.266 OA 
HETATM   18  P   UNL     1     -11.672  13.392  65.866  1.00  0.00    -0.399 P  
HETATM   19  O   UNL     1     -10.335  13.105  65.037  1.00  0.00    -0.317 OA 
HETATM   20  O   UNL     1     -12.853  12.561  65.526  1.00  0.00    -0.478 OA 
HETATM   21  O   UNL     1     -11.867  14.969  65.647  1.00  0.00    -0.212 OA 
ENDBRANCH   6  17
TORSDOF 2
ENDMDL
MODEL       23
REMARK 921   NORMALIZED FREE ENERGY PREDICTED BY IDOCK:   -6.08 KCAL/MOL
REMARK 922        TOTAL FREE ENERGY PREDICTED BY IDOCK:   -7.20 KCAL/MOL
REMARK 923 INTER-LIGAND FREE ENERGY PREDICTED BY IDOCK:   -6.96 KCAL/MOL
REMARK 924 INTRA-LIGAND FREE ENERGY PREDICTED BY IDOCK:   -0.25 KCAL/MOL
REMARK 927      BINDING AFFINITY PREDICTED BY RF-SCORE:    0.00 PKD
ROOT
HETATM    1  C   UNL     1     -10.180  14.377  67.501  1.00  0.00    -0.240 C  
HETATM    2  C   UNL     1     -10.730  13.427  68.538  1.00  0.00    -0.278 A  
HETATM    3  C   UNL     1     -10.513  12.035  68.698  1.00  0.00    -0.218 A  
HETATM    4  C   UNL     1     -11.155  11.321  69.748  1.00  0.00    -0.238 A  
HETATM    5  C   UNL     1     -11.620  14.064  69.421  1.00  0.00    -0.349 A  
HETATM    6  C   UNL     1     -12.261  13.373  70.441  1.00  0.00    -0.345 A  
HETATM    7  C   UNL     1     -10.973   9.935  69.942  1.00  0.00    -0.321 A  
HETATM    8  C   UNL     1     -12.044  12.003  70.621  1.00  0.00    -0.369 A  
HETATM    9  C   UNL     1     -12.705  11.284  71.638  1.00  0.00    -0.448 A  
HETATM   10  C   UNL     1     -12.507   9.917  71.800  1.00  0.00    -0.487 A  
HETATM   11  C   UNL     1     -11.642   9.241  70.951  1.00  0.00    -0.364 A  
ENDROOT
BRANCH   3  12
HETATM   12  O   UNL     1      -9.715  11.242  67.876  1.00  0.00    -0.170 OA 
HETATM   13  O   UNL     1     -10.480   9.579  66.546  1.00  0.00    -0.211 OA 
HETATM   14  O   UNL     1     -10.647  11.097  64.736  1.00  0.00    -0.317 OA 
HETATM   15  P   UNL     1     -10.207  11.165  66.219  1.00  0.00    -0.252 P  
HETATM   16  O   UNL     1      -8.601  11.000  65.922  1.00  0.00    -0.176 OA 
ENDBRANCH   3  12
BRANCH   6  17
HETATM   17  O   UNL     1     -13.217  13.995  71.196  1.00  0.00    -0.322 OA 
HETATM   18  P   UNL     1     -12.912  15.120  72.296  1.00  0.00    -0.440 P  
HETATM   19  O   UNL     1     -12.852  14.260  73.643  1.00  0.00    -0.442 OA 
HETATM   20  O   UNL     1     -11.793  16.067  72.065  1.00  0.00    -0.455 OA 
HETATM   21  O   UNL     1     -14.363  15.797  72.399  1.00  0.00    -0.514 OA 
ENDBRANCH   6  17
TORSDOF 2
ENDMDL
MODEL       24
REMARK 921   NORMALIZED FREE ENERGY PREDICTED BY IDOCK:   -6.07 KCAL/MOL
REMARK 922        TOTAL FREE ENERGY PREDICTED BY IDOCK:   -7.19 KCAL/MOL
REMARK 923 INTER-LIGAND FREE ENERGY PREDICTED BY IDOCK:   -7.31 KCAL/MOL
REMARK 924 INTRA-LIGAND FREE ENERGY PREDICTED BY IDOCK:    0.12 KCAL/MOL
REMARK 927      BINDING AFFINITY PREDICTED BY RF-SCORE:    0.00 PKD
ROOT
HETATM    1  C   UNL     1     -12.356  12.392  69.960  1.00  0.00    -0.156 C  
HETATM    2  C   UNL     1     -11.822  13.618  69.258  1.00  0.00    -0.395 A  
HETATM    3  C   UNL     1     -11.279  14.809  69.801  1.00  0.00    -0.273 A  
HETATM    4  C   UNL     1     -10.849  15.861  68.946  1.00  0.00    -0.274 A  
HETATM    5  C   UNL     1     -11.953  13.528  67.860  1.00  0.00    -0.372 A  
HETATM    6  C   UNL     1     -11.548  14.554  67.018  1.00  0.00    -0.386 A  
HETATM    7  C   UNL     1     -10.307  17.066  69.443  1.00  0.00    -0.230 A  
HETATM    8  C   UNL     1     -10.994  15.729  67.540  1.00  0.00    -0.293 A  
HETATM    9  C   UNL     1     -10.599  16.788  66.698  1.00  0.00    -0.198 A  
HETATM   10  C   UNL     1     -10.072  17.965  67.220  1.00  0.00    -0.344 A  
HETATM   11  C   UNL     1      -9.927  18.106  68.593  1.00  0.00    -0.409 A  
ENDROOT
BRANCH   3  12
HETATM   12  O   UNL     1     -11.137  15.086  71.160  1.00  0.00    -0.267 OA 
HETATM   13  O   UNL     1     -11.898  16.956  72.183  1.00  0.00    -0.151 OA 
HETATM   14  O   UNL     1     -13.914  15.842  72.731  1.00  0.00    -0.581 OA 
HETATM   15  P   UNL     1     -12.603  15.486  71.988  1.00  0.00    -0.484 P  
HETATM   16  O   UNL     1     -11.872  14.778  73.277  1.00  0.00    -0.188 OA 
ENDBRANCH   3  12
BRANCH   6  17
HETATM   17  O   UNL     1     -11.809  14.486  65.677  1.00  0.00    -0.356 OA 
HETATM   18  P   UNL     1     -11.771  13.136  64.814  1.00  0.00    -0.398 P  
HETATM   19  O   UNL     1     -10.292  13.172  64.207  1.00  0.00    -0.421 OA 
HETATM   20  O   UNL     1     -12.195  11.864  65.450  1.00  0.00    -0.377 OA 
HETATM   21  O   UNL     1     -12.657  13.595  63.558  1.00  0.00    -0.754 OA 
ENDBRANCH   6  17
TORSDOF 2
ENDMDL
MODEL       25
REMARK 921   NORMALIZED FREE ENERGY PREDICTED BY IDOCK:   -6.06 KCAL/MOL
REMARK 922        TOTAL FREE ENERGY PREDICTED BY IDOCK:   -7.18 KCAL/MOL
REMARK 923 INTER-LIGAND FREE ENERGY PREDICTED BY IDOCK:   -7.03 KCAL/MOL
REMARK 924 INTRA-LIGAND FREE ENERGY PREDICTED BY IDOCK:   -0.15 KCAL/MOL
REMARK 927      BINDING AFFINITY PREDICTED BY RF-SCORE:    0.00 PKD
ROOT
HETATM    1  C   UNL     1     -10.699  14.248  64.801  1.00  0.00    -0.435 C  
HETATM    2  C   UNL     1     -10.841  14.652  66.249  1.00  0.00    -0.321 A  
HETATM    3  C   UNL     1     -11.287  13.896  67.361  1.00  0.00    -0.326 A  
HETATM    4  C   UNL     1     -11.363  14.488  68.653  1.00  0.00    -0.300 A  
HETATM    5  C   UNL     1     -10.512  16.004  66.457  1.00  0.00    -0.303 A  
HETATM    6  C   UNL     1     -10.594  16.594  67.711  1.00  0.00    -0.342 A  
HETATM    7  C   UNL     1     -11.806  13.775  69.788  1.00  0.00    -0.394 A  
HETATM    8  C   UNL     1     -11.017  15.855  68.821  1.00  0.00    -0.301 A  
HETATM    9  C   UNL     1     -11.127  16.447  70.096  1.00  0.00    -0.285 A  
HETATM   10  C   UNL     1     -11.571  15.717  71.193  1.00  0.00    -0.469 A  
HETATM   11  C   UNL     1     -11.913  14.381  71.040  1.00  0.00    -0.389 A  
ENDROOT
BRANCH   3  12
HETATM   12  O   UNL     1     -11.710  12.568  67.319  1.00  0.00    -0.349 OA 
HETATM   13  O   UNL     1     -10.963  11.020  65.848  1.00  0.00    -0.173 OA 
HETATM   14  O   UNL     1      -9.312  10.333  67.402  1.00  0.00    -0.144 OA 
HETATM   15  P   UNL     1     -10.444  11.389  67.362  1.00  0.00    -0.228 P  
HETATM   16  O   UNL     1     -11.554  10.469  68.147  1.00  0.00    -0.402 OA 
ENDBRANCH   3  12
BRANCH   6  17
HETATM   17  O   UNL     1     -10.392  17.939  67.851  1.00  0.00    -0.353 OA 
HETATM   18  P   UNL     1      -9.163  18.743  67.209  1.00  0.00    -0.297 P  
HETATM   19  O   UNL     1      -8.119  18.776  68.421  1.00  0.00    -0.317 OA 
HETATM   20  O   UNL     1      -8.634  18.314  65.891  1.00  0.00    -0.502 OA 
HETATM   21  O   UNL     1      -9.764  20.230  67.248  1.00  0.00    -0.399 OA 
ENDBRANCH   6  17
TORSDOF 2
ENDMDL
MODEL       26
REMARK 921   NORMALIZED FREE ENERGY PREDICTED BY IDOCK:   -6.00 KCAL/MOL
REMARK 922        TOTAL FREE ENERGY PREDICTED BY IDOCK:   -7.12 KCAL/MOL
REMARK 923 INTER-LIGAND FREE ENERGY PREDICTED BY IDOCK:   -6.95 KCAL/MOL
REMARK 924 INTRA-LIGAND FREE ENERGY PREDICTED BY IDOCK:   -0.17 KCAL/MOL
REMARK 927      BINDING AFFINITY PREDICTED BY RF-SCORE:    0.00 PKD
ROOT
HETATM    1  C   UNL     1     -13.385  12.761  72.123  1.00  0.00    -0.593 C  
HETATM    2  C   UNL     1     -12.612  12.154  70.976  1.00  0.00    -0.359 A  
HETATM    3  C   UNL     1     -12.273  12.709  69.717  1.00  0.00    -0.143 A  
HETATM    4  C   UNL     1     -11.546  11.944  68.763  1.00  0.00    -0.366 A  
HETATM    5  C   UNL     1     -12.240  10.822  71.233  1.00  0.00    -0.426 A  
HETATM    6  C   UNL     1     -11.542  10.062  70.304  1.00  0.00    -0.280 A  
HETATM    7  C   UNL     1     -11.192  12.453  67.495  1.00  0.00    -0.348 A  
HETATM    8  C   UNL     1     -11.186  10.603  69.064  1.00  0.00    -0.324 A  
HETATM    9  C   UNL     1     -10.497   9.837  68.102  1.00  0.00    -0.258 A  
HETATM   10  C   UNL     1     -10.166  10.368  66.860  1.00  0.00    -0.281 A  
HETATM   11  C   UNL     1     -10.514  11.677  66.555  1.00  0.00    -0.276 A  
ENDROOT
BRANCH   3  12
HETATM   12  O   UNL     1     -12.617  13.986  69.277  1.00  0.00    -0.151 OA 
HETATM   13  O   UNL     1     -13.276  15.682  70.622  1.00  0.00    -0.487 OA 
HETATM   14  O   UNL     1     -11.040  16.449  70.760  1.00  0.00    -0.296 OA 
HETATM   15  P   UNL     1     -11.785  15.286  70.061  1.00  0.00    -0.373 P  
HETATM   16  O   UNL     1     -11.946  16.041  68.612  1.00  0.00    -0.306 OA 
ENDBRANCH   3  12
BRANCH   6  17
HETATM   17  O   UNL     1     -11.313   8.734  70.536  1.00  0.00    -0.260 OA 
HETATM   18  P   UNL     1     -12.236   7.802  71.456  1.00  0.00    -0.330 P  
HETATM   19  O   UNL     1     -11.473   7.860  72.861  1.00  0.00    -0.403 OA 
HETATM   20  O   UNL     1     -13.699   8.048  71.488  1.00  0.00    -0.343 OA 
HETATM   21  O   UNL     1     -11.802   6.361  70.901  1.00  0.00    -0.350 OA 
ENDBRANCH   6  17
TORSDOF 2
ENDMDL
MODEL       27
REMARK 921   NORMALIZED FREE ENERGY PREDICTED BY IDOCK:   -5.99 KCAL/MOL
REMARK 922        TOTAL FREE ENERGY PREDICTED BY IDOCK:   -7.10 KCAL/MOL
REMARK 923 INTER-LIGAND FREE ENERGY PREDICTED BY IDOCK:   -7.23 KCAL/MOL
REMARK 924 INTRA-LIGAND FREE ENERGY PREDICTED BY IDOCK:    0.13 KCAL/MOL
REMARK 927      BINDING AFFINITY PREDICTED BY RF-SCORE:    0.00 PKD
ROOT
HETATM    1  C   UNL     1     -11.658  16.264  68.643  1.00  0.00    -0.216 C  
HETATM    2  C   UNL     1     -11.675  14.755  68.677  1.00  0.00    -0.356 A  
HETATM    3  C   UNL     1     -11.686  13.874  69.788  1.00  0.00    -0.309 A  
HETATM    4  C   UNL     1     -11.681  12.465  69.591  1.00  0.00    -0.377 A  
HETATM    5  C   UNL     1     -11.624  14.194  67.389  1.00  0.00    -0.399 A  
HETATM    6  C   UNL     1     -11.605  12.821  67.186  1.00  0.00    -0.364 A  
HETATM    7  C   UNL     1     -11.686  11.550  70.666  1.00  0.00    -0.133 A  
HETATM    8  C   UNL     1     -11.633  11.939  68.273  1.00  0.00    -0.390 A  
HETATM    9  C   UNL     1     -11.592  10.542  68.083  1.00  0.00    -0.145 A  
HETATM   10  C   UNL     1     -11.594   9.668  69.165  1.00  0.00     0.238 A  
HETATM   11  C   UNL     1     -11.640  10.171  70.458  1.00  0.00    -0.411 A  
ENDROOT
BRANCH   3  12
HETATM   12  O   UNL     1     -11.674  14.260  71.127  1.00  0.00    -0.266 OA 
HETATM   13  O   UNL     1     -12.107  16.352  71.872  1.00  0.00    -0.430 OA 
HETATM   14  O   UNL     1     -14.385  15.780  72.170  1.00  0.00    -0.462 OA 
HETATM   15  P   UNL     1     -13.105  15.063  71.677  1.00  0.00    -0.448 P  
HETATM   16  O   UNL     1     -12.748  14.357  73.115  1.00  0.00    -0.428 OA 
ENDBRANCH   3  12
BRANCH   6  17
HETATM   17  O   UNL     1     -11.424  12.314  65.929  1.00  0.00    -0.344 OA 
HETATM   18  P   UNL     1     -11.801  13.088  64.577  1.00  0.00    -0.437 P  
HETATM   19  O   UNL     1     -13.259  12.511  64.261  1.00  0.00    -0.738 OA 
HETATM   20  O   UNL     1     -11.648  14.562  64.526  1.00  0.00    -0.395 OA 
HETATM   21  O   UNL     1     -10.890  12.274  63.537  1.00  0.00    -0.425 OA 
ENDBRANCH   6  17
TORSDOF 2
ENDMDL
MODEL       28
REMARK 921   NORMALIZED FREE ENERGY PREDICTED BY IDOCK:   -5.98 KCAL/MOL
REMARK 922        TOTAL FREE ENERGY PREDICTED BY IDOCK:   -7.09 KCAL/MOL
REMARK 923 INTER-LIGAND FREE ENERGY PREDICTED BY IDOCK:   -6.89 KCAL/MOL
REMARK 924 INTRA-LIGAND FREE ENERGY PREDICTED BY IDOCK:   -0.20 KCAL/MOL
REMARK 927      BINDING AFFINITY PREDICTED BY RF-SCORE:    0.00 PKD
ROOT
HETATM    1  C   UNL     1     -12.855  13.246  71.469  1.00  0.00    -0.419 C  
HETATM    2  C   UNL     1     -12.230  12.388  70.395  1.00  0.00    -0.370 A  
HETATM    3  C   UNL     1     -11.873  12.721  69.064  1.00  0.00    -0.297 A  
HETATM    4  C   UNL     1     -11.307  11.740  68.203  1.00  0.00    -0.348 A  
HETATM    5  C   UNL     1     -12.040  11.061  70.819  1.00  0.00    -0.467 A  
HETATM    6  C   UNL     1     -11.499  10.094  69.982  1.00  0.00    -0.277 A  
HETATM    7  C   UNL     1     -10.942  12.024  66.869  1.00  0.00    -0.328 A  
HETATM    8  C   UNL     1     -11.127  10.412  68.671  1.00  0.00    -0.313 A  
HETATM    9  C   UNL     1     -10.598   9.434  67.804  1.00  0.00    -0.317 A  
HETATM   10  C   UNL     1     -10.252   9.746  66.493  1.00  0.00    -0.289 A  
HETATM   11  C   UNL     1     -10.425  11.041  66.024  1.00  0.00    -0.304 A  
ENDROOT
BRANCH   3  12
HETATM   12  O   UNL     1     -12.052  13.967  68.466  1.00  0.00    -0.362 OA 
HETATM   13  O   UNL     1     -12.010  15.945  69.563  1.00  0.00    -0.347 OA 
HETATM   14  O   UNL     1      -9.701  16.167  69.084  1.00  0.00    -0.227 OA 
HETATM   15  P   UNL     1     -10.812  15.128  68.793  1.00  0.00    -0.276 P  
HETATM   16  O   UNL     1     -11.168  15.685  67.291  1.00  0.00    -0.288 OA 
ENDBRANCH   3  12
BRANCH   6  17
HETATM   17  O   UNL     1     -11.450   8.788  70.385  1.00  0.00    -0.240 OA 
HETATM   18  P   UNL     1     -12.383   8.155  71.524  1.00  0.00    -0.292 P  
HETATM   19  O   UNL     1     -11.448   8.263  72.818  1.00  0.00    -0.391 OA 
HETATM   20  O   UNL     1     -13.774   8.649  71.670  1.00  0.00    -0.374 OA 
HETATM   21  O   UNL     1     -12.250   6.601  71.148  1.00  0.00    -0.363 OA 
ENDBRANCH   6  17
TORSDOF 2
ENDMDL
MODEL       29
REMARK 921   NORMALIZED FREE ENERGY PREDICTED BY IDOCK:   -5.95 KCAL/MOL
REMARK 922        TOTAL FREE ENERGY PREDICTED BY IDOCK:   -7.06 KCAL/MOL
REMARK 923 INTER-LIGAND FREE ENERGY PREDICTED BY IDOCK:   -7.20 KCAL/MOL
REMARK 924 INTRA-LIGAND FREE ENERGY PREDICTED BY IDOCK:    0.14 KCAL/MOL
REMARK 927      BINDING AFFINITY PREDICTED BY RF-SCORE:    0.00 PKD
ROOT
HETATM    1  C   UNL     1     -11.925  14.520  68.649  1.00  0.00    -0.320 C  
HETATM    2  C   UNL     1     -11.475  13.144  68.220  1.00  0.00    -0.349 A  
HETATM    3  C   UNL     1     -10.768  12.742  67.059  1.00  0.00    -0.253 A  
HETATM    4  C   UNL     1     -10.460  11.371  66.840  1.00  0.00    -0.278 A  
HETATM    5  C   UNL     1     -11.889  12.146  69.121  1.00  0.00    -0.361 A  
HETATM    6  C   UNL     1     -11.604  10.803  68.910  1.00  0.00    -0.291 A  
HETATM    7  C   UNL     1      -9.763  10.925  65.696  1.00  0.00    -0.279 A  
HETATM    8  C   UNL     1     -10.892  10.395  67.777  1.00  0.00    -0.351 A  
HETATM    9  C   UNL     1     -10.616   9.033  67.538  1.00  0.00    -0.306 A  
HETATM   10  C   UNL     1      -9.929   8.626  66.399  1.00  0.00    -0.331 A  
HETATM   11  C   UNL     1      -9.504   9.572  65.476  1.00  0.00    -0.334 A  
ENDROOT
BRANCH   3  12
HETATM   12  O   UNL     1     -10.341  13.590  66.038  1.00  0.00    -0.289 OA 
HETATM   13  O   UNL     1     -10.758  13.275  63.837  1.00  0.00    -0.318 OA 
HETATM   14  O   UNL     1     -12.694  14.628  64.005  1.00  0.00    -0.772 OA 
HETATM   15  P   UNL     1     -11.583  14.137  64.965  1.00  0.00    -0.405 P  
HETATM   16  O   UNL     1     -10.659  15.489  64.851  1.00  0.00    -0.423 OA 
ENDBRANCH   3  12
BRANCH   6  17
HETATM   17  O   UNL     1     -12.133   9.851  69.737  1.00  0.00     0.009 OA 
HETATM   18  P   UNL     1     -12.391  10.055  71.305  1.00  0.00    -0.450 P  
HETATM   19  O   UNL     1     -11.065   9.428  71.944  1.00  0.00    -0.344 OA 
HETATM   20  O   UNL     1     -12.792  11.395  71.800  1.00  0.00    -0.405 OA 
HETATM   21  O   UNL     1     -13.464   8.889  71.556  1.00  0.00    -0.353 OA 
ENDBRANCH   6  17
TORSDOF 2
ENDMDL
MODEL       30
REMARK 921   NORMALIZED FREE ENERGY PREDICTED BY IDOCK:   -5.95 KCAL/MOL
REMARK 922        TOTAL FREE ENERGY PREDICTED BY IDOCK:   -7.06 KCAL/MOL
REMARK 923 INTER-LIGAND FREE ENERGY PREDICTED BY IDOCK:   -6.66 KCAL/MOL
REMARK 924 INTRA-LIGAND FREE ENERGY PREDICTED BY IDOCK:   -0.40 KCAL/MOL
REMARK 927      BINDING AFFINITY PREDICTED BY RF-SCORE:    0.00 PKD
ROOT
HETATM    1  C   UNL     1     -11.994  14.918  64.555  1.00  0.00    -0.420 C  
HETATM    2  C   UNL     1     -10.834  14.590  65.464  1.00  0.00    -0.342 A  
HETATM    3  C   UNL     1      -9.742  15.399  65.867  1.00  0.00    -0.357 A  
HETATM    4  C   UNL     1      -8.736  14.876  66.726  1.00  0.00    -0.278 A  
HETATM    5  C   UNL     1     -10.869  13.256  65.909  1.00  0.00    -0.289 A  
HETATM    6  C   UNL     1      -9.886  12.733  66.737  1.00  0.00    -0.242 A  
HETATM    7  C   UNL     1      -7.628  15.642  67.148  1.00  0.00    -0.258 A  
HETATM    8  C   UNL     1      -8.811  13.525  67.157  1.00  0.00    -0.231 A  
HETATM    9  C   UNL     1      -7.793  13.000  67.979  1.00  0.00    -0.146 A  
HETATM   10  C   UNL     1      -6.712  13.782  68.375  1.00  0.00    -0.100 A  
HETATM   11  C   UNL     1      -6.628  15.103  67.958  1.00  0.00    -0.156 A  
ENDROOT
BRANCH   3  12
HETATM   12  O   UNL     1      -9.521  16.716  65.469  1.00  0.00    -0.482 OA 
HETATM   13  O   UNL     1     -11.150  18.211  64.986  1.00  0.00    -0.650 OA 
HETATM   14  O   UNL     1     -11.103  18.992  67.221  1.00  0.00    -0.382 OA 
HETATM   15  P   UNL     1     -10.356  17.916  66.394  1.00  0.00    -0.267 P  
HETATM   16  O   UNL     1      -9.052  18.851  66.048  1.00  0.00    -0.470 OA 
ENDBRANCH   3  12
BRANCH   6  17
HETATM   17  O   UNL     1      -9.883  11.400  67.043  1.00  0.00    -0.188 OA 
HETATM   18  P   UNL     1     -10.890  10.706  68.078  1.00  0.00    -0.302 P  
HETATM   19  O   UNL     1     -10.028  10.698  69.426  1.00  0.00    -0.216 OA 
HETATM   20  O   UNL     1     -12.278  11.219  68.185  1.00  0.00    -0.622 OA 
HETATM   21  O   UNL     1     -10.765   9.181  67.595  1.00  0.00    -0.262 OA 
ENDBRANCH   6  17
TORSDOF 2
ENDMDL
MODEL       31
REMARK 921   NORMALIZED FREE ENERGY PREDICTED BY IDOCK:   -5.93 KCAL/MOL
REMARK 922        TOTAL FREE ENERGY PREDICTED BY IDOCK:   -7.04 KCAL/MOL
REMARK 923 INTER-LIGAND FREE ENERGY PREDICTED BY IDOCK:   -6.72 KCAL/MOL
REMARK 924 INTRA-LIGAND FREE ENERGY PREDICTED BY IDOCK:   -0.33 KCAL/MOL
REMARK 927      BINDING AFFINITY PREDICTED BY RF-SCORE:    0.00 PKD
ROOT
HETATM    1  C   UNL     1      -7.544  16.780  66.260  1.00  0.00    -0.275 C  
HETATM    2  C   UNL     1      -8.701  16.155  67.002  1.00  0.00    -0.228 A  
HETATM    3  C   UNL     1      -9.435  16.643  68.112  1.00  0.00    -0.228 A  
HETATM    4  C   UNL     1     -10.489  15.872  68.676  1.00  0.00    -0.240 A  
HETATM    5  C   UNL     1      -9.025  14.880  66.505  1.00  0.00    -0.288 A  
HETATM    6  C   UNL     1     -10.043  14.114  67.055  1.00  0.00    -0.261 A  
HETATM    7  C   UNL     1     -11.243  16.315  69.784  1.00  0.00    -0.314 A  
HETATM    8  C   UNL     1     -10.787  14.590  68.141  1.00  0.00    -0.246 A  
HETATM    9  C   UNL     1     -11.809  13.814  68.724  1.00  0.00    -0.398 A  
HETATM   10  C   UNL     1     -12.531  14.279  69.819  1.00  0.00    -0.264 A  
HETATM   11  C   UNL     1     -12.247  15.529  70.351  1.00  0.00    -0.443 A  
ENDROOT
BRANCH   3  12
HETATM   12  O   UNL     1      -9.205  17.853  68.765  1.00  0.00    -0.286 OA 
HETATM   13  O   UNL     1      -8.049  19.592  67.894  1.00  0.00    -0.292 OA 
HETATM   14  O   UNL     1     -10.066  20.535  67.086  1.00  0.00    -0.425 OA 
HETATM   15  P   UNL     1      -9.659  19.268  67.879  1.00  0.00    -0.376 P  
HETATM   16  O   UNL     1      -9.970  19.896  69.363  1.00  0.00    -0.345 OA 
ENDBRANCH   3  12
BRANCH   6  17
HETATM   17  O   UNL     1     -10.242  12.829  66.631  1.00  0.00    -0.233 OA 
HETATM   18  P   UNL     1     -10.852  12.431  65.203  1.00  0.00    -0.323 P  
HETATM   19  O   UNL     1     -12.400  12.226  65.549  1.00  0.00    -0.602 OA 
HETATM   20  O   UNL     1     -10.544  13.281  64.027  1.00  0.00    -0.373 OA 
HETATM   21  O   UNL     1     -10.332  10.917  65.101  1.00  0.00    -0.279 OA 
ENDBRANCH   6  17
TORSDOF 2
ENDMDL
MODEL       32
REMARK 921   NORMALIZED FREE ENERGY PREDICTED BY IDOCK:   -5.90 KCAL/MOL
REMARK 922        TOTAL FREE ENERGY PREDICTED BY IDOCK:   -7.00 KCAL/MOL
REMARK 923 INTER-LIGAND FREE ENERGY PREDICTED BY IDOCK:   -7.02 KCAL/MOL
REMARK 924 INTRA-LIGAND FREE ENERGY PREDICTED BY IDOCK:    0.02 KCAL/MOL
REMARK 927      BINDING AFFINITY PREDICTED BY RF-SCORE:    0.00 PKD
ROOT
HETATM    1  C   UNL     1     -12.059  15.714  70.863  1.00  0.00    -0.452 C  
HETATM    2  C   UNL     1     -11.797  14.727  69.751  1.00  0.00    -0.362 A  
HETATM    3  C   UNL     1     -11.357  14.954  68.423  1.00  0.00    -0.303 A  
HETATM    4  C   UNL     1     -11.193  13.866  67.521  1.00  0.00    -0.323 A  
HETATM    5  C   UNL     1     -12.095  13.406  70.132  1.00  0.00    -0.415 A  
HETATM    6  C   UNL     1     -11.950  12.339  69.256  1.00  0.00    -0.253 A  
HETATM    7  C   UNL     1     -10.763  14.046  66.188  1.00  0.00    -0.289 A  
HETATM    8  C   UNL     1     -11.501  12.547  67.947  1.00  0.00    -0.369 A  
HETATM    9  C   UNL     1     -11.370  11.476  67.039  1.00  0.00    -0.340 A  
HETATM   10  C   UNL     1     -10.948  11.688  65.731  1.00  0.00    -0.329 A  
HETATM   11  C   UNL     1     -10.645  12.973  65.304  1.00  0.00    -0.320 A  
ENDROOT
BRANCH   3  12
HETATM   12  O   UNL     1     -11.079  16.201  67.865  1.00  0.00    -0.340 OA 
HETATM   13  O   UNL     1     -10.371  18.008  69.028  1.00  0.00    -0.350 OA 
HETATM   14  O   UNL     1      -8.121  17.424  68.576  1.00  0.00    -0.254 OA 
HETATM   15  P   UNL     1      -9.518  16.846  68.241  1.00  0.00    -0.267 P  
HETATM   16  O   UNL     1      -9.630  17.536  66.756  1.00  0.00    -0.262 OA 
ENDBRANCH   3  12
BRANCH   6  17
HETATM   17  O   UNL     1     -12.373  11.090  69.619  1.00  0.00    -0.321 OA 
HETATM   18  P   UNL     1     -12.683  10.641  71.125  1.00  0.00    -0.449 P  
HETATM   19  O   UNL     1     -11.302   9.960  71.560  1.00  0.00    -0.343 OA 
HETATM   20  O   UNL     1     -13.255  11.633  72.068  1.00  0.00    -0.501 OA 
HETATM   21  O   UNL     1     -13.608   9.362  70.840  1.00  0.00    -0.182 OA 
ENDBRANCH   6  17
TORSDOF 2
ENDMDL
MODEL       33
REMARK 921   NORMALIZED FREE ENERGY PREDICTED BY IDOCK:   -5.89 KCAL/MOL
REMARK 922        TOTAL FREE ENERGY PREDICTED BY IDOCK:   -7.00 KCAL/MOL
REMARK 923 INTER-LIGAND FREE ENERGY PREDICTED BY IDOCK:   -6.96 KCAL/MOL
REMARK 924 INTRA-LIGAND FREE ENERGY PREDICTED BY IDOCK:   -0.03 KCAL/MOL
REMARK 927      BINDING AFFINITY PREDICTED BY RF-SCORE:    0.00 PKD
ROOT
HETATM    1  C   UNL     1     -12.369  12.156  70.491  1.00  0.00    -0.358 C  
HETATM    2  C   UNL     1     -11.746  11.594  69.235  1.00  0.00    -0.396 A  
HETATM    3  C   UNL     1     -11.320  10.273  68.948  1.00  0.00    -0.173 A  
HETATM    4  C   UNL     1     -10.733   9.962  67.690  1.00  0.00    -0.339 A  
HETATM    5  C   UNL     1     -11.538  12.584  68.258  1.00  0.00    -0.376 A  
HETATM    6  C   UNL     1     -10.954  12.293  67.033  1.00  0.00    -0.268 A  
HETATM    7  C   UNL     1     -10.289   8.663  67.362  1.00  0.00    -0.353 A  
HETATM    8  C   UNL     1     -10.544  10.990  66.728  1.00  0.00    -0.317 A  
HETATM    9  C   UNL     1      -9.930  10.685  65.497  1.00  0.00    -0.333 A  
HETATM   10  C   UNL     1      -9.500   9.395  65.206  1.00  0.00    -0.296 A  
HETATM   11  C   UNL     1      -9.678   8.382  66.139  1.00  0.00    -0.223 A  
ENDROOT
BRANCH   3  12
HETATM   12  O   UNL     1     -11.394   9.191  69.823  1.00  0.00    -0.126 OA 
HETATM   13  O   UNL     1      -9.692   7.768  70.266  1.00  0.00    -0.179 OA 
HETATM   14  O   UNL     1      -9.063   9.091  72.126  1.00  0.00    -0.372 OA 
HETATM   15  P   UNL     1     -10.163   9.138  71.038  1.00  0.00    -0.317 P  
HETATM   16  O   UNL     1     -11.327   8.424  71.950  1.00  0.00    -0.273 OA 
ENDBRANCH   3  12
BRANCH   6  17
HETATM   17  O   UNL     1     -10.649  13.302  66.161  1.00  0.00    -0.280 OA 
HETATM   18  P   UNL     1     -11.665  13.900  65.076  1.00  0.00    -0.405 P  
HETATM   19  O   UNL     1     -11.277  13.071  63.764  1.00  0.00    -0.406 OA 
HETATM   20  O   UNL     1     -13.109  13.974  65.407  1.00  0.00    -0.763 OA 
HETATM   21  O   UNL     1     -10.960  15.313  64.796  1.00  0.00    -0.410 OA 
ENDBRANCH   6  17
TORSDOF 2
ENDMDL
MODEL       34
REMARK 921   NORMALIZED FREE ENERGY PREDICTED BY IDOCK:   -5.86 KCAL/MOL
REMARK 922        TOTAL FREE ENERGY PREDICTED BY IDOCK:   -6.96 KCAL/MOL
REMARK 923 INTER-LIGAND FREE ENERGY PREDICTED BY IDOCK:   -6.72 KCAL/MOL
REMARK 924 INTRA-LIGAND FREE ENERGY PREDICTED BY IDOCK:   -0.24 KCAL/MOL
REMARK 927      BINDING AFFINITY PREDICTED BY RF-SCORE:    0.00 PKD
ROOT
HETATM    1  C   UNL     1     -11.129  14.362  68.423  1.00  0.00    -0.272 C  
HETATM    2  C   UNL     1     -11.371  13.039  69.111  1.00  0.00    -0.328 A  
HETATM    3  C   UNL     1     -12.242  12.722  70.183  1.00  0.00    -0.249 A  
HETATM    4  C   UNL     1     -12.300  11.397  70.698  1.00  0.00    -0.466 A  
HETATM    5  C   UNL     1     -10.549  12.018  68.602  1.00  0.00    -0.253 A  
HETATM    6  C   UNL     1     -10.589  10.725  69.106  1.00  0.00    -0.222 A  
HETATM    7  C   UNL     1     -13.147  11.037  71.768  1.00  0.00    -0.554 A  
HETATM    8  C   UNL     1     -11.456  10.394  70.153  1.00  0.00    -0.396 A  
HETATM    9  C   UNL     1     -11.490   9.090  70.690  1.00  0.00    -0.291 A  
HETATM   10  C   UNL     1     -12.335   8.769  71.747  1.00  0.00    -0.412 A  
HETATM   11  C   UNL     1     -13.163   9.743  72.288  1.00  0.00    -0.468 A  
ENDROOT
BRANCH   3  12
HETATM   12  O   UNL     1     -13.075  13.625  70.842  1.00  0.00    -0.228 OA 
HETATM   13  O   UNL     1     -12.808  14.303  72.984  1.00  0.00    -0.447 OA 
HETATM   14  O   UNL     1     -11.554  16.169  72.242  1.00  0.00    -0.447 OA 
HETATM   15  P   UNL     1     -12.272  14.967  71.581  1.00  0.00    -0.377 P  
HETATM   16  O   UNL     1     -13.660  15.773  71.237  1.00  0.00    -0.561 OA 
ENDBRANCH   3  12
BRANCH   6  17
HETATM   17  O   UNL     1      -9.685   9.793  68.676  1.00  0.00    -0.150 OA 
HETATM   18  P   UNL     1      -8.189   9.656  69.236  1.00  0.00    -0.149 P  
HETATM   19  O   UNL     1      -7.355  10.502  68.165  1.00  0.00    -0.086 OA 
HETATM   20  O   UNL     1      -7.926   9.955  70.665  1.00  0.00    -0.257 OA 
HETATM   21  O   UNL     1      -7.871   8.149  68.788  1.00  0.00    -0.109 OA 
ENDBRANCH   6  17
TORSDOF 2
ENDMDL
MODEL       35
REMARK 921   NORMALIZED FREE ENERGY PREDICTED BY IDOCK:   -5.84 KCAL/MOL
REMARK 922        TOTAL FREE ENERGY PREDICTED BY IDOCK:   -6.93 KCAL/MOL
REMARK 923 INTER-LIGAND FREE ENERGY PREDICTED BY IDOCK:   -6.73 KCAL/MOL
REMARK 924 INTRA-LIGAND FREE ENERGY PREDICTED BY IDOCK:   -0.20 KCAL/MOL
REMARK 927      BINDING AFFINITY PREDICTED BY RF-SCORE:    0.00 PKD
ROOT
HETATM    1  C   UNL     1     -12.567  14.311  65.381  1.00  0.00    -0.422 C  
HETATM    2  C   UNL     1     -11.153  14.570  65.842  1.00  0.00    -0.327 A  
HETATM    3  C   UNL     1     -10.243  13.708  66.504  1.00  0.00    -0.284 A  
HETATM    4  C   UNL     1      -8.948  14.170  66.870  1.00  0.00    -0.247 A  
HETATM    5  C   UNL     1     -10.748  15.894  65.593  1.00  0.00    -0.350 A  
HETATM    6  C   UNL     1      -9.491  16.357  65.957  1.00  0.00    -0.310 A  
HETATM    7  C   UNL     1      -8.012  13.349  67.536  1.00  0.00    -0.186 A  
HETATM    8  C   UNL     1      -8.576  15.513  66.597  1.00  0.00    -0.325 A  
HETATM    9  C   UNL     1      -7.305  15.977  66.992  1.00  0.00    -0.258 A  
HETATM   10  C   UNL     1      -6.407  15.142  67.650  1.00  0.00    -0.164 A  
HETATM   11  C   UNL     1      -6.760  13.828  67.924  1.00  0.00    -0.162 A  
ENDROOT
BRANCH   3  12
HETATM   12  O   UNL     1     -10.504  12.392  66.881  1.00  0.00    -0.223 OA 
HETATM   13  O   UNL     1     -10.038  11.511  68.913  1.00  0.00    -0.199 OA 
HETATM   14  O   UNL     1     -12.224  12.044  69.651  1.00  0.00    -0.235 OA 
HETATM   15  P   UNL     1     -11.411  12.209  68.343  1.00  0.00    -0.349 P  
HETATM   16  O   UNL     1     -11.994  10.857  67.616  1.00  0.00    -0.512 OA 
ENDBRANCH   3  12
BRANCH   6  17
HETATM   17  O   UNL     1      -9.181  17.682  65.818  1.00  0.00    -0.505 OA 
HETATM   18  P   UNL     1     -10.022  18.883  66.465  1.00  0.00    -0.427 P  
HETATM   19  O   UNL     1     -10.985  19.302  65.259  1.00  0.00    -0.487 OA 
HETATM   20  O   UNL     1     -10.666  18.679  67.786  1.00  0.00    -0.409 OA 
HETATM   21  O   UNL     1      -8.913  20.042  66.423  1.00  0.00    -0.351 OA 
ENDBRANCH   6  17
TORSDOF 2
ENDMDL
MODEL       36
REMARK 921   NORMALIZED FREE ENERGY PREDICTED BY IDOCK:   -5.83 KCAL/MOL
REMARK 922        TOTAL FREE ENERGY PREDICTED BY IDOCK:   -6.92 KCAL/MOL
REMARK 923 INTER-LIGAND FREE ENERGY PREDICTED BY IDOCK:   -6.55 KCAL/MOL
REMARK 924 INTRA-LIGAND FREE ENERGY PREDICTED BY IDOCK:   -0.38 KCAL/MOL
REMARK 927      BINDING AFFINITY PREDICTED BY RF-SCORE:    0.00 PKD
ROOT
HETATM    1  C   UNL     1      -9.083  15.403  69.296  1.00  0.00    -0.260 C  
HETATM    2  C   UNL     1      -9.703  14.674  68.128  1.00  0.00    -0.220 A  
HETATM    3  C   UNL     1     -10.447  15.183  67.034  1.00  0.00    -0.282 A  
HETATM    4  C   UNL     1     -10.962  14.304  66.041  1.00  0.00    -0.312 A  
HETATM    5  C   UNL     1      -9.523  13.282  68.215  1.00  0.00    -0.209 A  
HETATM    6  C   UNL     1     -10.033  12.415  67.258  1.00  0.00    -0.206 A  
HETATM    7  C   UNL     1     -11.713  14.765  64.938  1.00  0.00    -0.390 A  
HETATM    8  C   UNL     1     -10.755  12.904  66.164  1.00  0.00    -0.290 A  
HETATM    9  C   UNL     1     -11.297  12.033  65.197  1.00  0.00    -0.359 A  
HETATM   10  C   UNL     1     -12.036  12.520  64.123  1.00  0.00    -0.508 A  
HETATM   11  C   UNL     1     -12.245  13.886  63.994  1.00  0.00    -0.413 A  
ENDROOT
BRANCH   3  12
HETATM   12  O   UNL     1     -10.769  16.523  66.828  1.00  0.00    -0.267 OA 
HETATM   13  O   UNL     1      -9.718  18.270  67.809  1.00  0.00    -0.282 OA 
HETATM   14  O   UNL     1      -8.264  18.447  65.948  1.00  0.00    -0.505 OA 
HETATM   15  P   UNL     1      -9.447  17.538  66.365  1.00  0.00    -0.194 P  
HETATM   16  O   UNL     1     -10.594  18.372  65.537  1.00  0.00    -0.627 OA 
ENDBRANCH   3  12
BRANCH   6  17
HETATM   17  O   UNL     1      -9.951  11.062  67.445  1.00  0.00    -0.178 OA 
HETATM   18  P   UNL     1     -10.772  10.250  68.556  1.00  0.00    -0.252 P  
HETATM   19  O   UNL     1      -9.715  10.164  69.753  1.00  0.00    -0.230 OA 
HETATM   20  O   UNL     1     -12.140  10.701  68.912  1.00  0.00    -0.361 OA 
HETATM   21  O   UNL     1     -10.685   8.775  67.930  1.00  0.00    -0.203 OA 
ENDBRANCH   6  17
TORSDOF 2
ENDMDL
MODEL       37
REMARK 921   NORMALIZED FREE ENERGY PREDICTED BY IDOCK:   -5.80 KCAL/MOL
REMARK 922        TOTAL FREE ENERGY PREDICTED BY IDOCK:   -6.89 KCAL/MOL
REMARK 923 INTER-LIGAND FREE ENERGY PREDICTED BY IDOCK:   -6.50 KCAL/MOL
REMARK 924 INTRA-LIGAND FREE ENERGY PREDICTED BY IDOCK:   -0.39 KCAL/MOL
REMARK 927      BINDING AFFINITY PREDICTED BY RF-SCORE:    0.00 PKD
ROOT
HETATM    1  C   UNL     1      -7.128  13.303  68.397  1.00  0.00    -0.107 C  
HETATM    2  C   UNL     1      -8.263  13.721  67.493  1.00  0.00    -0.194 A  
HETATM    3  C   UNL     1      -9.346  12.960  66.986  1.00  0.00    -0.235 A  
HETATM    4  C   UNL     1     -10.305  13.557  66.122  1.00  0.00    -0.296 A  
HETATM    5  C   UNL     1      -8.151  15.063  67.087  1.00  0.00    -0.245 A  
HETATM    6  C   UNL     1      -9.075  15.652  66.234  1.00  0.00    -0.341 A  
HETATM    7  C   UNL     1     -11.396  12.837  65.590  1.00  0.00    -0.354 A  
HETATM    8  C   UNL     1     -10.158  14.917  65.740  1.00  0.00    -0.367 A  
HETATM    9  C   UNL     1     -11.091  15.495  64.855  1.00  0.00    -0.428 A  
HETATM   10  C   UNL     1     -12.154  14.755  64.345  1.00  0.00    -0.457 A  
HETATM   11  C   UNL     1     -12.306  13.425  64.711  1.00  0.00    -0.444 A  
ENDROOT
BRANCH   3  12
HETATM   12  O   UNL     1      -9.570  11.608  67.236  1.00  0.00    -0.173 OA 
HETATM   13  O   UNL     1      -9.048  10.545  69.165  1.00  0.00    -0.178 OA 
HETATM   14  O   UNL     1     -11.233  10.948  69.984  1.00  0.00    -0.281 OA 
HETATM   15  P   UNL     1     -10.447  11.260  68.687  1.00  0.00    -0.212 P  
HETATM   16  O   UNL     1     -11.011   9.972  67.840  1.00  0.00    -0.274 OA 
ENDBRANCH   3  12
BRANCH   6  17
HETATM   17  O   UNL     1      -8.862  16.917  65.759  1.00  0.00    -0.522 OA 
HETATM   18  P   UNL     1      -9.045  18.252  66.625  1.00  0.00    -0.266 P  
HETATM   19  O   UNL     1     -10.534  18.695  66.243  1.00  0.00    -0.416 OA 
HETATM   20  O   UNL     1      -8.715  18.223  68.071  1.00  0.00    -0.263 OA 
HETATM   21  O   UNL     1      -8.163  19.265  65.748  1.00  0.00    -0.445 OA 
ENDBRANCH   6  17
TORSDOF 2
ENDMDL
MODEL       38
REMARK 921   NORMALIZED FREE ENERGY PREDICTED BY IDOCK:   -5.76 KCAL/MOL
REMARK 922        TOTAL FREE ENERGY PREDICTED BY IDOCK:   -6.85 KCAL/MOL
REMARK 923 INTER-LIGAND FREE ENERGY PREDICTED BY IDOCK:   -6.41 KCAL/MOL
REMARK 924 INTRA-LIGAND FREE ENERGY PREDICTED BY IDOCK:   -0.45 KCAL/MOL
REMARK 927      BINDING AFFINITY PREDICTED BY RF-SCORE:    0.00 PKD
ROOT
HETATM    1  C   UNL     1     -12.410  14.830  64.165  1.00  0.00    -0.259 C  
HETATM    2  C   UNL     1     -11.150  14.925  64.991  1.00  0.00    -0.422 A  
HETATM    3  C   UNL     1     -10.429  13.907  65.664  1.00  0.00    -0.312 A  
HETATM    4  C   UNL     1      -9.261  14.225  66.412  1.00  0.00    -0.226 A  
HETATM    5  C   UNL     1     -10.696  16.250  65.116  1.00  0.00    -0.350 A  
HETATM    6  C   UNL     1      -9.565  16.572  65.854  1.00  0.00    -0.248 A  
HETATM    7  C   UNL     1      -8.514  13.245  67.102  1.00  0.00    -0.182 A  
HETATM    8  C   UNL     1      -8.833  15.575  66.509  1.00  0.00    -0.348 A  
HETATM    9  C   UNL     1      -7.695  15.890  67.280  1.00  0.00    -0.224 A  
HETATM   10  C   UNL     1      -6.984  14.901  67.952  1.00  0.00    -0.170 A  
HETATM   11  C   UNL     1      -7.394  13.577  67.864  1.00  0.00    -0.149 A  
ENDROOT
BRANCH   3  12
HETATM   12  O   UNL     1     -10.775  12.558  65.696  1.00  0.00    -0.256 OA 
HETATM   13  O   UNL     1     -11.881  11.467  64.051  1.00  0.00    -0.265 OA 
HETATM   14  O   UNL     1      -9.818  10.805  63.096  1.00  0.00    -0.319 OA 
HETATM   15  P   UNL     1     -10.270  11.633  64.323  1.00  0.00    -0.367 P  
HETATM   16  O   UNL     1     -10.156  10.402  65.403  1.00  0.00    -0.277 OA 
ENDBRANCH   3  12
BRANCH   6  17
HETATM   17  O   UNL     1      -9.229  17.882  66.060  1.00  0.00    -0.509 OA 
HETATM   18  P   UNL     1     -10.166  18.952  66.799  1.00  0.00    -0.452 P  
HETATM   19  O   UNL     1     -10.899  19.659  65.565  1.00  0.00    -0.452 OA 
HETATM   20  O   UNL     1     -11.034  18.499  67.913  1.00  0.00    -0.286 OA 
HETATM   21  O   UNL     1      -9.062  20.045  67.200  1.00  0.00    -0.331 OA 
ENDBRANCH   6  17
TORSDOF 2
ENDMDL
MODEL       39
REMARK 921   NORMALIZED FREE ENERGY PREDICTED BY IDOCK:   -5.75 KCAL/MOL
REMARK 922        TOTAL FREE ENERGY PREDICTED BY IDOCK:   -6.84 KCAL/MOL
REMARK 923 INTER-LIGAND FREE ENERGY PREDICTED BY IDOCK:   -6.81 KCAL/MOL
REMARK 924 INTRA-LIGAND FREE ENERGY PREDICTED BY IDOCK:   -0.03 KCAL/MOL
REMARK 927      BINDING AFFINITY PREDICTED BY RF-SCORE:    0.00 PKD
ROOT
HETATM    1  C   UNL     1      -9.679  16.068  66.054  1.00  0.00    -0.376 C  
HETATM    2  C   UNL     1     -10.384  15.634  67.317  1.00  0.00    -0.277 A  
HETATM    3  C   UNL     1     -10.513  16.305  68.559  1.00  0.00    -0.278 A  
HETATM    4  C   UNL     1     -11.212  15.696  69.638  1.00  0.00    -0.310 A  
HETATM    5  C   UNL     1     -10.934  14.345  67.201  1.00  0.00    -0.305 A  
HETATM    6  C   UNL     1     -11.608  13.737  68.253  1.00  0.00    -0.338 A  
HETATM    7  C   UNL     1     -11.360  16.325  70.894  1.00  0.00    -0.319 A  
HETATM    8  C   UNL     1     -11.757  14.395  69.479  1.00  0.00    -0.362 A  
HETATM    9  C   UNL     1     -12.419  13.781  70.562  1.00  0.00    -0.409 A  
HETATM   10  C   UNL     1     -12.544  14.427  71.788  1.00  0.00    -0.427 A  
HETATM   11  C   UNL     1     -12.014  15.698  71.955  1.00  0.00    -0.544 A  
ENDROOT
BRANCH   3  12
HETATM   12  O   UNL     1      -9.975  17.554  68.862  1.00  0.00    -0.317 OA 
HETATM   13  O   UNL     1      -8.739  18.809  67.442  1.00  0.00    -0.270 OA 
HETATM   14  O   UNL     1     -10.693  19.941  66.732  1.00  0.00    -0.466 OA 
HETATM   15  P   UNL     1     -10.354  18.814  67.737  1.00  0.00    -0.398 P  
HETATM   16  O   UNL     1     -10.279  19.787  69.057  1.00  0.00    -0.434 OA 
ENDBRANCH   3  12
BRANCH   6  17
HETATM   17  O   UNL     1     -12.015  12.436  68.147  1.00  0.00    -0.344 OA 
HETATM   18  P   UNL     1     -11.023  11.180  68.061  1.00  0.00    -0.302 P  
HETATM   19  O   UNL     1     -10.916  10.949  66.482  1.00  0.00    -0.223 OA 
HETATM   20  O   UNL     1      -9.744  11.222  68.811  1.00  0.00    -0.205 OA 
HETATM   21  O   UNL     1     -12.030  10.011  68.501  1.00  0.00     0.097 OA 
ENDBRANCH   6  17
TORSDOF 2
ENDMDL
MODEL       40
REMARK 921   NORMALIZED FREE ENERGY PREDICTED BY IDOCK:   -5.75 KCAL/MOL
REMARK 922        TOTAL FREE ENERGY PREDICTED BY IDOCK:   -6.83 KCAL/MOL
REMARK 923 INTER-LIGAND FREE ENERGY PREDICTED BY IDOCK:   -6.54 KCAL/MOL
REMARK 924 INTRA-LIGAND FREE ENERGY PREDICTED BY IDOCK:   -0.30 KCAL/MOL
REMARK 927      BINDING AFFINITY PREDICTED BY RF-SCORE:    0.00 PKD
ROOT
HETATM    1  C   UNL     1     -10.571  14.021  65.677  1.00  0.00    -0.313 C  
HETATM    2  C   UNL     1     -11.084  13.389  66.949  1.00  0.00    -0.309 A  
HETATM    3  C   UNL     1     -11.566  13.998  68.134  1.00  0.00    -0.334 A  
HETATM    4  C   UNL     1     -11.987  13.202  69.235  1.00  0.00    -0.344 A  
HETATM    5  C   UNL     1     -11.005  11.985  66.912  1.00  0.00    -0.328 A  
HETATM    6  C   UNL     1     -11.402  11.199  67.986  1.00  0.00    -0.312 A  
HETATM    7  C   UNL     1     -12.469  13.766  70.436  1.00  0.00    -0.384 A  
HETATM    8  C   UNL     1     -11.895  11.787  69.156  1.00  0.00    -0.389 A  
HETATM    9  C   UNL     1     -12.281  11.003  70.262  1.00  0.00    -0.447 A  
HETATM   10  C   UNL     1     -12.747  11.590  71.434  1.00  0.00    -0.469 A  
HETATM   11  C   UNL     1     -12.841  12.972  71.522  1.00  0.00    -0.386 A  
ENDROOT
BRANCH   3  12
HETATM   12  O   UNL     1     -11.651  15.371  68.360  1.00  0.00    -0.341 OA 
HETATM   13  O   UNL     1     -10.787  16.442  70.156  1.00  0.00    -0.331 OA 
HETATM   14  O   UNL     1      -8.796  16.873  68.948  1.00  0.00    -0.262 OA 
HETATM   15  P   UNL     1     -10.144  16.163  68.671  1.00  0.00    -0.258 P  
HETATM   16  O   UNL     1     -10.858  17.447  67.937  1.00  0.00    -0.375 OA 
ENDBRANCH   3  12
BRANCH   6  17
HETATM   17  O   UNL     1     -11.189   9.849  67.964  1.00  0.00    -0.214 OA 
HETATM   18  P   UNL     1      -9.767   9.160  67.696  1.00  0.00    -0.178 P  
HETATM   19  O   UNL     1      -9.834   8.860  66.126  1.00  0.00    -0.271 OA 
HETATM   20  O   UNL     1      -8.539   9.830  68.189  1.00  0.00    -0.118 OA 
HETATM   21  O   UNL     1     -10.047   7.710  68.323  1.00  0.00    -0.174 OA 
ENDBRANCH   6  17
TORSDOF 2
ENDMDL
MODEL       41
REMARK 921   NORMALIZED FREE ENERGY PREDICTED BY IDOCK:   -5.71 KCAL/MOL
REMARK 922        TOTAL FREE ENERGY PREDICTED BY IDOCK:   -6.80 KCAL/MOL
REMARK 923 INTER-LIGAND FREE ENERGY PREDICTED BY IDOCK:   -6.44 KCAL/MOL
REMARK 924 INTRA-LIGAND FREE ENERGY PREDICTED BY IDOCK:   -0.36 KCAL/MOL
REMARK 927      BINDING AFFINITY PREDICTED BY RF-SCORE:    0.00 PKD
ROOT
HETATM    1  C   UNL     1     -11.806  10.729  70.403  1.00  0.00    -0.450 C  
HETATM    2  C   UNL     1     -11.620  11.523  69.132  1.00  0.00    -0.382 A  
HETATM    3  C   UNL     1     -11.313  11.079  67.822  1.00  0.00    -0.292 A  
HETATM    4  C   UNL     1     -11.161  12.014  66.760  1.00  0.00    -0.376 A  
HETATM    5  C   UNL     1     -11.734  12.908  69.351  1.00  0.00    -0.382 A  
HETATM    6  C   UNL     1     -11.576  13.829  68.324  1.00  0.00    -0.338 A  
HETATM    7  C   UNL     1     -10.850  11.617  65.441  1.00  0.00    -0.336 A  
HETATM    8  C   UNL     1     -11.289  13.403  67.022  1.00  0.00    -0.346 A  
HETATM    9  C   UNL     1     -11.103  14.328  65.975  1.00  0.00    -0.319 A  
HETATM   10  C   UNL     1     -10.793  13.904  64.687  1.00  0.00    -0.420 A  
HETATM   11  C   UNL     1     -10.665  12.548  64.419  1.00  0.00    -0.379 A  
ENDROOT
BRANCH   3  12
HETATM   12  O   UNL     1     -11.104   9.753  67.446  1.00  0.00    -0.210 OA 
HETATM   13  O   UNL     1      -9.218   8.965  66.476  1.00  0.00    -0.158 OA 
HETATM   14  O   UNL     1      -8.360   8.384  68.605  1.00  0.00    -0.118 OA 
HETATM   15  P   UNL     1      -9.655   9.031  68.057  1.00  0.00    -0.156 P  
HETATM   16  O   UNL     1     -10.538   7.647  68.043  1.00  0.00    -0.205 OA 
ENDBRANCH   3  12
BRANCH   6  17
HETATM   17  O   UNL     1     -11.565  15.169  68.599  1.00  0.00    -0.309 OA 
HETATM   18  P   UNL     1     -10.508  15.886  69.567  1.00  0.00    -0.318 P  
HETATM   19  O   UNL     1     -11.303  15.925  70.955  1.00  0.00    -0.359 OA 
HETATM   20  O   UNL     1      -9.116  15.375  69.617  1.00  0.00    -0.263 OA 
HETATM   21  O   UNL     1     -10.659  17.399  69.056  1.00  0.00    -0.323 OA 
ENDBRANCH   6  17
TORSDOF 2
ENDMDL
MODEL       42
REMARK 921   NORMALIZED FREE ENERGY PREDICTED BY IDOCK:   -5.66 KCAL/MOL
REMARK 922        TOTAL FREE ENERGY PREDICTED BY IDOCK:   -6.74 KCAL/MOL
REMARK 923 INTER-LIGAND FREE ENERGY PREDICTED BY IDOCK:   -6.35 KCAL/MOL
REMARK 924 INTRA-LIGAND FREE ENERGY PREDICTED BY IDOCK:   -0.39 KCAL/MOL
REMARK 927      BINDING AFFINITY PREDICTED BY RF-SCORE:    0.00 PKD
ROOT
HETATM    1  C   UNL     1     -12.529  13.186  70.857  1.00  0.00    -0.407 C  
HETATM    2  C   UNL     1     -11.921  12.313  69.784  1.00  0.00    -0.365 A  
HETATM    3  C   UNL     1     -11.640  12.609  68.427  1.00  0.00    -0.328 A  
HETATM    4  C   UNL     1     -11.076  11.619  67.575  1.00  0.00    -0.333 A  
HETATM    5  C   UNL     1     -11.658  11.011  70.246  1.00  0.00    -0.414 A  
HETATM    6  C   UNL     1     -11.120  10.034  69.419  1.00  0.00    -0.223 A  
HETATM    7  C   UNL     1     -10.785  11.866  66.216  1.00  0.00    -0.309 A  
HETATM    8  C   UNL     1     -10.822  10.317  68.081  1.00  0.00    -0.312 A  
HETATM    9  C   UNL     1     -10.296   9.328  67.225  1.00  0.00    -0.332 A  
HETATM   10  C   UNL     1     -10.024   9.604  65.888  1.00  0.00    -0.351 A  
HETATM   11  C   UNL     1     -10.270  10.873  65.383  1.00  0.00    -0.339 A  
ENDROOT
BRANCH   3  12
HETATM   12  O   UNL     1     -11.896  13.824  67.794  1.00  0.00    -0.337 OA 
HETATM   13  O   UNL     1     -11.848  15.846  68.810  1.00  0.00    -0.393 OA 
HETATM   14  O   UNL     1      -9.582  16.116  68.176  1.00  0.00    -0.213 OA 
HETATM   15  P   UNL     1     -10.675  15.033  67.997  1.00  0.00    -0.278 P  
HETATM   16  O   UNL     1     -11.143  15.519  66.500  1.00  0.00    -0.287 OA 
ENDBRANCH   3  12
BRANCH   6  17
HETATM   17  O   UNL     1     -11.000   8.747  69.865  1.00  0.00    -0.239 OA 
HETATM   18  P   UNL     1      -9.836   8.229  70.836  1.00  0.00    -0.196 P  
HETATM   19  O   UNL     1      -8.774   7.637  69.796  1.00  0.00    -0.138 OA 
HETATM   20  O   UNL     1      -9.304   9.146  71.874  1.00  0.00    -0.349 OA 
HETATM   21  O   UNL     1     -10.527   6.895  71.399  1.00  0.00    -0.209 OA 
ENDBRANCH   6  17
TORSDOF 2
ENDMDL
MODEL       43
REMARK 921   NORMALIZED FREE ENERGY PREDICTED BY IDOCK:   -5.63 KCAL/MOL
REMARK 922        TOTAL FREE ENERGY PREDICTED BY IDOCK:   -6.71 KCAL/MOL
REMARK 923 INTER-LIGAND FREE ENERGY PREDICTED BY IDOCK:   -6.30 KCAL/MOL
REMARK 924 INTRA-LIGAND FREE ENERGY PREDICTED BY IDOCK:   -0.40 KCAL/MOL
REMARK 927      BINDING AFFINITY PREDICTED BY RF-SCORE:    0.00 PKD
ROOT
HETATM    1  C   UNL     1     -12.429  11.699  70.848  1.00  0.00    -0.440 C  
HETATM    2  C   UNL     1     -11.734  10.961  69.729  1.00  0.00    -0.413 A  
HETATM    3  C   UNL     1     -10.986   9.757  69.764  1.00  0.00    -0.256 A  
HETATM    4  C   UNL     1     -10.392   9.242  68.579  1.00  0.00    -0.237 A  
HETATM    5  C   UNL     1     -11.838  11.639  68.501  1.00  0.00    -0.357 A  
HETATM    6  C   UNL     1     -11.252  11.151  67.341  1.00  0.00    -0.294 A  
HETATM    7  C   UNL     1      -9.635   8.051  68.568  1.00  0.00    -0.159 A  
HETATM    8  C   UNL     1     -10.525   9.955  67.358  1.00  0.00    -0.325 A  
HETATM    9  C   UNL     1      -9.905   9.459  66.193  1.00  0.00    -0.356 A  
HETATM   10  C   UNL     1      -9.162   8.284  66.217  1.00  0.00    -0.258 A  
HETATM   11  C   UNL     1      -9.025   7.579  67.405  1.00  0.00    -0.129 A  
ENDROOT
BRANCH   3  12
HETATM   12  O   UNL     1     -10.732   8.996  70.904  1.00  0.00    -0.216 OA 
HETATM   13  O   UNL     1     -12.167   8.744  72.636  1.00  0.00    -0.333 OA 
HETATM   14  O   UNL     1     -13.027   6.774  71.643  1.00  0.00    -0.345 OA 
HETATM   15  P   UNL     1     -11.944   7.824  71.294  1.00  0.00    -0.279 P  
HETATM   16  O   UNL     1     -10.681   6.962  71.891  1.00  0.00    -0.215 OA 
ENDBRANCH   3  12
BRANCH   6  17
HETATM   17  O   UNL     1     -11.264  11.901  66.198  1.00  0.00    -0.319 OA 
HETATM   18  P   UNL     1     -10.767  13.421  66.107  1.00  0.00    -0.291 P  
HETATM   19  O   UNL     1     -12.136  14.230  66.279  1.00  0.00    -0.415 OA 
HETATM   20  O   UNL     1      -9.630  13.858  66.954  1.00  0.00    -0.250 OA 
HETATM   21  O   UNL     1     -10.515  13.528  64.526  1.00  0.00    -0.418 OA 
ENDBRANCH   6  17
TORSDOF 2
ENDMDL
MODEL       44
REMARK 921   NORMALIZED FREE ENERGY PREDICTED BY IDOCK:   -5.63 KCAL/MOL
REMARK 922        TOTAL FREE ENERGY PREDICTED BY IDOCK:   -6.71 KCAL/MOL
REMARK 923 INTER-LIGAND FREE ENERGY PREDICTED BY IDOCK:   -6.33 KCAL/MOL
REMARK 924 INTRA-LIGAND FREE ENERGY PREDICTED BY IDOCK:   -0.38 KCAL/MOL
REMARK 927      BINDING AFFINITY PREDICTED BY RF-SCORE:    0.00 PKD
ROOT
HETATM    1  C   UNL     1     -11.686   9.298  71.652  1.00  0.00    -0.462 C  
HETATM    2  C   UNL     1     -11.508  10.414  70.651  1.00  0.00    -0.438 A  
HETATM    3  C   UNL     1     -10.586  10.534  69.582  1.00  0.00    -0.242 A  
HETATM    4  C   UNL     1     -10.578  11.697  68.762  1.00  0.00    -0.241 A  
HETATM    5  C   UNL     1     -12.382  11.489  70.894  1.00  0.00    -0.460 A  
HETATM    6  C   UNL     1     -12.374  12.633  70.108  1.00  0.00    -0.152 A  
HETATM    7  C   UNL     1      -9.674  11.861  67.690  1.00  0.00    -0.186 A  
HETATM    8  C   UNL     1     -11.480  12.758  69.038  1.00  0.00    -0.360 A  
HETATM    9  C   UNL     1     -11.446  13.923  68.245  1.00  0.00    -0.346 A  
HETATM   10  C   UNL     1     -10.539  14.055  67.198  1.00  0.00    -0.274 A  
HETATM   11  C   UNL     1      -9.652  13.025  66.921  1.00  0.00    -0.243 A  
ENDROOT
BRANCH   3  12
HETATM   12  O   UNL     1      -9.613   9.594  69.244  1.00  0.00    -0.167 OA 
HETATM   13  O   UNL     1      -9.898   7.351  69.329  1.00  0.00    -0.164 OA 
HETATM   14  O   UNL     1     -10.545   7.342  67.051  1.00  0.00    -0.306 OA 
HETATM   15  P   UNL     1     -10.105   8.405  68.087  1.00  0.00    -0.209 P  
HETATM   16  O   UNL     1      -8.529   8.437  67.631  1.00  0.00    -0.128 OA 
ENDBRANCH   3  12
BRANCH   6  17
HETATM   17  O   UNL     1     -13.146  13.709  70.452  1.00  0.00    -0.045 OA 
HETATM   18  P   UNL     1     -12.842  14.683  71.687  1.00  0.00    -0.385 P  
HETATM   19  O   UNL     1     -13.756  14.053  72.840  1.00  0.00    -0.677 OA 
HETATM   20  O   UNL     1     -11.432  14.972  72.046  1.00  0.00    -0.389 OA 
HETATM   21  O   UNL     1     -13.705  15.960  71.241  1.00  0.00    -0.455 OA 
ENDBRANCH   6  17
TORSDOF 2
ENDMDL
MODEL       45
REMARK 921   NORMALIZED FREE ENERGY PREDICTED BY IDOCK:   -5.62 KCAL/MOL
REMARK 922        TOTAL FREE ENERGY PREDICTED BY IDOCK:   -6.69 KCAL/MOL
REMARK 923 INTER-LIGAND FREE ENERGY PREDICTED BY IDOCK:   -6.85 KCAL/MOL
REMARK 924 INTRA-LIGAND FREE ENERGY PREDICTED BY IDOCK:    0.16 KCAL/MOL
REMARK 927      BINDING AFFINITY PREDICTED BY RF-SCORE:    0.00 PKD
ROOT
HETATM    1  C   UNL     1     -11.832  13.391  69.741  1.00  0.00    -0.393 C  
HETATM    2  C   UNL     1     -11.308  12.142  69.073  1.00  0.00    -0.329 A  
HETATM    3  C   UNL     1     -10.751  11.971  67.781  1.00  0.00    -0.210 A  
HETATM    4  C   UNL     1     -10.334  10.684  67.340  1.00  0.00    -0.262 A  
HETATM    5  C   UNL     1     -11.466  11.002  69.882  1.00  0.00    -0.400 A  
HETATM    6  C   UNL     1     -11.074   9.740  69.456  1.00  0.00    -0.192 A  
HETATM    7  C   UNL     1      -9.779  10.466  66.061  1.00  0.00    -0.265 A  
HETATM    8  C   UNL     1     -10.506   9.559  68.190  1.00  0.00    -0.268 A  
HETATM    9  C   UNL     1     -10.124   8.280  67.735  1.00  0.00    -0.262 A  
HETATM   10  C   UNL     1      -9.584   8.099  66.467  1.00  0.00    -0.303 A  
HETATM   11  C   UNL     1      -9.412   9.191  65.628  1.00  0.00    -0.309 A  
ENDROOT
BRANCH   3  12
HETATM   12  O   UNL     1     -10.583  12.978  66.833  1.00  0.00    -0.252 OA 
HETATM   13  O   UNL     1     -11.315  12.877  64.695  1.00  0.00    -0.301 OA 
HETATM   14  O   UNL     1     -13.326  13.956  65.327  1.00  0.00    -0.732 OA 
HETATM   15  P   UNL     1     -12.031  13.493  66.038  1.00  0.00    -0.445 P  
HETATM   16  O   UNL     1     -11.278  14.951  65.974  1.00  0.00    -0.337 OA 
ENDBRANCH   3  12
BRANCH   6  17
HETATM   17  O   UNL     1     -11.361   8.639  70.215  1.00  0.00    -0.235 OA 
HETATM   18  P   UNL     1     -12.035   8.691  71.668  1.00  0.00    -0.376 P  
HETATM   19  O   UNL     1     -10.758   8.634  72.629  1.00  0.00    -0.241 OA 
HETATM   20  O   UNL     1     -13.036   9.747  71.959  1.00  0.00    -0.400 OA 
HETATM   21  O   UNL     1     -12.588   7.188  71.762  1.00  0.00    -0.335 OA 
ENDBRANCH   6  17
TORSDOF 2
ENDMDL
MODEL       46
REMARK 921   NORMALIZED FREE ENERGY PREDICTED BY IDOCK:   -5.61 KCAL/MOL
REMARK 922        TOTAL FREE ENERGY PREDICTED BY IDOCK:   -6.68 KCAL/MOL
REMARK 923 INTER-LIGAND FREE ENERGY PREDICTED BY IDOCK:   -6.27 KCAL/MOL
REMARK 924 INTRA-LIGAND FREE ENERGY PREDICTED BY IDOCK:   -0.41 KCAL/MOL
REMARK 927      BINDING AFFINITY PREDICTED BY RF-SCORE:    0.00 PKD
ROOT
HETATM    1  C   UNL     1     -11.266  10.024  69.863  1.00  0.00    -0.327 C  
HETATM    2  C   UNL     1     -11.259  11.490  69.500  1.00  0.00    -0.305 A  
HETATM    3  C   UNL     1     -10.407  12.200  68.618  1.00  0.00    -0.195 A  
HETATM    4  C   UNL     1     -10.564  13.603  68.436  1.00  0.00    -0.260 A  
HETATM    5  C   UNL     1     -12.232  12.217  70.209  1.00  0.00    -0.344 A  
HETATM    6  C   UNL     1     -12.385  13.587  70.048  1.00  0.00    -0.249 A  
HETATM    7  C   UNL     1      -9.736  14.352  67.573  1.00  0.00    -0.215 A  
HETATM    8  C   UNL     1     -11.563  14.299  69.168  1.00  0.00    -0.346 A  
HETATM    9  C   UNL     1     -11.692  15.694  69.012  1.00  0.00    -0.408 A  
HETATM   10  C   UNL     1     -10.857  16.403  68.155  1.00  0.00    -0.346 A  
HETATM   11  C   UNL     1      -9.877  15.733  67.436  1.00  0.00    -0.233 A  
ENDROOT
BRANCH   3  12
HETATM   12  O   UNL     1      -9.356  11.648  67.888  1.00  0.00    -0.163 OA 
HETATM   13  O   UNL     1      -9.248   9.493  67.206  1.00  0.00    -0.132 OA 
HETATM   14  O   UNL     1     -10.226  10.095  65.135  1.00  0.00    -0.306 OA 
HETATM   15  P   UNL     1      -9.816  10.828  66.436  1.00  0.00    -0.225 P  
HETATM   16  O   UNL     1      -8.355  11.335  65.884  1.00  0.00    -0.130 OA 
ENDBRANCH   3  12
BRANCH   6  17
HETATM   17  O   UNL     1     -13.252  14.279  70.849  1.00  0.00    -0.342 OA 
HETATM   18  P   UNL     1     -12.935  14.724  72.355  1.00  0.00    -0.428 P  
HETATM   19  O   UNL     1     -13.597  13.536  73.198  1.00  0.00    -0.411 OA 
HETATM   20  O   UNL     1     -11.546  15.097  72.718  1.00  0.00    -0.399 OA 
HETATM   21  O   UNL     1     -14.019  15.894  72.525  1.00  0.00    -0.511 OA 
ENDBRANCH   6  17
TORSDOF 2
ENDMDL
MODEL       47
REMARK 921   NORMALIZED FREE ENERGY PREDICTED BY IDOCK:   -5.55 KCAL/MOL
REMARK 922        TOTAL FREE ENERGY PREDICTED BY IDOCK:   -6.61 KCAL/MOL
REMARK 923 INTER-LIGAND FREE ENERGY PREDICTED BY IDOCK:   -6.28 KCAL/MOL
REMARK 924 INTRA-LIGAND FREE ENERGY PREDICTED BY IDOCK:   -0.34 KCAL/MOL
REMARK 927      BINDING AFFINITY PREDICTED BY RF-SCORE:    0.00 PKD
ROOT
HETATM    1  C   UNL     1     -12.471  11.933  71.061  1.00  0.00    -0.390 C  
HETATM    2  C   UNL     1     -11.932  11.674  69.674  1.00  0.00    -0.390 A  
HETATM    3  C   UNL     1     -11.451  10.471  69.100  1.00  0.00    -0.247 A  
HETATM    4  C   UNL     1     -10.964  10.454  67.763  1.00  0.00    -0.369 A  
HETATM    5  C   UNL     1     -11.880  12.845  68.898  1.00  0.00    -0.352 A  
HETATM    6  C   UNL     1     -11.395  12.841  67.597  1.00  0.00    -0.310 A  
HETATM    7  C   UNL     1     -10.470   9.281  67.152  1.00  0.00    -0.319 A  
HETATM    8  C   UNL     1     -10.932  11.658  67.011  1.00  0.00    -0.338 A  
HETATM    9  C   UNL     1     -10.416  11.644  65.699  1.00  0.00    -0.314 A  
HETATM   10  C   UNL     1      -9.933  10.471  65.127  1.00  0.00    -0.375 A  
HETATM   11  C   UNL     1      -9.959   9.289  65.854  1.00  0.00    -0.289 A  
ENDROOT
BRANCH   3  12
HETATM   12  O   UNL     1     -11.373   9.239  69.748  1.00  0.00    -0.149 OA 
HETATM   13  O   UNL     1      -9.485   8.013  69.973  1.00  0.00    -0.160 OA 
HETATM   14  O   UNL     1      -9.073   9.024  72.075  1.00  0.00    -0.375 OA 
HETATM   15  P   UNL     1     -10.159   9.126  70.975  1.00  0.00    -0.301 P  
HETATM   16  O   UNL     1     -11.213   8.090  71.690  1.00  0.00    -0.242 OA 
ENDBRANCH   3  12
BRANCH   6  17
HETATM   17  O   UNL     1     -11.238  14.019  66.919  1.00  0.00    -0.297 OA 
HETATM   18  P   UNL     1     -10.382  15.264  67.453  1.00  0.00    -0.264 P  
HETATM   19  O   UNL     1     -11.507  16.171  68.141  1.00  0.00    -0.326 OA 
HETATM   20  O   UNL     1      -9.160  15.006  68.254  1.00  0.00    -0.173 OA 
HETATM   21  O   UNL     1     -10.136  16.035  66.068  1.00  0.00    -0.297 OA 
ENDBRANCH   6  17
TORSDOF 2
ENDMDL
MODEL       48
REMARK 921   NORMALIZED FREE ENERGY PREDICTED BY IDOCK:   -5.53 KCAL/MOL
REMARK 922        TOTAL FREE ENERGY PREDICTED BY IDOCK:   -6.59 KCAL/MOL
REMARK 923 INTER-LIGAND FREE ENERGY PREDICTED BY IDOCK:   -6.30 KCAL/MOL
REMARK 924 INTRA-LIGAND FREE ENERGY PREDICTED BY IDOCK:   -0.29 KCAL/MOL
REMARK 927      BINDING AFFINITY PREDICTED BY RF-SCORE:    0.00 PKD
ROOT
HETATM    1  C   UNL     1     -12.698  11.691  71.354  1.00  0.00    -0.445 C  
HETATM    2  C   UNL     1     -11.878  10.778  70.474  1.00  0.00    -0.453 A  
HETATM    3  C   UNL     1     -11.671  10.816  69.072  1.00  0.00    -0.286 A  
HETATM    4  C   UNL     1     -10.865   9.832  68.435  1.00  0.00    -0.244 A  
HETATM    5  C   UNL     1     -11.294   9.725  71.200  1.00  0.00    -0.459 A  
HETATM    6  C   UNL     1     -10.516   8.753  70.586  1.00  0.00    -0.210 A  
HETATM    7  C   UNL     1     -10.637   9.827  67.042  1.00  0.00    -0.269 A  
HETATM    8  C   UNL     1     -10.290   8.787  69.206  1.00  0.00    -0.221 A  
HETATM    9  C   UNL     1      -9.521   7.794  68.565  1.00  0.00    -0.148 A  
HETATM   10  C   UNL     1      -9.318   7.816  67.189  1.00  0.00    -0.185 A  
HETATM   11  C   UNL     1      -9.877   8.831  66.426  1.00  0.00    -0.352 A  
ENDROOT
BRANCH   3  12
HETATM   12  O   UNL     1     -12.225  11.749  68.198  1.00  0.00    -0.507 OA 
HETATM   13  O   UNL     1     -12.372  13.971  68.603  1.00  0.00    -0.271 OA 
HETATM   14  O   UNL     1     -10.309  14.315  67.491  1.00  0.00    -0.246 OA 
HETATM   15  P   UNL     1     -11.214  13.103  67.826  1.00  0.00    -0.314 P  
HETATM   16  O   UNL     1     -11.980  13.065  66.375  1.00  0.00    -0.391 OA 
ENDBRANCH   3  12
BRANCH   6  17
HETATM   17  O   UNL     1     -10.074   7.674  71.302  1.00  0.00    -0.186 OA 
HETATM   18  P   UNL     1     -11.016   6.723  72.183  1.00  0.00    -0.260 P  
HETATM   19  O   UNL     1     -10.860   7.361  73.642  1.00  0.00    -0.346 OA 
HETATM   20  O   UNL     1     -12.401   6.457  71.722  1.00  0.00    -0.333 OA 
HETATM   21  O   UNL     1     -10.073   5.429  72.284  1.00  0.00    -0.176 OA 
ENDBRANCH   6  17
TORSDOF 2
ENDMDL
MODEL       49
REMARK 921   NORMALIZED FREE ENERGY PREDICTED BY IDOCK:   -5.49 KCAL/MOL
REMARK 922        TOTAL FREE ENERGY PREDICTED BY IDOCK:   -6.54 KCAL/MOL
REMARK 923 INTER-LIGAND FREE ENERGY PREDICTED BY IDOCK:   -6.29 KCAL/MOL
REMARK 924 INTRA-LIGAND FREE ENERGY PREDICTED BY IDOCK:   -0.25 KCAL/MOL
REMARK 927      BINDING AFFINITY PREDICTED BY RF-SCORE:    0.00 PKD
ROOT
HETATM    1  C   UNL     1     -10.206  10.969  64.618  1.00  0.00    -0.392 C  
HETATM    2  C   UNL     1     -10.423  10.659  66.080  1.00  0.00    -0.250 A  
HETATM    3  C   UNL     1     -11.348  11.219  66.997  1.00  0.00    -0.187 A  
HETATM    4  C   UNL     1     -11.369  10.789  68.353  1.00  0.00    -0.367 A  
HETATM    5  C   UNL     1      -9.513   9.700  66.560  1.00  0.00    -0.233 A  
HETATM    6  C   UNL     1      -9.517   9.283  67.884  1.00  0.00    -0.137 A  
HETATM    7  C   UNL     1     -12.268  11.321  69.302  1.00  0.00    -0.290 A  
HETATM    8  C   UNL     1     -10.436   9.814  68.796  1.00  0.00    -0.240 A  
HETATM    9  C   UNL     1     -10.436   9.416  70.149  1.00  0.00    -0.280 A  
HETATM   10  C   UNL     1     -11.334   9.964  71.060  1.00  0.00    -0.460 A  
HETATM   11  C   UNL     1     -12.249  10.918  70.637  1.00  0.00    -0.472 A  
ENDROOT
BRANCH   3  12
HETATM   12  O   UNL     1     -12.272  12.220  66.704  1.00  0.00    -0.574 OA 
HETATM   13  O   UNL     1     -12.232  14.310  67.569  1.00  0.00    -0.354 OA 
HETATM   14  O   UNL     1     -10.986  15.064  65.702  1.00  0.00    -0.331 OA 
HETATM   15  P   UNL     1     -11.593  13.721  66.176  1.00  0.00    -0.389 P  
HETATM   16  O   UNL     1     -12.972  13.844  65.295  1.00  0.00    -0.747 OA 
ENDBRANCH   3  12
BRANCH   6  17
HETATM   17  O   UNL     1      -8.537   8.448  68.344  1.00  0.00    -0.137 OA 
HETATM   18  P   UNL     1      -8.455   6.881  68.019  1.00  0.00    -0.123 P  
HETATM   19  O   UNL     1      -9.168   6.239  69.299  1.00  0.00    -0.133 OA 
HETATM   20  O   UNL     1      -8.914   6.396  66.694  1.00  0.00    -0.130 OA 
HETATM   21  O   UNL     1      -6.904   6.620  68.338  1.00  0.00    -0.068 OA 
ENDBRANCH   6  17
TORSDOF 2
ENDMDL
MODEL       50
REMARK 921   NORMALIZED FREE ENERGY PREDICTED BY IDOCK:   -5.49 KCAL/MOL
REMARK 922        TOTAL FREE ENERGY PREDICTED BY IDOCK:   -6.54 KCAL/MOL
REMARK 923 INTER-LIGAND FREE ENERGY PREDICTED BY IDOCK:   -6.12 KCAL/MOL
REMARK 924 INTRA-LIGAND FREE ENERGY PREDICTED BY IDOCK:   -0.42 KCAL/MOL
REMARK 927      BINDING AFFINITY PREDICTED BY RF-SCORE:    0.00 PKD
ROOT
HETATM    1  C   UNL     1      -9.193   7.225  68.439  1.00  0.00    -0.137 C  
HETATM    2  C   UNL     1     -10.019   8.272  69.146  1.00  0.00    -0.196 A  
HETATM    3  C   UNL     1     -11.022   8.119  70.136  1.00  0.00    -0.223 A  
HETATM    4  C   UNL     1     -11.698   9.256  70.660  1.00  0.00    -0.276 A  
HETATM    5  C   UNL     1      -9.744   9.570  68.679  1.00  0.00    -0.163 A  
HETATM    6  C   UNL     1     -10.407  10.685  69.175  1.00  0.00    -0.221 A  
HETATM    7  C   UNL     1     -12.707   9.150  71.642  1.00  0.00    -0.429 A  
HETATM    8  C   UNL     1     -11.387  10.550  70.165  1.00  0.00    -0.400 A  
HETATM    9  C   UNL     1     -12.084  11.670  70.661  1.00  0.00    -0.432 A  
HETATM   10  C   UNL     1     -13.076  11.531  71.627  1.00  0.00    -0.478 A  
HETATM   11  C   UNL     1     -13.389  10.270  72.117  1.00  0.00    -0.404 A  
ENDROOT
BRANCH   3  12
HETATM   12  O   UNL     1     -11.460   6.905  70.661  1.00  0.00    -0.297 OA 
HETATM   13  O   UNL     1     -10.228   5.008  70.735  1.00  0.00    -0.232 OA 
HETATM   14  O   UNL     1      -9.494   5.564  72.917  1.00  0.00    -0.141 OA 
HETATM   15  P   UNL     1     -10.422   6.197  71.851  1.00  0.00    -0.228 P  
HETATM   16  O   UNL     1     -11.820   5.609  72.480  1.00  0.00    -0.282 OA 
ENDBRANCH   3  12
BRANCH   6  17
HETATM   17  O   UNL     1     -10.206  11.912  68.607  1.00  0.00    -0.216 OA 
HETATM   18  P   UNL     1     -10.800  12.361  67.188  1.00  0.00    -0.267 P  
HETATM   19  O   UNL     1      -9.577  12.052  66.203  1.00  0.00    -0.232 OA 
HETATM   20  O   UNL     1     -12.129  11.852  66.770  1.00  0.00    -0.593 OA 
HETATM   21  O   UNL     1     -10.703  13.955  67.347  1.00  0.00    -0.268 OA 
ENDBRANCH   6  17
TORSDOF 2
ENDMDL
MODEL       51
REMARK 921   NORMALIZED FREE ENERGY PREDICTED BY IDOCK:   -5.45 KCAL/MOL
REMARK 922        TOTAL FREE ENERGY PREDICTED BY IDOCK:   -6.51 KCAL/MOL
REMARK 923 INTER-LIGAND FREE ENERGY PREDICTED BY IDOCK:   -6.37 KCAL/MOL
REMARK 924 INTRA-LIGAND FREE ENERGY PREDICTED BY IDOCK:   -0.14 KCAL/MOL
REMARK 927      BINDING AFFINITY PREDICTED BY RF-SCORE:    0.00 PKD
ROOT
HETATM    1  C   UNL     1      -7.023  15.313  67.740  1.00  0.00    -0.185 C  
HETATM    2  C   UNL     1      -8.219  14.730  67.025  1.00  0.00    -0.211 A  
HETATM    3  C   UNL     1      -9.162  15.359  66.175  1.00  0.00    -0.327 A  
HETATM    4  C   UNL     1     -10.239  14.615  65.616  1.00  0.00    -0.382 A  
HETATM    5  C   UNL     1      -8.402  13.368  67.323  1.00  0.00    -0.183 A  
HETATM    6  C   UNL     1      -9.456  12.636  66.793  1.00  0.00    -0.237 A  
HETATM    7  C   UNL     1     -11.204  15.201  64.769  1.00  0.00    -0.396 A  
HETATM    8  C   UNL     1     -10.385  13.240  65.938  1.00  0.00    -0.293 A  
HETATM    9  C   UNL     1     -11.473  12.515  65.411  1.00  0.00    -0.383 A  
HETATM   10  C   UNL     1     -12.410  13.123  64.582  1.00  0.00    -0.463 A  
HETATM   11  C   UNL     1     -12.277  14.467  64.261  1.00  0.00    -0.441 A  
ENDROOT
BRANCH   3  12
HETATM   12  O   UNL     1      -9.165  16.709  65.829  1.00  0.00    -0.502 OA 
HETATM   13  O   UNL     1     -10.540  18.269  66.721  1.00  0.00    -0.370 OA 
HETATM   14  O   UNL     1      -8.897  18.799  68.342  1.00  0.00    -0.322 OA 
HETATM   15  P   UNL     1      -9.024  17.811  67.155  1.00  0.00    -0.257 P  
HETATM   16  O   UNL     1      -8.245  18.762  66.067  1.00  0.00    -0.458 OA 
ENDBRANCH   3  12
BRANCH   6  17
HETATM   17  O   UNL     1      -9.676  11.351  67.207  1.00  0.00    -0.183 OA 
HETATM   18  P   UNL     1     -10.182  10.945  68.672  1.00  0.00    -0.204 P  
HETATM   19  O   UNL     1      -8.807  10.619  69.420  1.00  0.00    -0.127 OA 
HETATM   20  O   UNL     1     -11.124  11.845  69.382  1.00  0.00    -0.222 OA 
HETATM   21  O   UNL     1     -10.749   9.476  68.364  1.00  0.00    -0.221 OA 
ENDBRANCH   6  17
TORSDOF 2
ENDMDL
MODEL       52
REMARK 921   NORMALIZED FREE ENERGY PREDICTED BY IDOCK:   -5.44 KCAL/MOL
REMARK 922        TOTAL FREE ENERGY PREDICTED BY IDOCK:   -6.49 KCAL/MOL
REMARK 923 INTER-LIGAND FREE ENERGY PREDICTED BY IDOCK:   -6.24 KCAL/MOL
REMARK 924 INTRA-LIGAND FREE ENERGY PREDICTED BY IDOCK:   -0.25 KCAL/MOL
REMARK 927      BINDING AFFINITY PREDICTED BY RF-SCORE:    0.00 PKD
ROOT
HETATM    1  C   UNL     1      -8.722   8.501  68.015  1.00  0.00    -0.142 C  
HETATM    2  C   UNL     1      -9.847   8.710  69.000  1.00  0.00    -0.184 A  
HETATM    3  C   UNL     1     -10.511   9.904  69.378  1.00  0.00    -0.231 A  
HETATM    4  C   UNL     1     -11.545   9.877  70.355  1.00  0.00    -0.356 A  
HETATM    5  C   UNL     1     -10.217   7.515  69.643  1.00  0.00    -0.205 A  
HETATM    6  C   UNL     1     -11.216   7.480  70.607  1.00  0.00    -0.268 A  
HETATM    7  C   UNL     1     -12.229  11.041  70.765  1.00  0.00    -0.480 A  
HETATM    8  C   UNL     1     -11.892   8.649  70.977  1.00  0.00    -0.303 A  
HETATM    9  C   UNL     1     -12.893   8.631  71.970  1.00  0.00    -0.425 A  
HETATM   10  C   UNL     1     -13.546   9.798  72.354  1.00  0.00    -0.328 A  
HETATM   11  C   UNL     1     -13.213  11.004  71.753  1.00  0.00    -0.505 A  
ENDROOT
BRANCH   3  12
HETATM   12  O   UNL     1     -10.225  11.177  68.888  1.00  0.00    -0.198 OA 
HETATM   13  O   UNL     1      -9.760  11.656  66.726  1.00  0.00    -0.196 OA 
HETATM   14  O   UNL     1     -12.046  12.135  66.335  1.00  0.00    -0.630 OA 
HETATM   15  P   UNL     1     -11.186  11.682  67.540  1.00  0.00    -0.298 P  
HETATM   16  O   UNL     1     -10.989  13.183  68.174  1.00  0.00    -0.234 OA 
ENDBRANCH   3  12
BRANCH   6  17
HETATM   17  O   UNL     1     -11.459   6.328  71.302  1.00  0.00    -0.298 OA 
HETATM   18  P   UNL     1     -10.651   5.870  72.608  1.00  0.00    -0.252 P  
HETATM   19  O   UNL     1      -9.545   4.895  71.989  1.00  0.00    -0.146 OA 
HETATM   20  O   UNL     1     -10.165   6.906  73.553  1.00  0.00    -0.245 OA 
HETATM   21  O   UNL     1     -11.704   4.829  73.226  1.00  0.00    -0.312 OA 
ENDBRANCH   6  17
TORSDOF 2
ENDMDL
MODEL       53
REMARK 921   NORMALIZED FREE ENERGY PREDICTED BY IDOCK:   -5.42 KCAL/MOL
REMARK 922        TOTAL FREE ENERGY PREDICTED BY IDOCK:   -6.47 KCAL/MOL
REMARK 923 INTER-LIGAND FREE ENERGY PREDICTED BY IDOCK:   -6.24 KCAL/MOL
REMARK 924 INTRA-LIGAND FREE ENERGY PREDICTED BY IDOCK:   -0.22 KCAL/MOL
REMARK 927      BINDING AFFINITY PREDICTED BY RF-SCORE:    0.00 PKD
ROOT
HETATM    1  C   UNL     1     -11.632  13.263  64.968  1.00  0.00    -0.342 C  
HETATM    2  C   UNL     1     -11.513  12.578  66.309  1.00  0.00    -0.421 A  
HETATM    3  C   UNL     1     -11.074  11.267  66.621  1.00  0.00    -0.235 A  
HETATM    4  C   UNL     1     -11.060  10.813  67.969  1.00  0.00    -0.359 A  
HETATM    5  C   UNL     1     -11.963  13.394  67.363  1.00  0.00    -0.391 A  
HETATM    6  C   UNL     1     -11.965  12.955  68.680  1.00  0.00    -0.247 A  
HETATM    7  C   UNL     1     -10.637   9.514  68.326  1.00  0.00    -0.260 A  
HETATM    8  C   UNL     1     -11.518  11.669  69.005  1.00  0.00    -0.356 A  
HETATM    9  C   UNL     1     -11.536  11.203  70.335  1.00  0.00    -0.355 A  
HETATM   10  C   UNL     1     -11.116   9.915  70.652  1.00  0.00    -0.409 A  
HETATM   11  C   UNL     1     -10.667   9.070  69.648  1.00  0.00    -0.228 A  
ENDROOT
BRANCH   3  12
HETATM   12  O   UNL     1     -10.657  10.312  65.695  1.00  0.00    -0.134 OA 
HETATM   13  O   UNL     1      -9.508  10.766  63.799  1.00  0.00    -0.233 OA 
HETATM   14  O   UNL     1      -7.467  10.394  64.941  1.00  0.00    -0.137 OA 
HETATM   15  P   UNL     1      -8.973  10.357  65.297  1.00  0.00    -0.213 P  
HETATM   16  O   UNL     1      -9.148   8.736  65.099  1.00  0.00    -0.159 OA 
ENDBRANCH   3  12
BRANCH   6  17
HETATM   17  O   UNL     1     -12.530  13.725  69.659  1.00  0.00    -0.281 OA 
HETATM   18  P   UNL     1     -12.103  15.235  69.984  1.00  0.00    -0.342 P  
HETATM   19  O   UNL     1     -11.057  15.035  71.178  1.00  0.00    -0.267 OA 
HETATM   20  O   UNL     1     -11.673  16.116  68.870  1.00  0.00    -0.357 OA 
HETATM   21  O   UNL     1     -13.414  15.723  70.769  1.00  0.00    -0.520 OA 
ENDBRANCH   6  17
TORSDOF 2
ENDMDL
MODEL       54
REMARK 921   NORMALIZED FREE ENERGY PREDICTED BY IDOCK:   -5.40 KCAL/MOL
REMARK 922        TOTAL FREE ENERGY PREDICTED BY IDOCK:   -6.45 KCAL/MOL
REMARK 923 INTER-LIGAND FREE ENERGY PREDICTED BY IDOCK:   -6.09 KCAL/MOL
REMARK 924 INTRA-LIGAND FREE ENERGY PREDICTED BY IDOCK:   -0.36 KCAL/MOL
REMARK 927      BINDING AFFINITY PREDICTED BY RF-SCORE:    0.00 PKD
ROOT
HETATM    1  C   UNL     1     -10.614  11.490  63.530  1.00  0.00    -0.487 C  
HETATM    2  C   UNL     1     -10.508  11.037  64.967  1.00  0.00    -0.344 A  
HETATM    3  C   UNL     1     -11.229  11.468  66.109  1.00  0.00    -0.202 A  
HETATM    4  C   UNL     1     -10.951  10.914  67.389  1.00  0.00    -0.353 A  
HETATM    5  C   UNL     1      -9.494  10.079  65.148  1.00  0.00    -0.331 A  
HETATM    6  C   UNL     1      -9.207   9.541  66.395  1.00  0.00    -0.166 A  
HETATM    7  C   UNL     1     -11.640  11.316  68.554  1.00  0.00    -0.384 A  
HETATM    8  C   UNL     1      -9.922   9.945  67.528  1.00  0.00    -0.229 A  
HETATM    9  C   UNL     1      -9.626   9.424  68.804  1.00  0.00    -0.156 A  
HETATM   10  C   UNL     1     -10.322   9.845  69.933  1.00  0.00    -0.298 A  
HETATM   11  C   UNL     1     -11.328  10.792  69.809  1.00  0.00    -0.372 A  
ENDROOT
BRANCH   3  12
HETATM   12  O   UNL     1     -12.218  12.450  66.117  1.00  0.00    -0.635 OA 
HETATM   13  O   UNL     1     -12.115  14.379  67.296  1.00  0.00    -0.406 OA 
HETATM   14  O   UNL     1     -11.186  15.483  65.418  1.00  0.00    -0.307 OA 
HETATM   15  P   UNL     1     -11.673  14.050  65.749  1.00  0.00    -0.396 P  
HETATM   16  O   UNL     1     -13.172  14.234  65.105  1.00  0.00    -0.686 OA 
ENDBRANCH   3  12
BRANCH   6  17
HETATM   17  O   UNL     1      -8.131   8.711  66.554  1.00  0.00    -0.101 OA 
HETATM   18  P   UNL     1      -6.612   9.132  66.264  1.00  0.00    -0.067 P  
HETATM   19  O   UNL     1      -6.401   8.607  64.768  1.00  0.00    -0.064 OA 
HETATM   20  O   UNL     1      -6.187  10.526  66.542  1.00  0.00    -0.070 OA 
HETATM   21  O   UNL     1      -5.854   8.007  67.121  1.00  0.00    -0.039 OA 
ENDBRANCH   6  17
TORSDOF 2
ENDMDL
MODEL       55
REMARK 921   NORMALIZED FREE ENERGY PREDICTED BY IDOCK:   -5.35 KCAL/MOL
REMARK 922        TOTAL FREE ENERGY PREDICTED BY IDOCK:   -6.39 KCAL/MOL
REMARK 923 INTER-LIGAND FREE ENERGY PREDICTED BY IDOCK:   -6.02 KCAL/MOL
REMARK 924 INTRA-LIGAND FREE ENERGY PREDICTED BY IDOCK:   -0.37 KCAL/MOL
REMARK 927      BINDING AFFINITY PREDICTED BY RF-SCORE:    0.00 PKD
ROOT
HETATM    1  C   UNL     1     -11.515  11.028  69.057  1.00  0.00    -0.368 C  
HETATM    2  C   UNL     1     -11.055  10.868  67.628  1.00  0.00    -0.376 A  
HETATM    3  C   UNL     1     -10.045  10.032  67.089  1.00  0.00    -0.212 A  
HETATM    4  C   UNL     1      -9.758  10.054  65.696  1.00  0.00    -0.336 A  
HETATM    5  C   UNL     1     -11.733  11.735  66.752  1.00  0.00    -0.197 A  
HETATM    6  C   UNL     1     -11.452  11.773  65.393  1.00  0.00    -0.176 A  
HETATM    7  C   UNL     1      -8.758   9.244  65.116  1.00  0.00    -0.216 A  
HETATM    8  C   UNL     1     -10.468  10.941  64.845  1.00  0.00    -0.352 A  
HETATM    9  C   UNL     1     -10.157  10.985  63.470  1.00  0.00    -0.428 A  
HETATM   10  C   UNL     1      -9.162  10.175  62.932  1.00  0.00    -0.316 A  
HETATM   11  C   UNL     1      -8.460   9.305  63.755  1.00  0.00    -0.197 A  
ENDROOT
BRANCH   3  12
HETATM   12  O   UNL     1      -9.239   9.163  67.822  1.00  0.00    -0.133 OA 
HETATM   13  O   UNL     1      -9.796   8.256  69.818  1.00  0.00    -0.182 OA 
HETATM   14  O   UNL     1     -10.665   6.349  68.715  1.00  0.00    -0.227 OA 
HETATM   15  P   UNL     1      -9.992   7.678  68.294  1.00  0.00    -0.186 P  
HETATM   16  O   UNL     1      -8.478   7.059  68.155  1.00  0.00    -0.127 OA 
ENDBRANCH   3  12
BRANCH   6  17
HETATM   17  O   UNL     1     -12.037  12.718  64.597  1.00  0.00    -0.375 OA 
HETATM   18  P   UNL     1     -12.183  14.266  64.985  1.00  0.00    -0.382 P  
HETATM   19  O   UNL     1     -13.660  14.317  65.597  1.00  0.00    -0.394 OA 
HETATM   20  O   UNL     1     -11.112  14.910  65.785  1.00  0.00    -0.331 OA 
HETATM   21  O   UNL     1     -12.407  14.890  63.524  1.00  0.00    -0.506 OA 
ENDBRANCH   6  17
TORSDOF 2
ENDMDL
MODEL       56
REMARK 921   NORMALIZED FREE ENERGY PREDICTED BY IDOCK:   -5.30 KCAL/MOL
REMARK 922        TOTAL FREE ENERGY PREDICTED BY IDOCK:   -6.33 KCAL/MOL
REMARK 923 INTER-LIGAND FREE ENERGY PREDICTED BY IDOCK:   -5.92 KCAL/MOL
REMARK 924 INTRA-LIGAND FREE ENERGY PREDICTED BY IDOCK:   -0.41 KCAL/MOL
REMARK 927      BINDING AFFINITY PREDICTED BY RF-SCORE:    0.00 PKD
ROOT
HETATM    1  C   UNL     1     -11.668  12.242  68.497  1.00  0.00    -0.381 C  
HETATM    2  C   UNL     1     -10.970  11.653  67.294  1.00  0.00    -0.318 A  
HETATM    3  C   UNL     1     -11.159  11.920  65.915  1.00  0.00    -0.316 A  
HETATM    4  C   UNL     1     -10.397  11.227  64.935  1.00  0.00    -0.362 A  
HETATM    5  C   UNL     1     -10.036  10.665  67.654  1.00  0.00    -0.208 A  
HETATM    6  C   UNL     1      -9.296   9.974  66.705  1.00  0.00    -0.166 A  
HETATM    7  C   UNL     1     -10.555  11.456  63.551  1.00  0.00    -0.468 A  
HETATM    8  C   UNL     1      -9.461  10.239  65.340  1.00  0.00    -0.287 A  
HETATM    9  C   UNL     1      -8.732   9.529  64.364  1.00  0.00    -0.235 A  
HETATM   10  C   UNL     1      -8.916   9.777  63.008  1.00  0.00    -0.271 A  
HETATM   11  C   UNL     1      -9.829  10.739  62.600  1.00  0.00    -0.166 A  
ENDROOT
BRANCH   3  12
HETATM   12  O   UNL     1     -12.083  12.819  65.385  1.00  0.00    -0.413 OA 
HETATM   13  O   UNL     1     -12.650  14.797  66.329  1.00  0.00    -0.021 OA 
HETATM   14  O   UNL     1     -11.000  15.894  65.032  1.00  0.00    -0.425 OA 
HETATM   15  P   UNL     1     -11.511  14.442  65.200  1.00  0.00    -0.398 P  
HETATM   16  O   UNL     1     -12.533  14.478  63.915  1.00  0.00    -0.814 OA 
ENDBRANCH   3  12
BRANCH   6  17
HETATM   17  O   UNL     1      -8.496   8.931  67.083  1.00  0.00    -0.107 OA 
HETATM   18  P   UNL     1      -9.028   7.578  67.756  1.00  0.00    -0.129 P  
HETATM   19  O   UNL     1      -8.836   7.884  69.315  1.00  0.00    -0.140 OA 
HETATM   20  O   UNL     1     -10.350   7.043  67.346  1.00  0.00    -0.191 OA 
HETATM   21  O   UNL     1      -7.782   6.616  67.451  1.00  0.00    -0.105 OA 
ENDBRANCH   6  17
TORSDOF 2
ENDMDL
MODEL       57
REMARK 921   NORMALIZED FREE ENERGY PREDICTED BY IDOCK:   -5.25 KCAL/MOL
REMARK 922        TOTAL FREE ENERGY PREDICTED BY IDOCK:   -6.28 KCAL/MOL
REMARK 923 INTER-LIGAND FREE ENERGY PREDICTED BY IDOCK:   -6.11 KCAL/MOL
REMARK 924 INTRA-LIGAND FREE ENERGY PREDICTED BY IDOCK:   -0.17 KCAL/MOL
REMARK 927      BINDING AFFINITY PREDICTED BY RF-SCORE:    0.00 PKD
ROOT
HETATM    1  C   UNL     1     -12.146  11.273  70.410  1.00  0.00    -0.474 C  
HETATM    2  C   UNL     1     -11.461  10.813  69.146  1.00  0.00    -0.368 A  
HETATM    3  C   UNL     1     -11.454  11.398  67.855  1.00  0.00    -0.291 A  
HETATM    4  C   UNL     1     -10.749  10.778  66.786  1.00  0.00    -0.291 A  
HETATM    5  C   UNL     1     -10.784   9.593  69.323  1.00  0.00    -0.246 A  
HETATM    6  C   UNL     1     -10.104   8.974  68.284  1.00  0.00    -0.192 A  
HETATM    7  C   UNL     1     -10.719  11.321  65.483  1.00  0.00    -0.283 A  
HETATM    8  C   UNL     1     -10.074   9.548  67.008  1.00  0.00    -0.297 A  
HETATM    9  C   UNL     1      -9.406   8.919  65.938  1.00  0.00    -0.301 A  
HETATM   10  C   UNL     1      -9.399   9.479  64.665  1.00  0.00    -0.201 A  
HETATM   11  C   UNL     1     -10.057  10.680  64.436  1.00  0.00    -0.418 A  
ENDROOT
BRANCH   3  12
HETATM   12  O   UNL     1     -12.123  12.566  67.493  1.00  0.00    -0.453 OA 
HETATM   13  O   UNL     1     -12.227  14.440  68.755  1.00  0.00    -0.275 OA 
HETATM   14  O   UNL     1     -10.329  15.307  67.635  1.00  0.00    -0.244 OA 
HETATM   15  P   UNL     1     -11.176  14.012  67.568  1.00  0.00    -0.342 P  
HETATM   16  O   UNL     1     -12.126  14.501  66.321  1.00  0.00    -0.377 OA 
ENDBRANCH   3  12
BRANCH   6  17
HETATM   17  O   UNL     1      -9.568   7.727  68.460  1.00  0.00    -0.147 OA 
HETATM   18  P   UNL     1     -10.361   6.357  68.209  1.00  0.00    -0.245 P  
HETATM   19  O   UNL     1     -10.881   6.001  69.680  1.00  0.00    -0.298 OA 
HETATM   20  O   UNL     1     -11.366   6.297  67.120  1.00  0.00    -0.261 OA 
HETATM   21  O   UNL     1      -9.120   5.354  68.044  1.00  0.00    -0.108 OA 
ENDBRANCH   6  17
TORSDOF 2
ENDMDL
MODEL       58
REMARK 921   NORMALIZED FREE ENERGY PREDICTED BY IDOCK:   -5.24 KCAL/MOL
REMARK 922        TOTAL FREE ENERGY PREDICTED BY IDOCK:   -6.27 KCAL/MOL
REMARK 923 INTER-LIGAND FREE ENERGY PREDICTED BY IDOCK:   -5.91 KCAL/MOL
REMARK 924 INTRA-LIGAND FREE ENERGY PREDICTED BY IDOCK:   -0.36 KCAL/MOL
REMARK 927      BINDING AFFINITY PREDICTED BY RF-SCORE:    0.00 PKD
ROOT
HETATM    1  C   UNL     1     -11.476   9.910  71.064  1.00  0.00    -0.466 C  
HETATM    2  C   UNL     1     -11.362  10.501  69.679  1.00  0.00    -0.345 A  
HETATM    3  C   UNL     1     -10.898   9.910  68.477  1.00  0.00    -0.217 A  
HETATM    4  C   UNL     1     -10.856  10.664  67.272  1.00  0.00    -0.345 A  
HETATM    5  C   UNL     1     -11.742  11.855  69.647  1.00  0.00    -0.413 A  
HETATM    6  C   UNL     1     -11.692  12.603  68.478  1.00  0.00    -0.330 A  
HETATM    7  C   UNL     1     -10.397  10.119  66.054  1.00  0.00    -0.234 A  
HETATM    8  C   UNL     1     -11.253  12.028  67.281  1.00  0.00    -0.371 A  
HETATM    9  C   UNL     1     -11.176  12.782  66.092  1.00  0.00    -0.336 A  
HETATM   10  C   UNL     1     -10.714  12.215  64.909  1.00  0.00    -0.336 A  
HETATM   11  C   UNL     1     -10.323  10.883  64.889  1.00  0.00    -0.371 A  
ENDROOT
BRANCH   3  12
HETATM   12  O   UNL     1     -10.428   8.604  68.348  1.00  0.00    -0.213 OA 
HETATM   13  O   UNL     1      -8.363   8.042  67.613  1.00  0.00    -0.125 OA 
HETATM   14  O   UNL     1      -7.577   7.988  69.846  1.00  0.00    -0.083 OA 
HETATM   15  P   UNL     1      -8.923   8.280  69.138  1.00  0.00    -0.147 P  
HETATM   16  O   UNL     1      -9.538   6.770  69.327  1.00  0.00    -0.145 OA 
ENDBRANCH   3  12
BRANCH   6  17
HETATM   17  O   UNL     1     -11.944  13.947  68.512  1.00  0.00    -0.352 OA 
HETATM   18  P   UNL     1     -10.975  15.034  69.181  1.00  0.00    -0.291 P  
HETATM   19  O   UNL     1     -11.611  15.194  70.640  1.00  0.00    -0.267 OA 
HETATM   20  O   UNL     1      -9.507  14.823  69.120  1.00  0.00    -0.188 OA 
HETATM   21  O   UNL     1     -11.502  16.356  68.442  1.00  0.00    -0.338 OA 
ENDBRANCH   6  17
TORSDOF 2
ENDMDL
MODEL       59
REMARK 921   NORMALIZED FREE ENERGY PREDICTED BY IDOCK:   -5.24 KCAL/MOL
REMARK 922        TOTAL FREE ENERGY PREDICTED BY IDOCK:   -6.27 KCAL/MOL
REMARK 923 INTER-LIGAND FREE ENERGY PREDICTED BY IDOCK:   -5.99 KCAL/MOL
REMARK 924 INTRA-LIGAND FREE ENERGY PREDICTED BY IDOCK:   -0.27 KCAL/MOL
REMARK 927      BINDING AFFINITY PREDICTED BY RF-SCORE:    0.00 PKD
ROOT
HETATM    1  C   UNL     1      -9.750   7.193  66.900  1.00  0.00    -0.242 C  
HETATM    2  C   UNL     1     -10.287   8.415  67.607  1.00  0.00    -0.317 A  
HETATM    3  C   UNL     1     -10.597   9.697  67.090  1.00  0.00    -0.228 A  
HETATM    4  C   UNL     1     -11.080  10.724  67.949  1.00  0.00    -0.369 A  
HETATM    5  C   UNL     1     -10.437   8.204  68.989  1.00  0.00    -0.211 A  
HETATM    6  C   UNL     1     -10.896   9.203  69.838  1.00  0.00    -0.228 A  
HETATM    7  C   UNL     1     -11.396  12.017  67.480  1.00  0.00    -0.387 A  
HETATM    8  C   UNL     1     -11.222  10.469  69.339  1.00  0.00    -0.327 A  
HETATM    9  C   UNL     1     -11.667  11.499  70.192  1.00  0.00    -0.395 A  
HETATM   10  C   UNL     1     -11.967  12.764  69.698  1.00  0.00    -0.354 A  
HETATM   11  C   UNL     1     -11.830  13.025  68.341  1.00  0.00    -0.370 A  
ENDROOT
BRANCH   3  12
HETATM   12  O   UNL     1     -10.446  10.092  65.762  1.00  0.00    -0.183 OA 
HETATM   13  O   UNL     1      -9.185  11.838  65.067  1.00  0.00    -0.057 OA 
HETATM   14  O   UNL     1      -7.348  10.383  64.730  1.00  0.00    -0.124 OA 
HETATM   15  P   UNL     1      -8.811  10.246  65.218  1.00  0.00    -0.206 P  
HETATM   16  O   UNL     1      -9.427   9.792  63.766  1.00  0.00    -0.223 OA 
ENDBRANCH   3  12
BRANCH   6  17
HETATM   17  O   UNL     1     -10.905   9.003  71.191  1.00  0.00    -0.245 OA 
HETATM   18  P   UNL     1     -11.992   8.120  71.969  1.00  0.00    -0.385 P  
HETATM   19  O   UNL     1     -13.047   9.228  72.439  1.00  0.00    -0.419 OA 
HETATM   20  O   UNL     1     -12.550   6.917  71.304  1.00  0.00    -0.375 OA 
HETATM   21  O   UNL     1     -11.186   7.833  73.325  1.00  0.00    -0.350 OA 
ENDBRANCH   6  17
TORSDOF 2
ENDMDL
MODEL       60
REMARK 921   NORMALIZED FREE ENERGY PREDICTED BY IDOCK:   -5.17 KCAL/MOL
REMARK 922        TOTAL FREE ENERGY PREDICTED BY IDOCK:   -6.19 KCAL/MOL
REMARK 923 INTER-LIGAND FREE ENERGY PREDICTED BY IDOCK:   -5.88 KCAL/MOL
REMARK 924 INTRA-LIGAND FREE ENERGY PREDICTED BY IDOCK:   -0.32 KCAL/MOL
REMARK 927      BINDING AFFINITY PREDICTED BY RF-SCORE:    0.00 PKD
ROOT
HETATM    1  C   UNL     1     -10.224  10.813  65.216  1.00  0.00    -0.351 C  
HETATM    2  C   UNL     1     -10.508  10.420  66.646  1.00  0.00    -0.279 A  
HETATM    3  C   UNL     1     -11.357  11.031  67.603  1.00  0.00    -0.281 A  
HETATM    4  C   UNL     1     -11.463  10.499  68.918  1.00  0.00    -0.292 A  
HETATM    5  C   UNL     1      -9.755   9.302  67.049  1.00  0.00    -0.241 A  
HETATM    6  C   UNL     1      -9.842   8.783  68.333  1.00  0.00    -0.171 A  
HETATM    7  C   UNL     1     -12.291  11.078  69.904  1.00  0.00    -0.356 A  
HETATM    8  C   UNL     1     -10.688   9.366  69.283  1.00  0.00    -0.228 A  
HETATM    9  C   UNL     1     -10.769   8.863  70.598  1.00  0.00    -0.282 A  
HETATM   10  C   UNL     1     -11.593   9.460  71.547  1.00  0.00    -0.467 A  
HETATM   11  C   UNL     1     -12.353  10.568  71.202  1.00  0.00    -0.510 A  
ENDROOT
BRANCH   3  12
HETATM   12  O   UNL     1     -12.122  12.177  67.390  1.00  0.00    -0.553 OA 
HETATM   13  O   UNL     1     -11.972  14.076  68.612  1.00  0.00    -0.350 OA 
HETATM   14  O   UNL     1     -10.415  14.957  67.061  1.00  0.00    -0.265 OA 
HETATM   15  P   UNL     1     -11.221  13.644  67.217  1.00  0.00    -0.338 P  
HETATM   16  O   UNL     1     -12.450  14.086  66.222  1.00  0.00    -0.465 OA 
ENDBRANCH   3  12
BRANCH   6  17
HETATM   17  O   UNL     1      -9.000   7.779  68.726  1.00  0.00    -0.141 OA 
HETATM   18  P   UNL     1      -7.412   7.793  68.513  1.00  0.00    -0.107 P  
HETATM   19  O   UNL     1      -7.253   6.970  67.151  1.00  0.00    -0.083 OA 
HETATM   20  O   UNL     1      -6.687   9.084  68.594  1.00  0.00    -0.057 OA 
HETATM   21  O   UNL     1      -6.984   6.704  69.611  1.00  0.00    -0.062 OA 
ENDBRANCH   6  17
TORSDOF 2
ENDMDL
MODEL       61
REMARK 921   NORMALIZED FREE ENERGY PREDICTED BY IDOCK:   -5.15 KCAL/MOL
REMARK 922        TOTAL FREE ENERGY PREDICTED BY IDOCK:   -6.17 KCAL/MOL
REMARK 923 INTER-LIGAND FREE ENERGY PREDICTED BY IDOCK:   -5.79 KCAL/MOL
REMARK 924 INTRA-LIGAND FREE ENERGY PREDICTED BY IDOCK:   -0.38 KCAL/MOL
REMARK 927      BINDING AFFINITY PREDICTED BY RF-SCORE:    0.00 PKD
ROOT
HETATM    1  C   UNL     1      -7.632   9.395  68.872  1.00  0.00    -0.075 C  
HETATM    2  C   UNL     1      -8.978   9.598  69.526  1.00  0.00    -0.203 A  
HETATM    3  C   UNL     1      -9.590   8.879  70.583  1.00  0.00    -0.215 A  
HETATM    4  C   UNL     1     -10.891   9.232  71.037  1.00  0.00    -0.385 A  
HETATM    5  C   UNL     1      -9.707  10.640  68.925  1.00  0.00    -0.210 A  
HETATM    6  C   UNL     1     -10.982  10.984  69.353  1.00  0.00    -0.248 A  
HETATM    7  C   UNL     1     -11.541   8.541  72.082  1.00  0.00    -0.447 A  
HETATM    8  C   UNL     1     -11.592  10.294  70.406  1.00  0.00    -0.411 A  
HETATM    9  C   UNL     1     -12.895  10.618  70.836  1.00  0.00    -0.473 A  
HETATM   10  C   UNL     1     -13.509   9.914  71.867  1.00  0.00    -0.467 A  
HETATM   11  C   UNL     1     -12.834   8.874  72.490  1.00  0.00    -0.401 A  
ENDROOT
BRANCH   3  12
HETATM   12  O   UNL     1      -9.035   7.785  71.244  1.00  0.00    -0.131 OA 
HETATM   13  O   UNL     1      -6.823   7.485  71.618  1.00  0.00    -0.052 OA 
HETATM   14  O   UNL     1      -7.037   8.520  73.737  1.00  0.00    -0.252 OA 
HETATM   15  P   UNL     1      -7.980   8.173  72.559  1.00  0.00    -0.123 P  
HETATM   16  O   UNL     1      -8.532   6.766  73.200  1.00  0.00    -0.118 OA 
ENDBRANCH   3  12
BRANCH   6  17
HETATM   17  O   UNL     1     -11.711  11.913  68.662  1.00  0.00    -0.283 OA 
HETATM   18  P   UNL     1     -11.385  13.481  68.633  1.00  0.00    -0.333 P  
HETATM   19  O   UNL     1     -12.346  14.042  69.784  1.00  0.00    -0.336 OA 
HETATM   20  O   UNL     1      -9.970  13.923  68.681  1.00  0.00    -0.227 OA 
HETATM   21  O   UNL     1     -12.182  13.898  67.304  1.00  0.00    -0.394 OA 
ENDBRANCH   6  17
TORSDOF 2
ENDMDL
MODEL       62
REMARK 921   NORMALIZED FREE ENERGY PREDICTED BY IDOCK:   -5.14 KCAL/MOL
REMARK 922        TOTAL FREE ENERGY PREDICTED BY IDOCK:   -6.16 KCAL/MOL
REMARK 923 INTER-LIGAND FREE ENERGY PREDICTED BY IDOCK:   -5.92 KCAL/MOL
REMARK 924 INTRA-LIGAND FREE ENERGY PREDICTED BY IDOCK:   -0.24 KCAL/MOL
REMARK 927      BINDING AFFINITY PREDICTED BY RF-SCORE:    0.00 PKD
ROOT
HETATM    1  C   UNL     1      -9.745  14.957  68.854  1.00  0.00    -0.223 C  
HETATM    2  C   UNL     1     -10.087  14.119  67.645  1.00  0.00    -0.236 A  
HETATM    3  C   UNL     1     -10.754  14.483  66.449  1.00  0.00    -0.309 A  
HETATM    4  C   UNL     1     -10.993  13.516  65.433  1.00  0.00    -0.300 A  
HETATM    5  C   UNL     1      -9.704  12.775  67.806  1.00  0.00    -0.207 A  
HETATM    6  C   UNL     1      -9.944  11.821  66.826  1.00  0.00    -0.201 A  
HETATM    7  C   UNL     1     -11.658  13.832  64.228  1.00  0.00    -0.395 A  
HETATM    8  C   UNL     1     -10.586  12.170  65.633  1.00  0.00    -0.297 A  
HETATM    9  C   UNL     1     -10.856  11.208  64.639  1.00  0.00    -0.295 A  
HETATM   10  C   UNL     1     -11.518  11.552  63.464  1.00  0.00    -0.334 A  
HETATM   11  C   UNL     1     -11.920  12.864  63.259  1.00  0.00    -0.516 A  
ENDROOT
BRANCH   3  12
HETATM   12  O   UNL     1     -11.253  15.751  66.155  1.00  0.00    -0.153 OA 
HETATM   13  O   UNL     1     -10.765  17.632  67.313  1.00  0.00    -0.325 OA 
HETATM   14  O   UNL     1      -8.993  18.101  65.814  1.00  0.00    -0.462 OA 
HETATM   15  P   UNL     1     -10.060  16.991  65.976  1.00  0.00    -0.201 P  
HETATM   16  O   UNL     1     -11.126  17.630  64.903  1.00  0.00    -0.854 OA 
ENDBRANCH   3  12
BRANCH   6  17
HETATM   17  O   UNL     1      -9.676  10.503  67.071  1.00  0.00    -0.170 OA 
HETATM   18  P   UNL     1      -8.206   9.867  67.100  1.00  0.00    -0.121 P  
HETATM   19  O   UNL     1      -8.060   9.298  65.612  1.00  0.00    -0.107 OA 
HETATM   20  O   UNL     1      -7.078  10.686  67.608  1.00  0.00    -0.081 OA 
HETATM   21  O   UNL     1      -8.506   8.532  67.938  1.00  0.00    -0.128 OA 
ENDBRANCH   6  17
TORSDOF 2
ENDMDL
MODEL       63
REMARK 921   NORMALIZED FREE ENERGY PREDICTED BY IDOCK:   -5.08 KCAL/MOL
REMARK 922        TOTAL FREE ENERGY PREDICTED BY IDOCK:   -6.09 KCAL/MOL
REMARK 923 INTER-LIGAND FREE ENERGY PREDICTED BY IDOCK:   -5.79 KCAL/MOL
REMARK 924 INTRA-LIGAND FREE ENERGY PREDICTED BY IDOCK:   -0.30 KCAL/MOL
REMARK 927      BINDING AFFINITY PREDICTED BY RF-SCORE:    0.00 PKD
ROOT
HETATM    1  C   UNL     1     -11.602  13.598  65.520  1.00  0.00    -0.337 C  
HETATM    2  C   UNL     1     -10.288  14.143  66.026  1.00  0.00    -0.316 A  
HETATM    3  C   UNL     1      -9.279  13.509  66.792  1.00  0.00    -0.240 A  
HETATM    4  C   UNL     1      -8.113  14.225  67.183  1.00  0.00    -0.154 A  
HETATM    5  C   UNL     1     -10.116  15.500  65.699  1.00  0.00    -0.406 A  
HETATM    6  C   UNL     1      -8.988  16.211  66.086  1.00  0.00    -0.337 A  
HETATM    7  C   UNL     1      -7.085  13.635  67.951  1.00  0.00    -0.151 A  
HETATM    8  C   UNL     1      -7.975  15.593  66.829  1.00  0.00    -0.246 A  
HETATM    9  C   UNL     1      -6.835  16.308  67.248  1.00  0.00    -0.230 A  
HETATM   10  C   UNL     1      -5.842  15.698  68.008  1.00  0.00    -0.151 A  
HETATM   11  C   UNL     1      -5.967  14.362  68.361  1.00  0.00    -0.104 A  
ENDROOT
BRANCH   3  12
HETATM   12  O   UNL     1      -9.320  12.194  67.253  1.00  0.00    -0.175 OA 
HETATM   13  O   UNL     1     -10.753  10.608  66.511  1.00  0.00    -0.224 OA 
HETATM   14  O   UNL     1      -9.146   9.890  64.927  1.00  0.00    -0.189 OA 
HETATM   15  P   UNL     1      -9.229  10.978  66.025  1.00  0.00    -0.203 P  
HETATM   16  O   UNL     1      -8.467  10.101  67.185  1.00  0.00    -0.125 OA 
ENDBRANCH   3  12
BRANCH   6  17
HETATM   17  O   UNL     1      -8.914  17.558  65.863  1.00  0.00    -0.517 OA 
HETATM   18  P   UNL     1     -10.016  18.617  66.345  1.00  0.00    -0.374 P  
HETATM   19  O   UNL     1     -10.928  18.766  65.039  1.00  0.00    -0.520 OA 
HETATM   20  O   UNL     1     -10.729  18.382  67.625  1.00  0.00    -0.423 OA 
HETATM   21  O   UNL     1      -9.140  19.960  66.293  1.00  0.00    -0.366 OA 
ENDBRANCH   6  17
TORSDOF 2
ENDMDL
MODEL       64
REMARK 921   NORMALIZED FREE ENERGY PREDICTED BY IDOCK:   -5.06 KCAL/MOL
REMARK 922        TOTAL FREE ENERGY PREDICTED BY IDOCK:   -6.07 KCAL/MOL
REMARK 923 INTER-LIGAND FREE ENERGY PREDICTED BY IDOCK:   -5.78 KCAL/MOL
REMARK 924 INTRA-LIGAND FREE ENERGY PREDICTED BY IDOCK:   -0.29 KCAL/MOL
REMARK 927      BINDING AFFINITY PREDICTED BY RF-SCORE:    0.00 PKD
ROOT
HETATM    1  C   UNL     1     -11.002   9.594  69.338  1.00  0.00    -0.215 C  
HETATM    2  C   UNL     1     -10.583   9.823  67.906  1.00  0.00    -0.310 A  
HETATM    3  C   UNL     1     -10.912  10.883  67.024  1.00  0.00    -0.247 A  
HETATM    4  C   UNL     1     -10.417  10.892  65.690  1.00  0.00    -0.274 A  
HETATM    5  C   UNL     1      -9.787   8.774  67.411  1.00  0.00    -0.250 A  
HETATM    6  C   UNL     1      -9.310   8.767  66.108  1.00  0.00    -0.234 A  
HETATM    7  C   UNL     1     -10.723  11.923  64.776  1.00  0.00    -0.356 A  
HETATM    8  C   UNL     1      -9.613   9.815  65.231  1.00  0.00    -0.368 A  
HETATM    9  C   UNL     1      -9.153   9.810  63.898  1.00  0.00    -0.275 A  
HETATM   10  C   UNL     1      -9.476  10.840  63.021  1.00  0.00    -0.372 A  
HETATM   11  C   UNL     1     -10.263  11.897  63.459  1.00  0.00    -0.485 A  
ENDROOT
BRANCH   3  12
HETATM   12  O   UNL     1     -11.736  11.964  67.331  1.00  0.00    -0.503 OA 
HETATM   13  O   UNL     1     -12.011  12.832  69.403  1.00  0.00    -0.301 OA 
HETATM   14  O   UNL     1     -10.290  14.403  68.978  1.00  0.00    -0.232 OA 
HETATM   15  P   UNL     1     -10.973  13.250  68.201  1.00  0.00    -0.282 P  
HETATM   16  O   UNL     1     -12.033  14.205  67.390  1.00  0.00    -0.395 OA 
ENDBRANCH   3  12
BRANCH   6  17
HETATM   17  O   UNL     1      -8.650   7.671  65.624  1.00  0.00    -0.148 OA 
HETATM   18  P   UNL     1      -8.943   6.163  66.081  1.00  0.00    -0.108 P  
HETATM   19  O   UNL     1      -7.838   5.938  67.215  1.00  0.00    -0.100 OA 
HETATM   20  O   UNL     1     -10.333   5.772  66.425  1.00  0.00    -0.196 OA 
HETATM   21  O   UNL     1      -8.305   5.376  64.837  1.00  0.00    -0.133 OA 
ENDBRANCH   6  17
TORSDOF 2
ENDMDL
MODEL       65
REMARK 921   NORMALIZED FREE ENERGY PREDICTED BY IDOCK:   -5.00 KCAL/MOL
REMARK 922        TOTAL FREE ENERGY PREDICTED BY IDOCK:   -6.00 KCAL/MOL
REMARK 923 INTER-LIGAND FREE ENERGY PREDICTED BY IDOCK:   -5.76 KCAL/MOL
REMARK 924 INTRA-LIGAND FREE ENERGY PREDICTED BY IDOCK:   -0.24 KCAL/MOL
REMARK 927      BINDING AFFINITY PREDICTED BY RF-SCORE:    0.00 PKD
ROOT
HETATM    1  C   UNL     1      -8.234   9.025  67.735  1.00  0.00    -0.109 C  
HETATM    2  C   UNL     1      -9.317   9.689  68.552  1.00  0.00    -0.138 A  
HETATM    3  C   UNL     1     -10.142   9.150  69.571  1.00  0.00    -0.197 A  
HETATM    4  C   UNL     1     -11.126   9.959  70.205  1.00  0.00    -0.368 A  
HETATM    5  C   UNL     1      -9.526  11.026  68.169  1.00  0.00    -0.172 A  
HETATM    6  C   UNL     1     -10.492  11.819  68.773  1.00  0.00    -0.198 A  
HETATM    7  C   UNL     1     -11.973   9.464  71.220  1.00  0.00    -0.430 A  
HETATM    8  C   UNL     1     -11.302  11.306  69.792  1.00  0.00    -0.348 A  
HETATM    9  C   UNL     1     -12.302  12.094  70.399  1.00  0.00    -0.315 A  
HETATM   10  C   UNL     1     -13.123  11.574  71.394  1.00  0.00    -0.359 A  
HETATM   11  C   UNL     1     -12.960  10.258  71.805  1.00  0.00    -0.574 A  
ENDROOT
BRANCH   3  12
HETATM   12  O   UNL     1     -10.110   7.833  70.026  1.00  0.00    -0.195 OA 
HETATM   13  O   UNL     1     -11.833   6.373  69.882  1.00  0.00    -0.384 OA 
HETATM   14  O   UNL     1     -10.986   5.570  67.821  1.00  0.00    -0.112 OA 
HETATM   15  P   UNL     1     -10.573   6.639  68.862  1.00  0.00    -0.265 P  
HETATM   16  O   UNL     1      -9.506   5.684  69.665  1.00  0.00    -0.133 OA 
ENDBRANCH   3  12
BRANCH   6  17
HETATM   17  O   UNL     1     -10.755  13.070  68.287  1.00  0.00    -0.230 OA 
HETATM   18  P   UNL     1     -10.773  13.453  66.731  1.00  0.00    -0.280 P  
HETATM   19  O   UNL     1      -9.293  14.017  66.510  1.00  0.00    -0.278 OA 
HETATM   20  O   UNL     1     -11.251  12.448  65.750  1.00  0.00    -0.305 OA 
HETATM   21  O   UNL     1     -11.637  14.803  66.795  1.00  0.00    -0.364 OA 
ENDBRANCH   6  17
TORSDOF 2
ENDMDL
MODEL       66
REMARK 921   NORMALIZED FREE ENERGY PREDICTED BY IDOCK:   -4.95 KCAL/MOL
REMARK 922        TOTAL FREE ENERGY PREDICTED BY IDOCK:   -5.94 KCAL/MOL
REMARK 923 INTER-LIGAND FREE ENERGY PREDICTED BY IDOCK:   -5.59 KCAL/MOL
REMARK 924 INTRA-LIGAND FREE ENERGY PREDICTED BY IDOCK:   -0.35 KCAL/MOL
REMARK 927      BINDING AFFINITY PREDICTED BY RF-SCORE:    0.00 PKD
ROOT
HETATM    1  C   UNL     1     -11.301  16.404  68.920  1.00  0.00    -0.272 C  
HETATM    2  C   UNL     1     -11.050  14.920  68.807  1.00  0.00    -0.274 A  
HETATM    3  C   UNL     1     -11.791  13.832  69.333  1.00  0.00    -0.341 A  
HETATM    4  C   UNL     1     -11.359  12.494  69.120  1.00  0.00    -0.331 A  
HETATM    5  C   UNL     1      -9.865  14.634  68.105  1.00  0.00    -0.224 A  
HETATM    6  C   UNL     1      -9.427  13.332  67.903  1.00  0.00    -0.214 A  
HETATM    7  C   UNL     1     -12.062  11.381  69.629  1.00  0.00    -0.373 A  
HETATM    8  C   UNL     1     -10.158  12.248  68.402  1.00  0.00    -0.215 A  
HETATM    9  C   UNL     1      -9.714  10.922  68.223  1.00  0.00    -0.171 A  
HETATM   10  C   UNL     1     -10.429   9.848  68.742  1.00  0.00    -0.234 A  
HETATM   11  C   UNL     1     -11.603  10.076  69.446  1.00  0.00    -0.084 A  
ENDROOT
BRANCH   3  12
HETATM   12  O   UNL     1     -12.949  13.940  70.101  1.00  0.00    -0.122 OA 
HETATM   13  O   UNL     1     -13.201  13.092  72.184  1.00  0.00    -0.458 OA 
HETATM   14  O   UNL     1     -12.521  15.160  73.114  1.00  0.00    -0.376 OA 
HETATM   15  P   UNL     1     -12.722  14.583  71.691  1.00  0.00    -0.382 P  
HETATM   16  O   UNL     1     -14.236  15.184  71.484  1.00  0.00    -0.478 OA 
ENDBRANCH   3  12
BRANCH   6  17
HETATM   17  O   UNL     1      -8.207  13.099  67.331  1.00  0.00    -0.171 OA 
HETATM   18  P   UNL     1      -6.814  13.631  67.919  1.00  0.00    -0.178 P  
HETATM   19  O   UNL     1      -6.597  14.981  67.088  1.00  0.00    -0.281 OA 
HETATM   20  O   UNL     1      -6.644  13.726  69.390  1.00  0.00    -0.109 OA 
HETATM   21  O   UNL     1      -5.807  12.623  67.182  1.00  0.00    -0.300 OA 
ENDBRANCH   6  17
TORSDOF 2
ENDMDL
MODEL       67
REMARK 921   NORMALIZED FREE ENERGY PREDICTED BY IDOCK:   -4.89 KCAL/MOL
REMARK 922        TOTAL FREE ENERGY PREDICTED BY IDOCK:   -5.88 KCAL/MOL
REMARK 923 INTER-LIGAND FREE ENERGY PREDICTED BY IDOCK:   -5.55 KCAL/MOL
REMARK 924 INTRA-LIGAND FREE ENERGY PREDICTED BY IDOCK:   -0.33 KCAL/MOL
REMARK 927      BINDING AFFINITY PREDICTED BY RF-SCORE:    0.00 PKD
ROOT
HETATM    1  C   UNL     1      -9.411   9.079  66.523  1.00  0.00    -0.246 C  
HETATM    2  C   UNL     1     -10.176   9.481  67.760  1.00  0.00    -0.265 A  
HETATM    3  C   UNL     1     -10.531   8.711  68.897  1.00  0.00    -0.192 A  
HETATM    4  C   UNL     1     -11.282   9.292  69.956  1.00  0.00    -0.190 A  
HETATM    5  C   UNL     1     -10.619  10.814  67.701  1.00  0.00    -0.271 A  
HETATM    6  C   UNL     1     -11.364  11.387  68.723  1.00  0.00    -0.271 A  
HETATM    7  C   UNL     1     -11.662   8.562  71.103  1.00  0.00    -0.322 A  
HETATM    8  C   UNL     1     -11.706  10.644  69.858  1.00  0.00    -0.395 A  
HETATM    9  C   UNL     1     -12.481  11.205  70.894  1.00  0.00    -0.509 A  
HETATM   10  C   UNL     1     -12.842  10.457  72.010  1.00  0.00    -0.447 A  
HETATM   11  C   UNL     1     -12.434   9.135  72.115  1.00  0.00    -0.436 A  
ENDROOT
BRANCH   3  12
HETATM   12  O   UNL     1     -10.228   7.364  69.087  1.00  0.00    -0.185 OA 
HETATM   13  O   UNL     1      -8.298   6.370  68.450  1.00  0.00    -0.115 OA 
HETATM   14  O   UNL     1      -7.379   6.768  70.596  1.00  0.00    -0.072 OA 
HETATM   15  P   UNL     1      -8.724   7.050  69.883  1.00  0.00    -0.141 P  
HETATM   16  O   UNL     1      -9.501   5.728  70.470  1.00  0.00    -0.161 OA 
ENDBRANCH   3  12
BRANCH   6  17
HETATM   17  O   UNL     1     -11.887  12.641  68.572  1.00  0.00    -0.306 OA 
HETATM   18  P   UNL     1     -11.059  13.998  68.775  1.00  0.00    -0.287 P  
HETATM   19  O   UNL     1     -11.405  14.375  70.291  1.00  0.00    -0.227 OA 
HETATM   20  O   UNL     1      -9.624  14.029  68.397  1.00  0.00    -0.216 OA 
HETATM   21  O   UNL     1     -11.997  15.012  67.959  1.00  0.00    -0.296 OA 
ENDBRANCH   6  17
TORSDOF 2
ENDMDL
MODEL       68
REMARK 921   NORMALIZED FREE ENERGY PREDICTED BY IDOCK:   -4.85 KCAL/MOL
REMARK 922        TOTAL FREE ENERGY PREDICTED BY IDOCK:   -5.83 KCAL/MOL
REMARK 923 INTER-LIGAND FREE ENERGY PREDICTED BY IDOCK:   -5.53 KCAL/MOL
REMARK 924 INTRA-LIGAND FREE ENERGY PREDICTED BY IDOCK:   -0.30 KCAL/MOL
REMARK 927      BINDING AFFINITY PREDICTED BY RF-SCORE:    0.00 PKD
ROOT
HETATM    1  C   UNL     1      -7.669   9.593  68.515  1.00  0.00    -0.081 C  
HETATM    2  C   UNL     1      -8.897   9.529  69.392  1.00  0.00    -0.172 A  
HETATM    3  C   UNL     1      -9.974  10.442  69.511  1.00  0.00    -0.202 A  
HETATM    4  C   UNL     1     -11.034  10.192  70.427  1.00  0.00    -0.386 A  
HETATM    5  C   UNL     1      -8.894   8.397  70.227  1.00  0.00    -0.142 A  
HETATM    6  C   UNL     1      -9.917   8.150  71.132  1.00  0.00    -0.180 A  
HETATM    7  C   UNL     1     -12.124  11.076  70.583  1.00  0.00    -0.471 A  
HETATM    8  C   UNL     1     -10.995   9.035  71.249  1.00  0.00    -0.384 A  
HETATM    9  C   UNL     1     -12.029   8.809  72.180  1.00  0.00    -0.436 A  
HETATM   10  C   UNL     1     -13.087   9.702  72.312  1.00  0.00    -0.468 A  
HETATM   11  C   UNL     1     -13.135  10.837  71.514  1.00  0.00    -0.517 A  
ENDROOT
BRANCH   3  12
HETATM   12  O   UNL     1     -10.102  11.639  68.808  1.00  0.00    -0.207 OA 
HETATM   13  O   UNL     1      -9.082  12.097  66.840  1.00  0.00    -0.191 OA 
HETATM   14  O   UNL     1     -10.991  11.330  65.667  1.00  0.00    -0.231 OA 
HETATM   15  P   UNL     1     -10.570  11.475  67.150  1.00  0.00    -0.264 P  
HETATM   16  O   UNL     1     -11.309  12.922  67.389  1.00  0.00    -0.276 OA 
ENDBRANCH   3  12
BRANCH   6  17
HETATM   17  O   UNL     1      -9.815   7.112  72.017  1.00  0.00    -0.159 OA 
HETATM   18  P   UNL     1     -10.206   5.595  71.681  1.00  0.00    -0.221 P  
HETATM   19  O   UNL     1     -11.705   5.508  72.232  1.00  0.00    -0.197 OA 
HETATM   20  O   UNL     1      -9.975   5.079  70.309  1.00  0.00    -0.214 OA 
HETATM   21  O   UNL     1      -9.384   4.843  72.836  1.00  0.00    -0.130 OA 
ENDBRANCH   6  17
TORSDOF 2
ENDMDL
MODEL       69
REMARK 921   NORMALIZED FREE ENERGY PREDICTED BY IDOCK:   -4.81 KCAL/MOL
REMARK 922        TOTAL FREE ENERGY PREDICTED BY IDOCK:   -5.78 KCAL/MOL
REMARK 923 INTER-LIGAND FREE ENERGY PREDICTED BY IDOCK:   -5.83 KCAL/MOL
REMARK 924 INTRA-LIGAND FREE ENERGY PREDICTED BY IDOCK:    0.05 KCAL/MOL
REMARK 927      BINDING AFFINITY PREDICTED BY RF-SCORE:    0.00 PKD
ROOT
HETATM    1  C   UNL     1     -13.413  10.091  72.330  1.00  0.00    -0.346 C  
HETATM    2  C   UNL     1     -12.582  10.627  71.188  1.00  0.00    -0.526 A  
HETATM    3  C   UNL     1     -11.630   9.966  70.372  1.00  0.00    -0.282 A  
HETATM    4  C   UNL     1     -10.937  10.675  69.352  1.00  0.00    -0.304 A  
HETATM    5  C   UNL     1     -12.789  12.002  70.981  1.00  0.00    -0.279 A  
HETATM    6  C   UNL     1     -12.109  12.706  69.996  1.00  0.00    -0.269 A  
HETATM    7  C   UNL     1      -9.978  10.060  68.520  1.00  0.00    -0.177 A  
HETATM    8  C   UNL     1     -11.179  12.063  69.172  1.00  0.00    -0.305 A  
HETATM    9  C   UNL     1     -10.465  12.770  68.184  1.00  0.00    -0.244 A  
HETATM   10  C   UNL     1      -9.523  12.134  67.382  1.00  0.00    -0.179 A  
HETATM   11  C   UNL     1      -9.277  10.778  67.551  1.00  0.00    -0.150 A  
ENDROOT
BRANCH   3  12
HETATM   12  O   UNL     1     -11.259   8.627  70.485  1.00  0.00    -0.253 OA 
HETATM   13  O   UNL     1      -9.440   7.879  71.603  1.00  0.00    -0.144 OA 
HETATM   14  O   UNL     1     -10.756   7.566  73.546  1.00  0.00    -0.378 OA 
HETATM   15  P   UNL     1     -10.993   8.068  72.101  1.00  0.00    -0.350 P  
HETATM   16  O   UNL     1     -11.531   6.632  71.515  1.00  0.00    -0.268 OA 
ENDBRANCH   3  12
BRANCH   6  17
HETATM   17  O   UNL     1     -12.240  14.065  69.910  1.00  0.00    -0.317 OA 
HETATM   18  P   UNL     1     -12.206  15.061  71.165  1.00  0.00    -0.397 P  
HETATM   19  O   UNL     1     -13.763  15.244  71.486  1.00  0.00    -0.449 OA 
HETATM   20  O   UNL     1     -11.328  14.737  72.316  1.00  0.00    -0.105 OA 
HETATM   21  O   UNL     1     -11.859  16.433  70.411  1.00  0.00    -0.112 OA 
ENDBRANCH   6  17
TORSDOF 2
ENDMDL
MODEL       70
REMARK 921   NORMALIZED FREE ENERGY PREDICTED BY IDOCK:   -4.79 KCAL/MOL
REMARK 922        TOTAL FREE ENERGY PREDICTED BY IDOCK:   -5.77 KCAL/MOL
REMARK 923 INTER-LIGAND FREE ENERGY PREDICTED BY IDOCK:   -5.31 KCAL/MOL
REMARK 924 INTRA-LIGAND FREE ENERGY PREDICTED BY IDOCK:   -0.45 KCAL/MOL
REMARK 927      BINDING AFFINITY PREDICTED BY RF-SCORE:    0.00 PKD
ROOT
HETATM    1  C   UNL     1     -12.976  11.274  71.571  1.00  0.00    -0.520 C  
HETATM    2  C   UNL     1     -11.855  11.180  70.563  1.00  0.00    -0.448 A  
HETATM    3  C   UNL     1     -11.500  12.068  69.517  1.00  0.00    -0.282 A  
HETATM    4  C   UNL     1     -10.404  11.771  68.660  1.00  0.00    -0.228 A  
HETATM    5  C   UNL     1     -11.116   9.991  70.701  1.00  0.00    -0.408 A  
HETATM    6  C   UNL     1     -10.053   9.686  69.862  1.00  0.00    -0.246 A  
HETATM    7  C   UNL     1     -10.019  12.623  67.602  1.00  0.00    -0.216 A  
HETATM    8  C   UNL     1      -9.681  10.562  68.835  1.00  0.00    -0.206 A  
HETATM    9  C   UNL     1      -8.618  10.255  67.962  1.00  0.00    -0.118 A  
HETATM   10  C   UNL     1      -8.266  11.114  66.927  1.00  0.00    -0.149 A  
HETATM   11  C   UNL     1      -8.967  12.299  66.745  1.00  0.00    -0.209 A  
ENDROOT
BRANCH   3  12
HETATM   12  O   UNL     1     -12.163  13.253  69.203  1.00  0.00    -0.266 OA 
HETATM   13  O   UNL     1     -13.300  14.530  70.684  1.00  0.00    -0.295 OA 
HETATM   14  O   UNL     1     -11.361  15.838  71.053  1.00  0.00    -0.341 OA 
HETATM   15  P   UNL     1     -11.740  14.617  70.180  1.00  0.00    -0.311 P  
HETATM   16  O   UNL     1     -12.052  15.479  68.819  1.00  0.00    -0.291 OA 
ENDBRANCH   3  12
BRANCH   6  17
HETATM   17  O   UNL     1      -9.443   8.465  69.942  1.00  0.00    -0.164 OA 
HETATM   18  P   UNL     1     -10.162   7.070  69.621  1.00  0.00    -0.215 P  
HETATM   19  O   UNL     1     -10.621   6.589  71.076  1.00  0.00    -0.220 OA 
HETATM   20  O   UNL     1     -11.192   7.021  68.553  1.00  0.00    -0.056 OA 
HETATM   21  O   UNL     1      -8.871   6.154  69.360  1.00  0.00    -0.125 OA 
ENDBRANCH   6  17
TORSDOF 2
ENDMDL
MODEL       71
REMARK 921   NORMALIZED FREE ENERGY PREDICTED BY IDOCK:   -4.79 KCAL/MOL
REMARK 922        TOTAL FREE ENERGY PREDICTED BY IDOCK:   -5.76 KCAL/MOL
REMARK 923 INTER-LIGAND FREE ENERGY PREDICTED BY IDOCK:   -5.50 KCAL/MOL
REMARK 924 INTRA-LIGAND FREE ENERGY PREDICTED BY IDOCK:   -0.27 KCAL/MOL
REMARK 927      BINDING AFFINITY PREDICTED BY RF-SCORE:    0.00 PKD
ROOT
HETATM    1  C   UNL     1     -11.939  11.787  69.332  1.00  0.00    -0.361 C  
HETATM    2  C   UNL     1     -10.911  10.951  68.608  1.00  0.00    -0.258 A  
HETATM    3  C   UNL     1     -10.176  11.237  67.430  1.00  0.00    -0.188 A  
HETATM    4  C   UNL     1      -9.260  10.285  66.902  1.00  0.00    -0.171 A  
HETATM    5  C   UNL     1     -10.731   9.692  69.210  1.00  0.00    -0.246 A  
HETATM    6  C   UNL     1      -9.849   8.752  68.695  1.00  0.00    -0.168 A  
HETATM    7  C   UNL     1      -8.511  10.525  65.730  1.00  0.00    -0.177 A  
HETATM    8  C   UNL     1      -9.104   9.028  67.543  1.00  0.00    -0.145 A  
HETATM    9  C   UNL     1      -8.222   8.074  66.996  1.00  0.00    -0.116 A  
HETATM   10  C   UNL     1      -7.502   8.341  65.837  1.00  0.00    -0.081 A  
HETATM   11  C   UNL     1      -7.647   9.566  65.201  1.00  0.00    -0.112 A  
ENDROOT
BRANCH   3  12
HETATM   12  O   UNL     1     -10.279  12.405  66.677  1.00  0.00    -0.220 OA 
HETATM   13  O   UNL     1     -10.804  12.482  64.477  1.00  0.00    -0.294 OA 
HETATM   14  O   UNL     1     -13.090  12.762  65.027  1.00  0.00    -0.811 OA 
HETATM   15  P   UNL     1     -11.763  12.593  65.806  1.00  0.00    -0.434 P  
HETATM   16  O   UNL     1     -11.514  14.196  66.057  1.00  0.00    -0.327 OA 
ENDBRANCH   3  12
BRANCH   6  17
HETATM   17  O   UNL     1      -9.797   7.494  69.230  1.00  0.00    -0.165 OA 
HETATM   18  P   UNL     1     -10.786   6.298  68.830  1.00  0.00    -0.342 P  
HETATM   19  O   UNL     1     -11.906   6.398  69.968  1.00  0.00    -0.404 OA 
HETATM   20  O   UNL     1     -11.271   6.204  67.431  1.00  0.00    -0.288 OA 
HETATM   21  O   UNL     1      -9.914   5.048  69.331  1.00  0.00    -0.188 OA 
ENDBRANCH   6  17
TORSDOF 2
ENDMDL
MODEL       72
REMARK 921   NORMALIZED FREE ENERGY PREDICTED BY IDOCK:   -4.76 KCAL/MOL
REMARK 922        TOTAL FREE ENERGY PREDICTED BY IDOCK:   -5.73 KCAL/MOL
REMARK 923 INTER-LIGAND FREE ENERGY PREDICTED BY IDOCK:   -5.37 KCAL/MOL
REMARK 924 INTRA-LIGAND FREE ENERGY PREDICTED BY IDOCK:   -0.35 KCAL/MOL
REMARK 927      BINDING AFFINITY PREDICTED BY RF-SCORE:    0.00 PKD
ROOT
HETATM    1  C   UNL     1      -7.595  14.209  68.713  1.00  0.00    -0.125 C  
HETATM    2  C   UNL     1      -8.637  13.729  67.731  1.00  0.00    -0.184 A  
HETATM    3  C   UNL     1      -9.855  14.335  67.333  1.00  0.00    -0.235 A  
HETATM    4  C   UNL     1     -10.709  13.690  66.395  1.00  0.00    -0.281 A  
HETATM    5  C   UNL     1      -8.323  12.465  67.200  1.00  0.00    -0.181 A  
HETATM    6  C   UNL     1      -9.155  11.822  66.294  1.00  0.00    -0.206 A  
HETATM    7  C   UNL     1     -11.933  14.253  65.974  1.00  0.00    -0.412 A  
HETATM    8  C   UNL     1     -10.352  12.416  65.879  1.00  0.00    -0.282 A  
HETATM    9  C   UNL     1     -11.218  11.765  64.977  1.00  0.00    -0.318 A  
HETATM   10  C   UNL     1     -12.420  12.346  64.585  1.00  0.00    -0.500 A  
HETATM   11  C   UNL     1     -12.779  13.590  65.085  1.00  0.00    -0.453 A  
ENDROOT
BRANCH   3  12
HETATM   12  O   UNL     1     -10.347  15.549  67.808  1.00  0.00    -0.253 OA 
HETATM   13  O   UNL     1     -12.275  15.800  68.965  1.00  0.00    -0.280 OA 
HETATM   14  O   UNL     1     -11.083  15.610  71.002  1.00  0.00    -0.340 OA 
HETATM   15  P   UNL     1     -10.736  15.581  69.493  1.00  0.00    -0.323 P  
HETATM   16  O   UNL     1     -10.299  17.160  69.395  1.00  0.00    -0.290 OA 
ENDBRANCH   3  12
BRANCH   6  17
HETATM   17  O   UNL     1      -8.882  10.541  65.900  1.00  0.00    -0.154 OA 
HETATM   18  P   UNL     1      -9.000   9.256  66.850  1.00  0.00    -0.135 P  
HETATM   19  O   UNL     1      -7.496   9.086  67.368  1.00  0.00    -0.084 OA 
HETATM   20  O   UNL     1     -10.063   9.222  67.885  1.00  0.00    -0.178 OA 
HETATM   21  O   UNL     1      -9.100   8.106  65.737  1.00  0.00    -0.162 OA 
ENDBRANCH   6  17
TORSDOF 2
ENDMDL
MODEL       73
REMARK 921   NORMALIZED FREE ENERGY PREDICTED BY IDOCK:   -4.73 KCAL/MOL
REMARK 922        TOTAL FREE ENERGY PREDICTED BY IDOCK:   -5.70 KCAL/MOL
REMARK 923 INTER-LIGAND FREE ENERGY PREDICTED BY IDOCK:   -5.27 KCAL/MOL
REMARK 924 INTRA-LIGAND FREE ENERGY PREDICTED BY IDOCK:   -0.43 KCAL/MOL
REMARK 927      BINDING AFFINITY PREDICTED BY RF-SCORE:    0.00 PKD
ROOT
HETATM    1  C   UNL     1     -11.433  10.756  70.200  1.00  0.00    -0.415 C  
HETATM    2  C   UNL     1     -11.053   9.593  69.314  1.00  0.00    -0.149 A  
HETATM    3  C   UNL     1     -10.892   8.223  69.638  1.00  0.00    -0.150 A  
HETATM    4  C   UNL     1     -10.504   7.286  68.640  1.00  0.00    -0.214 A  
HETATM    5  C   UNL     1     -10.783   9.997  67.995  1.00  0.00    -0.303 A  
HETATM    6  C   UNL     1     -10.392   9.094  67.016  1.00  0.00    -0.263 A  
HETATM    7  C   UNL     1     -10.326   5.914  68.917  1.00  0.00    -0.290 A  
HETATM    8  C   UNL     1     -10.246   7.735  67.317  1.00  0.00    -0.343 A  
HETATM    9  C   UNL     1      -9.827   6.810  66.339  1.00  0.00    -0.096 A  
HETATM   10  C   UNL     1      -9.658   5.464  66.647  1.00  0.00    -0.161 A  
HETATM   11  C   UNL     1      -9.906   5.015  67.937  1.00  0.00    -0.200 A  
ENDROOT
BRANCH   3  12
HETATM   12  O   UNL     1     -11.057   7.666  70.905  1.00  0.00    -0.253 OA 
HETATM   13  O   UNL     1     -12.366   8.530  72.536  1.00  0.00    -0.388 OA 
HETATM   14  O   UNL     1     -14.165   7.166  71.822  1.00  0.00    -0.406 OA 
HETATM   15  P   UNL     1     -12.697   7.403  71.389  1.00  0.00    -0.312 P  
HETATM   16  O   UNL     1     -12.073   6.132  72.219  1.00  0.00    -0.311 OA 
ENDBRANCH   3  12
BRANCH   6  17
HETATM   17  O   UNL     1     -10.013   9.541  65.780  1.00  0.00    -0.300 OA 
HETATM   18  P   UNL     1      -8.853  10.616  65.522  1.00  0.00    -0.186 P  
HETATM   19  O   UNL     1      -9.682  11.980  65.418  1.00  0.00    -0.238 OA 
HETATM   20  O   UNL     1      -7.671  10.627  66.418  1.00  0.00    -0.128 OA 
HETATM   21  O   UNL     1      -8.535  10.303  63.981  1.00  0.00    -0.165 OA 
ENDBRANCH   6  17
TORSDOF 2
ENDMDL
MODEL       74
REMARK 921   NORMALIZED FREE ENERGY PREDICTED BY IDOCK:   -4.72 KCAL/MOL
REMARK 922        TOTAL FREE ENERGY PREDICTED BY IDOCK:   -5.69 KCAL/MOL
REMARK 923 INTER-LIGAND FREE ENERGY PREDICTED BY IDOCK:   -5.52 KCAL/MOL
REMARK 924 INTRA-LIGAND FREE ENERGY PREDICTED BY IDOCK:   -0.17 KCAL/MOL
REMARK 927      BINDING AFFINITY PREDICTED BY RF-SCORE:    0.00 PKD
ROOT
HETATM    1  C   UNL     1      -9.789   7.825  66.305  1.00  0.00    -0.111 C  
HETATM    2  C   UNL     1     -10.196   7.994  67.749  1.00  0.00    -0.282 A  
HETATM    3  C   UNL     1     -10.508   7.013  68.723  1.00  0.00    -0.206 A  
HETATM    4  C   UNL     1     -10.893   7.398  70.038  1.00  0.00    -0.266 A  
HETATM    5  C   UNL     1     -10.313   9.347  68.112  1.00  0.00    -0.255 A  
HETATM    6  C   UNL     1     -10.699   9.734  69.389  1.00  0.00    -0.228 A  
HETATM    7  C   UNL     1     -11.218   6.457  71.038  1.00  0.00    -0.370 A  
HETATM    8  C   UNL     1     -10.994   8.776  70.366  1.00  0.00    -0.262 A  
HETATM    9  C   UNL     1     -11.409   9.154  71.659  1.00  0.00    -0.446 A  
HETATM   10  C   UNL     1     -11.726   8.200  72.621  1.00  0.00    -0.419 A  
HETATM   11  C   UNL     1     -11.632   6.851  72.311  1.00  0.00    -0.309 A  
ENDROOT
BRANCH   3  12
HETATM   12  O   UNL     1     -10.505   5.635  68.513  1.00  0.00    -0.203 OA 
HETATM   13  O   UNL     1      -9.409   4.586  66.834  1.00  0.00    -0.125 OA 
HETATM   14  O   UNL     1      -7.538   4.266  68.249  1.00  0.00    -0.067 OA 
HETATM   15  P   UNL     1      -8.939   4.913  68.373  1.00  0.00    -0.119 P  
HETATM   16  O   UNL     1      -9.664   3.605  69.051  1.00  0.00    -0.147 OA 
ENDBRANCH   3  12
BRANCH   6  17
HETATM   17  O   UNL     1     -10.927  11.053  69.667  1.00  0.00    -0.251 OA 
HETATM   18  P   UNL     1     -11.313  12.157  68.571  1.00  0.00    -0.327 P  
HETATM   19  O   UNL     1      -9.887  12.798  68.229  1.00  0.00    -0.221 OA 
HETATM   20  O   UNL     1     -12.153  11.760  67.415  1.00  0.00    -0.595 OA 
HETATM   21  O   UNL     1     -11.957  13.273  69.527  1.00  0.00    -0.307 OA 
ENDBRANCH   6  17
TORSDOF 2
ENDMDL
MODEL       75
REMARK 921   NORMALIZED FREE ENERGY PREDICTED BY IDOCK:   -4.67 KCAL/MOL
REMARK 922        TOTAL FREE ENERGY PREDICTED BY IDOCK:   -5.64 KCAL/MOL
REMARK 923 INTER-LIGAND FREE ENERGY PREDICTED BY IDOCK:   -5.25 KCAL/MOL
REMARK 924 INTRA-LIGAND FREE ENERGY PREDICTED BY IDOCK:   -0.38 KCAL/MOL
REMARK 927      BINDING AFFINITY PREDICTED BY RF-SCORE:    0.00 PKD
ROOT
HETATM    1  C   UNL     1     -10.830  12.530  67.396  1.00  0.00    -0.272 C  
HETATM    2  C   UNL     1     -10.768  11.106  67.894  1.00  0.00    -0.261 A  
HETATM    3  C   UNL     1     -10.528   9.906  67.179  1.00  0.00    -0.242 A  
HETATM    4  C   UNL     1     -10.533   8.652  67.851  1.00  0.00    -0.269 A  
HETATM    5  C   UNL     1     -11.044  11.012  69.270  1.00  0.00    -0.312 A  
HETATM    6  C   UNL     1     -11.064   9.792  69.933  1.00  0.00    -0.254 A  
HETATM    7  C   UNL     1     -10.305   7.432  67.179  1.00  0.00    -0.377 A  
HETATM    8  C   UNL     1     -10.812   8.601  69.243  1.00  0.00    -0.082 A  
HETATM    9  C   UNL     1     -10.851   7.353  69.898  1.00  0.00    -0.259 A  
HETATM   10  C   UNL     1     -10.625   6.169  69.206  1.00  0.00    -0.348 A  
HETATM   11  C   UNL     1     -10.353   6.207  67.845  1.00  0.00    -0.250 A  
ENDROOT
BRANCH   3  12
HETATM   12  O   UNL     1     -10.301   9.814  65.807  1.00  0.00    -0.209 OA 
HETATM   13  O   UNL     1      -9.320  11.418  64.548  1.00  0.00    -0.183 OA 
HETATM   14  O   UNL     1      -7.214  10.380  64.857  1.00  0.00    -0.129 OA 
HETATM   15  P   UNL     1      -8.672  10.113  65.306  1.00  0.00    -0.190 P  
HETATM   16  O   UNL     1      -9.017   9.040  64.113  1.00  0.00    -0.111 OA 
ENDBRANCH   3  12
BRANCH   6  17
HETATM   17  O   UNL     1     -11.463   9.727  71.239  1.00  0.00    -0.353 OA 
HETATM   18  P   UNL     1     -12.992   9.684  71.718  1.00  0.00    -0.463 P  
HETATM   19  O   UNL     1     -13.285  11.225  72.031  1.00  0.00    -0.506 OA 
HETATM   20  O   UNL     1     -13.989   8.978  70.877  1.00  0.00    -0.075 OA 
HETATM   21  O   UNL     1     -12.796   9.079  73.191  1.00  0.00    -0.108 OA 
ENDBRANCH   6  17
TORSDOF 2
ENDMDL
MODEL       76
REMARK 921   NORMALIZED FREE ENERGY PREDICTED BY IDOCK:   -4.63 KCAL/MOL
REMARK 922        TOTAL FREE ENERGY PREDICTED BY IDOCK:   -5.58 KCAL/MOL
REMARK 923 INTER-LIGAND FREE ENERGY PREDICTED BY IDOCK:   -5.19 KCAL/MOL
REMARK 924 INTRA-LIGAND FREE ENERGY PREDICTED BY IDOCK:   -0.39 KCAL/MOL
REMARK 927      BINDING AFFINITY PREDICTED BY RF-SCORE:    0.00 PKD
ROOT
HETATM    1  C   UNL     1      -9.666   5.654  68.880  1.00  0.00    -0.181 C  
HETATM    2  C   UNL     1     -10.147   7.084  68.946  1.00  0.00    -0.174 A  
HETATM    3  C   UNL     1     -10.727   7.796  70.025  1.00  0.00    -0.244 A  
HETATM    4  C   UNL     1     -11.132   9.150  69.861  1.00  0.00    -0.175 A  
HETATM    5  C   UNL     1     -10.020   7.743  67.710  1.00  0.00    -0.220 A  
HETATM    6  C   UNL     1     -10.423   9.060  67.537  1.00  0.00    -0.272 A  
HETATM    7  C   UNL     1     -11.718   9.896  70.906  1.00  0.00    -0.449 A  
HETATM    8  C   UNL     1     -10.982   9.781  68.598  1.00  0.00    -0.189 A  
HETATM    9  C   UNL     1     -11.417  11.112  68.430  1.00  0.00    -0.377 A  
HETATM   10  C   UNL     1     -11.995  11.818  69.480  1.00  0.00    -0.364 A  
HETATM   11  C   UNL     1     -12.147  11.211  70.719  1.00  0.00    -0.458 A  
ENDROOT
BRANCH   3  12
HETATM   12  O   UNL     1     -10.982   7.276  71.293  1.00  0.00    -0.239 OA 
HETATM   13  O   UNL     1      -9.722   5.704  72.323  1.00  0.00    -0.154 OA 
HETATM   14  O   UNL     1      -8.466   7.405  73.391  1.00  0.00    -0.119 OA 
HETATM   15  P   UNL     1      -9.654   7.343  72.400  1.00  0.00    -0.170 P  
HETATM   16  O   UNL     1     -10.826   7.506  73.538  1.00  0.00    -0.369 OA 
ENDBRANCH   3  12
BRANCH   6  17
HETATM   17  O   UNL     1     -10.405   9.626  66.291  1.00  0.00    -0.239 OA 
HETATM   18  P   UNL     1      -9.077  10.102  65.532  1.00  0.00    -0.215 P  
HETATM   19  O   UNL     1      -9.024  11.658  65.898  1.00  0.00    -0.192 OA 
HETATM   20  O   UNL     1      -7.822   9.334  65.728  1.00  0.00    -0.097 OA 
HETATM   21  O   UNL     1      -9.625  10.134  64.025  1.00  0.00    -0.291 OA 
ENDBRANCH   6  17
TORSDOF 2
ENDMDL
MODEL       77
REMARK 921   NORMALIZED FREE ENERGY PREDICTED BY IDOCK:   -4.60 KCAL/MOL
REMARK 922        TOTAL FREE ENERGY PREDICTED BY IDOCK:   -5.56 KCAL/MOL
REMARK 923 INTER-LIGAND FREE ENERGY PREDICTED BY IDOCK:   -5.33 KCAL/MOL
REMARK 924 INTRA-LIGAND FREE ENERGY PREDICTED BY IDOCK:   -0.22 KCAL/MOL
REMARK 927      BINDING AFFINITY PREDICTED BY RF-SCORE:    0.00 PKD
ROOT
HETATM    1  C   UNL     1     -12.227  16.026  69.202  1.00  0.00     0.083 C  
HETATM    2  C   UNL     1     -10.871  15.449  68.871  1.00  0.00    -0.251 A  
HETATM    3  C   UNL     1      -9.625  16.102  68.703  1.00  0.00    -0.226 A  
HETATM    4  C   UNL     1      -8.459  15.358  68.369  1.00  0.00    -0.160 A  
HETATM    5  C   UNL     1     -10.923  14.058  68.665  1.00  0.00    -0.281 A  
HETATM    6  C   UNL     1      -9.794  13.325  68.326  1.00  0.00    -0.231 A  
HETATM    7  C   UNL     1      -7.199  15.966  68.186  1.00  0.00    -0.134 A  
HETATM    8  C   UNL     1      -8.553  13.954  68.173  1.00  0.00    -0.180 A  
HETATM    9  C   UNL     1      -7.403  13.225  67.808  1.00  0.00    -0.147 A  
HETATM   10  C   UNL     1      -6.176  13.857  67.631  1.00  0.00    -0.109 A  
HETATM   11  C   UNL     1      -6.073  15.228  67.819  1.00  0.00    -0.169 A  
ENDROOT
BRANCH   3  12
HETATM   12  O   UNL     1      -9.411  17.475  68.808  1.00  0.00    -0.279 OA 
HETATM   13  O   UNL     1      -8.620  18.792  67.146  1.00  0.00    -0.268 OA 
HETATM   14  O   UNL     1     -10.837  19.297  66.484  1.00  0.00    -0.398 OA 
HETATM   15  P   UNL     1     -10.163  18.436  67.581  1.00  0.00    -0.413 P  
HETATM   16  O   UNL     1     -10.268  19.568  68.765  1.00  0.00    -0.431 OA 
ENDBRANCH   3  12
BRANCH   6  17
HETATM   17  O   UNL     1      -9.906  12.000  68.006  1.00  0.00    -0.187 OA 
HETATM   18  P   UNL     1     -11.151  11.358  67.226  1.00  0.00    -0.282 P  
HETATM   19  O   UNL     1     -12.058  10.824  68.431  1.00  0.00    -0.501 OA 
HETATM   20  O   UNL     1     -11.839  12.162  66.187  1.00  0.00    -0.543 OA 
HETATM   21  O   UNL     1     -10.469  10.005  66.698  1.00  0.00    -0.223 OA 
ENDBRANCH   6  17
TORSDOF 2
ENDMDL
MODEL       78
REMARK 921   NORMALIZED FREE ENERGY PREDICTED BY IDOCK:   -4.57 KCAL/MOL
REMARK 922        TOTAL FREE ENERGY PREDICTED BY IDOCK:   -5.52 KCAL/MOL
REMARK 923 INTER-LIGAND FREE ENERGY PREDICTED BY IDOCK:   -5.08 KCAL/MOL
REMARK 924 INTRA-LIGAND FREE ENERGY PREDICTED BY IDOCK:   -0.44 KCAL/MOL
REMARK 927      BINDING AFFINITY PREDICTED BY RF-SCORE:    0.00 PKD
ROOT
HETATM    1  C   UNL     1     -10.442   7.844  69.920  1.00  0.00    -0.229 C  
HETATM    2  C   UNL     1     -10.324   8.508  68.569  1.00  0.00    -0.230 A  
HETATM    3  C   UNL     1      -9.511   8.168  67.459  1.00  0.00    -0.152 A  
HETATM    4  C   UNL     1      -9.544   8.953  66.273  1.00  0.00    -0.328 A  
HETATM    5  C   UNL     1     -11.129   9.658  68.471  1.00  0.00    -0.091 A  
HETATM    6  C   UNL     1     -11.159  10.438  67.323  1.00  0.00    -0.179 A  
HETATM    7  C   UNL     1      -8.748   8.655  65.146  1.00  0.00    -0.179 A  
HETATM    8  C   UNL     1     -10.374  10.104  66.213  1.00  0.00    -0.245 A  
HETATM    9  C   UNL     1     -10.377  10.899  65.050  1.00  0.00    -0.356 A  
HETATM   10  C   UNL     1      -9.577  10.580  63.957  1.00  0.00    -0.367 A  
HETATM   11  C   UNL     1      -8.761   9.458  64.005  1.00  0.00    -0.225 A  
ENDROOT
BRANCH   3  12
HETATM   12  O   UNL     1      -8.614   7.103  67.411  1.00  0.00    -0.121 OA 
HETATM   13  O   UNL     1      -8.870   5.145  68.515  1.00  0.00    -0.100 OA 
HETATM   14  O   UNL     1      -9.921   4.204  66.614  1.00  0.00    -0.221 OA 
HETATM   15  P   UNL     1      -9.304   5.573  66.991  1.00  0.00    -0.130 P  
HETATM   16  O   UNL     1      -7.837   5.284  66.313  1.00  0.00    -0.101 OA 
ENDBRANCH   3  12
BRANCH   6  17
HETATM   17  O   UNL     1     -11.851  11.617  67.311  1.00  0.00    -0.609 OA 
HETATM   18  P   UNL     1     -11.418  12.930  68.121  1.00  0.00    -0.360 P  
HETATM   19  O   UNL     1     -12.282  12.796  69.460  1.00  0.00    -0.222 OA 
HETATM   20  O   UNL     1      -9.974  13.225  68.292  1.00  0.00    -0.228 OA 
HETATM   21  O   UNL     1     -12.244  14.036  67.302  1.00  0.00    -0.405 OA 
ENDBRANCH   6  17
TORSDOF 2
ENDMDL
MODEL       79
REMARK 921   NORMALIZED FREE ENERGY PREDICTED BY IDOCK:   -4.57 KCAL/MOL
REMARK 922        TOTAL FREE ENERGY PREDICTED BY IDOCK:   -5.51 KCAL/MOL
REMARK 923 INTER-LIGAND FREE ENERGY PREDICTED BY IDOCK:   -5.29 KCAL/MOL
REMARK 924 INTRA-LIGAND FREE ENERGY PREDICTED BY IDOCK:   -0.22 KCAL/MOL
REMARK 927      BINDING AFFINITY PREDICTED BY RF-SCORE:    0.00 PKD
ROOT
HETATM    1  C   UNL     1      -8.964   8.472  66.610  1.00  0.00    -0.178 C  
HETATM    2  C   UNL     1      -9.760   8.826  67.844  1.00  0.00    -0.188 A  
HETATM    3  C   UNL     1     -10.639   9.913  68.074  1.00  0.00    -0.242 A  
HETATM    4  C   UNL     1     -11.278  10.069  69.336  1.00  0.00    -0.235 A  
HETATM    5  C   UNL     1      -9.515   7.936  68.905  1.00  0.00    -0.150 A  
HETATM    6  C   UNL     1     -10.124   8.086  70.144  1.00  0.00    -0.194 A  
HETATM    7  C   UNL     1     -12.157  11.138  69.612  1.00  0.00    -0.406 A  
HETATM    8  C   UNL     1     -11.008   9.145  70.380  1.00  0.00    -0.290 A  
HETATM    9  C   UNL     1     -11.616   9.323  71.640  1.00  0.00    -0.463 A  
HETATM   10  C   UNL     1     -12.474  10.391  71.880  1.00  0.00    -0.291 A  
HETATM   11  C   UNL     1     -12.745  11.300  70.867  1.00  0.00    -0.412 A  
ENDROOT
BRANCH   3  12
HETATM   12  O   UNL     1     -10.942  10.916  67.156  1.00  0.00    -0.274 OA 
HETATM   13  O   UNL     1     -10.804  13.136  67.574  1.00  0.00    -0.248 OA 
HETATM   14  O   UNL     1      -8.597  13.165  66.715  1.00  0.00    -0.155 OA 
HETATM   15  P   UNL     1      -9.705  12.103  66.924  1.00  0.00    -0.215 P  
HETATM   16  O   UNL     1     -10.293  12.176  65.393  1.00  0.00    -0.253 OA 
ENDBRANCH   3  12
BRANCH   6  17
HETATM   17  O   UNL     1      -9.763   7.281  71.189  1.00  0.00    -0.171 OA 
HETATM   18  P   UNL     1     -10.191   5.744  71.337  1.00  0.00    -0.231 P  
HETATM   19  O   UNL     1     -11.486   5.848  72.271  1.00  0.00    -0.293 OA 
HETATM   20  O   UNL     1     -10.323   4.913  70.115  1.00  0.00    -0.265 OA 
HETATM   21  O   UNL     1      -9.072   5.252  72.376  1.00  0.00    -0.134 OA 
ENDBRANCH   6  17
TORSDOF 2
ENDMDL
MODEL       80
REMARK 921   NORMALIZED FREE ENERGY PREDICTED BY IDOCK:   -4.50 KCAL/MOL
REMARK 922        TOTAL FREE ENERGY PREDICTED BY IDOCK:   -5.44 KCAL/MOL
REMARK 923 INTER-LIGAND FREE ENERGY PREDICTED BY IDOCK:   -5.07 KCAL/MOL
REMARK 924 INTRA-LIGAND FREE ENERGY PREDICTED BY IDOCK:   -0.37 KCAL/MOL
REMARK 927      BINDING AFFINITY PREDICTED BY RF-SCORE:    0.00 PKD
ROOT
HETATM    1  C   UNL     1      -9.185   8.262  73.386  1.00  0.00    -0.221 C  
HETATM    2  C   UNL     1      -9.603   8.017  71.956  1.00  0.00    -0.262 A  
HETATM    3  C   UNL     1      -9.790   6.795  71.264  1.00  0.00    -0.176 A  
HETATM    4  C   UNL     1     -10.173   6.793  69.893  1.00  0.00    -0.211 A  
HETATM    5  C   UNL     1      -9.771   9.216  71.240  1.00  0.00    -0.351 A  
HETATM    6  C   UNL     1     -10.132   9.225  69.899  1.00  0.00    -0.209 A  
HETATM    7  C   UNL     1     -10.365   5.601  69.162  1.00  0.00    -0.328 A  
HETATM    8  C   UNL     1     -10.337   8.026  69.208  1.00  0.00    -0.224 A  
HETATM    9  C   UNL     1     -10.681   8.020  67.840  1.00  0.00    -0.139 A  
HETATM   10  C   UNL     1     -10.860   6.827  67.148  1.00  0.00    -0.462 A  
HETATM   11  C   UNL     1     -10.701   5.616  67.808  1.00  0.00    -0.250 A  
ENDROOT
BRANCH   3  12
HETATM   12  O   UNL     1      -9.604   5.523  71.803  1.00  0.00    -0.148 OA 
HETATM   13  O   UNL     1      -9.717   5.024  74.007  1.00  0.00    -0.132 OA 
HETATM   14  O   UNL     1     -12.007   4.471  73.770  1.00  0.00     0.055 OA 
HETATM   15  P   UNL     1     -10.872   4.969  72.842  1.00  0.00    -0.273 P  
HETATM   16  O   UNL     1     -10.463   3.484  72.273  1.00  0.00    -0.108 OA 
ENDBRANCH   3  12
BRANCH   6  17
HETATM   17  O   UNL     1     -10.159  10.402  69.204  1.00  0.00    -0.200 OA 
HETATM   18  P   UNL     1     -11.351  11.470  69.277  1.00  0.00    -0.312 P  
HETATM   19  O   UNL     1     -12.241  11.063  68.011  1.00  0.00    -0.520 OA 
HETATM   20  O   UNL     1     -12.073  11.656  70.560  1.00  0.00    -0.361 OA 
HETATM   21  O   UNL     1     -10.582  12.770  68.737  1.00  0.00    -0.240 OA 
ENDBRANCH   6  17
TORSDOF 2
ENDMDL
MODEL       81
REMARK 921   NORMALIZED FREE ENERGY PREDICTED BY IDOCK:   -4.50 KCAL/MOL
REMARK 922        TOTAL FREE ENERGY PREDICTED BY IDOCK:   -5.44 KCAL/MOL
REMARK 923 INTER-LIGAND FREE ENERGY PREDICTED BY IDOCK:   -5.20 KCAL/MOL
REMARK 924 INTRA-LIGAND FREE ENERGY PREDICTED BY IDOCK:   -0.24 KCAL/MOL
REMARK 927      BINDING AFFINITY PREDICTED BY RF-SCORE:    0.00 PKD
ROOT
HETATM    1  C   UNL     1     -12.032  13.498  67.060  1.00  0.00    -0.440 C  
HETATM    2  C   UNL     1     -11.164  12.556  67.860  1.00  0.00    -0.312 A  
HETATM    3  C   UNL     1      -9.752  12.449  67.913  1.00  0.00    -0.204 A  
HETATM    4  C   UNL     1      -9.133  11.464  68.732  1.00  0.00    -0.096 A  
HETATM    5  C   UNL     1     -11.926  11.642  68.611  1.00  0.00    -0.311 A  
HETATM    6  C   UNL     1     -11.332  10.669  69.403  1.00  0.00    -0.284 A  
HETATM    7  C   UNL     1      -7.732  11.316  68.811  1.00  0.00    -0.138 A  
HETATM    8  C   UNL     1      -9.938  10.562  69.478  1.00  0.00    -0.187 A  
HETATM    9  C   UNL     1      -9.322   9.565  70.261  1.00  0.00    -0.305 A  
HETATM   10  C   UNL     1      -7.937   9.444  70.314  1.00  0.00    -0.172 A  
HETATM   11  C   UNL     1      -7.141  10.319  69.588  1.00  0.00    -0.125 A  
ENDROOT
BRANCH   3  12
HETATM   12  O   UNL     1      -8.854  13.230  67.188  1.00  0.00    -0.208 OA 
HETATM   13  O   UNL     1      -9.282  15.316  66.421  1.00  0.00    -0.265 OA 
HETATM   14  O   UNL     1      -8.331  16.238  68.384  1.00  0.00    -0.175 OA 
HETATM   15  P   UNL     1      -8.579  14.817  67.819  1.00  0.00    -0.189 P  
HETATM   16  O   UNL     1      -7.075  14.626  67.190  1.00  0.00    -0.180 OA 
ENDBRANCH   3  12
BRANCH   6  17
HETATM   17  O   UNL     1     -12.101   9.718  70.014  1.00  0.00    -0.055 OA 
HETATM   18  P   UNL     1     -12.770   9.885  71.461  1.00  0.00    -0.475 P  
HETATM   19  O   UNL     1     -11.694   9.177  72.409  1.00  0.00    -0.229 OA 
HETATM   20  O   UNL     1     -13.243  11.226  71.884  1.00  0.00    -0.482 OA 
HETATM   21  O   UNL     1     -13.913   8.763  71.361  1.00  0.00    -0.362 OA 
ENDBRANCH   6  17
TORSDOF 2
ENDMDL
MODEL       82
REMARK 921   NORMALIZED FREE ENERGY PREDICTED BY IDOCK:   -4.49 KCAL/MOL
REMARK 922        TOTAL FREE ENERGY PREDICTED BY IDOCK:   -5.43 KCAL/MOL
REMARK 923 INTER-LIGAND FREE ENERGY PREDICTED BY IDOCK:   -5.41 KCAL/MOL
REMARK 924 INTRA-LIGAND FREE ENERGY PREDICTED BY IDOCK:   -0.03 KCAL/MOL
REMARK 927      BINDING AFFINITY PREDICTED BY RF-SCORE:    0.00 PKD
ROOT
HETATM    1  C   UNL     1     -12.455  13.795  66.421  1.00  0.00    -0.404 C  
HETATM    2  C   UNL     1     -11.038  13.354  66.699  1.00  0.00    -0.310 A  
HETATM    3  C   UNL     1      -9.900  14.126  67.041  1.00  0.00    -0.258 A  
HETATM    4  C   UNL     1      -8.638  13.500  67.243  1.00  0.00    -0.218 A  
HETATM    5  C   UNL     1     -10.871  11.967  66.532  1.00  0.00    -0.314 A  
HETATM    6  C   UNL     1      -9.642  11.349  66.715  1.00  0.00    -0.188 A  
HETATM    7  C   UNL     1      -7.477  14.229  67.579  1.00  0.00    -0.201 A  
HETATM    8  C   UNL     1      -8.513  12.096  67.069  1.00  0.00    -0.183 A  
HETATM    9  C   UNL     1      -7.254  11.485  67.235  1.00  0.00    -0.132 A  
HETATM   10  C   UNL     1      -6.128  12.233  67.564  1.00  0.00    -0.140 A  
HETATM   11  C   UNL     1      -6.238  13.606  67.734  1.00  0.00    -0.159 A  
ENDROOT
BRANCH   3  12
HETATM   12  O   UNL     1      -9.875  15.512  67.183  1.00  0.00    -0.231 OA 
HETATM   13  O   UNL     1      -8.958  16.949  65.695  1.00  0.00    -0.486 OA 
HETATM   14  O   UNL     1     -11.061  17.202  64.636  1.00  0.00    -1.036 OA 
HETATM   15  P   UNL     1     -10.501  16.403  65.839  1.00  0.00    -0.239 P  
HETATM   16  O   UNL     1     -10.955  17.489  66.983  1.00  0.00    -0.126 OA 
ENDBRANCH   3  12
BRANCH   6  17
HETATM   17  O   UNL     1      -9.490  10.023  66.418  1.00  0.00    -0.170 OA 
HETATM   18  P   UNL     1      -9.827   8.824  67.426  1.00  0.00    -0.233 P  
HETATM   19  O   UNL     1      -8.395   8.523  68.074  1.00  0.00    -0.124 OA 
HETATM   20  O   UNL     1     -10.961   8.976  68.370  1.00  0.00    -0.071 OA 
HETATM   21  O   UNL     1      -9.974   7.621  66.375  1.00  0.00    -0.182 OA 
ENDBRANCH   6  17
TORSDOF 2
ENDMDL
MODEL       83
REMARK 921   NORMALIZED FREE ENERGY PREDICTED BY IDOCK:   -4.49 KCAL/MOL
REMARK 922        TOTAL FREE ENERGY PREDICTED BY IDOCK:   -5.43 KCAL/MOL
REMARK 923 INTER-LIGAND FREE ENERGY PREDICTED BY IDOCK:   -5.18 KCAL/MOL
REMARK 924 INTRA-LIGAND FREE ENERGY PREDICTED BY IDOCK:   -0.26 KCAL/MOL
REMARK 927      BINDING AFFINITY PREDICTED BY RF-SCORE:    0.00 PKD
ROOT
HETATM    1  C   UNL     1     -13.007  10.080  72.162  1.00  0.00    -0.460 C  
HETATM    2  C   UNL     1     -12.311  10.169  70.824  1.00  0.00    -0.422 A  
HETATM    3  C   UNL     1     -11.533   9.202  70.142  1.00  0.00    -0.087 A  
HETATM    4  C   UNL     1     -10.945   9.506  68.883  1.00  0.00    -0.116 A  
HETATM    5  C   UNL     1     -12.452  11.439  70.237  1.00  0.00    -0.312 A  
HETATM    6  C   UNL     1     -11.872  11.751  69.014  1.00  0.00    -0.317 A  
HETATM    7  C   UNL     1     -10.157   8.576  68.170  1.00  0.00    -0.240 A  
HETATM    8  C   UNL     1     -11.115  10.799  68.321  1.00  0.00    -0.327 A  
HETATM    9  C   UNL     1     -10.501  11.109  67.090  1.00  0.00    -0.270 A  
HETATM   10  C   UNL     1      -9.728  10.170  66.415  1.00  0.00    -0.259 A  
HETATM   11  C   UNL     1      -9.554   8.903  66.955  1.00  0.00    -0.232 A  
ENDROOT
BRANCH   3  12
HETATM   12  O   UNL     1     -11.242   7.921  70.610  1.00  0.00    -0.262 OA 
HETATM   13  O   UNL     1      -9.181   7.198  71.201  1.00  0.00    -0.156 OA 
HETATM   14  O   UNL     1      -9.608   7.806  73.450  1.00  0.00    -0.263 OA 
HETATM   15  P   UNL     1     -10.379   7.861  72.108  1.00  0.00    -0.285 P  
HETATM   16  O   UNL     1     -11.208   6.462  72.338  1.00  0.00    -0.253 OA 
ENDBRANCH   3  12
BRANCH   6  17
HETATM   17  O   UNL     1     -11.921  13.031  68.538  1.00  0.00    -0.323 OA 
HETATM   18  P   UNL     1     -10.920  14.202  68.981  1.00  0.00    -0.232 P  
HETATM   19  O   UNL     1     -11.752  14.932  70.135  1.00  0.00    -0.260 OA 
HETATM   20  O   UNL     1      -9.510  13.862  69.296  1.00  0.00     0.193 OA 
HETATM   21  O   UNL     1     -11.116  15.206  67.745  1.00  0.00    -0.293 OA 
ENDBRANCH   6  17
TORSDOF 2
ENDMDL
MODEL       84
REMARK 921   NORMALIZED FREE ENERGY PREDICTED BY IDOCK:   -4.40 KCAL/MOL
REMARK 922        TOTAL FREE ENERGY PREDICTED BY IDOCK:   -5.33 KCAL/MOL
REMARK 923 INTER-LIGAND FREE ENERGY PREDICTED BY IDOCK:   -5.42 KCAL/MOL
REMARK 924 INTRA-LIGAND FREE ENERGY PREDICTED BY IDOCK:    0.09 KCAL/MOL
REMARK 927      BINDING AFFINITY PREDICTED BY RF-SCORE:    0.00 PKD
ROOT
HETATM    1  C   UNL     1      -7.421  13.106  67.957  1.00  0.00    -0.132 C  
HETATM    2  C   UNL     1      -8.449  13.842  67.132  1.00  0.00    -0.196 A  
HETATM    3  C   UNL     1      -9.620  13.356  66.499  1.00  0.00    -0.272 A  
HETATM    4  C   UNL     1     -10.448  14.232  65.743  1.00  0.00    -0.326 A  
HETATM    5  C   UNL     1      -8.118  15.199  66.960  1.00  0.00    -0.240 A  
HETATM    6  C   UNL     1      -8.913  16.059  66.214  1.00  0.00    -0.345 A  
HETATM    7  C   UNL     1     -11.620  13.791  65.091  1.00  0.00    -0.341 A  
HETATM    8  C   UNL     1     -10.081  15.596  65.598  1.00  0.00    -0.395 A  
HETATM    9  C   UNL     1     -10.886  16.453  64.819  1.00  0.00    -0.197 A  
HETATM   10  C   UNL     1     -12.033  15.985  64.186  1.00  0.00     0.200 A  
HETATM   11  C   UNL     1     -12.400  14.654  64.321  1.00  0.00    -0.375 A  
ENDROOT
BRANCH   3  12
HETATM   12  O   UNL     1     -10.058  12.033  66.515  1.00  0.00    -0.197 OA 
HETATM   13  O   UNL     1     -10.602  10.829  64.678  1.00  0.00    -0.328 OA 
HETATM   14  O   UNL     1      -8.393   9.983  64.571  1.00  0.00    -0.149 OA 
HETATM   15  P   UNL     1      -9.179  10.952  65.489  1.00  0.00    -0.214 P  
HETATM   16  O   UNL     1      -9.543   9.834  66.634  1.00  0.00    -0.168 OA 
ENDBRANCH   3  12
BRANCH   6  17
HETATM   17  O   UNL     1      -8.494  17.336  65.961  1.00  0.00    -0.489 OA 
HETATM   18  P   UNL     1      -7.048  17.908  66.349  1.00  0.00    -0.308 P  
HETATM   19  O   UNL     1      -7.336  18.614  67.755  1.00  0.00    -0.225 OA 
HETATM   20  O   UNL     1      -5.876  16.999  66.293  1.00  0.00    -0.306 OA 
HETATM   21  O   UNL     1      -6.980  19.165  65.354  1.00  0.00    -0.419 OA 
ENDBRANCH   6  17
TORSDOF 2
ENDMDL
MODEL       85
REMARK 921   NORMALIZED FREE ENERGY PREDICTED BY IDOCK:   -4.38 KCAL/MOL
REMARK 922        TOTAL FREE ENERGY PREDICTED BY IDOCK:   -5.31 KCAL/MOL
REMARK 923 INTER-LIGAND FREE ENERGY PREDICTED BY IDOCK:   -4.97 KCAL/MOL
REMARK 924 INTRA-LIGAND FREE ENERGY PREDICTED BY IDOCK:   -0.34 KCAL/MOL
REMARK 927      BINDING AFFINITY PREDICTED BY RF-SCORE:    0.00 PKD
ROOT
HETATM    1  C   UNL     1     -11.841  13.133  63.828  1.00  0.00    -0.546 C  
HETATM    2  C   UNL     1     -10.878  13.161  64.991  1.00  0.00    -0.331 A  
HETATM    3  C   UNL     1     -10.017  12.146  65.479  1.00  0.00    -0.246 A  
HETATM    4  C   UNL     1      -9.196  12.383  66.617  1.00  0.00    -0.218 A  
HETATM    5  C   UNL     1     -10.918  14.384  65.683  1.00  0.00    -0.314 A  
HETATM    6  C   UNL     1     -10.130  14.621  66.802  1.00  0.00    -0.265 A  
HETATM    7  C   UNL     1      -8.328  11.401  67.141  1.00  0.00    -0.155 A  
HETATM    8  C   UNL     1      -9.263  13.634  67.285  1.00  0.00    -0.232 A  
HETATM    9  C   UNL     1      -8.474  13.852  68.433  1.00  0.00    -0.159 A  
HETATM   10  C   UNL     1      -7.632  12.861  68.926  1.00  0.00     0.054 A  
HETATM   11  C   UNL     1      -7.559  11.634  68.282  1.00  0.00    -0.120 A  
ENDROOT
BRANCH   3  12
HETATM   12  O   UNL     1      -9.901  10.861  64.952  1.00  0.00    -0.239 OA 
HETATM   13  O   UNL     1     -10.051  10.347  62.753  1.00  0.00    -0.102 OA 
HETATM   14  O   UNL     1      -7.699  10.528  62.546  1.00  0.00    -0.149 OA 
HETATM   15  P   UNL     1      -8.739  10.686  63.682  1.00  0.00    -0.062 P  
HETATM   16  O   UNL     1      -8.562   9.168  64.279  1.00  0.00    -0.189 OA 
ENDBRANCH   3  12
BRANCH   6  17
HETATM   17  O   UNL     1     -10.291  15.770  67.525  1.00  0.00    -0.267 OA 
HETATM   18  P   UNL     1      -9.914  17.235  66.994  1.00  0.00    -0.310 P  
HETATM   19  O   UNL     1      -8.443  17.436  67.589  1.00  0.00    -0.208 OA 
HETATM   20  O   UNL     1     -10.092  17.545  65.554  1.00  0.00    -0.576 OA 
HETATM   21  O   UNL     1     -10.801  18.121  67.995  1.00  0.00    -0.331 OA 
ENDBRANCH   6  17
TORSDOF 2
ENDMDL
MODEL       86
REMARK 921   NORMALIZED FREE ENERGY PREDICTED BY IDOCK:   -4.38 KCAL/MOL
REMARK 922        TOTAL FREE ENERGY PREDICTED BY IDOCK:   -5.30 KCAL/MOL
REMARK 923 INTER-LIGAND FREE ENERGY PREDICTED BY IDOCK:   -5.03 KCAL/MOL
REMARK 924 INTRA-LIGAND FREE ENERGY PREDICTED BY IDOCK:   -0.27 KCAL/MOL
REMARK 927      BINDING AFFINITY PREDICTED BY RF-SCORE:    0.00 PKD
ROOT
HETATM    1  C   UNL     1      -9.314   6.762  69.442  1.00  0.00    -0.148 C  
HETATM    2  C   UNL     1      -9.788   8.053  68.818  1.00  0.00    -0.176 A  
HETATM    3  C   UNL     1     -10.436   9.163  69.415  1.00  0.00    -0.219 A  
HETATM    4  C   UNL     1     -10.819  10.284  68.627  1.00  0.00    -0.272 A  
HETATM    5  C   UNL     1      -9.570   8.082  67.429  1.00  0.00    -0.196 A  
HETATM    6  C   UNL     1      -9.951   9.166  66.650  1.00  0.00    -0.273 A  
HETATM    7  C   UNL     1     -11.471  11.408  69.177  1.00  0.00    -0.365 A  
HETATM    8  C   UNL     1     -10.576  10.276  67.228  1.00  0.00    -0.324 A  
HETATM    9  C   UNL     1     -10.989  11.374  66.445  1.00  0.00    -0.315 A  
HETATM   10  C   UNL     1     -11.633  12.465  67.018  1.00  0.00    -0.434 A  
HETATM   11  C   UNL     1     -11.876  12.483  68.385  1.00  0.00    -0.353 A  
ENDROOT
BRANCH   3  12
HETATM   12  O   UNL     1     -10.783   9.269  70.761  1.00  0.00    -0.237 OA 
HETATM   13  O   UNL     1     -12.898   9.474  71.539  1.00  0.00    -0.331 OA 
HETATM   14  O   UNL     1     -13.035   7.125  71.800  1.00  0.00    -0.352 OA 
HETATM   15  P   UNL     1     -11.972   8.138  71.309  1.00  0.00    -0.249 P  
HETATM   16  O   UNL     1     -11.171   8.242  72.738  1.00  0.00    -0.371 OA 
ENDBRANCH   3  12
BRANCH   6  17
HETATM   17  O   UNL     1      -9.842   9.104  65.288  1.00  0.00    -0.087 OA 
HETATM   18  P   UNL     1      -8.468   9.275  64.480  1.00  0.00    -0.177 P  
HETATM   19  O   UNL     1      -8.500  10.828  64.095  1.00  0.00    -0.111 OA 
HETATM   20  O   UNL     1      -7.211   8.770  65.085  1.00  0.00    -0.085 OA 
HETATM   21  O   UNL     1      -8.882   8.582  63.094  1.00  0.00     0.042 OA 
ENDBRANCH   6  17
TORSDOF 2
ENDMDL
MODEL       87
REMARK 921   NORMALIZED FREE ENERGY PREDICTED BY IDOCK:   -4.30 KCAL/MOL
REMARK 922        TOTAL FREE ENERGY PREDICTED BY IDOCK:   -5.22 KCAL/MOL
REMARK 923 INTER-LIGAND FREE ENERGY PREDICTED BY IDOCK:   -4.97 KCAL/MOL
REMARK 924 INTRA-LIGAND FREE ENERGY PREDICTED BY IDOCK:   -0.25 KCAL/MOL
REMARK 927      BINDING AFFINITY PREDICTED BY RF-SCORE:    0.00 PKD
ROOT
HETATM    1  C   UNL     1      -9.981  14.120  67.567  1.00  0.00    -0.236 C  
HETATM    2  C   UNL     1      -9.661  12.961  66.654  1.00  0.00    -0.254 A  
HETATM    3  C   UNL     1      -9.962  12.780  65.280  1.00  0.00    -0.185 A  
HETATM    4  C   UNL     1      -9.580  11.586  64.609  1.00  0.00    -0.186 A  
HETATM    5  C   UNL     1      -9.010  11.915  67.331  1.00  0.00    -0.173 A  
HETATM    6  C   UNL     1      -8.644  10.740  66.689  1.00  0.00    -0.143 A  
HETATM    7  C   UNL     1      -9.863  11.360  63.245  1.00  0.00    -0.428 A  
HETATM    8  C   UNL     1      -8.919  10.555  65.329  1.00  0.00    -0.211 A  
HETATM    9  C   UNL     1      -8.573   9.358  64.669  1.00  0.00    -0.209 A  
HETATM   10  C   UNL     1      -8.870   9.166  63.324  1.00  0.00    -0.095 A  
HETATM   11  C   UNL     1      -9.517  10.166  62.611  1.00  0.00    -0.277 A  
ENDROOT
BRANCH   3  12
HETATM   12  O   UNL     1     -10.655  13.686  64.478  1.00  0.00    -0.417 OA 
HETATM   13  O   UNL     1     -12.673  13.295  63.533  1.00  0.00    -0.708 OA 
HETATM   14  O   UNL     1     -13.744  14.291  65.395  1.00  0.00    -0.311 OA 
HETATM   15  P   UNL     1     -12.285  14.004  64.962  1.00  0.00    -0.438 P  
HETATM   16  O   UNL     1     -12.004  15.496  64.337  1.00  0.00    -0.370 OA 
ENDBRANCH   3  12
BRANCH   6  17
HETATM   17  O   UNL     1      -8.131   9.696  67.407  1.00  0.00    -0.109 OA 
HETATM   18  P   UNL     1      -6.620   9.614  67.934  1.00  0.00    -0.062 P  
HETATM   19  O   UNL     1      -5.911   8.761  66.781  1.00  0.00    -0.054 OA 
HETATM   20  O   UNL     1      -5.934  10.863  68.349  1.00  0.00    -0.043 OA 
HETATM   21  O   UNL     1      -6.797   8.520  69.094  1.00  0.00    -0.056 OA 
ENDBRANCH   6  17
TORSDOF 2
ENDMDL
MODEL       88
REMARK 921   NORMALIZED FREE ENERGY PREDICTED BY IDOCK:   -4.29 KCAL/MOL
REMARK 922        TOTAL FREE ENERGY PREDICTED BY IDOCK:   -5.21 KCAL/MOL
REMARK 923 INTER-LIGAND FREE ENERGY PREDICTED BY IDOCK:   -4.97 KCAL/MOL
REMARK 924 INTRA-LIGAND FREE ENERGY PREDICTED BY IDOCK:   -0.24 KCAL/MOL
REMARK 927      BINDING AFFINITY PREDICTED BY RF-SCORE:    0.00 PKD
ROOT
HETATM    1  C   UNL     1     -11.941  12.675  66.022  1.00  0.00    -0.478 C  
HETATM    2  C   UNL     1     -10.698  12.433  66.844  1.00  0.00    -0.269 A  
HETATM    3  C   UNL     1      -9.497  13.184  66.913  1.00  0.00    -0.244 A  
HETATM    4  C   UNL     1      -8.428  12.759  67.751  1.00  0.00    -0.177 A  
HETATM    5  C   UNL     1     -10.781  11.248  67.596  1.00  0.00    -0.270 A  
HETATM    6  C   UNL     1      -9.739  10.818  68.407  1.00  0.00    -0.174 A  
HETATM    7  C   UNL     1      -7.213  13.471  67.848  1.00  0.00    -0.139 A  
HETATM    8  C   UNL     1      -8.555  11.558  68.498  1.00  0.00    -0.140 A  
HETATM    9  C   UNL     1      -7.480  11.122  69.300  1.00  0.00    -0.076 A  
HETATM   10  C   UNL     1      -6.294  11.845  69.370  1.00  0.00    -0.115 A  
HETATM   11  C   UNL     1      -6.159  13.020  68.642  1.00  0.00    -0.073 A  
ENDROOT
BRANCH   3  12
HETATM   12  O   UNL     1      -9.225  14.343  66.189  1.00  0.00    -0.231 OA 
HETATM   13  O   UNL     1     -10.793  15.761  65.382  1.00  0.00    -0.360 OA 
HETATM   14  O   UNL     1     -10.621  17.075  67.344  1.00  0.00    -0.328 OA 
HETATM   15  P   UNL     1      -9.963  15.784  66.799  1.00  0.00    -0.275 P  
HETATM   16  O   UNL     1      -8.627  16.524  66.196  1.00  0.00    -0.314 OA 
ENDBRANCH   3  12
BRANCH   6  17
HETATM   17  O   UNL     1      -9.805   9.597  69.020  1.00  0.00    -0.169 OA 
HETATM   18  P   UNL     1     -10.466   9.340  70.457  1.00  0.00    -0.304 P  
HETATM   19  O   UNL     1      -9.194   9.410  71.425  1.00  0.00    -0.277 OA 
HETATM   20  O   UNL     1     -11.647  10.142  70.859  1.00  0.00    -0.324 OA 
HETATM   21  O   UNL     1     -10.720   7.759  70.357  1.00  0.00    -0.227 OA 
ENDBRANCH   6  17
TORSDOF 2
ENDMDL
MODEL       89
REMARK 921   NORMALIZED FREE ENERGY PREDICTED BY IDOCK:   -4.28 KCAL/MOL
REMARK 922        TOTAL FREE ENERGY PREDICTED BY IDOCK:   -5.20 KCAL/MOL
REMARK 923 INTER-LIGAND FREE ENERGY PREDICTED BY IDOCK:   -4.92 KCAL/MOL
REMARK 924 INTRA-LIGAND FREE ENERGY PREDICTED BY IDOCK:   -0.28 KCAL/MOL
REMARK 927      BINDING AFFINITY PREDICTED BY RF-SCORE:    0.00 PKD
ROOT
HETATM    1  C   UNL     1     -10.122   7.783  66.587  1.00  0.00    -0.294 C  
HETATM    2  C   UNL     1     -10.102   6.845  67.771  1.00  0.00    -0.199 A  
HETATM    3  C   UNL     1      -9.496   5.572  67.907  1.00  0.00    -0.116 A  
HETATM    4  C   UNL     1      -9.620   4.840  69.122  1.00  0.00    -0.237 A  
HETATM    5  C   UNL     1     -10.852   7.341  68.853  1.00  0.00    -0.119 A  
HETATM    6  C   UNL     1     -10.989   6.630  70.037  1.00  0.00    -0.311 A  
HETATM    7  C   UNL     1      -9.038   3.567  69.301  1.00  0.00    -0.200 A  
HETATM    8  C   UNL     1     -10.382   5.378  70.192  1.00  0.00    -0.361 A  
HETATM    9  C   UNL     1     -10.532   4.635  71.381  1.00  0.00    -0.083 A  
HETATM   10  C   UNL     1      -9.948   3.380  71.523  1.00  0.00    -0.161 A  
HETATM   11  C   UNL     1      -9.202   2.844  70.483  1.00  0.00    -0.209 A  
ENDROOT
BRANCH   3  12
HETATM   12  O   UNL     1      -8.774   4.909  66.916  1.00  0.00    -0.109 OA 
HETATM   13  O   UNL     1      -9.319   2.891  66.050  1.00  0.00    -0.133 OA 
HETATM   14  O   UNL     1     -10.522   3.956  64.311  1.00  0.00    -0.242 OA 
HETATM   15  P   UNL     1      -9.697   4.406  65.542  1.00  0.00    -0.214 P  
HETATM   16  O   UNL     1      -8.299   4.659  64.719  1.00  0.00    -0.116 OA 
ENDBRANCH   3  12
BRANCH   6  17
HETATM   17  O   UNL     1     -11.830   7.082  71.016  1.00  0.00    -0.316 OA 
HETATM   18  P   UNL     1     -11.505   8.307  71.996  1.00  0.00    -0.390 P  
HETATM   19  O   UNL     1     -10.917   7.558  73.281  1.00  0.00    -0.393 OA 
HETATM   20  O   UNL     1     -10.714   9.451  71.478  1.00  0.00    -0.346 OA 
HETATM   21  O   UNL     1     -12.991   8.671  72.476  1.00  0.00    -0.371 OA 
ENDBRANCH   6  17
TORSDOF 2
ENDMDL
MODEL       90
REMARK 921   NORMALIZED FREE ENERGY PREDICTED BY IDOCK:   -4.27 KCAL/MOL
REMARK 922        TOTAL FREE ENERGY PREDICTED BY IDOCK:   -5.19 KCAL/MOL
REMARK 923 INTER-LIGAND FREE ENERGY PREDICTED BY IDOCK:   -4.83 KCAL/MOL
REMARK 924 INTRA-LIGAND FREE ENERGY PREDICTED BY IDOCK:   -0.36 KCAL/MOL
REMARK 927      BINDING AFFINITY PREDICTED BY RF-SCORE:    0.00 PKD
ROOT
HETATM    1  C   UNL     1     -11.567  10.537  70.462  1.00  0.00    -0.441 C  
HETATM    2  C   UNL     1     -11.112   9.451  69.517  1.00  0.00    -0.134 A  
HETATM    3  C   UNL     1     -10.907   8.068  69.755  1.00  0.00    -0.194 A  
HETATM    4  C   UNL     1     -10.450   7.216  68.712  1.00  0.00    -0.217 A  
HETATM    5  C   UNL     1     -10.816   9.952  68.236  1.00  0.00    -0.275 A  
HETATM    6  C   UNL     1     -10.357   9.131  67.215  1.00  0.00    -0.270 A  
HETATM    7  C   UNL     1     -10.227   5.836  68.905  1.00  0.00    -0.267 A  
HETATM    8  C   UNL     1     -10.167   7.761  67.431  1.00  0.00    -0.320 A  
HETATM    9  C   UNL     1      -9.681   6.920  66.410  1.00  0.00    -0.127 A  
HETATM   10  C   UNL     1      -9.468   5.563  66.635  1.00  0.00    -0.154 A  
HETATM   11  C   UNL     1      -9.740   5.020  67.883  1.00  0.00    -0.196 A  
ENDROOT
BRANCH   3  12
HETATM   12  O   UNL     1     -11.090   7.423  70.977  1.00  0.00    -0.248 OA 
HETATM   13  O   UNL     1      -9.465   6.349  72.128  1.00  0.00    -0.151 OA 
HETATM   14  O   UNL     1      -9.025   8.323  73.359  1.00  0.00    -0.249 OA 
HETATM   15  P   UNL     1     -10.000   7.898  72.233  1.00  0.00    -0.270 P  
HETATM   16  O   UNL     1     -11.265   7.570  73.227  1.00  0.00    -0.346 OA 
ENDBRANCH   3  12
BRANCH   6  17
HETATM   17  O   UNL     1      -9.957   9.673  66.025  1.00  0.00    -0.266 OA 
HETATM   18  P   UNL     1      -8.750  10.715  65.864  1.00  0.00    -0.183 P  
HETATM   19  O   UNL     1      -9.517  12.119  65.889  1.00  0.00    -0.235 OA 
HETATM   20  O   UNL     1      -7.570  10.591  66.755  1.00  0.00    -0.106 OA 
HETATM   21  O   UNL     1      -8.443  10.533  64.300  1.00  0.00    -0.176 OA 
ENDBRANCH   6  17
TORSDOF 2
ENDMDL
MODEL       91
REMARK 921   NORMALIZED FREE ENERGY PREDICTED BY IDOCK:   -4.27 KCAL/MOL
REMARK 922        TOTAL FREE ENERGY PREDICTED BY IDOCK:   -5.18 KCAL/MOL
REMARK 923 INTER-LIGAND FREE ENERGY PREDICTED BY IDOCK:   -4.93 KCAL/MOL
REMARK 924 INTRA-LIGAND FREE ENERGY PREDICTED BY IDOCK:   -0.25 KCAL/MOL
REMARK 927      BINDING AFFINITY PREDICTED BY RF-SCORE:    0.00 PKD
ROOT
HETATM    1  C   UNL     1      -7.420  14.596  68.862  1.00  0.00    -0.134 C  
HETATM    2  C   UNL     1      -8.388  13.928  67.915  1.00  0.00    -0.167 A  
HETATM    3  C   UNL     1      -9.648  14.374  67.443  1.00  0.00    -0.216 A  
HETATM    4  C   UNL     1     -10.415  13.566  66.558  1.00  0.00    -0.284 A  
HETATM    5  C   UNL     1      -7.943  12.656  67.511  1.00  0.00    -0.174 A  
HETATM    6  C   UNL     1      -8.690  11.854  66.658  1.00  0.00    -0.185 A  
HETATM    7  C   UNL     1     -11.676  13.967  66.068  1.00  0.00    -0.378 A  
HETATM    8  C   UNL     1      -9.928  12.290  66.171  1.00  0.00    -0.260 A  
HETATM    9  C   UNL     1     -10.707  11.477  65.322  1.00  0.00    -0.337 A  
HETATM   10  C   UNL     1     -11.948  11.901  64.859  1.00  0.00    -0.186 A  
HETATM   11  C   UNL     1     -12.434  13.146  65.233  1.00  0.00    -0.550 A  
ENDROOT
BRANCH   3  12
HETATM   12  O   UNL     1     -10.263  15.575  67.793  1.00  0.00    -0.237 OA 
HETATM   13  O   UNL     1     -12.226  15.746  68.904  1.00  0.00    -0.258 OA 
HETATM   14  O   UNL     1     -11.057  15.871  70.960  1.00  0.00    -0.330 OA 
HETATM   15  P   UNL     1     -10.682  15.731  69.464  1.00  0.00    -0.336 P  
HETATM   16  O   UNL     1     -10.399  17.328  69.215  1.00  0.00    -0.322 OA 
ENDBRANCH   3  12
BRANCH   6  17
HETATM   17  O   UNL     1      -8.288  10.575  66.391  1.00  0.00    -0.135 OA 
HETATM   18  P   UNL     1      -7.000  10.193  65.518  1.00  0.00    -0.129 P  
HETATM   19  O   UNL     1      -7.638   9.962  64.069  1.00  0.00    -0.129 OA 
HETATM   20  O   UNL     1      -5.803  11.067  65.582  1.00  0.00    -0.123 OA 
HETATM   21  O   UNL     1      -6.769   8.687  66.022  1.00  0.00    -0.060 OA 
ENDBRANCH   6  17
TORSDOF 2
ENDMDL
MODEL       92
REMARK 921   NORMALIZED FREE ENERGY PREDICTED BY IDOCK:   -4.27 KCAL/MOL
REMARK 922        TOTAL FREE ENERGY PREDICTED BY IDOCK:   -5.18 KCAL/MOL
REMARK 923 INTER-LIGAND FREE ENERGY PREDICTED BY IDOCK:   -5.37 KCAL/MOL
REMARK 924 INTRA-LIGAND FREE ENERGY PREDICTED BY IDOCK:    0.18 KCAL/MOL
REMARK 927      BINDING AFFINITY PREDICTED BY RF-SCORE:    0.00 PKD
ROOT
HETATM    1  C   UNL     1     -10.738  17.649  67.592  1.00  0.00    -0.318 C  
HETATM    2  C   UNL     1     -10.727  16.183  67.957  1.00  0.00    -0.321 A  
HETATM    3  C   UNL     1     -10.459  15.050  67.148  1.00  0.00    -0.277 A  
HETATM    4  C   UNL     1     -10.523  13.740  67.698  1.00  0.00    -0.242 A  
HETATM    5  C   UNL     1     -11.088  15.968  69.298  1.00  0.00    -0.331 A  
HETATM    6  C   UNL     1     -11.166  14.693  69.842  1.00  0.00    -0.231 A  
HETATM    7  C   UNL     1     -10.270  12.583  66.930  1.00  0.00    -0.237 A  
HETATM    8  C   UNL     1     -10.888  13.566  69.060  1.00  0.00    -0.227 A  
HETATM    9  C   UNL     1     -10.985  12.264  69.592  1.00  0.00     0.087 A  
HETATM   10  C   UNL     1     -10.733  11.144  68.806  1.00  0.00    -0.236 A  
HETATM   11  C   UNL     1     -10.377  11.303  67.474  1.00  0.00    -0.224 A  
ENDROOT
BRANCH   3  12
HETATM   12  O   UNL     1     -10.149  15.082  65.790  1.00  0.00    -0.295 OA 
HETATM   13  O   UNL     1     -10.825  13.544  64.273  1.00  0.00    -0.391 OA 
HETATM   14  O   UNL     1     -12.717  14.873  63.762  1.00  0.00    -0.754 OA 
HETATM   15  P   UNL     1     -11.504  14.971  64.720  1.00  0.00    -0.295 P  
HETATM   16  O   UNL     1     -10.589  15.908  63.731  1.00  0.00     0.914 OA 
ENDBRANCH   3  12
BRANCH   6  17
HETATM   17  O   UNL     1     -11.646  14.515  71.110  1.00  0.00    -0.272 OA 
HETATM   18  P   UNL     1     -12.947  15.244  71.697  1.00  0.00    -0.486 P  
HETATM   19  O   UNL     1     -12.310  16.504  72.450  1.00  0.00    -0.345 OA 
HETATM   20  O   UNL     1     -14.086  15.524  70.789  1.00  0.00    -0.378 OA 
HETATM   21  O   UNL     1     -13.279  14.260  72.920  1.00  0.00    -0.509 OA 
ENDBRANCH   6  17
TORSDOF 2
ENDMDL
MODEL       93
REMARK 921   NORMALIZED FREE ENERGY PREDICTED BY IDOCK:   -4.25 KCAL/MOL
REMARK 922        TOTAL FREE ENERGY PREDICTED BY IDOCK:   -5.16 KCAL/MOL
REMARK 923 INTER-LIGAND FREE ENERGY PREDICTED BY IDOCK:   -4.83 KCAL/MOL
REMARK 924 INTRA-LIGAND FREE ENERGY PREDICTED BY IDOCK:   -0.33 KCAL/MOL
REMARK 927      BINDING AFFINITY PREDICTED BY RF-SCORE:    0.00 PKD
ROOT
HETATM    1  C   UNL     1     -11.964  13.234  66.218  1.00  0.00    -0.471 C  
HETATM    2  C   UNL     1     -10.525  13.542  66.558  1.00  0.00    -0.284 A  
HETATM    3  C   UNL     1      -9.495  12.677  67.005  1.00  0.00    -0.220 A  
HETATM    4  C   UNL     1      -8.198  13.187  67.290  1.00  0.00    -0.172 A  
HETATM    5  C   UNL     1     -10.234  14.913  66.441  1.00  0.00    -0.292 A  
HETATM    6  C   UNL     1      -8.975  15.422  66.729  1.00  0.00    -0.259 A  
HETATM    7  C   UNL     1      -7.144  12.365  67.742  1.00  0.00    -0.120 A  
HETATM    8  C   UNL     1      -7.943  14.578  67.155  1.00  0.00    -0.167 A  
HETATM    9  C   UNL     1      -6.667  15.085  67.472  1.00  0.00    -0.178 A  
HETATM   10  C   UNL     1      -5.650  14.247  67.919  1.00  0.00    -0.101 A  
HETATM   11  C   UNL     1      -5.888  12.887  68.056  1.00  0.00    -0.107 A  
ENDROOT
BRANCH   3  12
HETATM   12  O   UNL     1      -9.630  11.309  67.234  1.00  0.00    -0.172 OA 
HETATM   13  O   UNL     1      -9.473  10.315  69.261  1.00  0.00    -0.198 OA 
HETATM   14  O   UNL     1     -11.820  10.483  69.530  1.00  0.00    -0.262 OA 
HETATM   15  P   UNL     1     -10.785  10.874  68.446  1.00  0.00    -0.246 P  
HETATM   16  O   UNL     1     -10.995   9.530  67.527  1.00  0.00    -0.241 OA 
ENDBRANCH   3  12
BRANCH   6  17
HETATM   17  O   UNL     1      -8.765  16.774  66.730  1.00  0.00    -0.200 OA 
HETATM   18  P   UNL     1      -9.499  17.804  67.713  1.00  0.00    -0.276 P  
HETATM   19  O   UNL     1     -10.722  18.309  66.813  1.00  0.00    -0.342 OA 
HETATM   20  O   UNL     1      -9.829  17.370  69.093  1.00  0.00    -0.247 OA 
HETATM   21  O   UNL     1      -8.482  19.041  67.616  1.00  0.00    -0.281 OA 
ENDBRANCH   6  17
TORSDOF 2
ENDMDL
MODEL       94
REMARK 921   NORMALIZED FREE ENERGY PREDICTED BY IDOCK:   -4.25 KCAL/MOL
REMARK 922        TOTAL FREE ENERGY PREDICTED BY IDOCK:   -5.16 KCAL/MOL
REMARK 923 INTER-LIGAND FREE ENERGY PREDICTED BY IDOCK:   -5.17 KCAL/MOL
REMARK 924 INTRA-LIGAND FREE ENERGY PREDICTED BY IDOCK:    0.01 KCAL/MOL
REMARK 927      BINDING AFFINITY PREDICTED BY RF-SCORE:    0.00 PKD
ROOT
HETATM    1  C   UNL     1     -12.217  14.209  66.730  1.00  0.00    -0.429 C  
HETATM    2  C   UNL     1     -10.847  13.870  67.269  1.00  0.00    -0.292 A  
HETATM    3  C   UNL     1      -9.762  14.724  67.589  1.00  0.00    -0.213 A  
HETATM    4  C   UNL     1      -8.537  14.184  68.071  1.00  0.00    -0.172 A  
HETATM    5  C   UNL     1     -10.661  12.483  67.410  1.00  0.00    -0.254 A  
HETATM    6  C   UNL     1      -9.466  11.946  67.868  1.00  0.00    -0.194 A  
HETATM    7  C   UNL     1      -7.429  14.996  68.397  1.00  0.00    -0.113 A  
HETATM    8  C   UNL     1      -8.392  12.778  68.203  1.00  0.00    -0.172 A  
HETATM    9  C   UNL     1      -7.165  12.245  68.648  1.00  0.00    -0.105 A  
HETATM   10  C   UNL     1      -6.090  13.073  68.957  1.00  0.00    -0.089 A  
HETATM   11  C   UNL     1      -6.221  14.449  68.830  1.00  0.00    -0.088 A  
ENDROOT
BRANCH   3  12
HETATM   12  O   UNL     1      -9.756  16.111  67.449  1.00  0.00    -0.229 OA 
HETATM   13  O   UNL     1      -8.842  17.230  65.707  1.00  0.00    -0.530 OA 
HETATM   14  O   UNL     1     -10.937  17.235  64.604  1.00  0.00    -1.013 OA 
HETATM   15  P   UNL     1     -10.379  16.704  65.947  1.00  0.00    -0.214 P  
HETATM   16  O   UNL     1     -10.858  17.992  66.846  1.00  0.00    -0.254 OA 
ENDBRANCH   3  12
BRANCH   6  17
HETATM   17  O   UNL     1      -9.277  10.591  67.868  1.00  0.00    -0.138 OA 
HETATM   18  P   UNL     1      -8.831   9.738  66.587  1.00  0.00    -0.141 P  
HETATM   19  O   UNL     1     -10.238   9.229  66.021  1.00  0.00    -0.269 OA 
HETATM   20  O   UNL     1      -7.906  10.351  65.602  1.00  0.00    -0.146 OA 
HETATM   21  O   UNL     1      -8.273   8.425  67.318  1.00  0.00    -0.111 OA 
ENDBRANCH   6  17
TORSDOF 2
ENDMDL
MODEL       95
REMARK 921   NORMALIZED FREE ENERGY PREDICTED BY IDOCK:   -4.25 KCAL/MOL
REMARK 922        TOTAL FREE ENERGY PREDICTED BY IDOCK:   -5.16 KCAL/MOL
REMARK 923 INTER-LIGAND FREE ENERGY PREDICTED BY IDOCK:   -4.79 KCAL/MOL
REMARK 924 INTRA-LIGAND FREE ENERGY PREDICTED BY IDOCK:   -0.36 KCAL/MOL
REMARK 927      BINDING AFFINITY PREDICTED BY RF-SCORE:    0.00 PKD
ROOT
HETATM    1  C   UNL     1      -9.715   4.029  69.623  1.00  0.00    -0.245 C  
HETATM    2  C   UNL     1      -9.966   5.450  69.178  1.00  0.00    -0.267 A  
HETATM    3  C   UNL     1      -9.640   6.087  67.954  1.00  0.00    -0.116 A  
HETATM    4  C   UNL     1      -9.955   7.459  67.749  1.00  0.00    -0.208 A  
HETATM    5  C   UNL     1     -10.572   6.222  70.185  1.00  0.00    -0.306 A  
HETATM    6  C   UNL     1     -10.872   7.565  69.999  1.00  0.00    -0.249 A  
HETATM    7  C   UNL     1      -9.645   8.135  66.549  1.00  0.00    -0.303 A  
HETATM    8  C   UNL     1     -10.572   8.202  68.790  1.00  0.00    -0.149 A  
HETATM    9  C   UNL     1     -10.850   9.571  68.595  1.00  0.00    -0.177 A  
HETATM   10  C   UNL     1     -10.528  10.208  67.402  1.00  0.00    -0.310 A  
HETATM   11  C   UNL     1      -9.924   9.491  66.378  1.00  0.00    -0.339 A  
ENDROOT
BRANCH   3  12
HETATM   12  O   UNL     1      -8.985   5.487  66.880  1.00  0.00    -0.112 OA 
HETATM   13  O   UNL     1      -9.258   3.335  66.236  1.00  0.00    -0.151 OA 
HETATM   14  O   UNL     1     -10.935   4.002  64.702  1.00  0.00    -0.250 OA 
HETATM   15  P   UNL     1     -10.014   4.703  65.731  1.00  0.00    -0.208 P  
HETATM   16  O   UNL     1      -8.860   5.140  64.648  1.00  0.00    -0.147 OA 
ENDBRANCH   3  12
BRANCH   6  17
HETATM   17  O   UNL     1     -11.340   8.315  71.043  1.00  0.00    -0.261 OA 
HETATM   18  P   UNL     1     -12.846   8.268  71.587  1.00  0.00    -0.296 P  
HETATM   19  O   UNL     1     -13.518   9.495  70.811  1.00  0.00    -0.150 OA 
HETATM   20  O   UNL     1     -13.583   6.981  71.554  1.00  0.00    -0.351 OA 
HETATM   21  O   UNL     1     -12.622   8.885  73.052  1.00  0.00    -0.200 OA 
ENDBRANCH   6  17
TORSDOF 2
ENDMDL
MODEL       96
REMARK 921   NORMALIZED FREE ENERGY PREDICTED BY IDOCK:   -4.25 KCAL/MOL
REMARK 922        TOTAL FREE ENERGY PREDICTED BY IDOCK:   -5.16 KCAL/MOL
REMARK 923 INTER-LIGAND FREE ENERGY PREDICTED BY IDOCK:   -4.84 KCAL/MOL
REMARK 924 INTRA-LIGAND FREE ENERGY PREDICTED BY IDOCK:   -0.32 KCAL/MOL
REMARK 927      BINDING AFFINITY PREDICTED BY RF-SCORE:    0.00 PKD
ROOT
HETATM    1  C   UNL     1     -10.778  11.614  68.134  1.00  0.00    -0.248 C  
HETATM    2  C   UNL     1     -10.631  10.111  68.175  1.00  0.00    -0.262 A  
HETATM    3  C   UNL     1     -10.366   9.198  67.125  1.00  0.00    -0.267 A  
HETATM    4  C   UNL     1     -10.287   7.801  67.386  1.00  0.00    -0.354 A  
HETATM    5  C   UNL     1     -10.845   9.593  69.465  1.00  0.00    -0.253 A  
HETATM    6  C   UNL     1     -10.783   8.231  69.728  1.00  0.00    -0.221 A  
HETATM    7  C   UNL     1     -10.032   6.855  66.371  1.00  0.00    -0.070 A  
HETATM    8  C   UNL     1     -10.506   7.319  68.703  1.00  0.00    -0.214 A  
HETATM    9  C   UNL     1     -10.461   5.931  68.952  1.00  0.00    -0.325 A  
HETATM   10  C   UNL     1     -10.211   5.024  67.927  1.00  0.00    -0.147 A  
HETATM   11  C   UNL     1      -9.997   5.485  66.635  1.00  0.00    -0.213 A  
ENDROOT
BRANCH   3  12
HETATM   12  O   UNL     1     -10.192   9.535  65.784  1.00  0.00    -0.255 OA 
HETATM   13  O   UNL     1      -9.291  11.476  65.046  1.00  0.00    -0.191 OA 
HETATM   14  O   UNL     1      -7.156  10.455  64.955  1.00  0.00    -0.122 OA 
HETATM   15  P   UNL     1      -8.590  10.022  65.347  1.00  0.00    -0.172 P  
HETATM   16  O   UNL     1      -8.963   9.353  63.894  1.00  0.00    -0.216 OA 
ENDBRANCH   3  12
BRANCH   6  17
HETATM   17  O   UNL     1     -11.124   7.754  70.963  1.00  0.00    -0.248 OA 
HETATM   18  P   UNL     1     -10.128   7.688  72.217  1.00  0.00    -0.245 P  
HETATM   19  O   UNL     1      -9.584   6.186  72.131  1.00  0.00    -0.152 OA 
HETATM   20  O   UNL     1      -9.108   8.753  72.380  1.00  0.00    -0.366 OA 
HETATM   21  O   UNL     1     -11.199   7.586  73.407  1.00  0.00    -0.296 OA 
ENDBRANCH   6  17
TORSDOF 2
ENDMDL
MODEL       97
REMARK 921   NORMALIZED FREE ENERGY PREDICTED BY IDOCK:   -4.21 KCAL/MOL
REMARK 922        TOTAL FREE ENERGY PREDICTED BY IDOCK:   -5.12 KCAL/MOL
REMARK 923 INTER-LIGAND FREE ENERGY PREDICTED BY IDOCK:   -4.87 KCAL/MOL
REMARK 924 INTRA-LIGAND FREE ENERGY PREDICTED BY IDOCK:   -0.24 KCAL/MOL
REMARK 927      BINDING AFFINITY PREDICTED BY RF-SCORE:    0.00 PKD
ROOT
HETATM    1  C   UNL     1     -10.982   6.517  66.844  1.00  0.00    -0.408 C  
HETATM    2  C   UNL     1     -10.735   5.958  68.225  1.00  0.00    -0.319 A  
HETATM    3  C   UNL     1      -9.976   4.829  68.623  1.00  0.00    -0.099 A  
HETATM    4  C   UNL     1      -9.891   4.465  69.996  1.00  0.00    -0.294 A  
HETATM    5  C   UNL     1     -11.422   6.677  69.219  1.00  0.00    -0.253 A  
HETATM    6  C   UNL     1     -11.356   6.323  70.560  1.00  0.00    -0.361 A  
HETATM    7  C   UNL     1      -9.152   3.346  70.438  1.00  0.00    -0.193 A  
HETATM    8  C   UNL     1     -10.597   5.221  70.969  1.00  0.00    -0.240 A  
HETATM    9  C   UNL     1     -10.539   4.835  72.324  1.00  0.00    -0.225 A  
HETATM   10  C   UNL     1      -9.804   3.725  72.726  1.00  0.00    -0.202 A  
HETATM   11  C   UNL     1      -9.111   2.978  71.783  1.00  0.00    -0.161 A  
ENDROOT
BRANCH   3  12
HETATM   12  O   UNL     1      -9.288   3.974  67.765  1.00  0.00    -0.150 OA 
HETATM   13  O   UNL     1      -8.795   4.432  65.604  1.00  0.00    -0.118 OA 
HETATM   14  O   UNL     1      -6.689   5.292  66.262  1.00  0.00    -0.054 OA 
HETATM   15  P   UNL     1      -7.917   4.670  66.971  1.00  0.00    -0.102 P  
HETATM   16  O   UNL     1      -7.309   3.147  67.046  1.00  0.00    -0.061 OA 
ENDBRANCH   3  12
BRANCH   6  17
HETATM   17  O   UNL     1     -12.139   6.964  71.479  1.00  0.00    -0.318 OA 
HETATM   18  P   UNL     1     -11.788   8.383  72.136  1.00  0.00    -0.390 P  
HETATM   19  O   UNL     1     -11.080   7.950  73.504  1.00  0.00    -0.214 OA 
HETATM   20  O   UNL     1     -11.081   9.399  71.319  1.00  0.00    -0.319 OA 
HETATM   21  O   UNL     1     -13.248   8.814  72.642  1.00  0.00    -0.395 OA 
ENDBRANCH   6  17
TORSDOF 2
ENDMDL
MODEL       98
REMARK 921   NORMALIZED FREE ENERGY PREDICTED BY IDOCK:   -4.19 KCAL/MOL
REMARK 922        TOTAL FREE ENERGY PREDICTED BY IDOCK:   -5.10 KCAL/MOL
REMARK 923 INTER-LIGAND FREE ENERGY PREDICTED BY IDOCK:   -4.86 KCAL/MOL
REMARK 924 INTRA-LIGAND FREE ENERGY PREDICTED BY IDOCK:   -0.24 KCAL/MOL
REMARK 927      BINDING AFFINITY PREDICTED BY RF-SCORE:    0.00 PKD
ROOT
HETATM    1  C   UNL     1     -11.873  10.583  71.007  1.00  0.00    -0.438 C  
HETATM    2  C   UNL     1     -10.982   9.461  70.529  1.00  0.00    -0.332 A  
HETATM    3  C   UNL     1     -10.013   9.451  69.495  1.00  0.00    -0.191 A  
HETATM    4  C   UNL     1      -9.291   8.263  69.194  1.00  0.00    -0.151 A  
HETATM    5  C   UNL     1     -11.228   8.259  71.217  1.00  0.00    -0.302 A  
HETATM    6  C   UNL     1     -10.538   7.091  70.922  1.00  0.00    -0.217 A  
HETATM    7  C   UNL     1      -8.321   8.205  68.170  1.00  0.00    -0.129 A  
HETATM    8  C   UNL     1      -9.566   7.071  69.915  1.00  0.00    -0.159 A  
HETATM    9  C   UNL     1      -8.874   5.887  69.590  1.00  0.00    -0.131 A  
HETATM   10  C   UNL     1      -7.926   5.863  68.571  1.00  0.00    -0.102 A  
HETATM   11  C   UNL     1      -7.650   7.022  67.860  1.00  0.00    -0.111 A  
ENDROOT
BRANCH   3  12
HETATM   12  O   UNL     1      -9.692  10.534  68.678  1.00  0.00    -0.159 OA 
HETATM   13  O   UNL     1     -10.065  10.625  66.448  1.00  0.00    -0.211 OA 
HETATM   14  O   UNL     1     -12.152  11.674  66.834  1.00  0.00    -0.512 OA 
HETATM   15  P   UNL     1     -10.990  11.135  67.705  1.00  0.00    -0.303 P  
HETATM   16  O   UNL     1     -10.238  12.582  67.889  1.00  0.00    -0.207 OA 
ENDBRANCH   3  12
BRANCH   6  17
HETATM   17  O   UNL     1     -10.894   5.913  71.520  1.00  0.00    -0.250 OA 
HETATM   18  P   UNL     1     -10.490   5.497  73.013  1.00  0.00    -0.251 P  
HETATM   19  O   UNL     1      -9.178   4.614  72.768  1.00  0.00    -0.127 OA 
HETATM   20  O   UNL     1     -10.393   6.551  74.053  1.00  0.00    -0.314 OA 
HETATM   21  O   UNL     1     -11.599   4.371  73.289  1.00  0.00    -0.261 OA 
ENDBRANCH   6  17
TORSDOF 2
ENDMDL
MODEL       99
REMARK 921   NORMALIZED FREE ENERGY PREDICTED BY IDOCK:   -4.10 KCAL/MOL
REMARK 922        TOTAL FREE ENERGY PREDICTED BY IDOCK:   -5.00 KCAL/MOL
REMARK 923 INTER-LIGAND FREE ENERGY PREDICTED BY IDOCK:   -4.77 KCAL/MOL
REMARK 924 INTRA-LIGAND FREE ENERGY PREDICTED BY IDOCK:   -0.23 KCAL/MOL
REMARK 927      BINDING AFFINITY PREDICTED BY RF-SCORE:    0.00 PKD
ROOT
HETATM    1  C   UNL     1     -12.153  11.504  69.998  1.00  0.00    -0.408 C  
HETATM    2  C   UNL     1     -10.813  11.080  69.447  1.00  0.00    -0.278 A  
HETATM    3  C   UNL     1     -10.016  11.680  68.440  1.00  0.00    -0.201 A  
HETATM    4  C   UNL     1      -8.777  11.095  68.056  1.00  0.00    -0.141 A  
HETATM    5  C   UNL     1     -10.358   9.880  70.023  1.00  0.00    -0.320 A  
HETATM    6  C   UNL     1      -9.157   9.294  69.647  1.00  0.00    -0.167 A  
HETATM    7  C   UNL     1      -7.954  11.654  67.054  1.00  0.00    -0.164 A  
HETATM    8  C   UNL     1      -8.352   9.885  68.665  1.00  0.00    -0.110 A  
HETATM    9  C   UNL     1      -7.141   9.289  68.257  1.00  0.00    -0.076 A  
HETATM   10  C   UNL     1      -6.355   9.864  67.264  1.00  0.00    -0.068 A  
HETATM   11  C   UNL     1      -6.762  11.046  66.661  1.00  0.00    -0.134 A  
ENDROOT
BRANCH   3  12
HETATM   12  O   UNL     1     -10.346  12.830  67.726  1.00  0.00    -0.214 OA 
HETATM   13  O   UNL     1     -10.370  12.989  65.469  1.00  0.00    -0.285 OA 
HETATM   14  O   UNL     1     -12.674  12.445  65.450  1.00  0.00    -0.582 OA 
HETATM   15  P   UNL     1     -11.575  12.626  66.524  1.00  0.00    -0.385 P  
HETATM   16  O   UNL     1     -11.953  14.182  66.886  1.00  0.00    -0.413 OA 
ENDBRANCH   3  12
BRANCH   6  17
HETATM   17  O   UNL     1      -8.811   8.064  70.132  1.00  0.00    -0.140 OA 
HETATM   18  P   UNL     1      -8.220   7.802  71.599  1.00  0.00    -0.124 P  
HETATM   19  O   UNL     1      -6.643   7.792  71.325  1.00  0.00    -0.041 OA 
HETATM   20  O   UNL     1      -8.689   8.646  72.725  1.00  0.00    -0.387 OA 
HETATM   21  O   UNL     1      -8.541   6.237  71.744  1.00  0.00    -0.131 OA 
ENDBRANCH   6  17
TORSDOF 2
ENDMDL
MODEL      100
REMARK 921   NORMALIZED FREE ENERGY PREDICTED BY IDOCK:   -4.09 KCAL/MOL
REMARK 922        TOTAL FREE ENERGY PREDICTED BY IDOCK:   -4.99 KCAL/MOL
REMARK 923 INTER-LIGAND FREE ENERGY PREDICTED BY IDOCK:   -4.54 KCAL/MOL
REMARK 924 INTRA-LIGAND FREE ENERGY PREDICTED BY IDOCK:   -0.44 KCAL/MOL
REMARK 927      BINDING AFFINITY PREDICTED BY RF-SCORE:    0.00 PKD
ROOT
HETATM    1  C   UNL     1      -9.671   8.915  71.638  1.00  0.00    -0.379 C  
HETATM    2  C   UNL     1      -9.806   7.998  70.446  1.00  0.00    -0.183 A  
HETATM    3  C   UNL     1      -9.558   6.607  70.340  1.00  0.00    -0.165 A  
HETATM    4  C   UNL     1      -9.732   5.935  69.098  1.00  0.00    -0.176 A  
HETATM    5  C   UNL     1     -10.192   8.692  69.284  1.00  0.00    -0.215 A  
HETATM    6  C   UNL     1     -10.353   8.048  68.065  1.00  0.00    -0.206 A  
HETATM    7  C   UNL     1      -9.492   4.553  68.945  1.00  0.00    -0.225 A  
HETATM    8  C   UNL     1     -10.128   6.671  67.950  1.00  0.00    -0.177 A  
HETATM    9  C   UNL     1     -10.265   6.008  66.713  1.00  0.00    -0.268 A  
HETATM   10  C   UNL     1     -10.017   4.645  66.596  1.00  0.00    -0.260 A  
HETATM   11  C   UNL     1      -9.629   3.916  67.711  1.00  0.00    -0.199 A  
ENDROOT
BRANCH   3  12
HETATM   12  O   UNL     1      -9.111   5.785  71.373  1.00  0.00    -0.139 OA 
HETATM   13  O   UNL     1      -9.548   6.114  73.569  1.00  0.00    -0.141 OA 
HETATM   14  O   UNL     1     -11.442   4.703  73.409  1.00  0.00    -0.328 OA 
HETATM   15  P   UNL     1     -10.342   5.215  72.448  1.00  0.00    -0.213 P  
HETATM   16  O   UNL     1      -9.378   3.892  72.583  1.00  0.00    -0.113 OA 
ENDBRANCH   3  12
BRANCH   6  17
HETATM   17  O   UNL     1     -10.601   8.773  66.933  1.00  0.00    -0.276 OA 
HETATM   18  P   UNL     1      -9.646   9.931  66.371  1.00  0.00    -0.232 P  
HETATM   19  O   UNL     1     -10.319  11.245  66.986  1.00  0.00    -0.211 OA 
HETATM   20  O   UNL     1      -8.178   9.798  66.542  1.00  0.00    -0.118 OA 
HETATM   21  O   UNL     1     -10.150   9.981  64.849  1.00  0.00    -0.316 OA 
ENDBRANCH   6  17
TORSDOF 2
ENDMDL
MODEL      101
REMARK 921   NORMALIZED FREE ENERGY PREDICTED BY IDOCK:   -4.06 KCAL/MOL
REMARK 922        TOTAL FREE ENERGY PREDICTED BY IDOCK:   -4.95 KCAL/MOL
REMARK 923 INTER-LIGAND FREE ENERGY PREDICTED BY IDOCK:   -4.52 KCAL/MOL
REMARK 924 INTRA-LIGAND FREE ENERGY PREDICTED BY IDOCK:   -0.43 KCAL/MOL
REMARK 927      BINDING AFFINITY PREDICTED BY RF-SCORE:    0.00 PKD
ROOT
HETATM    1  C   UNL     1     -10.312   4.733  70.601  1.00  0.00    -0.184 C  
HETATM    2  C   UNL     1     -10.107   5.723  69.479  1.00  0.00    -0.278 A  
HETATM    3  C   UNL     1     -10.519   7.076  69.378  1.00  0.00    -0.214 A  
HETATM    4  C   UNL     1     -10.234   7.831  68.206  1.00  0.00    -0.236 A  
HETATM    5  C   UNL     1      -9.445   5.149  68.379  1.00  0.00    -0.168 A  
HETATM    6  C   UNL     1      -9.173   5.874  67.227  1.00  0.00    -0.113 A  
HETATM    7  C   UNL     1     -10.629   9.178  68.059  1.00  0.00    -0.253 A  
HETATM    8  C   UNL     1      -9.558   7.215  67.119  1.00  0.00    -0.191 A  
HETATM    9  C   UNL     1      -9.309   7.956  65.946  1.00  0.00    -0.059 A  
HETATM   10  C   UNL     1      -9.715   9.281  65.832  1.00  0.00    -0.355 A  
HETATM   11  C   UNL     1     -10.377   9.893  66.887  1.00  0.00    -0.300 A  
ENDROOT
BRANCH   3  12
HETATM   12  O   UNL     1     -11.237   7.777  70.344  1.00  0.00    -0.266 OA 
HETATM   13  O   UNL     1     -11.257   7.282  72.552  1.00  0.00    -0.269 OA 
HETATM   14  O   UNL     1      -9.484   8.808  72.916  1.00  0.00    -0.199 OA 
HETATM   15  P   UNL     1     -10.312   8.321  71.702  1.00  0.00    -0.270 P  
HETATM   16  O   UNL     1     -11.378   9.568  71.718  1.00  0.00    -0.370 OA 
ENDBRANCH   3  12
BRANCH   6  17
HETATM   17  O   UNL     1      -8.645   5.248  66.131  1.00  0.00    -0.115 OA 
HETATM   18  P   UNL     1      -9.432   4.181  65.231  1.00  0.00    -0.194 P  
HETATM   19  O   UNL     1      -8.952   2.793  65.866  1.00  0.00    -0.138 OA 
HETATM   20  O   UNL     1     -10.892   4.346  65.031  1.00  0.00    -0.242 OA 
HETATM   21  O   UNL     1      -8.550   4.255  63.893  1.00  0.00    -0.105 OA 
ENDBRANCH   6  17
TORSDOF 2
ENDMDL
MODEL      102
REMARK 921   NORMALIZED FREE ENERGY PREDICTED BY IDOCK:   -3.95 KCAL/MOL
REMARK 922        TOTAL FREE ENERGY PREDICTED BY IDOCK:   -4.82 KCAL/MOL
REMARK 923 INTER-LIGAND FREE ENERGY PREDICTED BY IDOCK:   -4.49 KCAL/MOL
REMARK 924 INTRA-LIGAND FREE ENERGY PREDICTED BY IDOCK:   -0.33 KCAL/MOL
REMARK 927      BINDING AFFINITY PREDICTED BY RF-SCORE:    0.00 PKD
ROOT
HETATM    1  C   UNL     1      -9.558   4.929  70.862  1.00  0.00    -0.241 C  
HETATM    2  C   UNL     1      -9.602   5.944  69.745  1.00  0.00    -0.189 A  
HETATM    3  C   UNL     1     -10.046   7.290  69.761  1.00  0.00    -0.194 A  
HETATM    4  C   UNL     1     -10.019   8.073  68.574  1.00  0.00    -0.206 A  
HETATM    5  C   UNL     1      -9.173   5.404  68.520  1.00  0.00    -0.130 A  
HETATM    6  C   UNL     1      -9.155   6.156  67.353  1.00  0.00    -0.110 A  
HETATM    7  C   UNL     1     -10.456   9.415  68.542  1.00  0.00    -0.239 A  
HETATM    8  C   UNL     1      -9.574   7.491  67.357  1.00  0.00    -0.187 A  
HETATM    9  C   UNL     1      -9.582   8.259  66.175  1.00  0.00    -0.217 A  
HETATM   10  C   UNL     1     -10.023   9.578  66.177  1.00  0.00    -0.342 A  
HETATM   11  C   UNL     1     -10.462  10.157  67.360  1.00  0.00    -0.310 A  
ENDROOT
BRANCH   3  12
HETATM   12  O   UNL     1     -10.559   7.959  70.871  1.00  0.00    -0.210 OA 
HETATM   13  O   UNL     1     -12.553   9.028  70.929  1.00  0.00    -0.187 OA 
HETATM   14  O   UNL     1     -13.585   7.068  71.767  1.00  0.00    -0.343 OA 
HETATM   15  P   UNL     1     -12.156   7.489  71.343  1.00  0.00    -0.344 P  
HETATM   16  O   UNL     1     -11.636   7.854  72.857  1.00  0.00    -0.383 OA 
ENDBRANCH   3  12
BRANCH   6  17
HETATM   17  O   UNL     1      -8.856   5.561  66.158  1.00  0.00    -0.130 OA 
HETATM   18  P   UNL     1      -9.789   4.487  65.421  1.00  0.00    -0.141 P  
HETATM   19  O   UNL     1      -9.155   3.103  65.913  1.00  0.00    -0.143 OA 
HETATM   20  O   UNL     1     -11.263   4.617  65.536  1.00  0.00    -0.114 OA 
HETATM   21  O   UNL     1      -9.211   4.606  63.929  1.00  0.00    -0.130 OA 
ENDBRANCH   6  17
TORSDOF 2
ENDMDL
MODEL      103
REMARK 921   NORMALIZED FREE ENERGY PREDICTED BY IDOCK:   -3.93 KCAL/MOL
REMARK 922        TOTAL FREE ENERGY PREDICTED BY IDOCK:   -4.80 KCAL/MOL
REMARK 923 INTER-LIGAND FREE ENERGY PREDICTED BY IDOCK:   -4.43 KCAL/MOL
REMARK 924 INTRA-LIGAND FREE ENERGY PREDICTED BY IDOCK:   -0.37 KCAL/MOL
REMARK 927      BINDING AFFINITY PREDICTED BY RF-SCORE:    0.00 PKD
ROOT
HETATM    1  C   UNL     1     -11.398  11.867  64.453  1.00  0.00    -0.395 C  
HETATM    2  C   UNL     1     -10.295  11.579  65.443  1.00  0.00    -0.322 A  
HETATM    3  C   UNL     1      -9.523  12.474  66.226  1.00  0.00    -0.210 A  
HETATM    4  C   UNL     1      -8.507  11.984  67.091  1.00  0.00    -0.180 A  
HETATM    5  C   UNL     1      -9.999  10.206  65.524  1.00  0.00    -0.363 A  
HETATM    6  C   UNL     1      -9.000   9.719  66.356  1.00  0.00    -0.151 A  
HETATM    7  C   UNL     1      -7.711  12.838  67.885  1.00  0.00    -0.143 A  
HETATM    8  C   UNL     1      -8.243  10.589  67.147  1.00  0.00    -0.123 A  
HETATM    9  C   UNL     1      -7.210  10.110  67.979  1.00  0.00    -0.085 A  
HETATM   10  C   UNL     1      -6.442  10.980  68.746  1.00  0.00    -0.051 A  
HETATM   11  C   UNL     1      -6.690  12.345  68.698  1.00  0.00    -0.083 A  
ENDROOT
BRANCH   3  12
HETATM   12  O   UNL     1      -9.642  13.863  66.219  1.00  0.00    -0.283 OA 
HETATM   13  O   UNL     1     -11.589  14.993  65.981  1.00  0.00    -0.286 OA 
HETATM   14  O   UNL     1     -11.824  15.092  68.335  1.00  0.00    -0.319 OA 
HETATM   15  P   UNL     1     -10.794  14.511  67.335  1.00  0.00    -0.307 P  
HETATM   16  O   UNL     1      -9.770  15.792  67.392  1.00  0.00    -0.221 OA 
ENDBRANCH   3  12
BRANCH   6  17
HETATM   17  O   UNL     1      -8.654   8.396  66.311  1.00  0.00    -0.121 OA 
HETATM   18  P   UNL     1      -9.524   7.210  66.948  1.00  0.00    -0.172 P  
HETATM   19  O   UNL     1      -8.831   7.022  68.378  1.00  0.00    -0.125 OA 
HETATM   20  O   UNL     1     -11.003   7.318  66.939  1.00  0.00    -0.343 OA 
HETATM   21  O   UNL     1      -8.928   5.968  66.125  1.00  0.00    -0.147 OA 
ENDBRANCH   6  17
TORSDOF 2
ENDMDL
MODEL      104
REMARK 921   NORMALIZED FREE ENERGY PREDICTED BY IDOCK:   -3.92 KCAL/MOL
REMARK 922        TOTAL FREE ENERGY PREDICTED BY IDOCK:   -4.80 KCAL/MOL
REMARK 923 INTER-LIGAND FREE ENERGY PREDICTED BY IDOCK:   -4.44 KCAL/MOL
REMARK 924 INTRA-LIGAND FREE ENERGY PREDICTED BY IDOCK:   -0.35 KCAL/MOL
REMARK 927      BINDING AFFINITY PREDICTED BY RF-SCORE:    0.00 PKD
ROOT
HETATM    1  C   UNL     1     -10.141   5.020  69.641  1.00  0.00    -0.321 C  
HETATM    2  C   UNL     1     -10.033   6.228  68.741  1.00  0.00    -0.173 A  
HETATM    3  C   UNL     1     -10.534   7.542  68.923  1.00  0.00    -0.203 A  
HETATM    4  C   UNL     1     -10.332   8.535  67.925  1.00  0.00    -0.281 A  
HETATM    5  C   UNL     1      -9.366   5.935  67.537  1.00  0.00    -0.110 A  
HETATM    6  C   UNL     1      -9.175   6.895  66.552  1.00  0.00    -0.163 A  
HETATM    7  C   UNL     1     -10.818   9.854  68.061  1.00  0.00    -0.294 A  
HETATM    8  C   UNL     1      -9.650   8.200  66.726  1.00  0.00    -0.281 A  
HETATM    9  C   UNL     1      -9.483   9.178  65.724  1.00  0.00    -0.322 A  
HETATM   10  C   UNL     1      -9.978  10.468  65.888  1.00  0.00    -0.313 A  
HETATM   11  C   UNL     1     -10.647  10.806  67.056  1.00  0.00    -0.312 A  
ENDROOT
BRANCH   3  12
HETATM   12  O   UNL     1     -11.268   7.982  70.023  1.00  0.00    -0.208 OA 
HETATM   13  O   UNL     1     -11.217   7.031  72.075  1.00  0.00    -0.240 OA 
HETATM   14  O   UNL     1      -9.519   8.543  72.739  1.00  0.00    -0.257 OA 
HETATM   15  P   UNL     1     -10.345   8.277  71.456  1.00  0.00    -0.253 P  
HETATM   16  O   UNL     1     -11.475   9.432  71.746  1.00  0.00    -0.380 OA 
ENDBRANCH   3  12
BRANCH   6  17
HETATM   17  O   UNL     1      -8.640   6.541  65.344  1.00  0.00    -0.141 OA 
HETATM   18  P   UNL     1      -7.074   6.340  65.071  1.00  0.00    -0.066 P  
HETATM   19  O   UNL     1      -6.652   7.769  64.488  1.00  0.00    -0.048 OA 
HETATM   20  O   UNL     1      -6.221   5.789  66.152  1.00  0.00    -0.032 OA 
HETATM   21  O   UNL     1      -7.145   5.447  63.740  1.00  0.00    -0.046 OA 
ENDBRANCH   6  17
TORSDOF 2
ENDMDL
MODEL      105
REMARK 921   NORMALIZED FREE ENERGY PREDICTED BY IDOCK:   -3.89 KCAL/MOL
REMARK 922        TOTAL FREE ENERGY PREDICTED BY IDOCK:   -4.75 KCAL/MOL
REMARK 923 INTER-LIGAND FREE ENERGY PREDICTED BY IDOCK:   -4.54 KCAL/MOL
REMARK 924 INTRA-LIGAND FREE ENERGY PREDICTED BY IDOCK:   -0.22 KCAL/MOL
REMARK 927      BINDING AFFINITY PREDICTED BY RF-SCORE:    0.00 PKD
ROOT
HETATM    1  C   UNL     1     -11.652  12.669  64.404  1.00  0.00    -0.415 C  
HETATM    2  C   UNL     1     -10.659  12.405  65.510  1.00  0.00    -0.307 A  
HETATM    3  C   UNL     1      -9.806  11.291  65.715  1.00  0.00    -0.232 A  
HETATM    4  C   UNL     1      -8.951  11.237  66.851  1.00  0.00    -0.163 A  
HETATM    5  C   UNL     1     -10.656  13.427  66.476  1.00  0.00    -0.287 A  
HETATM    6  C   UNL     1      -9.834  13.378  67.594  1.00  0.00    -0.226 A  
HETATM    7  C   UNL     1      -8.090  10.146  67.098  1.00  0.00    -0.120 A  
HETATM    8  C   UNL     1      -8.975  12.292  67.800  1.00  0.00    -0.177 A  
HETATM    9  C   UNL     1      -8.152  12.218  68.943  1.00  0.00     0.158 A  
HETATM   10  C   UNL     1      -7.317  11.127  69.159  1.00  0.00    -0.115 A  
HETATM   11  C   UNL     1      -7.286  10.089  68.237  1.00  0.00    -0.078 A  
ENDROOT
BRANCH   3  12
HETATM   12  O   UNL     1      -9.730  10.168  64.893  1.00  0.00    -0.287 OA 
HETATM   13  O   UNL     1      -9.604  10.226  62.634  1.00  0.00    -0.310 OA 
HETATM   14  O   UNL     1      -7.241  10.161  62.759  1.00  0.00    -0.127 OA 
HETATM   15  P   UNL     1      -8.417  10.165  63.766  1.00  0.00    -0.199 P  
HETATM   16  O   UNL     1      -8.464   8.537  63.970  1.00  0.00    -0.135 OA 
ENDBRANCH   3  12
BRANCH   6  17
HETATM   17  O   UNL     1      -9.953  14.323  68.575  1.00  0.00    -0.226 OA 
HETATM   18  P   UNL     1     -11.322  14.685  69.323  1.00  0.00    -0.318 P  
HETATM   19  O   UNL     1     -11.838  15.945  68.481  1.00  0.00    -0.366 OA 
HETATM   20  O   UNL     1     -12.312  13.608  69.574  1.00  0.00    -0.294 OA 
HETATM   21  O   UNL     1     -10.733  15.386  70.640  1.00  0.00    -0.312 OA 
ENDBRANCH   6  17
TORSDOF 2
ENDMDL
MODEL      106
REMARK 921   NORMALIZED FREE ENERGY PREDICTED BY IDOCK:   -3.87 KCAL/MOL
REMARK 922        TOTAL FREE ENERGY PREDICTED BY IDOCK:   -4.74 KCAL/MOL
REMARK 923 INTER-LIGAND FREE ENERGY PREDICTED BY IDOCK:   -4.39 KCAL/MOL
REMARK 924 INTRA-LIGAND FREE ENERGY PREDICTED BY IDOCK:   -0.35 KCAL/MOL
REMARK 927      BINDING AFFINITY PREDICTED BY RF-SCORE:    0.00 PKD
ROOT
HETATM    1  C   UNL     1     -10.344   6.843  73.886  1.00  0.00    -0.398 C  
HETATM    2  C   UNL     1     -10.459   6.591  72.402  1.00  0.00    -0.229 A  
HETATM    3  C   UNL     1      -9.956   5.519  71.623  1.00  0.00    -0.182 A  
HETATM    4  C   UNL     1     -10.165   5.488  70.216  1.00  0.00    -0.326 A  
HETATM    5  C   UNL     1     -11.136   7.630  71.738  1.00  0.00    -0.281 A  
HETATM    6  C   UNL     1     -11.335   7.616  70.364  1.00  0.00    -0.219 A  
HETATM    7  C   UNL     1      -9.677   4.445  69.401  1.00  0.00    -0.267 A  
HETATM    8  C   UNL     1     -10.858   6.555  69.585  1.00  0.00    -0.359 A  
HETATM    9  C   UNL     1     -11.033   6.539  68.186  1.00  0.00    -0.365 A  
HETATM   10  C   UNL     1     -10.536   5.497  67.411  1.00  0.00    -0.284 A  
HETATM   11  C   UNL     1      -9.856   4.449  68.017  1.00  0.00    -0.135 A  
ENDROOT
BRANCH   3  12
HETATM   12  O   UNL     1      -9.212   4.445  72.110  1.00  0.00    -0.122 OA 
HETATM   13  O   UNL     1      -7.078   3.977  71.521  1.00  0.00    -0.036 OA 
HETATM   14  O   UNL     1      -6.288   5.224  73.373  1.00  0.00    -0.056 OA 
HETATM   15  P   UNL     1      -7.669   4.857  72.776  1.00  0.00    -0.095 P  
HETATM   16  O   UNL     1      -7.940   3.575  73.765  1.00  0.00    -0.072 OA 
ENDBRANCH   3  12
BRANCH   6  17
HETATM   17  O   UNL     1     -11.880   8.702  69.738  1.00  0.00     0.358 OA 
HETATM   18  P   UNL     1     -11.223  10.164  69.723  1.00  0.00    -0.256 P  
HETATM   19  O   UNL     1     -11.976  10.879  70.941  1.00  0.00    -0.328 OA 
HETATM   20  O   UNL     1      -9.745  10.288  69.696  1.00  0.00    -0.228 OA 
HETATM   21  O   UNL     1     -11.980  10.787  68.454  1.00  0.00    -0.508 OA 
ENDBRANCH   6  17
TORSDOF 2
ENDMDL
MODEL      107
REMARK 921   NORMALIZED FREE ENERGY PREDICTED BY IDOCK:   -3.87 KCAL/MOL
REMARK 922        TOTAL FREE ENERGY PREDICTED BY IDOCK:   -4.73 KCAL/MOL
REMARK 923 INTER-LIGAND FREE ENERGY PREDICTED BY IDOCK:   -4.60 KCAL/MOL
REMARK 924 INTRA-LIGAND FREE ENERGY PREDICTED BY IDOCK:   -0.14 KCAL/MOL
REMARK 927      BINDING AFFINITY PREDICTED BY RF-SCORE:    0.00 PKD
ROOT
HETATM    1  C   UNL     1     -11.084  15.115  66.014  1.00  0.00    -0.312 C  
HETATM    2  C   UNL     1      -9.702  14.786  66.525  1.00  0.00    -0.295 A  
HETATM    3  C   UNL     1      -9.194  13.569  67.046  1.00  0.00    -0.246 A  
HETATM    4  C   UNL     1      -7.847  13.483  67.496  1.00  0.00    -0.184 A  
HETATM    5  C   UNL     1      -8.848  15.903  66.502  1.00  0.00    -0.340 A  
HETATM    6  C   UNL     1      -7.536  15.833  66.950  1.00  0.00    -0.169 A  
HETATM    7  C   UNL     1      -7.301  12.295  68.026  1.00  0.00    -0.105 A  
HETATM    8  C   UNL     1      -7.016  14.634  67.451  1.00  0.00    -0.123 A  
HETATM    9  C   UNL     1      -5.692  14.554  67.930  1.00  0.00    -0.123 A  
HETATM   10  C   UNL     1      -5.186  13.368  68.451  1.00  0.00    -0.093 A  
HETATM   11  C   UNL     1      -5.990  12.237  68.500  1.00  0.00    -0.054 A  
ENDROOT
BRANCH   3  12
HETATM   12  O   UNL     1      -9.920  12.389  67.198  1.00  0.00    -0.205 OA 
HETATM   13  O   UNL     1     -10.237  11.310  69.161  1.00  0.00    -0.190 OA 
HETATM   14  O   UNL     1     -12.273  12.477  69.480  1.00  0.00    -0.204 OA 
HETATM   15  P   UNL     1     -11.161  12.436  68.403  1.00  0.00    -0.324 P  
HETATM   16  O   UNL     1     -11.932  11.378  67.412  1.00  0.00    -0.606 OA 
ENDBRANCH   3  12
BRANCH   6  17
HETATM   17  O   UNL     1      -6.777  16.968  67.034  1.00  0.00    -0.163 OA 
HETATM   18  P   UNL     1      -6.685  17.903  68.332  1.00  0.00    -0.235 P  
HETATM   19  O   UNL     1      -7.774  19.029  68.009  1.00  0.00    -0.259 OA 
HETATM   20  O   UNL     1      -6.760  17.277  69.676  1.00  0.00    -0.197 OA 
HETATM   21  O   UNL     1      -5.311  18.669  68.016  1.00  0.00    -0.169 OA 
ENDBRANCH   6  17
TORSDOF 2
ENDMDL
MODEL      108
REMARK 921   NORMALIZED FREE ENERGY PREDICTED BY IDOCK:   -3.80 KCAL/MOL
REMARK 922        TOTAL FREE ENERGY PREDICTED BY IDOCK:   -4.65 KCAL/MOL
REMARK 923 INTER-LIGAND FREE ENERGY PREDICTED BY IDOCK:   -4.33 KCAL/MOL
REMARK 924 INTRA-LIGAND FREE ENERGY PREDICTED BY IDOCK:   -0.32 KCAL/MOL
REMARK 927      BINDING AFFINITY PREDICTED BY RF-SCORE:    0.00 PKD
ROOT
HETATM    1  C   UNL     1      -7.332   9.790  68.238  1.00  0.00    -0.079 C  
HETATM    2  C   UNL     1      -8.263   8.868  68.989  1.00  0.00    -0.116 A  
HETATM    3  C   UNL     1      -9.401   9.174  69.776  1.00  0.00    -0.182 A  
HETATM    4  C   UNL     1     -10.133   8.138  70.420  1.00  0.00    -0.196 A  
HETATM    5  C   UNL     1      -7.865   7.522  68.896  1.00  0.00    -0.124 A  
HETATM    6  C   UNL     1      -8.565   6.505  69.531  1.00  0.00    -0.134 A  
HETATM    7  C   UNL     1     -11.268   8.396  71.218  1.00  0.00    -0.309 A  
HETATM    8  C   UNL     1      -9.701   6.791  70.298  1.00  0.00    -0.179 A  
HETATM    9  C   UNL     1     -10.408   5.770  70.966  1.00  0.00    -0.291 A  
HETATM   10  C   UNL     1     -11.521   6.060  71.748  1.00  0.00    -0.314 A  
HETATM   11  C   UNL     1     -11.952   7.373  71.876  1.00  0.00    -0.337 A  
ENDROOT
BRANCH   3  12
HETATM   12  O   UNL     1      -9.892  10.455  70.023  1.00  0.00    -0.121 OA 
HETATM   13  O   UNL     1      -9.943  12.135  68.508  1.00  0.00    -0.210 OA 
HETATM   14  O   UNL     1     -12.147  11.524  67.896  1.00  0.00    -0.630 OA 
HETATM   15  P   UNL     1     -11.082  11.019  68.900  1.00  0.00    -0.290 P  
HETATM   16  O   UNL     1     -11.676  11.835  70.195  1.00  0.00    -0.316 OA 
ENDBRANCH   3  12
BRANCH   6  17
HETATM   17  O   UNL     1      -8.076   5.228  69.526  1.00  0.00    -0.091 OA 
HETATM   18  P   UNL     1      -8.208   4.211  68.294  1.00  0.00    -0.089 P  
HETATM   19  O   UNL     1      -9.514   3.377  68.690  1.00  0.00    -0.170 OA 
HETATM   20  O   UNL     1      -8.161   4.748  66.911  1.00  0.00    -0.106 OA 
HETATM   21  O   UNL     1      -7.033   3.184  68.664  1.00  0.00    -0.047 OA 
ENDBRANCH   6  17
TORSDOF 2
ENDMDL
MODEL      109
REMARK 921   NORMALIZED FREE ENERGY PREDICTED BY IDOCK:   -3.79 KCAL/MOL
REMARK 922        TOTAL FREE ENERGY PREDICTED BY IDOCK:   -4.65 KCAL/MOL
REMARK 923 INTER-LIGAND FREE ENERGY PREDICTED BY IDOCK:   -4.35 KCAL/MOL
REMARK 924 INTRA-LIGAND FREE ENERGY PREDICTED BY IDOCK:   -0.29 KCAL/MOL
REMARK 927      BINDING AFFINITY PREDICTED BY RF-SCORE:    0.00 PKD
ROOT
HETATM    1  C   UNL     1      -6.420  11.825  66.985  1.00  0.00    -0.147 C  
HETATM    2  C   UNL     1      -7.785  11.866  67.631  1.00  0.00    -0.141 A  
HETATM    3  C   UNL     1      -8.439  10.893  68.429  1.00  0.00    -0.141 A  
HETATM    4  C   UNL     1      -9.750  11.132  68.926  1.00  0.00    -0.163 A  
HETATM    5  C   UNL     1      -8.483  13.047  67.323  1.00  0.00    -0.199 A  
HETATM    6  C   UNL     1      -9.767  13.284  67.794  1.00  0.00    -0.217 A  
HETATM    7  C   UNL     1     -10.442  10.191  69.719  1.00  0.00    -0.301 A  
HETATM    8  C   UNL     1     -10.419  12.340  68.596  1.00  0.00    -0.228 A  
HETATM    9  C   UNL     1     -11.732  12.558  69.061  1.00  0.00    -0.368 A  
HETATM   10  C   UNL     1     -12.387  11.607  69.838  1.00  0.00    -0.226 A  
HETATM   11  C   UNL     1     -11.743  10.422  70.166  1.00  0.00    -0.394 A  
ENDROOT
BRANCH   3  12
HETATM   12  O   UNL     1      -7.918   9.648  68.775  1.00  0.00    -0.086 OA 
HETATM   13  O   UNL     1      -5.762   9.261  69.343  1.00  0.00    -0.035 OA 
HETATM   14  O   UNL     1      -6.307   9.548  71.629  1.00  0.00    -0.265 OA 
HETATM   15  P   UNL     1      -7.067   9.596  70.281  1.00  0.00    -0.142 P  
HETATM   16  O   UNL     1      -7.622   8.052  70.351  1.00  0.00    -0.077 OA 
ENDBRANCH   3  12
BRANCH   6  17
HETATM   17  O   UNL     1     -10.463  14.382  67.367  1.00  0.00    -0.258 OA 
HETATM   18  P   UNL     1     -10.256  15.864  67.940  1.00  0.00    -0.263 P  
HETATM   19  O   UNL     1     -11.404  15.955  69.051  1.00  0.00    -0.322 OA 
HETATM   20  O   UNL     1      -8.897  16.290  68.357  1.00  0.00    -0.189 OA 
HETATM   21  O   UNL     1     -10.893  16.710  66.735  1.00  0.00    -0.193 OA 
ENDBRANCH   6  17
TORSDOF 2
ENDMDL
MODEL      110
REMARK 921   NORMALIZED FREE ENERGY PREDICTED BY IDOCK:   -3.78 KCAL/MOL
REMARK 922        TOTAL FREE ENERGY PREDICTED BY IDOCK:   -4.63 KCAL/MOL
REMARK 923 INTER-LIGAND FREE ENERGY PREDICTED BY IDOCK:   -4.36 KCAL/MOL
REMARK 924 INTRA-LIGAND FREE ENERGY PREDICTED BY IDOCK:   -0.27 KCAL/MOL
REMARK 927      BINDING AFFINITY PREDICTED BY RF-SCORE:    0.00 PKD
ROOT
HETATM    1  C   UNL     1     -11.711  12.204  65.495  1.00  0.00    -0.384 C  
HETATM    2  C   UNL     1     -10.282  12.037  65.954  1.00  0.00    -0.263 A  
HETATM    3  C   UNL     1      -9.448  12.936  66.666  1.00  0.00    -0.255 A  
HETATM    4  C   UNL     1      -8.108  12.579  66.983  1.00  0.00    -0.105 A  
HETATM    5  C   UNL     1      -9.734  10.808  65.545  1.00  0.00    -0.290 A  
HETATM    6  C   UNL     1      -8.423  10.456  65.838  1.00  0.00    -0.156 A  
HETATM    7  C   UNL     1      -7.240  13.443  67.685  1.00  0.00    -0.167 A  
HETATM    8  C   UNL     1      -7.594  11.326  66.555  1.00  0.00    -0.111 A  
HETATM    9  C   UNL     1      -6.254  10.990  66.840  1.00  0.00    -0.093 A  
HETATM   10  C   UNL     1      -5.424  11.867  67.531  1.00  0.00    -0.086 A  
HETATM   11  C   UNL     1      -5.916  13.095  67.953  1.00  0.00    -0.134 A  
ENDROOT
BRANCH   3  12
HETATM   12  O   UNL     1      -9.811  14.213  67.089  1.00  0.00    -0.243 OA 
HETATM   13  O   UNL     1      -8.951  16.139  66.270  1.00  0.00    -0.286 OA 
HETATM   14  O   UNL     1     -10.724  16.271  64.706  1.00  0.00    -0.680 OA 
HETATM   15  P   UNL     1     -10.292  15.299  65.831  1.00  0.00    -0.385 P  
HETATM   16  O   UNL     1     -11.273  15.936  66.984  1.00  0.00    -0.189 OA 
ENDBRANCH   3  12
BRANCH   6  17
HETATM   17  O   UNL     1      -7.886   9.313  65.314  1.00  0.00    -0.100 OA 
HETATM   18  P   UNL     1      -7.362   9.167  63.806  1.00  0.00    -0.108 P  
HETATM   19  O   UNL     1      -8.635   8.533  63.073  1.00  0.00    -0.127 OA 
HETATM   20  O   UNL     1      -6.734  10.337  63.147  1.00  0.00    -0.137 OA 
HETATM   21  O   UNL     1      -6.407   7.889  63.975  1.00  0.00    -0.060 OA 
ENDBRANCH   6  17
TORSDOF 2
ENDMDL
MODEL      111
REMARK 921   NORMALIZED FREE ENERGY PREDICTED BY IDOCK:   -3.77 KCAL/MOL
REMARK 922        TOTAL FREE ENERGY PREDICTED BY IDOCK:   -4.63 KCAL/MOL
REMARK 923 INTER-LIGAND FREE ENERGY PREDICTED BY IDOCK:   -4.28 KCAL/MOL
REMARK 924 INTRA-LIGAND FREE ENERGY PREDICTED BY IDOCK:   -0.35 KCAL/MOL
REMARK 927      BINDING AFFINITY PREDICTED BY RF-SCORE:    0.00 PKD
ROOT
HETATM    1  C   UNL     1      -9.993   6.260  74.091  1.00  0.00    -0.299 C  
HETATM    2  C   UNL     1      -9.968   6.880  72.714  1.00  0.00    -0.193 A  
HETATM    3  C   UNL     1      -9.329   6.433  71.531  1.00  0.00    -0.148 A  
HETATM    4  C   UNL     1      -9.420   7.193  70.331  1.00  0.00    -0.162 A  
HETATM    5  C   UNL     1     -10.658   8.105  72.671  1.00  0.00    -0.414 A  
HETATM    6  C   UNL     1     -10.741   8.860  71.509  1.00  0.00    -0.328 A  
HETATM    7  C   UNL     1      -8.795   6.789  69.131  1.00  0.00    -0.134 A  
HETATM    8  C   UNL     1     -10.130   8.422  70.329  1.00  0.00    -0.196 A  
HETATM    9  C   UNL     1     -10.187   9.189  69.147  1.00  0.00    -0.215 A  
HETATM   10  C   UNL     1      -9.557   8.765  67.982  1.00  0.00    -0.160 A  
HETATM   11  C   UNL     1      -8.860   7.565  67.973  1.00  0.00    -0.127 A  
ENDROOT
BRANCH   3  12
HETATM   12  O   UNL     1      -8.556   5.279  71.416  1.00  0.00    -0.125 OA 
HETATM   13  O   UNL     1      -8.635   3.523  72.840  1.00  0.00    -0.084 OA 
HETATM   14  O   UNL     1     -10.233   2.462  71.452  1.00  0.00     0.012 OA 
HETATM   15  P   UNL     1      -9.441   3.793  71.435  1.00  0.00    -0.173 P  
HETATM   16  O   UNL     1      -8.242   3.258  70.450  1.00  0.00    -0.051 OA 
ENDBRANCH   3  12
BRANCH   6  17
HETATM   17  O   UNL     1     -11.307  10.105  71.538  1.00  0.00    -0.233 OA 
HETATM   18  P   UNL     1     -12.883  10.382  71.631  1.00  0.00    -0.437 P  
HETATM   19  O   UNL     1     -13.277  10.579  70.094  1.00  0.00    -0.101 OA 
HETATM   20  O   UNL     1     -13.731   9.452  72.417  1.00  0.00    -0.454 OA 
HETATM   21  O   UNL     1     -12.859  11.895  72.165  1.00  0.00    -0.258 OA 
ENDBRANCH   6  17
TORSDOF 2
ENDMDL
MODEL      112
REMARK 921   NORMALIZED FREE ENERGY PREDICTED BY IDOCK:   -3.75 KCAL/MOL
REMARK 922        TOTAL FREE ENERGY PREDICTED BY IDOCK:   -4.60 KCAL/MOL
REMARK 923 INTER-LIGAND FREE ENERGY PREDICTED BY IDOCK:   -4.20 KCAL/MOL
REMARK 924 INTRA-LIGAND FREE ENERGY PREDICTED BY IDOCK:   -0.40 KCAL/MOL
REMARK 927      BINDING AFFINITY PREDICTED BY RF-SCORE:    0.00 PKD
ROOT
HETATM    1  C   UNL     1     -11.016   6.790  66.984  1.00  0.00    -0.439 C  
HETATM    2  C   UNL     1     -10.125   7.234  68.119  1.00  0.00    -0.201 A  
HETATM    3  C   UNL     1      -9.044   8.151  68.117  1.00  0.00    -0.134 A  
HETATM    4  C   UNL     1      -8.317   8.412  69.312  1.00  0.00    -0.121 A  
HETATM    5  C   UNL     1     -10.428   6.571  69.322  1.00  0.00    -0.259 A  
HETATM    6  C   UNL     1      -9.716   6.809  70.490  1.00  0.00    -0.176 A  
HETATM    7  C   UNL     1      -7.230   9.312  69.356  1.00  0.00    -0.068 A  
HETATM    8  C   UNL     1      -8.658   7.724  70.507  1.00  0.00    -0.132 A  
HETATM    9  C   UNL     1      -7.912   7.959  71.680  1.00  0.00    -0.112 A  
HETATM   10  C   UNL     1      -6.844   8.850  71.689  1.00  0.00    -0.065 A  
HETATM   11  C   UNL     1      -6.502   9.527  70.526  1.00  0.00    -0.086 A  
ENDROOT
BRANCH   3  12
HETATM   12  O   UNL     1      -8.573   8.844  67.003  1.00  0.00    -0.115 OA 
HETATM   13  O   UNL     1      -9.849   9.494  65.251  1.00  0.00    -0.282 OA 
HETATM   14  O   UNL     1     -10.196  11.599  66.278  1.00  0.00    -0.215 OA 
HETATM   15  P   UNL     1      -9.430  10.297  66.621  1.00  0.00    -0.178 P  
HETATM   16  O   UNL     1      -7.973  10.815  66.071  1.00  0.00    -0.156 OA 
ENDBRANCH   3  12
BRANCH   6  17
HETATM   17  O   UNL     1      -9.953   6.053  71.604  1.00  0.00    -0.176 OA 
HETATM   18  P   UNL     1     -11.237   6.211  72.550  1.00  0.00    -0.269 P  
HETATM   19  O   UNL     1     -10.685   7.173  73.703  1.00  0.00    -0.375 OA 
HETATM   20  O   UNL     1     -12.537   6.587  71.942  1.00  0.00    -0.341 OA 
HETATM   21  O   UNL     1     -11.216   4.780  73.275  1.00  0.00    -0.302 OA 
ENDBRANCH   6  17
TORSDOF 2
ENDMDL
MODEL      113
REMARK 921   NORMALIZED FREE ENERGY PREDICTED BY IDOCK:   -3.74 KCAL/MOL
REMARK 922        TOTAL FREE ENERGY PREDICTED BY IDOCK:   -4.59 KCAL/MOL
REMARK 923 INTER-LIGAND FREE ENERGY PREDICTED BY IDOCK:   -4.46 KCAL/MOL
REMARK 924 INTRA-LIGAND FREE ENERGY PREDICTED BY IDOCK:   -0.13 KCAL/MOL
REMARK 927      BINDING AFFINITY PREDICTED BY RF-SCORE:    0.00 PKD
ROOT
HETATM    1  C   UNL     1      -9.623   3.617  68.371  1.00  0.00    -0.164 C  
HETATM    2  C   UNL     1      -9.967   5.081  68.508  1.00  0.00    -0.207 A  
HETATM    3  C   UNL     1      -9.915   6.118  67.543  1.00  0.00    -0.137 A  
HETATM    4  C   UNL     1     -10.270   7.449  67.896  1.00  0.00    -0.242 A  
HETATM    5  C   UNL     1     -10.342   5.417  69.821  1.00  0.00    -0.375 A  
HETATM    6  C   UNL     1     -10.678   6.716  70.178  1.00  0.00    -0.239 A  
HETATM    7  C   UNL     1     -10.228   8.514  66.970  1.00  0.00    -0.371 A  
HETATM    8  C   UNL     1     -10.648   7.746  69.232  1.00  0.00    -0.199 A  
HETATM    9  C   UNL     1     -10.964   9.074  69.586  1.00  0.00    -0.147 A  
HETATM   10  C   UNL     1     -10.910  10.101  68.650  1.00  0.00    -0.272 A  
HETATM   11  C   UNL     1     -10.540   9.822  67.341  1.00  0.00    -0.330 A  
ENDROOT
BRANCH   3  12
HETATM   12  O   UNL     1      -9.507   5.970  66.219  1.00  0.00    -0.159 OA 
HETATM   13  O   UNL     1      -7.720   7.007  65.294  1.00  0.00    -0.098 OA 
HETATM   14  O   UNL     1      -6.362   5.136  65.808  1.00  0.00    -0.033 OA 
HETATM   15  P   UNL     1      -7.847   5.531  66.003  1.00  0.00    -0.108 P  
HETATM   16  O   UNL     1      -8.400   4.752  64.667  1.00  0.00    -0.117 OA 
ENDBRANCH   3  12
BRANCH   6  17
HETATM   17  O   UNL     1     -10.911   7.029  71.489  1.00  0.00    -0.228 OA 
HETATM   18  P   UNL     1     -10.298   6.228  72.734  1.00  0.00    -0.218 P  
HETATM   19  O   UNL     1     -11.482   5.212  73.091  1.00  0.00    -0.323 OA 
HETATM   20  O   UNL     1      -8.939   5.644  72.616  1.00  0.00    -0.132 OA 
HETATM   21  O   UNL     1     -10.461   7.342  73.877  1.00  0.00    -0.353 OA 
ENDBRANCH   6  17
TORSDOF 2
ENDMDL
MODEL      114
REMARK 921   NORMALIZED FREE ENERGY PREDICTED BY IDOCK:   -3.74 KCAL/MOL
REMARK 922        TOTAL FREE ENERGY PREDICTED BY IDOCK:   -4.59 KCAL/MOL
REMARK 923 INTER-LIGAND FREE ENERGY PREDICTED BY IDOCK:   -4.66 KCAL/MOL
REMARK 924 INTRA-LIGAND FREE ENERGY PREDICTED BY IDOCK:    0.08 KCAL/MOL
REMARK 927      BINDING AFFINITY PREDICTED BY RF-SCORE:    0.00 PKD
ROOT
HETATM    1  C   UNL     1      -5.955  15.144  67.565  1.00  0.00    -0.014 C  
HETATM    2  C   UNL     1      -7.206  14.321  67.763  1.00  0.00    -0.188 A  
HETATM    3  C   UNL     1      -8.562  14.730  67.805  1.00  0.00    -0.166 A  
HETATM    4  C   UNL     1      -9.596  13.778  68.026  1.00  0.00    -0.214 A  
HETATM    5  C   UNL     1      -6.917  12.962  67.980  1.00  0.00    -0.108 A  
HETATM    6  C   UNL     1      -7.917  12.027  68.208  1.00  0.00    -0.149 A  
HETATM    7  C   UNL     1     -10.959  14.140  68.081  1.00  0.00    -0.264 A  
HETATM    8  C   UNL     1      -9.262  12.414  68.236  1.00  0.00    -0.189 A  
HETATM    9  C   UNL     1     -10.287  11.479  68.489  1.00  0.00    -0.224 A  
HETATM   10  C   UNL     1     -11.621  11.869  68.541  1.00  0.00    -0.375 A  
HETATM   11  C   UNL     1     -11.958  13.201  68.339  1.00  0.00    -0.324 A  
ENDROOT
BRANCH   3  12
HETATM   12  O   UNL     1      -9.016  16.041  67.673  1.00  0.00    -0.188 OA 
HETATM   13  O   UNL     1      -8.562  17.396  65.919  1.00  0.00    -0.525 OA 
HETATM   14  O   UNL     1     -10.567  16.709  64.863  1.00  0.00    -0.694 OA 
HETATM   15  P   UNL     1      -9.834  16.394  66.190  1.00  0.00    -0.343 P  
HETATM   16  O   UNL     1     -10.689  17.454  67.106  1.00  0.00    -0.295 OA 
ENDBRANCH   3  12
BRANCH   6  17
HETATM   17  O   UNL     1      -7.592  10.742  68.544  1.00  0.00    -0.091 OA 
HETATM   18  P   UNL     1      -7.081   9.636  67.503  1.00  0.00    -0.089 P  
HETATM   19  O   UNL     1      -8.437   8.868  67.140  1.00  0.00    -0.107 OA 
HETATM   20  O   UNL     1      -6.236  10.060  66.360  1.00  0.00    -0.063 OA 
HETATM   21  O   UNL     1      -6.381   8.611  68.521  1.00  0.00    -0.052 OA 
ENDBRANCH   6  17
TORSDOF 2
ENDMDL
MODEL      115
REMARK 921   NORMALIZED FREE ENERGY PREDICTED BY IDOCK:   -3.67 KCAL/MOL
REMARK 922        TOTAL FREE ENERGY PREDICTED BY IDOCK:   -4.51 KCAL/MOL
REMARK 923 INTER-LIGAND FREE ENERGY PREDICTED BY IDOCK:   -4.20 KCAL/MOL
REMARK 924 INTRA-LIGAND FREE ENERGY PREDICTED BY IDOCK:   -0.31 KCAL/MOL
REMARK 927      BINDING AFFINITY PREDICTED BY RF-SCORE:    0.00 PKD
ROOT
HETATM    1  C   UNL     1     -12.070  13.504  66.199  1.00  0.00    -0.482 C  
HETATM    2  C   UNL     1     -10.673  13.132  66.637  1.00  0.00    -0.286 A  
HETATM    3  C   UNL     1      -9.815  13.770  67.567  1.00  0.00    -0.230 A  
HETATM    4  C   UNL     1      -8.512  13.255  67.818  1.00  0.00    -0.181 A  
HETATM    5  C   UNL     1     -10.185  12.005  65.952  1.00  0.00    -0.263 A  
HETATM    6  C   UNL     1      -8.912  11.502  66.180  1.00  0.00    -0.197 A  
HETATM    7  C   UNL     1      -7.622  13.860  68.731  1.00  0.00    -0.108 A  
HETATM    8  C   UNL     1      -8.060  12.111  67.108  1.00  0.00    -0.175 A  
HETATM    9  C   UNL     1      -6.756  11.625  67.333  1.00  0.00    -0.108 A  
HETATM   10  C   UNL     1      -5.901  12.247  68.238  1.00  0.00    -0.057 A  
HETATM   11  C   UNL     1      -6.333  13.366  68.936  1.00  0.00    -0.099 A  
ENDROOT
BRANCH   3  12
HETATM   12  O   UNL     1     -10.115  14.928  68.282  1.00  0.00    -0.215 OA 
HETATM   13  O   UNL     1     -12.207  15.681  68.703  1.00  0.00    -0.180 OA 
HETATM   14  O   UNL     1     -12.210  14.530  70.773  1.00  0.00    -0.289 OA 
HETATM   15  P   UNL     1     -11.221  14.717  69.596  1.00  0.00    -0.267 P  
HETATM   16  O   UNL     1     -10.374  15.942  70.288  1.00  0.00    -0.249 OA 
ENDBRANCH   3  12
BRANCH   6  17
HETATM   17  O   UNL     1      -8.425  10.487  65.404  1.00  0.00    -0.164 OA 
HETATM   18  P   UNL     1      -8.730   8.933  65.648  1.00  0.00    -0.194 P  
HETATM   19  O   UNL     1      -7.456   8.474  66.500  1.00  0.00    -0.086 OA 
HETATM   20  O   UNL     1     -10.058   8.536  66.178  1.00  0.00    -0.221 OA 
HETATM   21  O   UNL     1      -8.381   8.357  64.192  1.00  0.00    -0.153 OA 
ENDBRANCH   6  17
TORSDOF 2
ENDMDL
MODEL      116
REMARK 921   NORMALIZED FREE ENERGY PREDICTED BY IDOCK:   -3.66 KCAL/MOL
REMARK 922        TOTAL FREE ENERGY PREDICTED BY IDOCK:   -4.50 KCAL/MOL
REMARK 923 INTER-LIGAND FREE ENERGY PREDICTED BY IDOCK:   -4.15 KCAL/MOL
REMARK 924 INTRA-LIGAND FREE ENERGY PREDICTED BY IDOCK:   -0.35 KCAL/MOL
REMARK 927      BINDING AFFINITY PREDICTED BY RF-SCORE:    0.00 PKD
ROOT
HETATM    1  C   UNL     1      -9.756   8.959  68.551  1.00  0.00    -0.172 C  
HETATM    2  C   UNL     1      -9.766   7.580  69.166  1.00  0.00    -0.166 A  
HETATM    3  C   UNL     1     -10.177   7.166  70.458  1.00  0.00    -0.196 A  
HETATM    4  C   UNL     1     -10.082   5.800  70.842  1.00  0.00    -0.256 A  
HETATM    5  C   UNL     1      -9.235   6.609  68.299  1.00  0.00    -0.121 A  
HETATM    6  C   UNL     1      -9.126   5.275  68.669  1.00  0.00    -0.109 A  
HETATM    7  C   UNL     1     -10.474   5.344  72.120  1.00  0.00    -0.273 A  
HETATM    8  C   UNL     1      -9.543   4.850  69.935  1.00  0.00    -0.252 A  
HETATM    9  C   UNL     1      -9.418   3.503  70.332  1.00  0.00    -0.254 A  
HETATM   10  C   UNL     1      -9.810   3.087  71.601  1.00  0.00    -0.214 A  
HETATM   11  C   UNL     1     -10.337   4.008  72.496  1.00  0.00    -0.223 A  
ENDROOT
BRANCH   3  12
HETATM   12  O   UNL     1     -10.666   8.005  71.458  1.00  0.00    -0.220 OA 
HETATM   13  O   UNL     1     -11.830   9.911  71.092  1.00  0.00    -0.326 OA 
HETATM   14  O   UNL     1     -13.863   8.707  71.257  1.00  0.00    -0.281 OA 
HETATM   15  P   UNL     1     -12.353   8.376  71.351  1.00  0.00    -0.243 P  
HETATM   16  O   UNL     1     -12.271   8.447  72.989  1.00  0.00    -0.228 OA 
ENDBRANCH   3  12
BRANCH   6  17
HETATM   17  O   UNL     1      -8.486   4.385  67.851  1.00  0.00    -0.097 OA 
HETATM   18  P   UNL     1      -9.163   3.664  66.590  1.00  0.00    -0.167 P  
HETATM   19  O   UNL     1      -9.634   2.270  67.218  1.00  0.00    -0.027 OA 
HETATM   20  O   UNL     1     -10.172   4.405  65.794  1.00  0.00    -0.241 OA 
HETATM   21  O   UNL     1      -7.843   3.236  65.784  1.00  0.00    -0.084 OA 
ENDBRANCH   6  17
TORSDOF 2
ENDMDL
MODEL      117
REMARK 921   NORMALIZED FREE ENERGY PREDICTED BY IDOCK:   -3.63 KCAL/MOL
REMARK 922        TOTAL FREE ENERGY PREDICTED BY IDOCK:   -4.47 KCAL/MOL
REMARK 923 INTER-LIGAND FREE ENERGY PREDICTED BY IDOCK:   -4.24 KCAL/MOL
REMARK 924 INTRA-LIGAND FREE ENERGY PREDICTED BY IDOCK:   -0.23 KCAL/MOL
REMARK 927      BINDING AFFINITY PREDICTED BY RF-SCORE:    0.00 PKD
ROOT
HETATM    1  C   UNL     1      -5.812  11.209  70.146  1.00  0.00    -0.124 C  
HETATM    2  C   UNL     1      -7.102  11.153  69.362  1.00  0.00    -0.110 A  
HETATM    3  C   UNL     1      -7.568  11.997  68.324  1.00  0.00    -0.117 A  
HETATM    4  C   UNL     1      -8.841  11.773  67.728  1.00  0.00    -0.163 A  
HETATM    5  C   UNL     1      -7.945  10.117  69.801  1.00  0.00    -0.172 A  
HETATM    6  C   UNL     1      -9.194   9.897  69.235  1.00  0.00    -0.200 A  
HETATM    7  C   UNL     1      -9.348  12.591  66.696  1.00  0.00    -0.236 A  
HETATM    8  C   UNL     1      -9.660  10.713  68.198  1.00  0.00    -0.165 A  
HETATM    9  C   UNL     1     -10.935  10.515  67.629  1.00  0.00    -0.375 A  
HETATM   10  C   UNL     1     -11.407  11.343  66.616  1.00  0.00    -0.230 A  
HETATM   11  C   UNL     1     -10.615  12.382  66.149  1.00  0.00    -0.283 A  
ENDROOT
BRANCH   3  12
HETATM   12  O   UNL     1      -6.890  13.103  67.814  1.00  0.00    -0.116 OA 
HETATM   13  O   UNL     1      -7.693  15.218  67.795  1.00  0.00    -0.126 OA 
HETATM   14  O   UNL     1      -6.622  15.649  69.862  1.00  0.00    -0.171 OA 
HETATM   15  P   UNL     1      -6.749  14.446  68.895  1.00  0.00    -0.112 P  
HETATM   16  O   UNL     1      -5.330  14.714  68.113  1.00  0.00    -0.108 OA 
ENDBRANCH   3  12
BRANCH   6  17
HETATM   17  O   UNL     1     -10.038   8.966  69.774  1.00  0.00    -0.188 OA 
HETATM   18  P   UNL     1     -11.061   9.257  70.973  1.00  0.00    -0.389 P  
HETATM   19  O   UNL     1     -10.223   8.780  72.249  1.00  0.00    -0.313 OA 
HETATM   20  O   UNL     1     -11.701  10.593  71.063  1.00  0.00    -0.325 OA 
HETATM   21  O   UNL     1     -12.076   8.032  70.765  1.00  0.00    -0.217 OA 
ENDBRANCH   6  17
TORSDOF 2
ENDMDL
MODEL      118
REMARK 921   NORMALIZED FREE ENERGY PREDICTED BY IDOCK:   -3.62 KCAL/MOL
REMARK 922        TOTAL FREE ENERGY PREDICTED BY IDOCK:   -4.46 KCAL/MOL
REMARK 923 INTER-LIGAND FREE ENERGY PREDICTED BY IDOCK:   -4.09 KCAL/MOL
REMARK 924 INTRA-LIGAND FREE ENERGY PREDICTED BY IDOCK:   -0.37 KCAL/MOL
REMARK 927      BINDING AFFINITY PREDICTED BY RF-SCORE:    0.00 PKD
ROOT
HETATM    1  C   UNL     1     -11.833   9.709  71.435  1.00  0.00    -0.484 C  
HETATM    2  C   UNL     1     -10.538   9.162  70.882  1.00  0.00    -0.341 A  
HETATM    3  C   UNL     1     -10.077   9.106  69.543  1.00  0.00    -0.197 A  
HETATM    4  C   UNL     1      -8.816   8.522  69.238  1.00  0.00    -0.142 A  
HETATM    5  C   UNL     1      -9.732   8.594  71.884  1.00  0.00    -0.383 A  
HETATM    6  C   UNL     1      -8.506   8.010  71.596  1.00  0.00    -0.125 A  
HETATM    7  C   UNL     1      -8.319   8.440  67.920  1.00  0.00    -0.131 A  
HETATM    8  C   UNL     1      -8.030   7.963  70.280  1.00  0.00    -0.102 A  
HETATM    9  C   UNL     1      -6.797   7.353  69.970  1.00  0.00    -0.055 A  
HETATM   10  C   UNL     1      -6.337   7.285  68.659  1.00  0.00    -0.036 A  
HETATM   11  C   UNL     1      -7.099   7.827  67.632  1.00  0.00    -0.083 A  
ENDROOT
BRANCH   3  12
HETATM   12  O   UNL     1     -10.775   9.564  68.427  1.00  0.00    -0.221 OA 
HETATM   13  O   UNL     1     -12.340  11.199  68.462  1.00  0.00    -0.561 OA 
HETATM   14  O   UNL     1     -10.678  12.806  67.947  1.00  0.00    -0.211 OA 
HETATM   15  P   UNL     1     -10.725  11.275  68.175  1.00  0.00    -0.243 P  
HETATM   16  O   UNL     1     -10.819  10.875  66.585  1.00  0.00    -0.252 OA 
ENDBRANCH   3  12
BRANCH   6  17
HETATM   17  O   UNL     1      -7.811   7.353  72.574  1.00  0.00    -0.092 OA 
HETATM   18  P   UNL     1      -8.077   5.835  73.011  1.00  0.00    -0.117 P  
HETATM   19  O   UNL     1      -9.056   6.016  74.263  1.00  0.00    -0.123 OA 
HETATM   20  O   UNL     1      -8.497   4.853  71.980  1.00  0.00    -0.120 OA 
HETATM   21  O   UNL     1      -6.679   5.511  73.727  1.00  0.00    -0.075 OA 
ENDBRANCH   6  17
TORSDOF 2
ENDMDL
MODEL      119
REMARK 921   NORMALIZED FREE ENERGY PREDICTED BY IDOCK:   -3.62 KCAL/MOL
REMARK 922        TOTAL FREE ENERGY PREDICTED BY IDOCK:   -4.45 KCAL/MOL
REMARK 923 INTER-LIGAND FREE ENERGY PREDICTED BY IDOCK:   -4.01 KCAL/MOL
REMARK 924 INTRA-LIGAND FREE ENERGY PREDICTED BY IDOCK:   -0.45 KCAL/MOL
REMARK 927      BINDING AFFINITY PREDICTED BY RF-SCORE:    0.00 PKD
ROOT
HETATM    1  C   UNL     1      -9.894   9.606  68.170  1.00  0.00    -0.172 C  
HETATM    2  C   UNL     1      -9.821   8.099  68.216  1.00  0.00    -0.191 A  
HETATM    3  C   UNL     1      -9.844   7.224  69.331  1.00  0.00    -0.163 A  
HETATM    4  C   UNL     1      -9.742   5.817  69.146  1.00  0.00    -0.189 A  
HETATM    5  C   UNL     1      -9.658   7.536  66.937  1.00  0.00    -0.242 A  
HETATM    6  C   UNL     1      -9.545   6.166  66.747  1.00  0.00    -0.148 A  
HETATM    7  C   UNL     1      -9.755   4.909  70.227  1.00  0.00    -0.287 A  
HETATM    8  C   UNL     1      -9.583   5.289  67.838  1.00  0.00    -0.161 A  
HETATM    9  C   UNL     1      -9.446   3.897  67.662  1.00  0.00    -0.233 A  
HETATM   10  C   UNL     1      -9.460   3.029  68.749  1.00  0.00    -0.185 A  
HETATM   11  C   UNL     1      -9.613   3.535  70.033  1.00  0.00    -0.226 A  
ENDROOT
BRANCH   3  12
HETATM   12  O   UNL     1      -9.936   7.617  70.665  1.00  0.00    -0.183 OA 
HETATM   13  O   UNL     1     -10.894   9.537  71.385  1.00  0.00    -0.347 OA 
HETATM   14  O   UNL     1     -12.949   8.402  71.691  1.00  0.00    -0.323 OA 
HETATM   15  P   UNL     1     -11.526   8.032  71.205  1.00  0.00    -0.279 P  
HETATM   16  O   UNL     1     -11.004   7.458  72.652  1.00  0.00    -0.266 OA 
ENDBRANCH   3  12
BRANCH   6  17
HETATM   17  O   UNL     1      -9.258   5.665  65.507  1.00  0.00    -0.118 OA 
HETATM   18  P   UNL     1      -7.884   5.921  64.723  1.00  0.00    -0.122 P  
HETATM   19  O   UNL     1      -8.260   7.166  63.791  1.00  0.00    -0.049 OA 
HETATM   20  O   UNL     1      -6.624   6.031  65.498  1.00  0.00    -0.041 OA 
HETATM   21  O   UNL     1      -7.937   4.700  63.683  1.00  0.00    -0.082 OA 
ENDBRANCH   6  17
TORSDOF 2
ENDMDL
MODEL      120
REMARK 921   NORMALIZED FREE ENERGY PREDICTED BY IDOCK:   -3.61 KCAL/MOL
REMARK 922        TOTAL FREE ENERGY PREDICTED BY IDOCK:   -4.45 KCAL/MOL
REMARK 923 INTER-LIGAND FREE ENERGY PREDICTED BY IDOCK:   -5.19 KCAL/MOL
REMARK 924 INTRA-LIGAND FREE ENERGY PREDICTED BY IDOCK:    0.74 KCAL/MOL
REMARK 927      BINDING AFFINITY PREDICTED BY RF-SCORE:    0.00 PKD
ROOT
HETATM    1  C   UNL     1      -5.844  15.661  67.424  1.00  0.00    -0.029 C  
HETATM    2  C   UNL     1      -7.051  16.454  66.984  1.00  0.00    -0.259 A  
HETATM    3  C   UNL     1      -7.278  17.853  67.019  1.00  0.00    -0.189 A  
HETATM    4  C   UNL     1      -8.513  18.395  66.566  1.00  0.00    -0.287 A  
HETATM    5  C   UNL     1      -8.091  15.627  66.524  1.00  0.00    -0.168 A  
HETATM    6  C   UNL     1      -9.305  16.145  66.092  1.00  0.00    -0.336 A  
HETATM    7  C   UNL     1      -8.785  19.780  66.588  1.00  0.00    -0.406 A  
HETATM    8  C   UNL     1      -9.536  17.525  66.105  1.00  0.00    -0.201 A  
HETATM    9  C   UNL     1     -10.772  18.064  65.690  1.00  0.00    -0.049 A  
HETATM   10  C   UNL     1     -11.009  19.434  65.728  1.00  0.00    -0.238 A  
HETATM   11  C   UNL     1     -10.016  20.293  66.178  1.00  0.00    -0.443 A  
ENDROOT
BRANCH   3  12
HETATM   12  O   UNL     1      -6.382  18.806  67.501  1.00  0.00    -0.190 OA 
HETATM   13  O   UNL     1      -6.958  20.866  68.239  1.00  0.00    -0.157 OA 
HETATM   14  O   UNL     1      -7.103  20.038  70.453  1.00  0.00    -0.020 OA 
HETATM   15  P   UNL     1      -6.764  19.456  69.058  1.00  0.00    -0.342 P  
HETATM   16  O   UNL     1      -5.135  19.582  69.221  1.00  0.00    -0.179 OA 
ENDBRANCH   3  12
BRANCH   6  17
HETATM   17  O   UNL     1     -10.337  15.305  65.775  1.00  0.00    -0.296 OA 
HETATM   18  P   UNL     1     -11.300  14.609  66.850  1.00  0.00    -0.343 P  
HETATM   19  O   UNL     1     -10.607  13.180  67.041  1.00  0.00    -0.256 OA 
HETATM   20  O   UNL     1     -11.647  15.347  68.090  1.00  0.00    -0.347 OA 
HETATM   21  O   UNL     1     -12.545  14.250  65.903  1.00  0.00    -0.450 OA 
ENDBRANCH   6  17
TORSDOF 2
ENDMDL
MODEL      121
REMARK 921   NORMALIZED FREE ENERGY PREDICTED BY IDOCK:   -3.59 KCAL/MOL
REMARK 922        TOTAL FREE ENERGY PREDICTED BY IDOCK:   -4.43 KCAL/MOL
REMARK 923 INTER-LIGAND FREE ENERGY PREDICTED BY IDOCK:   -4.15 KCAL/MOL
REMARK 924 INTRA-LIGAND FREE ENERGY PREDICTED BY IDOCK:   -0.27 KCAL/MOL
REMARK 927      BINDING AFFINITY PREDICTED BY RF-SCORE:    0.00 PKD
ROOT
HETATM    1  C   UNL     1     -10.645  10.810  67.353  1.00  0.00    -0.287 C  
HETATM    2  C   UNL     1      -9.536  11.777  67.694  1.00  0.00    -0.184 A  
HETATM    3  C   UNL     1      -8.276  11.534  68.297  1.00  0.00    -0.152 A  
HETATM    4  C   UNL     1      -7.379  12.609  68.550  1.00  0.00    -0.115 A  
HETATM    5  C   UNL     1      -9.879  13.106  67.390  1.00  0.00    -0.226 A  
HETATM    6  C   UNL     1      -9.016  14.163  67.644  1.00  0.00    -0.192 A  
HETATM    7  C   UNL     1      -6.117  12.415  69.152  1.00  0.00    -0.087 A  
HETATM    8  C   UNL     1      -7.762  13.937  68.223  1.00  0.00    -0.136 A  
HETATM    9  C   UNL     1      -6.884  15.003  68.508  1.00  0.00    -0.102 A  
HETATM   10  C   UNL     1      -5.649  14.778  69.106  1.00  0.00    -0.095 A  
HETATM   11  C   UNL     1      -5.265  13.484  69.430  1.00  0.00    -0.082 A  
ENDROOT
BRANCH   3  12
HETATM   12  O   UNL     1      -7.806  10.291  68.716  1.00  0.00    -0.093 OA 
HETATM   13  O   UNL     1      -7.266   9.766  70.850  1.00  0.00    -0.310 OA 
HETATM   14  O   UNL     1      -9.456   8.938  71.206  1.00  0.00    -0.225 OA 
HETATM   15  P   UNL     1      -8.677   9.578  70.031  1.00  0.00    -0.229 P  
HETATM   16  O   UNL     1      -8.266   8.159  69.315  1.00  0.00    -0.116 OA 
ENDBRANCH   3  12
BRANCH   6  17
HETATM   17  O   UNL     1      -9.434  15.452  67.457  1.00  0.00    -0.203 OA 
HETATM   18  P   UNL     1      -9.555  16.166  66.028  1.00  0.00    -0.297 P  
HETATM   19  O   UNL     1      -8.156  16.934  65.920  1.00  0.00    -0.453 OA 
HETATM   20  O   UNL     1      -9.957  15.357  64.851  1.00  0.00    -0.274 OA 
HETATM   21  O   UNL     1     -10.560  17.358  66.407  1.00  0.00    -0.294 OA 
ENDBRANCH   6  17
TORSDOF 2
ENDMDL
MODEL      122
REMARK 921   NORMALIZED FREE ENERGY PREDICTED BY IDOCK:   -3.58 KCAL/MOL
REMARK 922        TOTAL FREE ENERGY PREDICTED BY IDOCK:   -4.41 KCAL/MOL
REMARK 923 INTER-LIGAND FREE ENERGY PREDICTED BY IDOCK:   -4.14 KCAL/MOL
REMARK 924 INTRA-LIGAND FREE ENERGY PREDICTED BY IDOCK:   -0.27 KCAL/MOL
REMARK 927      BINDING AFFINITY PREDICTED BY RF-SCORE:    0.00 PKD
ROOT
HETATM    1  C   UNL     1      -7.250   7.402  66.892  1.00  0.00    -0.088 C  
HETATM    2  C   UNL     1      -8.365   8.224  67.494  1.00  0.00    -0.130 A  
HETATM    3  C   UNL     1      -8.883   9.480  67.093  1.00  0.00    -0.131 A  
HETATM    4  C   UNL     1      -9.938  10.093  67.825  1.00  0.00    -0.198 A  
HETATM    5  C   UNL     1      -8.899   7.627  68.650  1.00  0.00    -0.127 A  
HETATM    6  C   UNL     1      -9.919   8.222  69.379  1.00  0.00    -0.188 A  
HETATM    7  C   UNL     1     -10.481  11.345  67.466  1.00  0.00    -0.233 A  
HETATM    8  C   UNL     1     -10.452   9.455  68.985  1.00  0.00    -0.233 A  
HETATM    9  C   UNL     1     -11.473  10.082  69.728  1.00  0.00    -0.240 A  
HETATM   10  C   UNL     1     -11.984  11.319  69.349  1.00  0.00    -0.410 A  
HETATM   11  C   UNL     1     -11.487  11.952  68.218  1.00  0.00    -0.372 A  
ENDROOT
BRANCH   3  12
HETATM   12  O   UNL     1      -8.428  10.235  66.013  1.00  0.00    -0.132 OA 
HETATM   13  O   UNL     1      -7.140   9.440  64.331  1.00  0.00    -0.095 OA 
HETATM   14  O   UNL     1      -9.081   8.981  63.054  1.00  0.00    -0.043 OA 
HETATM   15  P   UNL     1      -8.772   9.572  64.452  1.00  0.00    -0.188 P  
HETATM   16  O   UNL     1      -8.846  11.145  63.985  1.00  0.00    -0.049 OA 
ENDBRANCH   3  12
BRANCH   6  17
HETATM   17  O   UNL     1     -10.323   7.678  70.567  1.00  0.00    -0.207 OA 
HETATM   18  P   UNL     1     -11.091   6.279  70.708  1.00  0.00    -0.314 P  
HETATM   19  O   UNL     1     -12.621   6.744  70.760  1.00  0.00    -0.311 OA 
HETATM   20  O   UNL     1     -10.765   5.181  69.765  1.00  0.00    -0.225 OA 
HETATM   21  O   UNL     1     -10.790   5.960  72.252  1.00  0.00    -0.222 OA 
ENDBRANCH   6  17
TORSDOF 2
ENDMDL
MODEL      123
REMARK 921   NORMALIZED FREE ENERGY PREDICTED BY IDOCK:   -3.52 KCAL/MOL
REMARK 922        TOTAL FREE ENERGY PREDICTED BY IDOCK:   -4.34 KCAL/MOL
REMARK 923 INTER-LIGAND FREE ENERGY PREDICTED BY IDOCK:   -4.06 KCAL/MOL
REMARK 924 INTRA-LIGAND FREE ENERGY PREDICTED BY IDOCK:   -0.28 KCAL/MOL
REMARK 927      BINDING AFFINITY PREDICTED BY RF-SCORE:    0.00 PKD
ROOT
HETATM    1  C   UNL     1      -8.155   6.117  67.132  1.00  0.00    -0.106 C  
HETATM    2  C   UNL     1      -9.042   6.912  68.060  1.00  0.00    -0.120 A  
HETATM    3  C   UNL     1      -9.936   6.464  69.065  1.00  0.00    -0.149 A  
HETATM    4  C   UNL     1     -10.700   7.397  69.819  1.00  0.00    -0.252 A  
HETATM    5  C   UNL     1      -8.963   8.295  67.814  1.00  0.00    -0.139 A  
HETATM    6  C   UNL     1      -9.714   9.213  68.536  1.00  0.00    -0.155 A  
HETATM    7  C   UNL     1     -11.606   6.996  70.825  1.00  0.00    -0.381 A  
HETATM    8  C   UNL     1     -10.588   8.785  69.542  1.00  0.00    -0.224 A  
HETATM    9  C   UNL     1     -11.373   9.705  70.268  1.00  0.00    -0.311 A  
HETATM   10  C   UNL     1     -12.259   9.276  71.250  1.00  0.00    -0.410 A  
HETATM   11  C   UNL     1     -12.378   7.921  71.529  1.00  0.00    -0.340 A  
ENDROOT
BRANCH   3  12
HETATM   12  O   UNL     1     -10.181   5.132  69.393  1.00  0.00    -0.222 OA 
HETATM   13  O   UNL     1      -8.798   3.406  68.913  1.00  0.00    -0.091 OA 
HETATM   14  O   UNL     1      -7.774   3.629  71.036  1.00  0.00    -0.046 OA 
HETATM   15  P   UNL     1      -8.910   4.339  70.260  1.00  0.00    -0.098 P  
HETATM   16  O   UNL     1     -10.135   3.490  70.948  1.00  0.00    -0.037 OA 
ENDBRANCH   3  12
BRANCH   6  17
HETATM   17  O   UNL     1      -9.709  10.533  68.182  1.00  0.00    -0.149 OA 
HETATM   18  P   UNL     1      -9.658  11.066  66.671  1.00  0.00    -0.201 P  
HETATM   19  O   UNL     1      -8.093  11.327  66.464  1.00  0.00    -0.163 OA 
HETATM   20  O   UNL     1     -10.345  10.289  65.611  1.00  0.00    -0.243 OA 
HETATM   21  O   UNL     1     -10.216  12.554  66.891  1.00  0.00    -0.224 OA 
ENDBRANCH   6  17
TORSDOF 2
ENDMDL
MODEL      124
REMARK 921   NORMALIZED FREE ENERGY PREDICTED BY IDOCK:   -3.51 KCAL/MOL
REMARK 922        TOTAL FREE ENERGY PREDICTED BY IDOCK:   -4.34 KCAL/MOL
REMARK 923 INTER-LIGAND FREE ENERGY PREDICTED BY IDOCK:   -3.89 KCAL/MOL
REMARK 924 INTRA-LIGAND FREE ENERGY PREDICTED BY IDOCK:   -0.44 KCAL/MOL
REMARK 927      BINDING AFFINITY PREDICTED BY RF-SCORE:    0.00 PKD
ROOT
HETATM    1  C   UNL     1      -5.771  13.656  70.198  1.00  0.00    -0.136 C  
HETATM    2  C   UNL     1      -6.869  13.727  69.164  1.00  0.00    -0.102 A  
HETATM    3  C   UNL     1      -7.422  12.701  68.358  1.00  0.00    -0.127 A  
HETATM    4  C   UNL     1      -8.450  12.996  67.420  1.00  0.00    -0.200 A  
HETATM    5  C   UNL     1      -7.341  15.039  68.981  1.00  0.00    -0.151 A  
HETATM    6  C   UNL     1      -8.335  15.340  68.059  1.00  0.00    -0.146 A  
HETATM    7  C   UNL     1      -9.027  12.008  66.593  1.00  0.00    -0.204 A  
HETATM    8  C   UNL     1      -8.903  14.334  67.269  1.00  0.00    -0.224 A  
HETATM    9  C   UNL     1      -9.897  14.628  66.313  1.00  0.00    -0.320 A  
HETATM   10  C   UNL     1     -10.442  13.631  65.511  1.00  0.00    -0.314 A  
HETATM   11  C   UNL     1     -10.006  12.320  65.649  1.00  0.00    -0.271 A  
ENDROOT
BRANCH   3  12
HETATM   12  O   UNL     1      -7.028  11.364  68.366  1.00  0.00    -0.067 OA 
HETATM   13  O   UNL     1      -6.094  10.304  70.133  1.00  0.00    -0.064 OA 
HETATM   14  O   UNL     1      -8.234   9.564  70.827  1.00  0.00    -0.251 OA 
HETATM   15  P   UNL     1      -7.664  10.415  69.665  1.00  0.00    -0.040 P  
HETATM   16  O   UNL     1      -7.601   9.187  68.578  1.00  0.00    -0.084 OA 
ENDBRANCH   3  12
BRANCH   6  17
HETATM   17  O   UNL     1      -8.676  16.642  67.817  1.00  0.00    -0.197 OA 
HETATM   18  P   UNL     1      -7.665  17.755  67.264  1.00  0.00    -0.216 P  
HETATM   19  O   UNL     1      -7.176  18.461  68.614  1.00  0.00    -0.269 OA 
HETATM   20  O   UNL     1      -6.605  17.352  66.308  1.00  0.00    -0.225 OA 
HETATM   21  O   UNL     1      -8.722  18.821  66.696  1.00  0.00    -0.284 OA 
ENDBRANCH   6  17
TORSDOF 2
ENDMDL
MODEL      125
REMARK 921   NORMALIZED FREE ENERGY PREDICTED BY IDOCK:   -3.47 KCAL/MOL
REMARK 922        TOTAL FREE ENERGY PREDICTED BY IDOCK:   -4.29 KCAL/MOL
REMARK 923 INTER-LIGAND FREE ENERGY PREDICTED BY IDOCK:   -3.92 KCAL/MOL
REMARK 924 INTRA-LIGAND FREE ENERGY PREDICTED BY IDOCK:   -0.38 KCAL/MOL
REMARK 927      BINDING AFFINITY PREDICTED BY RF-SCORE:    0.00 PKD
ROOT
HETATM    1  C   UNL     1      -9.773   4.401  69.250  1.00  0.00    -0.252 C  
HETATM    2  C   UNL     1      -9.727   5.618  68.358  1.00  0.00    -0.161 A  
HETATM    3  C   UNL     1      -9.042   5.819  67.133  1.00  0.00    -0.112 A  
HETATM    4  C   UNL     1      -9.120   7.069  66.459  1.00  0.00    -0.183 A  
HETATM    5  C   UNL     1     -10.451   6.698  68.895  1.00  0.00    -0.239 A  
HETATM    6  C   UNL     1     -10.523   7.926  68.251  1.00  0.00    -0.164 A  
HETATM    7  C   UNL     1      -8.450   7.315  65.241  1.00  0.00    -0.067 A  
HETATM    8  C   UNL     1      -9.865   8.132  67.033  1.00  0.00    -0.299 A  
HETATM    9  C   UNL     1      -9.911   9.381  66.380  1.00  0.00    -0.346 A  
HETATM   10  C   UNL     1      -9.236   9.592  65.182  1.00  0.00    -0.305 A  
HETATM   11  C   UNL     1      -8.504   8.560  64.612  1.00  0.00    -0.127 A  
ENDROOT
BRANCH   3  12
HETATM   12  O   UNL     1      -8.232   4.879  66.496  1.00  0.00    -0.107 OA 
HETATM   13  O   UNL     1      -8.594   2.646  66.501  1.00  0.00    -0.100 OA 
HETATM   14  O   UNL     1      -9.794   2.830  64.469  1.00  0.00    -0.134 OA 
HETATM   15  P   UNL     1      -9.057   3.798  65.427  1.00  0.00    -0.161 P  
HETATM   16  O   UNL     1      -7.647   3.818  64.587  1.00  0.00    -0.077 OA 
ENDBRANCH   3  12
BRANCH   6  17
HETATM   17  O   UNL     1     -11.125   8.989  68.866  1.00  0.00    -0.021 OA 
HETATM   18  P   UNL     1     -10.429   9.904  69.981  1.00  0.00    -0.295 P  
HETATM   19  O   UNL     1     -10.945   9.228  71.336  1.00  0.00    -0.308 OA 
HETATM   20  O   UNL     1      -8.972  10.168  69.888  1.00  0.00    -0.185 OA 
HETATM   21  O   UNL     1     -11.362  11.206  69.883  1.00  0.00    -0.273 OA 
ENDBRANCH   6  17
TORSDOF 2
ENDMDL
MODEL      126
REMARK 921   NORMALIZED FREE ENERGY PREDICTED BY IDOCK:   -3.40 KCAL/MOL
REMARK 922        TOTAL FREE ENERGY PREDICTED BY IDOCK:   -4.22 KCAL/MOL
REMARK 923 INTER-LIGAND FREE ENERGY PREDICTED BY IDOCK:   -3.81 KCAL/MOL
REMARK 924 INTRA-LIGAND FREE ENERGY PREDICTED BY IDOCK:   -0.40 KCAL/MOL
REMARK 927      BINDING AFFINITY PREDICTED BY RF-SCORE:    0.00 PKD
ROOT
HETATM    1  C   UNL     1     -10.856  11.207  69.234  1.00  0.00    -0.277 C  
HETATM    2  C   UNL     1     -10.179   9.924  69.653  1.00  0.00    -0.261 A  
HETATM    3  C   UNL     1     -10.404   9.112  70.793  1.00  0.00    -0.258 A  
HETATM    4  C   UNL     1      -9.627   7.939  71.007  1.00  0.00    -0.177 A  
HETATM    5  C   UNL     1      -9.150   9.553  68.769  1.00  0.00    -0.133 A  
HETATM    6  C   UNL     1      -8.379   8.417  68.976  1.00  0.00    -0.119 A  
HETATM    7  C   UNL     1      -9.812   7.104  72.130  1.00  0.00    -0.171 A  
HETATM    8  C   UNL     1      -8.601   7.597  70.088  1.00  0.00    -0.140 A  
HETATM    9  C   UNL     1      -7.810   6.453  70.322  1.00  0.00    -0.103 A  
HETATM   10  C   UNL     1      -8.016   5.653  71.441  1.00  0.00    -0.113 A  
HETATM   11  C   UNL     1      -9.016   5.979  72.347  1.00  0.00    -0.137 A  
ENDROOT
BRANCH   3  12
HETATM   12  O   UNL     1     -11.336   9.367  71.797  1.00  0.00    -0.379 OA 
HETATM   13  O   UNL     1     -13.276  10.495  71.503  1.00  0.00    -0.387 OA 
HETATM   14  O   UNL     1     -14.411   8.453  71.117  1.00  0.00    -0.285 OA 
HETATM   15  P   UNL     1     -12.959   8.885  71.437  1.00  0.00    -0.185 P  
HETATM   16  O   UNL     1     -13.064   8.628  73.055  1.00  0.00    -0.251 OA 
ENDBRANCH   3  12
BRANCH   6  17
HETATM   17  O   UNL     1      -7.305   8.160  68.169  1.00  0.00    -0.091 OA 
HETATM   18  P   UNL     1      -7.412   7.621  66.663  1.00  0.00    -0.095 P  
HETATM   19  O   UNL     1      -7.244   6.043  66.863  1.00  0.00    -0.069 OA 
HETATM   20  O   UNL     1      -8.549   8.064  65.820  1.00  0.00    -0.143 OA 
HETATM   21  O   UNL     1      -5.961   8.043  66.123  1.00  0.00    -0.040 OA 
ENDBRANCH   6  17
TORSDOF 2
ENDMDL
MODEL      127
REMARK 921   NORMALIZED FREE ENERGY PREDICTED BY IDOCK:   -3.39 KCAL/MOL
REMARK 922        TOTAL FREE ENERGY PREDICTED BY IDOCK:   -4.20 KCAL/MOL
REMARK 923 INTER-LIGAND FREE ENERGY PREDICTED BY IDOCK:   -4.15 KCAL/MOL
REMARK 924 INTRA-LIGAND FREE ENERGY PREDICTED BY IDOCK:   -0.05 KCAL/MOL
REMARK 927      BINDING AFFINITY PREDICTED BY RF-SCORE:    0.00 PKD
ROOT
HETATM    1  C   UNL     1      -6.357  10.014  69.309  1.00  0.00    -0.045 C  
HETATM    2  C   UNL     1      -7.551   9.538  70.101  1.00  0.00    -0.146 A  
HETATM    3  C   UNL     1      -8.917   9.898  69.985  1.00  0.00    -0.169 A  
HETATM    4  C   UNL     1      -9.887   9.335  70.860  1.00  0.00    -0.363 A  
HETATM    5  C   UNL     1      -7.187   8.643  71.123  1.00  0.00    -0.085 A  
HETATM    6  C   UNL     1      -8.124   8.099  71.990  1.00  0.00    -0.138 A  
HETATM    7  C   UNL     1     -11.257   9.668  70.785  1.00  0.00    -0.403 A  
HETATM    8  C   UNL     1      -9.479   8.432  71.876  1.00  0.00    -0.323 A  
HETATM    9  C   UNL     1     -10.439   7.904  72.764  1.00  0.00    -0.412 A  
HETATM   10  C   UNL     1     -11.781   8.255  72.665  1.00  0.00    -0.406 A  
HETATM   11  C   UNL     1     -12.191   9.139  71.676  1.00  0.00    -0.433 A  
ENDROOT
BRANCH   3  12
HETATM   12  O   UNL     1      -9.437  10.814  69.073  1.00  0.00    -0.191 OA 
HETATM   13  O   UNL     1      -8.236  11.866  67.469  1.00  0.00    -0.139 OA 
HETATM   14  O   UNL     1      -8.804  10.166  65.922  1.00  0.00    -0.142 OA 
HETATM   15  P   UNL     1      -9.102  10.472  67.410  1.00  0.00    -0.138 P  
HETATM   16  O   UNL     1     -10.554  11.189  67.142  1.00  0.00    -0.219 OA 
ENDBRANCH   3  12
BRANCH   6  17
HETATM   17  O   UNL     1      -7.718   7.336  73.050  1.00  0.00    -0.090 OA 
HETATM   18  P   UNL     1      -7.214   5.820  72.935  1.00  0.00    -0.092 P  
HETATM   19  O   UNL     1      -8.549   5.000  73.258  1.00  0.00    -0.112 OA 
HETATM   20  O   UNL     1      -6.457   5.403  71.729  1.00  0.00    -0.037 OA 
HETATM   21  O   UNL     1      -6.408   5.698  74.317  1.00  0.00    -0.066 OA 
ENDBRANCH   6  17
TORSDOF 2
ENDMDL
MODEL      128
REMARK 921   NORMALIZED FREE ENERGY PREDICTED BY IDOCK:   -3.37 KCAL/MOL
REMARK 922        TOTAL FREE ENERGY PREDICTED BY IDOCK:   -4.17 KCAL/MOL
REMARK 923 INTER-LIGAND FREE ENERGY PREDICTED BY IDOCK:   -3.90 KCAL/MOL
REMARK 924 INTRA-LIGAND FREE ENERGY PREDICTED BY IDOCK:   -0.27 KCAL/MOL
REMARK 927      BINDING AFFINITY PREDICTED BY RF-SCORE:    0.00 PKD
ROOT
HETATM    1  C   UNL     1     -10.381  10.468  68.834  1.00  0.00    -0.226 C  
HETATM    2  C   UNL     1     -10.088   9.239  68.008  1.00  0.00    -0.234 A  
HETATM    3  C   UNL     1     -10.488   7.894  68.210  1.00  0.00    -0.164 A  
HETATM    4  C   UNL     1     -10.078   6.875  67.306  1.00  0.00    -0.256 A  
HETATM    5  C   UNL     1      -9.250   9.522  66.915  1.00  0.00    -0.174 A  
HETATM    6  C   UNL     1      -8.833   8.533  66.034  1.00  0.00    -0.173 A  
HETATM    7  C   UNL     1     -10.448   5.523  67.471  1.00  0.00    -0.269 A  
HETATM    8  C   UNL     1      -9.235   7.204  66.212  1.00  0.00    -0.169 A  
HETATM    9  C   UNL     1      -8.801   6.186  65.338  1.00  0.00    -0.016 A  
HETATM   10  C   UNL     1      -9.181   4.861  65.531  1.00  0.00    -0.160 A  
HETATM   11  C   UNL     1     -10.004   4.529  66.599  1.00  0.00    -0.253 A  
ENDROOT
BRANCH   3  12
HETATM   12  O   UNL     1     -11.263   7.432  69.273  1.00  0.00    -0.057 OA 
HETATM   13  O   UNL     1     -10.619   5.838  70.744  1.00  0.00    -0.240 OA 
HETATM   14  O   UNL     1      -9.801   7.510  72.207  1.00  0.00    -0.160 OA 
HETATM   15  P   UNL     1     -10.491   7.473  70.821  1.00  0.00    -0.217 P  
HETATM   16  O   UNL     1     -12.010   7.733  71.387  1.00  0.00    -0.291 OA 
ENDBRANCH   3  12
BRANCH   6  17
HETATM   17  O   UNL     1      -7.916   8.821  65.061  1.00  0.00    -0.117 OA 
HETATM   18  P   UNL     1      -8.255   9.583  63.693  1.00  0.00    -0.195 P  
HETATM   19  O   UNL     1      -8.481   8.364  62.682  1.00  0.00    -0.176 OA 
HETATM   20  O   UNL     1      -9.296  10.640  63.698  1.00  0.00    -0.232 OA 
HETATM   21  O   UNL     1      -6.785  10.080  63.289  1.00  0.00    -0.124 OA 
ENDBRANCH   6  17
TORSDOF 2
ENDMDL
MODEL      129
REMARK 921   NORMALIZED FREE ENERGY PREDICTED BY IDOCK:   -3.36 KCAL/MOL
REMARK 922        TOTAL FREE ENERGY PREDICTED BY IDOCK:   -4.17 KCAL/MOL
REMARK 923 INTER-LIGAND FREE ENERGY PREDICTED BY IDOCK:   -3.80 KCAL/MOL
REMARK 924 INTRA-LIGAND FREE ENERGY PREDICTED BY IDOCK:   -0.38 KCAL/MOL
REMARK 927      BINDING AFFINITY PREDICTED BY RF-SCORE:    0.00 PKD
ROOT
HETATM    1  C   UNL     1     -10.566   9.126  66.605  1.00  0.00    -0.157 C  
HETATM    2  C   UNL     1      -9.517   9.835  67.428  1.00  0.00    -0.178 A  
HETATM    3  C   UNL     1      -8.996  11.146  67.297  1.00  0.00    -0.147 A  
HETATM    4  C   UNL     1      -7.983  11.612  68.181  1.00  0.00    -0.141 A  
HETATM    5  C   UNL     1      -8.979   9.006  68.429  1.00  0.00    -0.133 A  
HETATM    6  C   UNL     1      -7.982   9.447  69.289  1.00  0.00    -0.093 A  
HETATM    7  C   UNL     1      -7.431  12.907  68.084  1.00  0.00    -0.126 A  
HETATM    8  C   UNL     1      -7.470  10.745  69.182  1.00  0.00    -0.123 A  
HETATM    9  C   UNL     1      -6.442  11.198  70.033  1.00  0.00    -0.133 A  
HETATM   10  C   UNL     1      -5.917  12.480  69.909  1.00  0.00    -0.144 A  
HETATM   11  C   UNL     1      -6.410  13.336  68.933  1.00  0.00    -0.096 A  
ENDROOT
BRANCH   3  12
HETATM   12  O   UNL     1      -9.370  12.072  66.324  1.00  0.00    -0.224 OA 
HETATM   13  O   UNL     1     -11.415  12.180  65.362  1.00  0.00    -0.336 OA 
HETATM   14  O   UNL     1     -12.099  13.767  66.981  1.00  0.00    -0.406 OA 
HETATM   15  P   UNL     1     -10.811  12.966  66.671  1.00  0.00    -0.279 P  
HETATM   16  O   UNL     1     -10.074  14.162  65.821  1.00  0.00    -0.310 OA 
ENDBRANCH   3  12
BRANCH   6  17
HETATM   17  O   UNL     1      -7.394   8.574  70.162  1.00  0.00    -0.049 OA 
HETATM   18  P   UNL     1      -8.133   7.916  71.422  1.00  0.00    -0.117 P  
HETATM   19  O   UNL     1      -7.709   8.903  72.609  1.00  0.00    -0.366 OA 
HETATM   20  O   UNL     1      -9.577   7.589  71.319  1.00  0.00    -0.157 OA 
HETATM   21  O   UNL     1      -7.169   6.660  71.675  1.00  0.00    -0.082 OA 
ENDBRANCH   6  17
TORSDOF 2
ENDMDL
MODEL      130
REMARK 921   NORMALIZED FREE ENERGY PREDICTED BY IDOCK:   -3.35 KCAL/MOL
REMARK 922        TOTAL FREE ENERGY PREDICTED BY IDOCK:   -4.16 KCAL/MOL
REMARK 923 INTER-LIGAND FREE ENERGY PREDICTED BY IDOCK:   -3.81 KCAL/MOL
REMARK 924 INTRA-LIGAND FREE ENERGY PREDICTED BY IDOCK:   -0.35 KCAL/MOL
REMARK 927      BINDING AFFINITY PREDICTED BY RF-SCORE:    0.00 PKD
ROOT
HETATM    1  C   UNL     1      -7.029   6.847  68.080  1.00  0.00    -0.080 C  
HETATM    2  C   UNL     1      -8.221   7.085  68.975  1.00  0.00    -0.125 A  
HETATM    3  C   UNL     1      -8.634   6.388  70.139  1.00  0.00    -0.135 A  
HETATM    4  C   UNL     1      -9.818   6.773  70.828  1.00  0.00    -0.194 A  
HETATM    5  C   UNL     1      -9.032   8.136  68.511  1.00  0.00    -0.137 A  
HETATM    6  C   UNL     1     -10.196   8.511  69.169  1.00  0.00    -0.211 A  
HETATM    7  C   UNL     1     -10.270   6.105  71.986  1.00  0.00    -0.223 A  
HETATM    8  C   UNL     1     -10.607   7.843  70.328  1.00  0.00    -0.231 A  
HETATM    9  C   UNL     1     -11.798   8.198  70.993  1.00  0.00    -0.279 A  
HETATM   10  C   UNL     1     -12.217   7.517  72.131  1.00  0.00    -0.283 A  
HETATM   11  C   UNL     1     -11.455   6.469  72.628  1.00  0.00    -0.224 A  
ENDROOT
BRANCH   3  12
HETATM   12  O   UNL     1      -7.984   5.289  70.696  1.00  0.00    -0.098 OA 
HETATM   13  O   UNL     1      -5.747   4.950  70.653  1.00  0.00    -0.015 OA 
HETATM   14  O   UNL     1      -5.542   6.006  72.763  1.00  0.00    -0.034 OA 
HETATM   15  P   UNL     1      -6.695   5.668  71.786  1.00  0.00    -0.061 P  
HETATM   16  O   UNL     1      -7.141   4.276  72.535  1.00  0.00    -0.057 OA 
ENDBRANCH   3  12
BRANCH   6  17
HETATM   17  O   UNL     1     -11.025   9.448  68.617  1.00  0.00    -0.150 OA 
HETATM   18  P   UNL     1     -10.807  11.031  68.732  1.00  0.00    -0.250 P  
HETATM   19  O   UNL     1     -11.732  11.403  69.984  1.00  0.00    -0.297 OA 
HETATM   20  O   UNL     1      -9.424  11.567  68.750  1.00  0.00    -0.175 OA 
HETATM   21  O   UNL     1     -11.709  11.518  67.498  1.00  0.00    -0.555 OA 
ENDBRANCH   6  17
TORSDOF 2
ENDMDL
MODEL      131
REMARK 921   NORMALIZED FREE ENERGY PREDICTED BY IDOCK:   -3.33 KCAL/MOL
REMARK 922        TOTAL FREE ENERGY PREDICTED BY IDOCK:   -4.14 KCAL/MOL
REMARK 923 INTER-LIGAND FREE ENERGY PREDICTED BY IDOCK:   -3.98 KCAL/MOL
REMARK 924 INTRA-LIGAND FREE ENERGY PREDICTED BY IDOCK:   -0.15 KCAL/MOL
REMARK 927      BINDING AFFINITY PREDICTED BY RF-SCORE:    0.00 PKD
ROOT
HETATM    1  C   UNL     1     -10.618   8.141  67.322  1.00  0.00    -0.344 C  
HETATM    2  C   UNL     1     -10.295   7.744  68.743  1.00  0.00    -0.219 A  
HETATM    3  C   UNL     1      -9.831   8.537  69.822  1.00  0.00    -0.186 A  
HETATM    4  C   UNL     1      -9.568   7.948  71.090  1.00  0.00    -0.181 A  
HETATM    5  C   UNL     1     -10.452   6.363  68.957  1.00  0.00    -0.267 A  
HETATM    6  C   UNL     1     -10.186   5.776  70.187  1.00  0.00    -0.236 A  
HETATM    7  C   UNL     1      -9.099   8.697  72.191  1.00  0.00    -0.301 A  
HETATM    8  C   UNL     1      -9.743   6.550  71.266  1.00  0.00    -0.186 A  
HETATM    9  C   UNL     1      -9.448   5.964  72.514  1.00  0.00    -0.155 A  
HETATM   10  C   UNL     1      -8.984   6.731  73.577  1.00  0.00    -0.153 A  
HETATM   11  C   UNL     1      -8.808   8.098  73.416  1.00  0.00    -0.322 A  
ENDROOT
BRANCH   3  12
HETATM   12  O   UNL     1      -9.563   9.904  69.764  1.00  0.00    -0.212 OA 
HETATM   13  O   UNL     1      -7.494  10.819  69.818  1.00  0.00    -0.125 OA 
HETATM   14  O   UNL     1      -7.425  10.815  67.451  1.00  0.00    -0.094 OA 
HETATM   15  P   UNL     1      -8.434  10.384  68.544  1.00  0.00    -0.144 P  
HETATM   16  O   UNL     1      -9.317  11.768  68.508  1.00  0.00    -0.198 OA 
ENDBRANCH   3  12
BRANCH   6  17
HETATM   17  O   UNL     1     -10.224   4.415  70.321  1.00  0.00    -0.180 OA 
HETATM   18  P   UNL     1      -8.999   3.438  69.989  1.00  0.00    -0.134 P  
HETATM   19  O   UNL     1      -9.330   2.987  68.491  1.00  0.00    -0.171 OA 
HETATM   20  O   UNL     1      -7.615   3.906  70.249  1.00  0.00    -0.044 OA 
HETATM   21  O   UNL     1      -9.448   2.148  70.831  1.00  0.00    -0.128 OA 
ENDBRANCH   6  17
TORSDOF 2
ENDMDL
MODEL      132
REMARK 921   NORMALIZED FREE ENERGY PREDICTED BY IDOCK:   -3.33 KCAL/MOL
REMARK 922        TOTAL FREE ENERGY PREDICTED BY IDOCK:   -4.13 KCAL/MOL
REMARK 923 INTER-LIGAND FREE ENERGY PREDICTED BY IDOCK:   -4.09 KCAL/MOL
REMARK 924 INTRA-LIGAND FREE ENERGY PREDICTED BY IDOCK:   -0.04 KCAL/MOL
REMARK 927      BINDING AFFINITY PREDICTED BY RF-SCORE:    0.00 PKD
ROOT
HETATM    1  C   UNL     1      -8.423   8.835  67.707  1.00  0.00    -0.125 C  
HETATM    2  C   UNL     1      -8.962   8.417  69.055  1.00  0.00    -0.147 A  
HETATM    3  C   UNL     1      -8.791   7.200  69.761  1.00  0.00    -0.142 A  
HETATM    4  C   UNL     1      -9.413   7.007  71.026  1.00  0.00    -0.159 A  
HETATM    5  C   UNL     1      -9.786   9.403  69.625  1.00  0.00    -0.205 A  
HETATM    6  C   UNL     1     -10.408   9.220  70.853  1.00  0.00    -0.296 A  
HETATM    7  C   UNL     1      -9.276   5.811  71.763  1.00  0.00    -0.157 A  
HETATM    8  C   UNL     1     -10.235   8.030  71.569  1.00  0.00    -0.243 A  
HETATM    9  C   UNL     1     -10.877   7.822  72.807  1.00  0.00    -0.438 A  
HETATM   10  C   UNL     1     -10.724   6.628  73.505  1.00  0.00    -0.301 A  
HETATM   11  C   UNL     1      -9.924   5.622  72.983  1.00  0.00    -0.191 A  
ENDROOT
BRANCH   3  12
HETATM   12  O   UNL     1      -8.061   6.101  69.313  1.00  0.00    -0.106 OA 
HETATM   13  O   UNL     1      -8.921   4.039  68.951  1.00  0.00    -0.098 OA 
HETATM   14  O   UNL     1      -9.289   4.586  66.677  1.00  0.00    -0.129 OA 
HETATM   15  P   UNL     1      -8.710   5.301  67.922  1.00  0.00    -0.101 P  
HETATM   16  O   UNL     1      -7.137   4.977  67.582  1.00  0.00    -0.064 OA 
ENDBRANCH   3  12
BRANCH   6  17
HETATM   17  O   UNL     1     -11.304  10.144  71.314  1.00  0.00    -0.325 OA 
HETATM   18  P   UNL     1     -12.888  10.062  71.087  1.00  0.00    -0.381 P  
HETATM   19  O   UNL     1     -13.086  10.977  69.790  1.00  0.00    -0.000 OA 
HETATM   20  O   UNL     1     -13.543   8.731  71.064  1.00  0.00    -0.095 OA 
HETATM   21  O   UNL     1     -13.380  11.040  72.260  1.00  0.00    -0.390 OA 
ENDBRANCH   6  17
TORSDOF 2
ENDMDL
MODEL      133
REMARK 921   NORMALIZED FREE ENERGY PREDICTED BY IDOCK:   -3.31 KCAL/MOL
REMARK 922        TOTAL FREE ENERGY PREDICTED BY IDOCK:   -4.12 KCAL/MOL
REMARK 923 INTER-LIGAND FREE ENERGY PREDICTED BY IDOCK:   -3.98 KCAL/MOL
REMARK 924 INTRA-LIGAND FREE ENERGY PREDICTED BY IDOCK:   -0.14 KCAL/MOL
REMARK 927      BINDING AFFINITY PREDICTED BY RF-SCORE:    0.00 PKD
ROOT
HETATM    1  C   UNL     1      -9.406   7.281  69.622  1.00  0.00    -0.153 C  
HETATM    2  C   UNL     1      -9.900   8.707  69.594  1.00  0.00    -0.186 A  
HETATM    3  C   UNL     1     -10.754   9.388  70.497  1.00  0.00    -0.276 A  
HETATM    4  C   UNL     1     -11.112  10.746  70.267  1.00  0.00    -0.248 A  
HETATM    5  C   UNL     1      -9.452   9.402  68.456  1.00  0.00    -0.150 A  
HETATM    6  C   UNL     1      -9.806  10.722  68.216  1.00  0.00    -0.166 A  
HETATM    7  C   UNL     1     -11.963  11.462  71.136  1.00  0.00    -0.031 A  
HETATM    8  C   UNL     1     -10.635  11.413  69.108  1.00  0.00    -0.196 A  
HETATM    9  C   UNL     1     -11.020  12.747  68.865  1.00  0.00    -0.275 A  
HETATM   10  C   UNL     1     -11.865  13.423  69.740  1.00  0.00    -0.393 A  
HETATM   11  C   UNL     1     -12.338  12.780  70.876  1.00  0.00    -0.356 A  
ENDROOT
BRANCH   3  12
HETATM   12  O   UNL     1     -11.335   8.833  71.636  1.00  0.00    -0.274 OA 
HETATM   13  O   UNL     1     -13.494   9.109  72.252  1.00  0.00    -0.424 OA 
HETATM   14  O   UNL     1     -14.079   7.117  71.113  1.00  0.00    -0.291 OA 
HETATM   15  P   UNL     1     -12.783   7.928  71.360  1.00  0.00    -0.203 P  
HETATM   16  O   UNL     1     -12.273   7.037  72.640  1.00  0.00    -0.003 OA 
ENDBRANCH   3  12
BRANCH   6  17
HETATM   17  O   UNL     1      -9.460  11.323  67.037  1.00  0.00    -0.169 OA 
HETATM   18  P   UNL     1     -10.184  11.049  65.634  1.00  0.00    -0.250 P  
HETATM   19  O   UNL     1      -9.239   9.934  64.983  1.00  0.00    -0.203 OA 
HETATM   20  O   UNL     1     -11.642  10.770  65.619  1.00  0.00     0.405 OA 
HETATM   21  O   UNL     1      -9.738  12.368  64.838  1.00  0.00    -0.139 OA 
ENDBRANCH   6  17
TORSDOF 2
ENDMDL
MODEL      134
REMARK 921   NORMALIZED FREE ENERGY PREDICTED BY IDOCK:   -3.27 KCAL/MOL
REMARK 922        TOTAL FREE ENERGY PREDICTED BY IDOCK:   -4.07 KCAL/MOL
REMARK 923 INTER-LIGAND FREE ENERGY PREDICTED BY IDOCK:   -3.89 KCAL/MOL
REMARK 924 INTRA-LIGAND FREE ENERGY PREDICTED BY IDOCK:   -0.18 KCAL/MOL
REMARK 927      BINDING AFFINITY PREDICTED BY RF-SCORE:    0.00 PKD
ROOT
HETATM    1  C   UNL     1     -10.060   7.909  69.262  1.00  0.00    -0.197 C  
HETATM    2  C   UNL     1      -9.830   6.430  69.461  1.00  0.00    -0.176 A  
HETATM    3  C   UNL     1     -10.024   5.630  70.614  1.00  0.00    -0.200 A  
HETATM    4  C   UNL     1      -9.721   4.240  70.587  1.00  0.00    -0.274 A  
HETATM    5  C   UNL     1      -9.301   5.817  68.311  1.00  0.00    -0.123 A  
HETATM    6  C   UNL     1      -8.990   4.464  68.278  1.00  0.00    -0.119 A  
HETATM    7  C   UNL     1      -9.893   3.406  71.713  1.00  0.00    -0.229 A  
HETATM    8  C   UNL     1      -9.192   3.658  69.404  1.00  0.00    -0.225 A  
HETATM    9  C   UNL     1      -8.860   2.288  69.392  1.00  0.00    -0.146 A  
HETATM   10  C   UNL     1      -9.039   1.494  70.521  1.00  0.00    -0.141 A  
HETATM   11  C   UNL     1      -9.554   2.053  71.682  1.00  0.00    -0.207 A  
ENDROOT
BRANCH   3  12
HETATM   12  O   UNL     1     -10.479   6.088  71.849  1.00  0.00    -0.207 OA 
HETATM   13  O   UNL     1      -9.210   6.251  73.716  1.00  0.00    -0.127 OA 
HETATM   14  O   UNL     1      -8.709   8.503  73.185  1.00  0.00    -0.345 OA 
HETATM   15  P   UNL     1      -9.544   7.362  72.554  1.00  0.00    -0.180 P  
HETATM   16  O   UNL     1     -10.981   7.840  73.189  1.00  0.00    -0.396 OA 
ENDBRANCH   3  12
BRANCH   6  17
HETATM   17  O   UNL     1      -8.357   3.931  67.190  1.00  0.00    -0.098 OA 
HETATM   18  P   UNL     1      -9.082   3.570  65.807  1.00  0.00    -0.155 P  
HETATM   19  O   UNL     1      -9.399   2.013  65.994  1.00  0.00    -0.024 OA 
HETATM   20  O   UNL     1     -10.203   4.421  65.339  1.00  0.00    -0.232 OA 
HETATM   21  O   UNL     1      -7.806   3.534  64.835  1.00  0.00    -0.084 OA 
ENDBRANCH   6  17
TORSDOF 2
ENDMDL
MODEL      135
REMARK 921   NORMALIZED FREE ENERGY PREDICTED BY IDOCK:   -3.24 KCAL/MOL
REMARK 922        TOTAL FREE ENERGY PREDICTED BY IDOCK:   -4.03 KCAL/MOL
REMARK 923 INTER-LIGAND FREE ENERGY PREDICTED BY IDOCK:   -3.85 KCAL/MOL
REMARK 924 INTRA-LIGAND FREE ENERGY PREDICTED BY IDOCK:   -0.18 KCAL/MOL
REMARK 927      BINDING AFFINITY PREDICTED BY RF-SCORE:    0.00 PKD
ROOT
HETATM    1  C   UNL     1      -6.619   6.220  68.877  1.00  0.00    -0.048 C  
HETATM    2  C   UNL     1      -7.707   7.265  68.955  1.00  0.00    -0.116 A  
HETATM    3  C   UNL     1      -8.488   7.679  70.063  1.00  0.00    -0.136 A  
HETATM    4  C   UNL     1      -9.486   8.681  69.908  1.00  0.00    -0.168 A  
HETATM    5  C   UNL     1      -7.973   7.848  67.703  1.00  0.00    -0.124 A  
HETATM    6  C   UNL     1      -8.953   8.817  67.539  1.00  0.00    -0.134 A  
HETATM    7  C   UNL     1     -10.291   9.120  70.981  1.00  0.00    -0.363 A  
HETATM    8  C   UNL     1      -9.721   9.248  68.627  1.00  0.00    -0.158 A  
HETATM    9  C   UNL     1     -10.735  10.215  68.471  1.00  0.00    -0.264 A  
HETATM   10  C   UNL     1     -11.513  10.623  69.549  1.00  0.00    -0.360 A  
HETATM   11  C   UNL     1     -11.293  10.075  70.805  1.00  0.00    -0.439 A  
ENDROOT
BRANCH   3  12
HETATM   12  O   UNL     1      -8.397   7.162  71.354  1.00  0.00    -0.111 OA 
HETATM   13  O   UNL     1     -10.123   6.270  72.514  1.00  0.00    -0.175 OA 
HETATM   14  O   UNL     1      -9.544   4.113  71.726  1.00  0.00    -0.138 OA 
HETATM   15  P   UNL     1      -9.003   5.553  71.550  1.00  0.00    -0.135 P  
HETATM   16  O   UNL     1      -7.842   5.435  72.704  1.00  0.00    -0.100 OA 
ENDBRANCH   3  12
BRANCH   6  17
HETATM   17  O   UNL     1      -9.273   9.266  66.287  1.00  0.00    -0.160 OA 
HETATM   18  P   UNL     1      -8.489  10.429  65.514  1.00  0.00    -0.169 P  
HETATM   19  O   UNL     1      -9.375  11.715  65.861  1.00  0.00    -0.225 OA 
HETATM   20  O   UNL     1      -7.024  10.563  65.710  1.00  0.00    -0.131 OA 
HETATM   21  O   UNL     1      -8.945  10.108  64.009  1.00  0.00    -0.196 OA 
ENDBRANCH   6  17
TORSDOF 2
ENDMDL
MODEL      136
REMARK 921   NORMALIZED FREE ENERGY PREDICTED BY IDOCK:   -3.23 KCAL/MOL
REMARK 922        TOTAL FREE ENERGY PREDICTED BY IDOCK:   -4.03 KCAL/MOL
REMARK 923 INTER-LIGAND FREE ENERGY PREDICTED BY IDOCK:   -3.71 KCAL/MOL
REMARK 924 INTRA-LIGAND FREE ENERGY PREDICTED BY IDOCK:   -0.32 KCAL/MOL
REMARK 927      BINDING AFFINITY PREDICTED BY RF-SCORE:    0.00 PKD
ROOT
HETATM    1  C   UNL     1      -5.720  13.554  70.303  1.00  0.00    -0.150 C  
HETATM    2  C   UNL     1      -6.849  13.231  69.353  1.00  0.00     0.023 A  
HETATM    3  C   UNL     1      -7.185  12.004  68.729  1.00  0.00    -0.108 A  
HETATM    4  C   UNL     1      -8.294  11.927  67.841  1.00  0.00    -0.152 A  
HETATM    5  C   UNL     1      -7.620  14.365  69.042  1.00  0.00    -0.106 A  
HETATM    6  C   UNL     1      -8.697  14.303  68.167  1.00  0.00    -0.174 A  
HETATM    7  C   UNL     1      -8.662  10.728  67.193  1.00  0.00    -0.131 A  
HETATM    8  C   UNL     1      -9.050  13.094  67.556  1.00  0.00    -0.205 A  
HETATM    9  C   UNL     1     -10.127  13.021  66.649  1.00  0.00    -0.251 A  
HETATM   10  C   UNL     1     -10.461  11.824  66.024  1.00  0.00    -0.286 A  
HETATM   11  C   UNL     1      -9.728  10.677  66.294  1.00  0.00    -0.245 A  
ENDROOT
BRANCH   3  12
HETATM   12  O   UNL     1      -6.491  10.805  68.877  1.00  0.00    -0.044 OA 
HETATM   13  O   UNL     1      -5.193  10.273  70.653  1.00  0.00    -0.048 OA 
HETATM   14  O   UNL     1      -7.038   9.210  71.689  1.00  0.00    -0.286 OA 
HETATM   15  P   UNL     1      -6.780   9.964  70.362  1.00  0.00    -0.106 P  
HETATM   16  O   UNL     1      -6.523   8.619  69.456  1.00  0.00    -0.039 OA 
ENDBRANCH   3  12
BRANCH   6  17
HETATM   17  O   UNL     1      -9.341  15.448  67.788  1.00  0.00    -0.194 OA 
HETATM   18  P   UNL     1     -10.498  16.161  68.637  1.00  0.00    -0.309 P  
HETATM   19  O   UNL     1     -11.820  15.565  67.963  1.00  0.00    -0.277 OA 
HETATM   20  O   UNL     1     -10.433  16.116  70.119  1.00  0.00    -0.255 OA 
HETATM   21  O   UNL     1     -10.434  17.631  67.999  1.00  0.00    -0.366 OA 
ENDBRANCH   6  17
TORSDOF 2
ENDMDL
MODEL      137
REMARK 921   NORMALIZED FREE ENERGY PREDICTED BY IDOCK:   -3.23 KCAL/MOL
REMARK 922        TOTAL FREE ENERGY PREDICTED BY IDOCK:   -4.03 KCAL/MOL
REMARK 923 INTER-LIGAND FREE ENERGY PREDICTED BY IDOCK:   -3.62 KCAL/MOL
REMARK 924 INTRA-LIGAND FREE ENERGY PREDICTED BY IDOCK:   -0.41 KCAL/MOL
REMARK 927      BINDING AFFINITY PREDICTED BY RF-SCORE:    0.00 PKD
ROOT
HETATM    1  C   UNL     1      -9.364   8.810  68.882  1.00  0.00    -0.145 C  
HETATM    2  C   UNL     1      -9.046   8.756  67.407  1.00  0.00    -0.147 A  
HETATM    3  C   UNL     1      -9.471   9.608  66.357  1.00  0.00    -0.189 A  
HETATM    4  C   UNL     1      -9.063   9.360  65.016  1.00  0.00    -0.271 A  
HETATM    5  C   UNL     1      -8.244   7.649  67.077  1.00  0.00    -0.117 A  
HETATM    6  C   UNL     1      -7.850   7.391  65.771  1.00  0.00    -0.108 A  
HETATM    7  C   UNL     1      -9.466  10.178  63.939  1.00  0.00    -0.332 A  
HETATM    8  C   UNL     1      -8.248   8.233  64.726  1.00  0.00    -0.147 A  
HETATM    9  C   UNL     1      -7.875   7.971  63.392  1.00  0.00    -0.147 A  
HETATM   10  C   UNL     1      -8.293   8.795  62.352  1.00  0.00    -0.203 A  
HETATM   11  C   UNL     1      -9.090   9.898  62.625  1.00  0.00    -0.304 A  
ENDROOT
BRANCH   3  12
HETATM   12  O   UNL     1     -10.315  10.708  66.499  1.00  0.00    -0.232 OA 
HETATM   13  O   UNL     1     -10.413  12.034  68.330  1.00  0.00    -0.206 OA 
HETATM   14  O   UNL     1      -8.836  13.506  67.355  1.00  0.00    -0.199 OA 
HETATM   15  P   UNL     1      -9.534  12.184  66.951  1.00  0.00    -0.220 P  
HETATM   16  O   UNL     1     -10.726  12.890  66.070  1.00  0.00    -0.271 OA 
ENDBRANCH   3  12
BRANCH   6  17
HETATM   17  O   UNL     1      -7.181   6.237  65.470  1.00  0.00    -0.067 OA 
HETATM   18  P   UNL     1      -7.662   4.772  65.907  1.00  0.00    -0.092 P  
HETATM   19  O   UNL     1      -6.829   4.536  67.252  1.00  0.00    -0.053 OA 
HETATM   20  O   UNL     1      -9.115   4.481  65.969  1.00  0.00    -0.121 OA 
HETATM   21  O   UNL     1      -6.838   3.892  64.848  1.00  0.00    -0.047 OA 
ENDBRANCH   6  17
TORSDOF 2
ENDMDL
MODEL      138
REMARK 921   NORMALIZED FREE ENERGY PREDICTED BY IDOCK:   -3.18 KCAL/MOL
REMARK 922        TOTAL FREE ENERGY PREDICTED BY IDOCK:   -3.96 KCAL/MOL
REMARK 923 INTER-LIGAND FREE ENERGY PREDICTED BY IDOCK:   -3.68 KCAL/MOL
REMARK 924 INTRA-LIGAND FREE ENERGY PREDICTED BY IDOCK:   -0.28 KCAL/MOL
REMARK 927      BINDING AFFINITY PREDICTED BY RF-SCORE:    0.00 PKD
ROOT
HETATM    1  C   UNL     1     -11.279  10.601  67.286  1.00  0.00    -0.237 C  
HETATM    2  C   UNL     1     -10.049   9.934  66.719  1.00  0.00    -0.292 A  
HETATM    3  C   UNL     1      -9.190  10.354  65.673  1.00  0.00    -0.182 A  
HETATM    4  C   UNL     1      -8.084   9.550  65.280  1.00  0.00    -0.124 A  
HETATM    5  C   UNL     1      -9.793   8.691  67.326  1.00  0.00    -0.256 A  
HETATM    6  C   UNL     1      -8.723   7.893  66.942  1.00  0.00    -0.131 A  
HETATM    7  C   UNL     1      -7.206   9.926  64.241  1.00  0.00    -0.134 A  
HETATM    8  C   UNL     1      -7.857   8.304  65.922  1.00  0.00    -0.093 A  
HETATM    9  C   UNL     1      -6.781   7.494  65.506  1.00  0.00    -0.045 A  
HETATM   10  C   UNL     1      -5.937   7.892  64.475  1.00  0.00    -0.048 A  
HETATM   11  C   UNL     1      -6.149   9.108  63.840  1.00  0.00    -0.083 A  
ENDROOT
BRANCH   3  12
HETATM   12  O   UNL     1      -9.337  11.522  64.927  1.00  0.00    -0.180 OA 
HETATM   13  O   UNL     1      -9.629  11.596  62.684  1.00  0.00    -0.249 OA 
HETATM   14  O   UNL     1     -11.978  11.623  62.987  1.00  0.00    -0.187 OA 
HETATM   15  P   UNL     1     -10.730  11.574  63.903  1.00  0.00    -0.428 P  
HETATM   16  O   UNL     1     -10.682  13.188  64.199  1.00  0.00    -0.402 OA 
ENDBRANCH   3  12
BRANCH   6  17
HETATM   17  O   UNL     1      -8.582   6.637  67.463  1.00  0.00    -0.120 OA 
HETATM   18  P   UNL     1      -9.343   5.338  66.913  1.00  0.00    -0.145 P  
HETATM   19  O   UNL     1     -10.611   5.259  67.884  1.00  0.00    -0.135 OA 
HETATM   20  O   UNL     1      -9.615   5.226  65.459  1.00  0.00    -0.112 OA 
HETATM   21  O   UNL     1      -8.392   4.194  67.515  1.00  0.00    -0.098 OA 
ENDBRANCH   6  17
TORSDOF 2
ENDMDL
MODEL      139
REMARK 921   NORMALIZED FREE ENERGY PREDICTED BY IDOCK:   -3.18 KCAL/MOL
REMARK 922        TOTAL FREE ENERGY PREDICTED BY IDOCK:   -3.96 KCAL/MOL
REMARK 923 INTER-LIGAND FREE ENERGY PREDICTED BY IDOCK:   -3.72 KCAL/MOL
REMARK 924 INTRA-LIGAND FREE ENERGY PREDICTED BY IDOCK:   -0.24 KCAL/MOL
REMARK 927      BINDING AFFINITY PREDICTED BY RF-SCORE:    0.00 PKD
ROOT
HETATM    1  C   UNL     1     -10.952   6.581  66.882  1.00  0.00    -0.408 C  
HETATM    2  C   UNL     1     -10.110   7.121  68.013  1.00  0.00    -0.201 A  
HETATM    3  C   UNL     1      -9.068   8.082  67.989  1.00  0.00    -0.129 A  
HETATM    4  C   UNL     1      -8.384   8.434  69.186  1.00  0.00    -0.122 A  
HETATM    5  C   UNL     1     -10.417   6.509  69.242  1.00  0.00    -0.259 A  
HETATM    6  C   UNL     1      -9.747   6.837  70.413  1.00  0.00    -0.175 A  
HETATM    7  C   UNL     1      -7.338   9.381  69.208  1.00  0.00    -0.071 A  
HETATM    8  C   UNL     1      -8.728   7.796  70.407  1.00  0.00    -0.139 A  
HETATM    9  C   UNL     1      -8.024   8.122  71.584  1.00  0.00    -0.144 A  
HETATM   10  C   UNL     1      -6.994   9.058  71.571  1.00  0.00    -0.045 A  
HETATM   11  C   UNL     1      -6.649   9.687  70.383  1.00  0.00    -0.096 A  
ENDROOT
BRANCH   3  12
HETATM   12  O   UNL     1      -8.597   8.735  66.852  1.00  0.00    -0.113 OA 
HETATM   13  O   UNL     1      -6.430   8.807  66.206  1.00  0.00    -0.063 OA 
HETATM   14  O   UNL     1      -6.769   6.902  64.840  1.00  0.00    -0.044 OA 
HETATM   15  P   UNL     1      -7.632   7.768  65.791  1.00  0.00    -0.093 P  
HETATM   16  O   UNL     1      -8.272   8.716  64.614  1.00  0.00    -0.151 OA 
ENDBRANCH   3  12
BRANCH   6  17
HETATM   17  O   UNL     1      -9.982   6.129  71.559  1.00  0.00    -0.180 OA 
HETATM   18  P   UNL     1     -11.304   6.268  72.455  1.00  0.00    -0.267 P  
HETATM   19  O   UNL     1     -10.842   7.320  73.568  1.00  0.00    -0.375 OA 
HETATM   20  O   UNL     1     -12.600   6.540  71.786  1.00  0.00    -0.335 OA 
HETATM   21  O   UNL     1     -11.232   4.881  73.258  1.00  0.00    -0.307 OA 
ENDBRANCH   6  17
TORSDOF 2
ENDMDL
MODEL      140
REMARK 921   NORMALIZED FREE ENERGY PREDICTED BY IDOCK:   -3.17 KCAL/MOL
REMARK 922        TOTAL FREE ENERGY PREDICTED BY IDOCK:   -3.95 KCAL/MOL
REMARK 923 INTER-LIGAND FREE ENERGY PREDICTED BY IDOCK:   -3.51 KCAL/MOL
REMARK 924 INTRA-LIGAND FREE ENERGY PREDICTED BY IDOCK:   -0.44 KCAL/MOL
REMARK 927      BINDING AFFINITY PREDICTED BY RF-SCORE:    0.00 PKD
ROOT
HETATM    1  C   UNL     1     -11.188   6.676  67.092  1.00  0.00    -0.306 C  
HETATM    2  C   UNL     1     -10.295   6.038  68.129  1.00  0.00    -0.251 A  
HETATM    3  C   UNL     1      -9.752   4.730  68.176  1.00  0.00    -0.143 A  
HETATM    4  C   UNL     1      -8.940   4.325  69.271  1.00  0.00    -0.154 A  
HETATM    5  C   UNL     1     -10.035   6.901  69.209  1.00  0.00    -0.164 A  
HETATM    6  C   UNL     1      -9.255   6.511  70.289  1.00  0.00    -0.155 A  
HETATM    7  C   UNL     1      -8.383   3.031  69.363  1.00  0.00    -0.088 A  
HETATM    8  C   UNL     1      -8.698   5.228  70.340  1.00  0.00    -0.138 A  
HETATM    9  C   UNL     1      -7.922   4.811  71.441  1.00  0.00    -0.101 A  
HETATM   10  C   UNL     1      -7.390   3.527  71.501  1.00  0.00    -0.043 A  
HETATM   11  C   UNL     1      -7.621   2.635  70.463  1.00  0.00    -0.043 A  
ENDROOT
BRANCH   3  12
HETATM   12  O   UNL     1      -9.961   3.733  67.224  1.00  0.00    -0.086 OA 
HETATM   13  O   UNL     1     -10.409   4.107  65.038  1.00  0.00    -0.235 OA 
HETATM   14  O   UNL     1      -8.101   3.954  64.533  1.00  0.00    -0.085 OA 
HETATM   15  P   UNL     1      -8.980   3.851  65.804  1.00  0.00    -0.146 P  
HETATM   16  O   UNL     1      -9.080   2.212  65.801  1.00  0.00    -0.125 OA 
ENDBRANCH   3  12
BRANCH   6  17
HETATM   17  O   UNL     1      -9.132   7.329  71.378  1.00  0.00    -0.142 OA 
HETATM   18  P   UNL     1     -10.306   7.621  72.429  1.00  0.00    -0.288 P  
HETATM   19  O   UNL     1     -10.924   8.985  71.865  1.00  0.00    -0.352 OA 
HETATM   20  O   UNL     1     -11.271   6.540  72.748  1.00  0.00    -0.257 OA 
HETATM   21  O   UNL     1      -9.434   8.141  73.670  1.00  0.00    -0.208 OA 
ENDBRANCH   6  17
TORSDOF 2
ENDMDL
MODEL      141
REMARK 921   NORMALIZED FREE ENERGY PREDICTED BY IDOCK:   -3.16 KCAL/MOL
REMARK 922        TOTAL FREE ENERGY PREDICTED BY IDOCK:   -3.94 KCAL/MOL
REMARK 923 INTER-LIGAND FREE ENERGY PREDICTED BY IDOCK:   -3.73 KCAL/MOL
REMARK 924 INTRA-LIGAND FREE ENERGY PREDICTED BY IDOCK:   -0.21 KCAL/MOL
REMARK 927      BINDING AFFINITY PREDICTED BY RF-SCORE:    0.00 PKD
ROOT
HETATM    1  C   UNL     1      -7.663   7.850  65.531  1.00  0.00    -0.101 C  
HETATM    2  C   UNL     1      -8.556   7.561  66.714  1.00  0.00    -0.127 A  
HETATM    3  C   UNL     1      -9.106   8.449  67.673  1.00  0.00    -0.135 A  
HETATM    4  C   UNL     1      -9.916   7.955  68.733  1.00  0.00    -0.194 A  
HETATM    5  C   UNL     1      -8.808   6.186  66.866  1.00  0.00    -0.117 A  
HETATM    6  C   UNL     1      -9.587   5.692  67.903  1.00  0.00    -0.120 A  
HETATM    7  C   UNL     1     -10.480   8.801  69.712  1.00  0.00    -0.222 A  
HETATM    8  C   UNL     1     -10.150   6.559  68.847  1.00  0.00    -0.183 A  
HETATM    9  C   UNL     1     -10.924   6.069  69.919  1.00  0.00    -0.458 A  
HETATM   10  C   UNL     1     -11.462   6.930  70.870  1.00  0.00    -0.368 A  
HETATM   11  C   UNL     1     -11.239   8.296  70.769  1.00  0.00    -0.284 A  
ENDROOT
BRANCH   3  12
HETATM   12  O   UNL     1      -8.905   9.828  67.707  1.00  0.00    -0.128 OA 
HETATM   13  O   UNL     1      -7.969  11.039  66.041  1.00  0.00    -0.155 OA 
HETATM   14  O   UNL     1     -10.117  11.483  65.149  1.00  0.00    -0.244 OA 
HETATM   15  P   UNL     1      -9.544  10.701  66.357  1.00  0.00    -0.206 P  
HETATM   16  O   UNL     1      -9.758  11.907  67.450  1.00  0.00    -0.182 OA 
ENDBRANCH   3  12
BRANCH   6  17
HETATM   17  O   UNL     1      -9.702   4.343  68.094  1.00  0.00    -0.159 OA 
HETATM   18  P   UNL     1      -8.472   3.317  68.071  1.00  0.00    -0.100 P  
HETATM   19  O   UNL     1      -8.505   2.791  66.560  1.00  0.00    -0.093 OA 
HETATM   20  O   UNL     1      -7.154   3.762  68.587  1.00  0.00    -0.050 OA 
HETATM   21  O   UNL     1      -9.131   2.088  68.864  1.00  0.00    -0.101 OA 
ENDBRANCH   6  17
TORSDOF 2
ENDMDL
MODEL      142
REMARK 921   NORMALIZED FREE ENERGY PREDICTED BY IDOCK:   -3.13 KCAL/MOL
REMARK 922        TOTAL FREE ENERGY PREDICTED BY IDOCK:   -3.91 KCAL/MOL
REMARK 923 INTER-LIGAND FREE ENERGY PREDICTED BY IDOCK:   -3.84 KCAL/MOL
REMARK 924 INTRA-LIGAND FREE ENERGY PREDICTED BY IDOCK:   -0.07 KCAL/MOL
REMARK 927      BINDING AFFINITY PREDICTED BY RF-SCORE:    0.00 PKD
ROOT
HETATM    1  C   UNL     1     -10.506   8.311  68.128  1.00  0.00    -0.226 C  
HETATM    2  C   UNL     1     -10.410   7.258  69.205  1.00  0.00    -0.208 A  
HETATM    3  C   UNL     1     -11.214   7.062  70.356  1.00  0.00    -0.299 A  
HETATM    4  C   UNL     1     -10.931   6.003  71.263  1.00  0.00    -0.340 A  
HETATM    5  C   UNL     1      -9.313   6.400  69.011  1.00  0.00    -0.127 A  
HETATM    6  C   UNL     1      -9.021   5.371  69.897  1.00  0.00    -0.125 A  
HETATM    7  C   UNL     1     -11.701   5.775  72.424  1.00  0.00    -0.281 A  
HETATM    8  C   UNL     1      -9.816   5.156  71.028  1.00  0.00    -0.261 A  
HETATM    9  C   UNL     1      -9.518   4.130  71.947  1.00  0.00    -0.201 A  
HETATM   10  C   UNL     1     -10.295   3.933  73.085  1.00  0.00    -0.241 A  
HETATM   11  C   UNL     1     -11.386   4.757  73.324  1.00  0.00    -0.408 A  
ENDROOT
BRANCH   3  12
HETATM   12  O   UNL     1     -12.297   7.857  70.730  1.00  0.00    -0.147 OA 
HETATM   13  O   UNL     1     -12.284   9.335  72.443  1.00  0.00    -0.282 OA 
HETATM   14  O   UNL     1     -11.668  11.067  70.950  1.00  0.00    -0.284 OA 
HETATM   15  P   UNL     1     -11.964   9.551  70.847  1.00  0.00    -0.255 P  
HETATM   16  O   UNL     1     -13.530   9.721  70.385  1.00  0.00     0.028 OA 
ENDBRANCH   3  12
BRANCH   6  17
HETATM   17  O   UNL     1      -7.874   4.641  69.747  1.00  0.00    -0.061 OA 
HETATM   18  P   UNL     1      -6.491   5.230  69.192  1.00  0.00    -0.045 P  
HETATM   19  O   UNL     1      -6.566   4.848  67.640  1.00  0.00    -0.047 OA 
HETATM   20  O   UNL     1      -6.127   6.633  69.511  1.00  0.00    -0.024 OA 
HETATM   21  O   UNL     1      -5.479   4.121  69.757  1.00  0.00    -0.011 OA 
ENDBRANCH   6  17
TORSDOF 2
ENDMDL
MODEL      143
REMARK 921   NORMALIZED FREE ENERGY PREDICTED BY IDOCK:   -3.09 KCAL/MOL
REMARK 922        TOTAL FREE ENERGY PREDICTED BY IDOCK:   -3.87 KCAL/MOL
REMARK 923 INTER-LIGAND FREE ENERGY PREDICTED BY IDOCK:   -3.87 KCAL/MOL
REMARK 924 INTRA-LIGAND FREE ENERGY PREDICTED BY IDOCK:   -0.00 KCAL/MOL
REMARK 927      BINDING AFFINITY PREDICTED BY RF-SCORE:    0.00 PKD
ROOT
HETATM    1  C   UNL     1      -7.350   7.077  66.832  1.00  0.00    -0.078 C  
HETATM    2  C   UNL     1      -8.240   7.465  67.989  1.00  0.00    -0.124 A  
HETATM    3  C   UNL     1      -9.064   8.606  68.156  1.00  0.00    -0.141 A  
HETATM    4  C   UNL     1      -9.814   8.786  69.351  1.00  0.00    -0.186 A  
HETATM    5  C   UNL     1      -8.163   6.544  69.049  1.00  0.00    -0.116 A  
HETATM    6  C   UNL     1      -8.881   6.717  70.225  1.00  0.00    -0.152 A  
HETATM    7  C   UNL     1     -10.643   9.908  69.563  1.00  0.00    -0.264 A  
HETATM    8  C   UNL     1      -9.712   7.830  70.396  1.00  0.00    -0.179 A  
HETATM    9  C   UNL     1     -10.429   8.030  71.593  1.00  0.00    -0.272 A  
HETATM   10  C   UNL     1     -11.235   9.150  71.771  1.00  0.00    -0.451 A  
HETATM   11  C   UNL     1     -11.341  10.091  70.757  1.00  0.00    -0.439 A  
ENDROOT
BRANCH   3  12
HETATM   12  O   UNL     1      -9.206   9.642  67.234  1.00  0.00    -0.133 OA 
HETATM   13  O   UNL     1      -9.132  11.845  67.745  1.00  0.00    -0.168 OA 
HETATM   14  O   UNL     1      -6.813  11.884  67.269  1.00  0.00    -0.117 OA 
HETATM   15  P   UNL     1      -7.943  10.825  67.253  1.00  0.00    -0.124 P  
HETATM   16  O   UNL     1      -8.267  10.954  65.649  1.00  0.00    -0.154 OA 
ENDBRANCH   3  12
BRANCH   6  17
HETATM   17  O   UNL     1      -8.681   5.872  71.282  1.00  0.00    -0.131 OA 
HETATM   18  P   UNL     1      -9.444   4.478  71.484  1.00  0.00    -0.172 P  
HETATM   19  O   UNL     1     -10.651   4.895  72.447  1.00  0.00    -0.209 OA 
HETATM   20  O   UNL     1      -9.800   3.673  70.289  1.00  0.00    -0.174 OA 
HETATM   21  O   UNL     1      -8.435   3.764  72.507  1.00  0.00    -0.088 OA 
ENDBRANCH   6  17
TORSDOF 2
ENDMDL
MODEL      144
REMARK 921   NORMALIZED FREE ENERGY PREDICTED BY IDOCK:   -2.98 KCAL/MOL
REMARK 922        TOTAL FREE ENERGY PREDICTED BY IDOCK:   -3.74 KCAL/MOL
REMARK 923 INTER-LIGAND FREE ENERGY PREDICTED BY IDOCK:   -3.68 KCAL/MOL
REMARK 924 INTRA-LIGAND FREE ENERGY PREDICTED BY IDOCK:   -0.06 KCAL/MOL
REMARK 927      BINDING AFFINITY PREDICTED BY RF-SCORE:    0.00 PKD
ROOT
HETATM    1  C   UNL     1      -7.019  12.291  67.678  1.00  0.00    -0.128 C  
HETATM    2  C   UNL     1      -8.397  12.566  67.124  1.00  0.00    -0.179 A  
HETATM    3  C   UNL     1      -9.241  11.739  66.342  1.00  0.00    -0.217 A  
HETATM    4  C   UNL     1     -10.509  12.211  65.904  1.00  0.00    -0.288 A  
HETATM    5  C   UNL     1      -8.836  13.870  67.418  1.00  0.00    -0.209 A  
HETATM    6  C   UNL     1     -10.066  14.345  66.985  1.00  0.00    -0.256 A  
HETATM    7  C   UNL     1     -11.380  11.425  65.119  1.00  0.00    -0.079 A  
HETATM    8  C   UNL     1     -10.918  13.533  66.226  1.00  0.00    -0.293 A  
HETATM    9  C   UNL     1     -12.160  14.009  65.760  1.00  0.00    -0.445 A  
HETATM   10  C   UNL     1     -12.993  13.209  64.985  1.00  0.00    -0.221 A  
HETATM   11  C   UNL     1     -12.603  11.917  64.663  1.00  0.00     0.070 A  
ENDROOT
BRANCH   3  12
HETATM   12  O   UNL     1      -8.934  10.450  65.910  1.00  0.00    -0.152 OA 
HETATM   13  O   UNL     1      -7.608   8.994  67.024  1.00  0.00    -0.090 OA 
HETATM   14  O   UNL     1      -9.509   8.068  68.089  1.00  0.00    -0.142 OA 
HETATM   15  P   UNL     1      -9.237   9.194  67.060  1.00  0.00    -0.146 P  
HETATM   16  O   UNL     1      -9.547   8.280  65.732  1.00  0.00    -0.080 OA 
ENDBRANCH   3  12
BRANCH   6  17
HETATM   17  O   UNL     1     -10.403  15.656  67.178  1.00  0.00    -0.272 OA 
HETATM   18  P   UNL     1     -10.200  16.813  66.088  1.00  0.00    -0.288 P  
HETATM   19  O   UNL     1      -8.792  17.435  66.522  1.00  0.00    -0.247 OA 
HETATM   20  O   UNL     1     -10.363  16.484  64.651  1.00  0.00    -0.310 OA 
HETATM   21  O   UNL     1     -11.233  17.902  66.656  1.00  0.00     0.288 OA 
ENDBRANCH   6  17
TORSDOF 2
ENDMDL
MODEL      145
REMARK 921   NORMALIZED FREE ENERGY PREDICTED BY IDOCK:   -2.95 KCAL/MOL
REMARK 922        TOTAL FREE ENERGY PREDICTED BY IDOCK:   -3.71 KCAL/MOL
REMARK 923 INTER-LIGAND FREE ENERGY PREDICTED BY IDOCK:   -3.47 KCAL/MOL
REMARK 924 INTRA-LIGAND FREE ENERGY PREDICTED BY IDOCK:   -0.23 KCAL/MOL
REMARK 927      BINDING AFFINITY PREDICTED BY RF-SCORE:    0.00 PKD
ROOT
HETATM    1  C   UNL     1      -9.570   2.693  70.079  1.00  0.00    -0.084 C  
HETATM    2  C   UNL     1      -9.797   4.041  69.438  1.00  0.00    -0.115 A  
HETATM    3  C   UNL     1     -10.179   5.272  70.027  1.00  0.00    -0.288 A  
HETATM    4  C   UNL     1     -10.359   6.431  69.223  1.00  0.00    -0.248 A  
HETATM    5  C   UNL     1      -9.638   3.997  68.041  1.00  0.00    -0.195 A  
HETATM    6  C   UNL     1      -9.823   5.120  67.246  1.00  0.00    -0.168 A  
HETATM    7  C   UNL     1     -10.744   7.676  69.765  1.00  0.00    -0.243 A  
HETATM    8  C   UNL     1     -10.184   6.346  67.816  1.00  0.00    -0.196 A  
HETATM    9  C   UNL     1     -10.397   7.489  67.018  1.00  0.00    -0.395 A  
HETATM   10  C   UNL     1     -10.781   8.700  67.585  1.00  0.00    -0.194 A  
HETATM   11  C   UNL     1     -10.956   8.795  68.958  1.00  0.00     0.046 A  
ENDROOT
BRANCH   3  12
HETATM   12  O   UNL     1     -10.439   5.474  71.381  1.00  0.00    -0.226 OA 
HETATM   13  O   UNL     1      -9.932   4.006  73.028  1.00  0.00    -0.128 OA 
HETATM   14  O   UNL     1      -7.860   5.100  73.372  1.00  0.00    -0.101 OA 
HETATM   15  P   UNL     1      -9.078   5.276  72.431  1.00  0.00    -0.132 P  
HETATM   16  O   UNL     1      -9.824   6.420  73.341  1.00  0.00    -0.161 OA 
ENDBRANCH   3  12
BRANCH   6  17
HETATM   17  O   UNL     1      -9.787   5.010  65.883  1.00  0.00    -0.169 OA 
HETATM   18  P   UNL     1      -8.451   4.793  65.026  1.00  0.00    -0.148 P  
HETATM   19  O   UNL     1      -8.080   6.291  64.603  1.00  0.00    -0.127 OA 
HETATM   20  O   UNL     1      -7.352   3.978  65.601  1.00  0.00    -0.074 OA 
HETATM   21  O   UNL     1      -9.089   4.215  63.673  1.00  0.00    -0.127 OA 
ENDBRANCH   6  17
TORSDOF 2
ENDMDL
MODEL      146
REMARK 921   NORMALIZED FREE ENERGY PREDICTED BY IDOCK:   -2.94 KCAL/MOL
REMARK 922        TOTAL FREE ENERGY PREDICTED BY IDOCK:   -3.70 KCAL/MOL
REMARK 923 INTER-LIGAND FREE ENERGY PREDICTED BY IDOCK:   -4.22 KCAL/MOL
REMARK 924 INTRA-LIGAND FREE ENERGY PREDICTED BY IDOCK:    0.52 KCAL/MOL
REMARK 927      BINDING AFFINITY PREDICTED BY RF-SCORE:    0.00 PKD
ROOT
HETATM    1  C   UNL     1     -10.002   4.468  69.836  1.00  0.00    -0.273 C  
HETATM    2  C   UNL     1     -10.173   5.963  69.712  1.00  0.00    -0.281 A  
HETATM    3  C   UNL     1      -9.634   6.861  68.758  1.00  0.00    -0.134 A  
HETATM    4  C   UNL     1      -9.912   8.254  68.840  1.00  0.00    -0.193 A  
HETATM    5  C   UNL     1     -10.955   6.495  70.754  1.00  0.00    -0.328 A  
HETATM    6  C   UNL     1     -11.222   7.854  70.850  1.00  0.00    -0.270 A  
HETATM    7  C   UNL     1      -9.393   9.186  67.916  1.00  0.00    -0.151 A  
HETATM    8  C   UNL     1     -10.710   8.750  69.905  1.00  0.00    -0.228 A  
HETATM    9  C   UNL     1     -10.954  10.136  70.004  1.00  0.00    -0.364 A  
HETATM   10  C   UNL     1     -10.423  11.028  69.078  1.00  0.00    -0.242 A  
HETATM   11  C   UNL     1      -9.641  10.554  68.034  1.00  0.00    -0.159 A  
ENDROOT
BRANCH   3  12
HETATM   12  O   UNL     1      -8.793   6.512  67.703  1.00  0.00    -0.115 OA 
HETATM   13  O   UNL     1      -6.566   6.909  67.640  1.00  0.00    -0.051 OA 
HETATM   14  O   UNL     1      -6.152   4.759  68.542  1.00  0.00    -0.028 OA 
HETATM   15  P   UNL     1      -7.399   5.587  68.147  1.00  0.00    -0.074 P  
HETATM   16  O   UNL     1      -7.574   4.919  66.657  1.00  0.00    -0.086 OA 
ENDBRANCH   3  12
BRANCH   6  17
HETATM   17  O   UNL     1     -11.874   8.349  71.945  1.00  0.00    -0.293 OA 
HETATM   18  P   UNL     1     -13.413   8.797  71.958  1.00  0.00    -0.449 P  
HETATM   19  O   UNL     1     -13.303  10.372  71.698  1.00  0.00    -0.376 OA 
HETATM   20  O   UNL     1     -14.384   8.055  71.117  1.00  0.00    -0.302 OA 
HETATM   21  O   UNL     1     -13.698   8.739  73.535  1.00  0.00     0.176 OA 
ENDBRANCH   6  17
TORSDOF 2
ENDMDL
MODEL      147
REMARK 921   NORMALIZED FREE ENERGY PREDICTED BY IDOCK:   -2.93 KCAL/MOL
REMARK 922        TOTAL FREE ENERGY PREDICTED BY IDOCK:   -3.69 KCAL/MOL
REMARK 923 INTER-LIGAND FREE ENERGY PREDICTED BY IDOCK:   -5.32 KCAL/MOL
REMARK 924 INTRA-LIGAND FREE ENERGY PREDICTED BY IDOCK:    1.63 KCAL/MOL
REMARK 927      BINDING AFFINITY PREDICTED BY RF-SCORE:    0.00 PKD
ROOT
HETATM    1  C   UNL     1      -7.487  13.386  68.277  1.00  0.00    -0.129 C  
HETATM    2  C   UNL     1      -8.276  14.496  67.625  1.00  0.00    -0.187 A  
HETATM    3  C   UNL     1      -8.195  15.898  67.815  1.00  0.00    -0.146 A  
HETATM    4  C   UNL     1      -9.059  16.774  67.101  1.00  0.00    -0.224 A  
HETATM    5  C   UNL     1      -9.254  14.004  66.742  1.00  0.00    -0.280 A  
HETATM    6  C   UNL     1     -10.110  14.849  66.050  1.00  0.00    -0.311 A  
HETATM    7  C   UNL     1      -9.018  18.176  67.262  1.00  0.00    -0.248 A  
HETATM    8  C   UNL     1     -10.030  16.237  66.215  1.00  0.00    -0.335 A  
HETATM    9  C   UNL     1     -10.909  17.106  65.537  1.00  0.00    -0.058 A  
HETATM   10  C   UNL     1     -10.844  18.483  65.721  1.00  0.00    -0.058 A  
HETATM   11  C   UNL     1      -9.899  19.019  66.586  1.00  0.00    -0.403 A  
ENDROOT
BRANCH   3  12
HETATM   12  O   UNL     1      -7.329  16.546  68.694  1.00  0.00    -0.172 OA 
HETATM   13  O   UNL     1      -5.179  17.080  68.235  1.00  0.00    -0.116 OA 
HETATM   14  O   UNL     1      -5.863  19.224  67.498  1.00  0.00    -0.184 OA 
HETATM   15  P   UNL     1      -6.555  17.959  68.062  1.00  0.00    -0.201 P  
HETATM   16  O   UNL     1      -6.613  18.483  69.617  1.00  0.00    -0.217 OA 
ENDBRANCH   3  12
BRANCH   6  17
HETATM   17  O   UNL     1     -11.132  14.331  65.303  1.00  0.00    -0.307 OA 
HETATM   18  P   UNL     1     -11.333  12.769  65.003  1.00  0.00    -0.342 P  
HETATM   19  O   UNL     1     -10.625  12.611  63.577  1.00  0.00    -0.403 OA 
HETATM   20  O   UNL     1     -10.952  11.782  66.043  1.00  0.00    -0.291 OA 
HETATM   21  O   UNL     1     -12.887  12.770  64.604  1.00  0.00    -0.705 OA 
ENDBRANCH   6  17
TORSDOF 2
ENDMDL
MODEL      148
REMARK 921   NORMALIZED FREE ENERGY PREDICTED BY IDOCK:   -2.93 KCAL/MOL
REMARK 922        TOTAL FREE ENERGY PREDICTED BY IDOCK:   -3.69 KCAL/MOL
REMARK 923 INTER-LIGAND FREE ENERGY PREDICTED BY IDOCK:   -3.58 KCAL/MOL
REMARK 924 INTRA-LIGAND FREE ENERGY PREDICTED BY IDOCK:   -0.11 KCAL/MOL
REMARK 927      BINDING AFFINITY PREDICTED BY RF-SCORE:    0.00 PKD
ROOT
HETATM    1  C   UNL     1     -11.728  11.313  68.225  1.00  0.00    -0.344 C  
HETATM    2  C   UNL     1     -10.673  10.355  68.725  1.00  0.00    -0.255 A  
HETATM    3  C   UNL     1      -9.592   9.755  68.031  1.00  0.00    -0.142 A  
HETATM    4  C   UNL     1      -8.717   8.854  68.700  1.00  0.00    -0.134 A  
HETATM    5  C   UNL     1     -10.869  10.006  70.073  1.00  0.00    -0.352 A  
HETATM    6  C   UNL     1     -10.028   9.119  70.731  1.00  0.00    -0.269 A  
HETATM    7  C   UNL     1      -7.632   8.229  68.048  1.00  0.00    -0.102 A  
HETATM    8  C   UNL     1      -8.947   8.532  70.063  1.00  0.00    -0.142 A  
HETATM    9  C   UNL     1      -8.099   7.612  70.712  1.00  0.00    -0.103 A  
HETATM   10  C   UNL     1      -7.040   7.010  70.040  1.00  0.00    -0.070 A  
HETATM   11  C   UNL     1      -6.807   7.317  68.706  1.00  0.00    -0.073 A  
ENDROOT
BRANCH   3  12
HETATM   12  O   UNL     1      -9.294   9.942  66.683  1.00  0.00    -0.149 OA 
HETATM   13  O   UNL     1      -9.089  11.955  65.670  1.00  0.00    -0.124 OA 
HETATM   14  O   UNL     1      -6.755  11.925  66.072  1.00  0.00     0.415 OA 
HETATM   15  P   UNL     1      -7.954  10.989  66.361  1.00  0.00    -0.110 P  
HETATM   16  O   UNL     1      -7.733  10.028  65.048  1.00  0.00    -0.128 OA 
ENDBRANCH   3  12
BRANCH   6  17
HETATM   17  O   UNL     1     -10.325   8.704  72.000  1.00  0.00    -0.301 OA 
HETATM   18  P   UNL     1     -11.526   7.710  72.370  1.00  0.00    -0.340 P  
HETATM   19  O   UNL     1     -12.692   8.731  72.766  1.00  0.00    -0.331 OA 
HETATM   20  O   UNL     1     -11.887   6.632  71.417  1.00  0.00    -0.307 OA 
HETATM   21  O   UNL     1     -11.025   7.205  73.808  1.00  0.00    -0.217 OA 
ENDBRANCH   6  17
TORSDOF 2
ENDMDL
MODEL      149
REMARK 921   NORMALIZED FREE ENERGY PREDICTED BY IDOCK:   -2.92 KCAL/MOL
REMARK 922        TOTAL FREE ENERGY PREDICTED BY IDOCK:   -3.68 KCAL/MOL
REMARK 923 INTER-LIGAND FREE ENERGY PREDICTED BY IDOCK:   -3.31 KCAL/MOL
REMARK 924 INTRA-LIGAND FREE ENERGY PREDICTED BY IDOCK:   -0.37 KCAL/MOL
REMARK 927      BINDING AFFINITY PREDICTED BY RF-SCORE:    0.00 PKD
ROOT
HETATM    1  C   UNL     1      -9.506   3.688  69.863  1.00  0.00    -0.262 C  
HETATM    2  C   UNL     1      -9.140   5.139  69.662  1.00  0.00    -0.153 A  
HETATM    3  C   UNL     1      -8.668   5.802  68.502  1.00  0.00    -0.111 A  
HETATM    4  C   UNL     1      -8.361   7.191  68.540  1.00  0.00    -0.125 A  
HETATM    5  C   UNL     1      -9.261   5.886  70.848  1.00  0.00    -0.167 A  
HETATM    6  C   UNL     1      -8.953   7.239  70.898  1.00  0.00    -0.150 A  
HETATM    7  C   UNL     1      -7.883   7.891  67.411  1.00  0.00    -0.121 A  
HETATM    8  C   UNL     1      -8.502   7.910  69.756  1.00  0.00    -0.132 A  
HETATM    9  C   UNL     1      -8.163   9.278  69.798  1.00  0.00    -0.131 A  
HETATM   10  C   UNL     1      -7.691   9.938  68.668  1.00  0.00    -0.081 A  
HETATM   11  C   UNL     1      -7.549   9.244  67.474  1.00  0.00    -0.088 A  
ENDROOT
BRANCH   3  12
HETATM   12  O   UNL     1      -8.432   5.201  67.267  1.00  0.00    -0.107 OA 
HETATM   13  O   UNL     1      -9.441   3.313  66.534  1.00  0.00    -0.169 OA 
HETATM   14  O   UNL     1     -11.106   4.613  65.463  1.00  0.00    -0.200 OA 
HETATM   15  P   UNL     1      -9.843   4.890  66.316  1.00  0.00    -0.253 P  
HETATM   16  O   UNL     1      -8.838   5.144  65.043  1.00  0.00    -0.154 OA 
ENDBRANCH   3  12
BRANCH   6  17
HETATM   17  O   UNL     1      -8.958   7.900  72.095  1.00  0.00    -0.125 OA 
HETATM   18  P   UNL     1      -8.311   7.332  73.447  1.00  0.00    -0.142 P  
HETATM   19  O   UNL     1      -9.576   6.666  74.165  1.00  0.00    -0.205 OA 
HETATM   20  O   UNL     1      -7.084   6.502  73.363  1.00  0.00    -0.077 OA 
HETATM   21  O   UNL     1      -8.149   8.703  74.265  1.00  0.00    -0.356 OA 
ENDBRANCH   6  17
TORSDOF 2
ENDMDL
MODEL      150
REMARK 921   NORMALIZED FREE ENERGY PREDICTED BY IDOCK:   -2.92 KCAL/MOL
REMARK 922        TOTAL FREE ENERGY PREDICTED BY IDOCK:   -3.67 KCAL/MOL
REMARK 923 INTER-LIGAND FREE ENERGY PREDICTED BY IDOCK:   -3.30 KCAL/MOL
REMARK 924 INTRA-LIGAND FREE ENERGY PREDICTED BY IDOCK:   -0.37 KCAL/MOL
REMARK 927      BINDING AFFINITY PREDICTED BY RF-SCORE:    0.00 PKD
ROOT
HETATM    1  C   UNL     1      -7.175   5.553  65.514  1.00  0.00    -0.068 C  
HETATM    2  C   UNL     1      -8.051   6.056  66.637  1.00  0.00    -0.106 A  
HETATM    3  C   UNL     1      -8.961   5.350  67.462  1.00  0.00    -0.108 A  
HETATM    4  C   UNL     1      -9.709   6.034  68.460  1.00  0.00    -0.142 A  
HETATM    5  C   UNL     1      -7.940   7.447  66.813  1.00  0.00    -0.115 A  
HETATM    6  C   UNL     1      -8.675   8.126  67.776  1.00  0.00    -0.130 A  
HETATM    7  C   UNL     1     -10.631   5.373  69.301  1.00  0.00    -0.271 A  
HETATM    8  C   UNL     1      -9.565   7.439  68.609  1.00  0.00    -0.146 A  
HETATM    9  C   UNL     1     -10.334   8.118  69.576  1.00  0.00    -0.222 A  
HETATM   10  C   UNL     1     -11.237   7.437  70.386  1.00  0.00    -0.284 A  
HETATM   11  C   UNL     1     -11.387   6.064  70.248  1.00  0.00    -0.336 A  
ENDROOT
BRANCH   3  12
HETATM   12  O   UNL     1      -9.238   3.987  67.379  1.00  0.00    -0.139 OA 
HETATM   13  O   UNL     1      -7.698   2.377  66.983  1.00  0.00    -0.068 OA 
HETATM   14  O   UNL     1      -7.415   2.067  69.314  1.00  0.00    -0.043 OA 
HETATM   15  P   UNL     1      -8.275   2.974  68.399  1.00  0.00    -0.068 P  
HETATM   16  O   UNL     1      -9.616   2.028  68.445  1.00  0.00    -0.198 OA 
ENDBRANCH   3  12
BRANCH   6  17
HETATM   17  O   UNL     1      -8.639   9.492  67.831  1.00  0.00    -0.119 OA 
HETATM   18  P   UNL     1      -9.123  10.460  66.649  1.00  0.00    -0.155 P  
HETATM   19  O   UNL     1      -7.750  10.765  65.886  1.00  0.00    -0.154 OA 
HETATM   20  O   UNL     1     -10.270  10.045  65.805  1.00  0.00    -0.265 OA 
HETATM   21  O   UNL     1      -9.347  11.812  67.483  1.00  0.00    -0.169 OA 
ENDBRANCH   6  17
TORSDOF 2
ENDMDL
MODEL      151
REMARK 921   NORMALIZED FREE ENERGY PREDICTED BY IDOCK:   -2.87 KCAL/MOL
REMARK 922        TOTAL FREE ENERGY PREDICTED BY IDOCK:   -3.63 KCAL/MOL
REMARK 923 INTER-LIGAND FREE ENERGY PREDICTED BY IDOCK:   -3.37 KCAL/MOL
REMARK 924 INTRA-LIGAND FREE ENERGY PREDICTED BY IDOCK:   -0.25 KCAL/MOL
REMARK 927      BINDING AFFINITY PREDICTED BY RF-SCORE:    0.00 PKD
ROOT
HETATM    1  C   UNL     1      -6.855   6.562  67.982  1.00  0.00    -0.074 C  
HETATM    2  C   UNL     1      -7.941   6.408  69.020  1.00  0.00    -0.111 A  
HETATM    3  C   UNL     1      -9.302   6.799  68.972  1.00  0.00    -0.134 A  
HETATM    4  C   UNL     1     -10.158   6.573  70.086  1.00  0.00    -0.204 A  
HETATM    5  C   UNL     1      -7.461   5.826  70.207  1.00  0.00    -0.081 A  
HETATM    6  C   UNL     1      -8.285   5.612  71.304  1.00  0.00    -0.125 A  
HETATM    7  C   UNL     1     -11.518   6.950  70.085  1.00  0.00    -0.354 A  
HETATM    8  C   UNL     1      -9.635   5.978  71.265  1.00  0.00    -0.189 A  
HETATM    9  C   UNL     1     -10.477   5.787  72.379  1.00  0.00    -0.252 A  
HETATM   10  C   UNL     1     -11.813   6.175  72.347  1.00  0.00    -0.287 A  
HETATM   11  C   UNL     1     -12.334   6.758  71.200  1.00  0.00    -0.386 A  
ENDROOT
BRANCH   3  12
HETATM   12  O   UNL     1      -9.922   7.442  67.902  1.00  0.00    -0.152 OA 
HETATM   13  O   UNL     1     -10.744   9.550  67.960  1.00  0.00    -0.239 OA 
HETATM   14  O   UNL     1      -8.688  10.380  67.130  1.00  0.00    -0.129 OA 
HETATM   15  P   UNL     1      -9.270   8.993  67.495  1.00  0.00    -0.137 P  
HETATM   16  O   UNL     1      -9.718   8.595  65.967  1.00  0.00    -0.241 OA 
ENDBRANCH   3  12
BRANCH   6  17
HETATM   17  O   UNL     1      -7.756   5.165  72.483  1.00  0.00    -0.094 OA 
HETATM   18  P   UNL     1      -7.315   3.650  72.763  1.00  0.00    -0.061 P  
HETATM   19  O   UNL     1      -8.614   3.053  73.480  1.00  0.00    -0.073 OA 
HETATM   20  O   UNL     1      -6.748   2.849  71.650  1.00  0.00    -0.022 OA 
HETATM   21  O   UNL     1      -6.327   3.881  74.005  1.00  0.00    -0.030 OA 
ENDBRANCH   6  17
TORSDOF 2
ENDMDL
MODEL      152
REMARK 921   NORMALIZED FREE ENERGY PREDICTED BY IDOCK:   -2.71 KCAL/MOL
REMARK 922        TOTAL FREE ENERGY PREDICTED BY IDOCK:   -3.44 KCAL/MOL
REMARK 923 INTER-LIGAND FREE ENERGY PREDICTED BY IDOCK:   -3.05 KCAL/MOL
REMARK 924 INTRA-LIGAND FREE ENERGY PREDICTED BY IDOCK:   -0.39 KCAL/MOL
REMARK 927      BINDING AFFINITY PREDICTED BY RF-SCORE:    0.00 PKD
ROOT
HETATM    1  C   UNL     1      -7.502   9.143  69.595  1.00  0.00    -0.078 C  
HETATM    2  C   UNL     1      -7.887   8.081  68.593  1.00  0.00    -0.118 A  
HETATM    3  C   UNL     1      -8.634   6.891  68.776  1.00  0.00    -0.124 A  
HETATM    4  C   UNL     1      -8.866   6.009  67.684  1.00  0.00    -0.106 A  
HETATM    5  C   UNL     1      -7.358   8.340  67.315  1.00  0.00    -0.089 A  
HETATM    6  C   UNL     1      -7.568   7.480  66.246  1.00  0.00    -0.088 A  
HETATM    7  C   UNL     1      -9.598   4.810  67.821  1.00  0.00    -0.194 A  
HETATM    8  C   UNL     1      -8.318   6.310  66.408  1.00  0.00    -0.118 A  
HETATM    9  C   UNL     1      -8.520   5.416  65.337  1.00  0.00    -0.144 A  
HETATM   10  C   UNL     1      -9.244   4.240  65.507  1.00  0.00    -0.150 A  
HETATM   11  C   UNL     1      -9.783   3.936  66.749  1.00  0.00    -0.189 A  
ENDROOT
BRANCH   3  12
HETATM   12  O   UNL     1      -9.173   6.452  69.984  1.00  0.00    -0.154 OA 
HETATM   13  O   UNL     1      -9.763   7.802  71.702  1.00  0.00    -0.159 OA 
HETATM   14  O   UNL     1     -11.979   7.899  70.871  1.00  0.00    -0.279 OA 
HETATM   15  P   UNL     1     -10.653   7.217  70.452  1.00  0.00    -0.237 P  
HETATM   16  O   UNL     1     -10.987   5.768  71.150  1.00  0.00    -0.265 OA 
ENDBRANCH   3  12
BRANCH   6  17
HETATM   17  O   UNL     1      -6.932   7.697  65.055  1.00  0.00    -0.056 OA 
HETATM   18  P   UNL     1      -7.294   8.880  64.036  1.00  0.00    -0.109 P  
HETATM   19  O   UNL     1      -8.286   8.148  63.016  1.00  0.00    -0.165 OA 
HETATM   20  O   UNL     1      -7.750  10.183  64.580  1.00  0.00    -0.143 OA 
HETATM   21  O   UNL     1      -5.931   8.935  63.192  1.00  0.00    -0.087 OA 
ENDBRANCH   6  17
TORSDOF 2
ENDMDL
MODEL      153
REMARK 921   NORMALIZED FREE ENERGY PREDICTED BY IDOCK:   -2.66 KCAL/MOL
REMARK 922        TOTAL FREE ENERGY PREDICTED BY IDOCK:   -3.39 KCAL/MOL
REMARK 923 INTER-LIGAND FREE ENERGY PREDICTED BY IDOCK:   -3.05 KCAL/MOL
REMARK 924 INTRA-LIGAND FREE ENERGY PREDICTED BY IDOCK:   -0.34 KCAL/MOL
REMARK 927      BINDING AFFINITY PREDICTED BY RF-SCORE:    0.00 PKD
ROOT
HETATM    1  C   UNL     1     -11.105   6.630  66.974  1.00  0.00    -0.395 C  
HETATM    2  C   UNL     1     -10.197   7.181  68.046  1.00  0.00    -0.223 A  
HETATM    3  C   UNL     1      -9.375   8.336  68.032  1.00  0.00    -0.132 A  
HETATM    4  C   UNL     1      -8.573   8.664  69.160  1.00  0.00    -0.129 A  
HETATM    5  C   UNL     1     -10.166   6.361  69.188  1.00  0.00    -0.217 A  
HETATM    6  C   UNL     1      -9.377   6.666  70.289  1.00  0.00    -0.159 A  
HETATM    7  C   UNL     1      -7.736   9.800  69.189  1.00  0.00    -0.092 A  
HETATM    8  C   UNL     1      -8.573   7.812  70.296  1.00  0.00    -0.138 A  
HETATM    9  C   UNL     1      -7.750   8.121  71.398  1.00  0.00    -0.098 A  
HETATM   10  C   UNL     1      -6.933   9.247  71.392  1.00  0.00     0.022 A  
HETATM   11  C   UNL     1      -6.924  10.087  70.287  1.00  0.00    -0.153 A  
ENDROOT
BRANCH   3  12
HETATM   12  O   UNL     1      -9.240   9.219  66.963  1.00  0.00    -0.134 OA 
HETATM   13  O   UNL     1      -7.331   9.551  65.794  1.00  0.00    -0.093 OA 
HETATM   14  O   UNL     1      -8.004   7.916  64.219  1.00  0.00    -0.137 OA 
HETATM   15  P   UNL     1      -8.587   8.531  65.515  1.00  0.00    -0.149 P  
HETATM   16  O   UNL     1      -9.536   9.638  64.760  1.00  0.00    -0.267 OA 
ENDBRANCH   3  12
BRANCH   6  17
HETATM   17  O   UNL     1      -9.273   5.780  71.326  1.00  0.00    -0.145 OA 
HETATM   18  P   UNL     1      -8.535   4.360  71.233  1.00  0.00    -0.101 P  
HETATM   19  O   UNL     1      -9.754   3.372  70.921  1.00  0.00    -0.171 OA 
HETATM   20  O   UNL     1      -7.338   4.227  70.367  1.00  0.00    -0.044 OA 
HETATM   21  O   UNL     1      -8.278   4.087  72.793  1.00  0.00    -0.092 OA 
ENDBRANCH   6  17
TORSDOF 2
ENDMDL
MODEL      154
REMARK 921   NORMALIZED FREE ENERGY PREDICTED BY IDOCK:   -2.62 KCAL/MOL
REMARK 922        TOTAL FREE ENERGY PREDICTED BY IDOCK:   -3.34 KCAL/MOL
REMARK 923 INTER-LIGAND FREE ENERGY PREDICTED BY IDOCK:   -2.95 KCAL/MOL
REMARK 924 INTRA-LIGAND FREE ENERGY PREDICTED BY IDOCK:   -0.39 KCAL/MOL
REMARK 927      BINDING AFFINITY PREDICTED BY RF-SCORE:    0.00 PKD
ROOT
HETATM    1  C   UNL     1     -10.593   8.127  66.790  1.00  0.00    -0.223 C  
HETATM    2  C   UNL     1      -9.359   8.511  67.571  1.00  0.00    -0.169 A  
HETATM    3  C   UNL     1      -8.912   9.790  67.988  1.00  0.00    -0.118 A  
HETATM    4  C   UNL     1      -7.693   9.929  68.706  1.00  0.00    -0.086 A  
HETATM    5  C   UNL     1      -8.546   7.400  67.858  1.00  0.00    -0.125 A  
HETATM    6  C   UNL     1      -7.348   7.527  68.548  1.00  0.00    -0.099 A  
HETATM    7  C   UNL     1      -7.206  11.183  69.136  1.00  0.00    -0.123 A  
HETATM    8  C   UNL     1      -6.903   8.781  68.980  1.00  0.00    -0.059 A  
HETATM    9  C   UNL     1      -5.677   8.927  69.662  1.00  0.00    -0.033 A  
HETATM   10  C   UNL     1      -5.225  10.178  70.069  1.00  0.00    -0.038 A  
HETATM   11  C   UNL     1      -5.988  11.307  69.805  1.00  0.00    -0.103 A  
ENDROOT
BRANCH   3  12
HETATM   12  O   UNL     1      -9.562  10.996  67.732  1.00  0.00    -0.165 OA 
HETATM   13  O   UNL     1     -11.805  11.249  67.577  1.00  0.00    -0.613 OA 
HETATM   14  O   UNL     1     -11.907  11.806  69.877  1.00  0.00    -0.313 OA 
HETATM   15  P   UNL     1     -10.800  11.423  68.864  1.00  0.00    -0.218 P  
HETATM   16  O   UNL     1     -10.352  12.964  68.519  1.00  0.00    -0.243 OA 
ENDBRANCH   3  12
BRANCH   6  17
HETATM   17  O   UNL     1      -6.522   6.446  68.694  1.00  0.00    -0.045 OA 
HETATM   18  P   UNL     1      -6.801   5.222  69.690  1.00  0.00    -0.060 P  
HETATM   19  O   UNL     1      -5.959   5.647  70.983  1.00  0.00    -0.026 OA 
HETATM   20  O   UNL     1      -8.200   4.790  69.924  1.00  0.00    -0.068 OA 
HETATM   21  O   UNL     1      -5.850   4.113  69.025  1.00  0.00    -0.020 OA 
ENDBRANCH   6  17
TORSDOF 2
ENDMDL
MODEL      155
REMARK 921   NORMALIZED FREE ENERGY PREDICTED BY IDOCK:   -2.52 KCAL/MOL
REMARK 922        TOTAL FREE ENERGY PREDICTED BY IDOCK:   -3.23 KCAL/MOL
REMARK 923 INTER-LIGAND FREE ENERGY PREDICTED BY IDOCK:   -3.05 KCAL/MOL
REMARK 924 INTRA-LIGAND FREE ENERGY PREDICTED BY IDOCK:   -0.17 KCAL/MOL
REMARK 927      BINDING AFFINITY PREDICTED BY RF-SCORE:    0.00 PKD
ROOT
HETATM    1  C   UNL     1      -8.495   5.370  69.815  1.00  0.00    -0.100 C  
HETATM    2  C   UNL     1      -8.993   6.791  69.691  1.00  0.00    -0.143 A  
HETATM    3  C   UNL     1     -10.206   7.368  70.141  1.00  0.00    -0.205 A  
HETATM    4  C   UNL     1     -10.485   8.742  69.898  1.00  0.00    -0.227 A  
HETATM    5  C   UNL     1      -8.099   7.605  68.974  1.00  0.00    -0.126 A  
HETATM    6  C   UNL     1      -8.367   8.944  68.720  1.00  0.00    -0.123 A  
HETATM    7  C   UNL     1     -11.683   9.357  70.323  1.00  0.00    -0.127 A  
HETATM    8  C   UNL     1      -9.554   9.531  69.173  1.00  0.00    -0.170 A  
HETATM    9  C   UNL     1      -9.850  10.883  68.904  1.00  0.00    -0.203 A  
HETATM   10  C   UNL     1     -11.042  11.458  69.333  1.00  0.00    -0.301 A  
HETATM   11  C   UNL     1     -11.960  10.695  70.042  1.00  0.00    -0.408 A  
ENDROOT
BRANCH   3  12
HETATM   12  O   UNL     1     -11.225   6.691  70.809  1.00  0.00    -0.274 OA 
HETATM   13  O   UNL     1     -10.991   4.685  71.831  1.00  0.00     0.035 OA 
HETATM   14  O   UNL     1     -10.520   5.777  73.878  1.00  0.00    -0.248 OA 
HETATM   15  P   UNL     1     -10.852   6.208  72.429  1.00  0.00    -0.273 P  
HETATM   16  O   UNL     1     -12.458   6.432  72.688  1.00  0.00     0.082 OA 
ENDBRANCH   3  12
BRANCH   6  17
HETATM   17  O   UNL     1      -7.539   9.669  67.910  1.00  0.00    -0.083 OA 
HETATM   18  P   UNL     1      -5.969   9.870  68.165  1.00  0.00    -0.042 P  
HETATM   19  O   UNL     1      -5.934  11.273  68.932  1.00  0.00    -0.043 OA 
HETATM   20  O   UNL     1      -5.193   8.763  68.776  1.00  0.00    -0.033 OA 
HETATM   21  O   UNL     1      -5.507  10.288  66.687  1.00  0.00    -0.043 OA 
ENDBRANCH   6  17
TORSDOF 2
ENDMDL
MODEL      156
REMARK 921   NORMALIZED FREE ENERGY PREDICTED BY IDOCK:   -2.48 KCAL/MOL
REMARK 922        TOTAL FREE ENERGY PREDICTED BY IDOCK:   -3.18 KCAL/MOL
REMARK 923 INTER-LIGAND FREE ENERGY PREDICTED BY IDOCK:   -3.21 KCAL/MOL
REMARK 924 INTRA-LIGAND FREE ENERGY PREDICTED BY IDOCK:    0.03 KCAL/MOL
REMARK 927      BINDING AFFINITY PREDICTED BY RF-SCORE:    0.00 PKD
ROOT
HETATM    1  C   UNL     1     -10.615   7.142  67.008  1.00  0.00    -0.413 C  
HETATM    2  C   UNL     1      -9.709   7.488  68.166  1.00  0.00    -0.167 A  
HETATM    3  C   UNL     1      -8.301   7.377  68.278  1.00  0.00    -0.125 A  
HETATM    4  C   UNL     1      -7.642   7.746  69.484  1.00  0.00    -0.100 A  
HETATM    5  C   UNL     1     -10.429   7.938  69.287  1.00  0.00    -0.221 A  
HETATM    6  C   UNL     1      -9.797   8.289  70.472  1.00  0.00    -0.183 A  
HETATM    7  C   UNL     1      -6.243   7.648  69.644  1.00  0.00    -0.031 A  
HETATM    8  C   UNL     1      -8.406   8.200  70.592  1.00  0.00    -0.123 A  
HETATM    9  C   UNL     1      -7.753   8.532  71.797  1.00  0.00    -0.154 A  
HETATM   10  C   UNL     1      -6.372   8.419  71.922  1.00  0.00    -0.064 A  
HETATM   11  C   UNL     1      -5.616   7.976  70.846  1.00  0.00    -0.029 A  
ENDROOT
BRANCH   3  12
HETATM   12  O   UNL     1      -7.446   6.893  67.290  1.00  0.00    -0.091 OA 
HETATM   13  O   UNL     1      -6.263   4.969  67.432  1.00  0.00    -0.033 OA 
HETATM   14  O   UNL     1      -8.013   3.807  66.338  1.00  0.00    -0.089 OA 
HETATM   15  P   UNL     1      -7.745   5.264  66.788  1.00  0.00    -0.097 P  
HETATM   16  O   UNL     1      -7.193   5.787  65.333  1.00  0.00    -0.067 OA 
ENDBRANCH   3  12
BRANCH   6  17
HETATM   17  O   UNL     1     -10.538   8.596  71.580  1.00  0.00    -0.252 OA 
HETATM   18  P   UNL     1     -12.114   8.340  71.716  1.00  0.00    -0.363 P  
HETATM   19  O   UNL     1     -12.718   9.762  71.302  1.00  0.00    -0.325 OA 
HETATM   20  O   UNL     1     -12.709   7.152  71.057  1.00  0.00    -0.352 OA 
HETATM   21  O   UNL     1     -12.255   8.373  73.314  1.00  0.00     0.066 OA 
ENDBRANCH   6  17
TORSDOF 2
ENDMDL
MODEL      157
REMARK 921   NORMALIZED FREE ENERGY PREDICTED BY IDOCK:   -2.45 KCAL/MOL
REMARK 922        TOTAL FREE ENERGY PREDICTED BY IDOCK:   -3.15 KCAL/MOL
REMARK 923 INTER-LIGAND FREE ENERGY PREDICTED BY IDOCK:   -3.90 KCAL/MOL
REMARK 924 INTRA-LIGAND FREE ENERGY PREDICTED BY IDOCK:    0.75 KCAL/MOL
REMARK 927      BINDING AFFINITY PREDICTED BY RF-SCORE:    0.00 PKD
ROOT
HETATM    1  C   UNL     1      -8.559   8.378  72.212  1.00  0.00    -0.263 C  
HETATM    2  C   UNL     1      -8.692   8.395  70.708  1.00  0.00    -0.167 A  
HETATM    3  C   UNL     1      -8.324   7.413  69.755  1.00  0.00    -0.134 A  
HETATM    4  C   UNL     1      -8.523   7.646  68.366  1.00  0.00    -0.125 A  
HETATM    5  C   UNL     1      -9.223   9.609  70.236  1.00  0.00    -0.285 A  
HETATM    6  C   UNL     1      -9.410   9.851  68.882  1.00  0.00    -0.170 A  
HETATM    7  C   UNL     1      -8.166   6.699  67.381  1.00  0.00    -0.121 A  
HETATM    8  C   UNL     1      -9.066   8.883  67.931  1.00  0.00    -0.145 A  
HETATM    9  C   UNL     1      -9.229   9.124  66.551  1.00  0.00    -0.221 A  
HETATM   10  C   UNL     1      -8.864   8.171  65.606  1.00  0.00    -0.160 A  
HETATM   11  C   UNL     1      -8.331   6.958  66.020  1.00  0.00    -0.134 A  
ENDROOT
BRANCH   3  12
HETATM   12  O   UNL     1      -7.730   6.186  70.046  1.00  0.00    -0.092 OA 
HETATM   13  O   UNL     1      -6.120   5.867  71.604  1.00  0.00    -0.036 OA 
HETATM   14  O   UNL     1      -7.774   5.325  73.210  1.00  0.00    -0.098 OA 
HETATM   15  P   UNL     1      -7.753   5.733  71.716  1.00  0.00    -0.103 P  
HETATM   16  O   UNL     1      -7.834   4.202  71.127  1.00  0.00    -0.067 OA 
ENDBRANCH   3  12
BRANCH   6  17
HETATM   17  O   UNL     1      -9.805  11.088  68.453  1.00  0.00    -0.168 OA 
HETATM   18  P   UNL     1     -11.299  11.654  68.573  1.00  0.00    -0.336 P  
HETATM   19  O   UNL     1     -11.903  11.306  67.134  1.00  0.00    -0.524 OA 
HETATM   20  O   UNL     1     -12.122  11.268  69.746  1.00  0.00    -0.306 OA 
HETATM   21  O   UNL     1     -11.004  13.225  68.438  1.00  0.00    -0.244 OA 
ENDBRANCH   6  17
TORSDOF 2
ENDMDL
MODEL      158
REMARK 921   NORMALIZED FREE ENERGY PREDICTED BY IDOCK:   -2.43 KCAL/MOL
REMARK 922        TOTAL FREE ENERGY PREDICTED BY IDOCK:   -3.13 KCAL/MOL
REMARK 923 INTER-LIGAND FREE ENERGY PREDICTED BY IDOCK:   -3.31 KCAL/MOL
REMARK 924 INTRA-LIGAND FREE ENERGY PREDICTED BY IDOCK:    0.18 KCAL/MOL
REMARK 927      BINDING AFFINITY PREDICTED BY RF-SCORE:    0.00 PKD
ROOT
HETATM    1  C   UNL     1      -6.995  12.878  66.849  1.00  0.00     0.454 C  
HETATM    2  C   UNL     1      -8.268  13.305  67.541  1.00  0.00    -0.184 A  
HETATM    3  C   UNL     1      -9.187  12.538  68.301  1.00  0.00    -0.186 A  
HETATM    4  C   UNL     1     -10.348  13.145  68.854  1.00  0.00    -0.068 A  
HETATM    5  C   UNL     1      -8.560  14.663  67.325  1.00  0.00    -0.231 A  
HETATM    6  C   UNL     1      -9.697  15.262  67.850  1.00  0.00    -0.211 A  
HETATM    7  C   UNL     1     -11.293  12.420  69.612  1.00  0.00    -0.193 A  
HETATM    8  C   UNL     1     -10.604  14.522  68.617  1.00  0.00    -0.255 A  
HETATM    9  C   UNL     1     -11.774  15.111  69.137  1.00  0.00    -0.349 A  
HETATM   10  C   UNL     1     -12.687  14.367  69.877  1.00  0.00    -0.107 A  
HETATM   11  C   UNL     1     -12.448  13.021  70.114  1.00  0.00    -0.166 A  
ENDROOT
BRANCH   3  12
HETATM   12  O   UNL     1      -9.083  11.172  68.556  1.00  0.00    -0.165 OA 
HETATM   13  O   UNL     1      -7.367   9.858  67.886  1.00  0.00    -0.087 OA 
HETATM   14  O   UNL     1      -6.275  10.219  69.957  1.00  0.00    -0.062 OA 
HETATM   15  P   UNL     1      -7.601  10.669  69.295  1.00  0.00    -0.101 P  
HETATM   16  O   UNL     1      -8.535   9.517  69.997  1.00  0.00    -0.157 OA 
ENDBRANCH   3  12
BRANCH   6  17
HETATM   17  O   UNL     1     -10.014  16.549  67.512  1.00  0.00    -0.246 OA 
HETATM   18  P   UNL     1      -8.999  17.785  67.600  1.00  0.00    -0.255 P  
HETATM   19  O   UNL     1      -9.354  18.405  69.032  1.00  0.00    -0.232 OA 
HETATM   20  O   UNL     1      -7.560  17.557  67.317  1.00  0.00    -0.189 OA 
HETATM   21  O   UNL     1      -9.732  18.808  66.606  1.00  0.00    -0.313 OA 
ENDBRANCH   6  17
TORSDOF 2
ENDMDL
MODEL      159
REMARK 921   NORMALIZED FREE ENERGY PREDICTED BY IDOCK:   -2.38 KCAL/MOL
REMARK 922        TOTAL FREE ENERGY PREDICTED BY IDOCK:   -3.08 KCAL/MOL
REMARK 923 INTER-LIGAND FREE ENERGY PREDICTED BY IDOCK:   -2.82 KCAL/MOL
REMARK 924 INTRA-LIGAND FREE ENERGY PREDICTED BY IDOCK:   -0.26 KCAL/MOL
REMARK 927      BINDING AFFINITY PREDICTED BY RF-SCORE:    0.00 PKD
ROOT
HETATM    1  C   UNL     1      -8.060   4.010  70.324  1.00  0.00    -0.058 C  
HETATM    2  C   UNL     1      -8.323   5.122  69.336  1.00  0.00    -0.090 A  
HETATM    3  C   UNL     1      -8.685   6.473  69.568  1.00  0.00    -0.134 A  
HETATM    4  C   UNL     1      -8.906   7.358  68.476  1.00  0.00    -0.126 A  
HETATM    5  C   UNL     1      -8.226   4.682  68.004  1.00  0.00    -0.091 A  
HETATM    6  C   UNL     1      -8.452   5.535  66.932  1.00  0.00    -0.110 A  
HETATM    7  C   UNL     1      -9.273   8.708  68.659  1.00  0.00    -0.138 A  
HETATM    8  C   UNL     1      -8.794   6.875  67.145  1.00  0.00    -0.120 A  
HETATM    9  C   UNL     1      -9.048   7.746  66.066  1.00  0.00    -0.169 A  
HETATM   10  C   UNL     1      -9.412   9.071  66.281  1.00  0.00    -0.306 A  
HETATM   11  C   UNL     1      -9.526   9.553  67.578  1.00  0.00    -0.155 A  
ENDROOT
BRANCH   3  12
HETATM   12  O   UNL     1      -8.884   7.053  70.819  1.00  0.00    -0.147 OA 
HETATM   13  O   UNL     1     -10.843   7.924  71.543  1.00  0.00    -0.225 OA 
HETATM   14  O   UNL     1     -11.405   5.849  72.535  1.00  0.00    -0.279 OA 
HETATM   15  P   UNL     1     -10.215   6.418  71.724  1.00  0.00    -0.201 P  
HETATM   16  O   UNL     1      -9.286   6.781  73.028  1.00  0.00    -0.134 OA 
ENDBRANCH   3  12
BRANCH   6  17
HETATM   17  O   UNL     1      -8.477   5.042  65.656  1.00  0.00    -0.119 OA 
HETATM   18  P   UNL     1      -7.188   4.515  64.863  1.00  0.00    -0.068 P  
HETATM   19  O   UNL     1      -6.764   5.808  64.022  1.00  0.00    -0.036 OA 
HETATM   20  O   UNL     1      -6.107   3.834  65.618  1.00  0.00    -0.026 OA 
HETATM   21  O   UNL     1      -7.907   3.615  63.747  1.00  0.00    -0.081 OA 
ENDBRANCH   6  17
TORSDOF 2
ENDMDL
MODEL      160
REMARK 921   NORMALIZED FREE ENERGY PREDICTED BY IDOCK:   -2.25 KCAL/MOL
REMARK 922        TOTAL FREE ENERGY PREDICTED BY IDOCK:   -2.92 KCAL/MOL
REMARK 923 INTER-LIGAND FREE ENERGY PREDICTED BY IDOCK:   -2.61 KCAL/MOL
REMARK 924 INTRA-LIGAND FREE ENERGY PREDICTED BY IDOCK:   -0.31 KCAL/MOL
REMARK 927      BINDING AFFINITY PREDICTED BY RF-SCORE:    0.00 PKD
ROOT
HETATM    1  C   UNL     1      -5.397   6.770  67.540  1.00  0.00    -0.008 C  
HETATM    2  C   UNL     1      -6.630   6.527  68.378  1.00  0.00    -0.059 A  
HETATM    3  C   UNL     1      -7.983   6.387  67.980  1.00  0.00    -0.109 A  
HETATM    4  C   UNL     1      -9.003   6.180  68.950  1.00  0.00    -0.124 A  
HETATM    5  C   UNL     1      -6.337   6.489  69.753  1.00  0.00    -0.042 A  
HETATM    6  C   UNL     1      -7.327   6.300  70.709  1.00  0.00    -0.076 A  
HETATM    7  C   UNL     1     -10.363   6.041  68.601  1.00  0.00    -0.264 A  
HETATM    8  C   UNL     1      -8.665   6.143  70.329  1.00  0.00    -0.145 A  
HETATM    9  C   UNL     1      -9.682   5.973  71.290  1.00  0.00    -0.200 A  
HETATM   10  C   UNL     1     -11.015   5.843  70.912  1.00  0.00    -0.335 A  
HETATM   11  C   UNL     1     -11.356   5.878  69.567  1.00  0.00    -0.138 A  
ENDROOT
BRANCH   3  12
HETATM   12  O   UNL     1      -8.452   6.462  66.670  1.00  0.00    -0.110 OA 
HETATM   13  O   UNL     1      -9.801   8.093  65.871  1.00  0.00    -0.015 OA 
HETATM   14  O   UNL     1      -7.906   9.313  65.147  1.00  0.00    -0.104 OA 
HETATM   15  P   UNL     1      -8.164   7.967  65.867  1.00  0.00    -0.139 P  
HETATM   16  O   UNL     1      -8.072   7.038  64.516  1.00  0.00    -0.128 OA 
ENDBRANCH   3  12
BRANCH   6  17
HETATM   17  O   UNL     1      -7.025   6.399  72.039  1.00  0.00    -0.071 OA 
HETATM   18  P   UNL     1      -6.740   7.779  72.802  1.00  0.00    -0.080 P  
HETATM   19  O   UNL     1      -5.143   7.862  72.753  1.00  0.00    -0.036 OA 
HETATM   20  O   UNL     1      -7.478   8.996  72.387  1.00  0.00    -0.340 OA 
HETATM   21  O   UNL     1      -7.001   7.309  74.314  1.00  0.00    -0.090 OA 
ENDBRANCH   6  17
TORSDOF 2
ENDMDL
MODEL      161
REMARK 921   NORMALIZED FREE ENERGY PREDICTED BY IDOCK:   -2.21 KCAL/MOL
REMARK 922        TOTAL FREE ENERGY PREDICTED BY IDOCK:   -2.88 KCAL/MOL
REMARK 923 INTER-LIGAND FREE ENERGY PREDICTED BY IDOCK:   -2.53 KCAL/MOL
REMARK 924 INTRA-LIGAND FREE ENERGY PREDICTED BY IDOCK:   -0.35 KCAL/MOL
REMARK 927      BINDING AFFINITY PREDICTED BY RF-SCORE:    0.00 PKD
ROOT
HETATM    1  C   UNL     1      -9.523   7.643  71.127  1.00  0.00    -0.163 C  
HETATM    2  C   UNL     1      -9.439   7.021  69.753  1.00  0.00    -0.145 A  
HETATM    3  C   UNL     1      -9.079   5.703  69.376  1.00  0.00    -0.117 A  
HETATM    4  C   UNL     1      -9.047   5.329  68.003  1.00  0.00    -0.118 A  
HETATM    5  C   UNL     1      -9.726   7.946  68.734  1.00  0.00    -0.159 A  
HETATM    6  C   UNL     1      -9.685   7.595  67.391  1.00  0.00    -0.161 A  
HETATM    7  C   UNL     1      -8.689   4.031  67.581  1.00  0.00    -0.118 A  
HETATM    8  C   UNL     1      -9.348   6.293  67.005  1.00  0.00    -0.135 A  
HETATM    9  C   UNL     1      -9.280   5.928  65.644  1.00  0.00    -0.004 A  
HETATM   10  C   UNL     1      -8.920   4.640  65.261  1.00  0.00    -0.148 A  
HETATM   11  C   UNL     1      -8.623   3.691  66.229  1.00  0.00    -0.115 A  
ENDROOT
BRANCH   3  12
HETATM   12  O   UNL     1      -8.707   4.684  70.251  1.00  0.00    -0.080 OA 
HETATM   13  O   UNL     1      -6.731   3.583  70.187  1.00  0.00    -0.032 OA 
HETATM   14  O   UNL     1      -5.823   5.112  71.751  1.00  0.00    -0.021 OA 
HETATM   15  P   UNL     1      -7.184   4.910  71.042  1.00  0.00    -0.063 P  
HETATM   16  O   UNL     1      -7.889   4.083  72.272  1.00  0.00    -0.076 OA 
ENDBRANCH   3  12
BRANCH   6  17
HETATM   17  O   UNL     1      -9.842   8.551  66.426  1.00  0.00    -0.253 OA 
HETATM   18  P   UNL     1      -8.746   9.664  66.067  1.00  0.00    -0.151 P  
HETATM   19  O   UNL     1      -9.239  10.910  66.941  1.00  0.00    -0.158 OA 
HETATM   20  O   UNL     1      -7.307   9.315  66.166  1.00  0.00    -0.093 OA 
HETATM   21  O   UNL     1      -9.246  10.071  64.598  1.00  0.00    -0.218 OA 
ENDBRANCH   6  17
TORSDOF 2
ENDMDL
MODEL      162
REMARK 921   NORMALIZED FREE ENERGY PREDICTED BY IDOCK:   -2.19 KCAL/MOL
REMARK 922        TOTAL FREE ENERGY PREDICTED BY IDOCK:   -2.86 KCAL/MOL
REMARK 923 INTER-LIGAND FREE ENERGY PREDICTED BY IDOCK:   -3.59 KCAL/MOL
REMARK 924 INTRA-LIGAND FREE ENERGY PREDICTED BY IDOCK:    0.72 KCAL/MOL
REMARK 927      BINDING AFFINITY PREDICTED BY RF-SCORE:    0.00 PKD
ROOT
HETATM    1  C   UNL     1      -8.404   8.180  66.324  1.00  0.00    -0.119 C  
HETATM    2  C   UNL     1      -8.655   8.256  67.811  1.00  0.00    -0.131 A  
HETATM    3  C   UNL     1      -8.457   7.275  68.815  1.00  0.00    -0.129 A  
HETATM    4  C   UNL     1      -8.784   7.554  70.171  1.00  0.00    -0.142 A  
HETATM    5  C   UNL     1      -9.213   9.489  68.193  1.00  0.00    -0.134 A  
HETATM    6  C   UNL     1      -9.547   9.767  69.511  1.00  0.00    -0.210 A  
HETATM    7  C   UNL     1      -8.609   6.606  71.202  1.00  0.00    -0.130 A  
HETATM    8  C   UNL     1      -9.341   8.814  70.515  1.00  0.00    -0.219 A  
HETATM    9  C   UNL     1      -9.696   9.074  71.855  1.00  0.00    -0.242 A  
HETATM   10  C   UNL     1      -9.514   8.116  72.847  1.00  0.00    -0.345 A  
HETATM   11  C   UNL     1      -8.971   6.881  72.521  1.00  0.00    -0.141 A  
ENDROOT
BRANCH   3  12
HETATM   12  O   UNL     1      -7.975   5.985  68.600  1.00  0.00    -0.101 OA 
HETATM   13  O   UNL     1      -5.852   5.481  68.002  1.00  0.00    -0.015 OA 
HETATM   14  O   UNL     1      -5.270   5.204  70.280  1.00  0.00    -0.003 OA 
HETATM   15  P   UNL     1      -6.547   5.574  69.487  1.00  0.00    -0.054 P  
HETATM   16  O   UNL     1      -7.175   4.057  69.471  1.00  0.00    -0.048 OA 
ENDBRANCH   3  12
BRANCH   6  17
HETATM   17  O   UNL     1     -10.206  10.924  69.824  1.00  0.00    -0.088 OA 
HETATM   18  P   UNL     1     -11.801  11.070  69.886  1.00  0.00    -0.407 P  
HETATM   19  O   UNL     1     -12.140  11.637  68.429  1.00  0.00    -0.522 OA 
HETATM   20  O   UNL     1     -12.610   9.917  70.352  1.00  0.00    -0.145 OA 
HETATM   21  O   UNL     1     -11.915  12.389  70.791  1.00  0.00    -0.260 OA 
ENDBRANCH   6  17
TORSDOF 2
ENDMDL
MODEL      163
REMARK 921   NORMALIZED FREE ENERGY PREDICTED BY IDOCK:   -2.04 KCAL/MOL
REMARK 922        TOTAL FREE ENERGY PREDICTED BY IDOCK:   -2.69 KCAL/MOL
REMARK 923 INTER-LIGAND FREE ENERGY PREDICTED BY IDOCK:   -2.34 KCAL/MOL
REMARK 924 INTRA-LIGAND FREE ENERGY PREDICTED BY IDOCK:   -0.35 KCAL/MOL
REMARK 927      BINDING AFFINITY PREDICTED BY RF-SCORE:    0.00 PKD
ROOT
HETATM    1  C   UNL     1      -5.125   5.993  69.015  1.00  0.00    -0.004 C  
HETATM    2  C   UNL     1      -6.630   6.109  69.078  1.00  0.00    -0.051 A  
HETATM    3  C   UNL     1      -7.570   6.283  68.031  1.00  0.00    -0.102 A  
HETATM    4  C   UNL     1      -8.959   6.389  68.320  1.00  0.00    -0.116 A  
HETATM    5  C   UNL     1      -7.109   6.081  70.400  1.00  0.00    -0.070 A  
HETATM    6  C   UNL     1      -8.461   6.196  70.693  1.00  0.00    -0.134 A  
HETATM    7  C   UNL     1      -9.930   6.568  67.311  1.00  0.00    -0.189 A  
HETATM    8  C   UNL     1      -9.402   6.351  69.668  1.00  0.00    -0.148 A  
HETATM    9  C   UNL     1     -10.776   6.493  69.952  1.00  0.00    -0.310 A  
HETATM   10  C   UNL     1     -11.707   6.672  68.934  1.00  0.00     0.287 A  
HETATM   11  C   UNL     1     -11.284   6.711  67.613  1.00  0.00    -0.260 A  
ENDROOT
BRANCH   3  12
HETATM   12  O   UNL     1      -7.260   6.394  66.677  1.00  0.00    -0.074 OA 
HETATM   13  O   UNL     1      -5.618   5.244  65.627  1.00  0.00    -0.013 OA 
HETATM   14  O   UNL     1      -7.174   3.563  65.024  1.00  0.00    -0.064 OA 
HETATM   15  P   UNL     1      -7.214   4.900  65.805  1.00  0.00    -0.078 P  
HETATM   16  O   UNL     1      -7.724   5.814  64.540  1.00  0.00    -0.082 OA 
ENDBRANCH   3  12
BRANCH   6  17
HETATM   17  O   UNL     1      -8.876   6.296  71.992  1.00  0.00    -0.138 OA 
HETATM   18  P   UNL     1      -8.234   7.287  73.075  1.00  0.00    -0.120 P  
HETATM   19  O   UNL     1      -7.180   6.337  73.812  1.00  0.00    -0.083 OA 
HETATM   20  O   UNL     1      -7.733   8.611  72.630  1.00  0.00    -0.335 OA 
HETATM   21  O   UNL     1      -9.435   7.338  74.138  1.00  0.00    -0.253 OA 
ENDBRANCH   6  17
TORSDOF 2
ENDMDL
MODEL      164
REMARK 921   NORMALIZED FREE ENERGY PREDICTED BY IDOCK:   -1.99 KCAL/MOL
REMARK 922        TOTAL FREE ENERGY PREDICTED BY IDOCK:   -2.64 KCAL/MOL
REMARK 923 INTER-LIGAND FREE ENERGY PREDICTED BY IDOCK:   -2.93 KCAL/MOL
REMARK 924 INTRA-LIGAND FREE ENERGY PREDICTED BY IDOCK:    0.29 KCAL/MOL
REMARK 927      BINDING AFFINITY PREDICTED BY RF-SCORE:    0.00 PKD
ROOT
HETATM    1  C   UNL     1     -11.496   7.790  70.512  1.00  0.00    -0.219 C  
HETATM    2  C   UNL     1     -10.071   8.263  70.351  1.00  0.00    -0.199 A  
HETATM    3  C   UNL     1      -9.576   9.526  69.937  1.00  0.00    -0.223 A  
HETATM    4  C   UNL     1      -8.176   9.754  69.835  1.00  0.00    -0.196 A  
HETATM    5  C   UNL     1      -9.140   7.244  70.621  1.00  0.00    -0.157 A  
HETATM    6  C   UNL     1      -7.771   7.453  70.512  1.00  0.00    -0.096 A  
HETATM    7  C   UNL     1      -7.639  10.992  69.422  1.00  0.00    -0.058 A  
HETATM    8  C   UNL     1      -7.269   8.699  70.121  1.00  0.00    -0.052 A  
HETATM    9  C   UNL     1      -5.883   8.919  69.984  1.00  0.00    -0.031 A  
HETATM   10  C   UNL     1      -5.386  10.151  69.571  1.00  0.00    -0.038 A  
HETATM   11  C   UNL     1      -6.264  11.188  69.288  1.00  0.00    -0.066 A  
ENDROOT
BRANCH   3  12
HETATM   12  O   UNL     1     -10.358  10.620  69.573  1.00  0.00    -0.223 OA 
HETATM   13  O   UNL     1      -9.919  12.002  67.836  1.00  0.00    -0.187 OA 
HETATM   14  O   UNL     1     -11.300  10.686  66.433  1.00  0.00    -0.014 OA 
HETATM   15  P   UNL     1     -10.854  10.655  67.916  1.00  0.00    -0.316 P  
HETATM   16  O   UNL     1     -12.187  11.412  68.504  1.00  0.00    -0.557 OA 
ENDBRANCH   3  12
BRANCH   6  17
HETATM   17  O   UNL     1      -6.904   6.406  70.655  1.00  0.00    -0.059 OA 
HETATM   18  P   UNL     1      -6.974   5.325  71.836  1.00  0.00    -0.074 P  
HETATM   19  O   UNL     1      -5.936   5.924  72.896  1.00  0.00    -0.036 OA 
HETATM   20  O   UNL     1      -8.301   4.923  72.364  1.00  0.00    -0.116 OA 
HETATM   21  O   UNL     1      -6.121   4.141  71.169  1.00  0.00    -0.013 OA 
ENDBRANCH   6  17
TORSDOF 2
ENDMDL
MODEL      165
REMARK 921   NORMALIZED FREE ENERGY PREDICTED BY IDOCK:   -1.94 KCAL/MOL
REMARK 922        TOTAL FREE ENERGY PREDICTED BY IDOCK:   -2.58 KCAL/MOL
REMARK 923 INTER-LIGAND FREE ENERGY PREDICTED BY IDOCK:   -2.32 KCAL/MOL
REMARK 924 INTRA-LIGAND FREE ENERGY PREDICTED BY IDOCK:   -0.26 KCAL/MOL
REMARK 927      BINDING AFFINITY PREDICTED BY RF-SCORE:    0.00 PKD
ROOT
HETATM    1  C   UNL     1      -7.897   3.770  70.373  1.00  0.00    -0.047 C  
HETATM    2  C   UNL     1      -8.167   5.153  69.831  1.00  0.00    -0.086 A  
HETATM    3  C   UNL     1      -8.515   6.343  70.518  1.00  0.00    -0.138 A  
HETATM    4  C   UNL     1      -8.747   7.549  69.799  1.00  0.00    -0.140 A  
HETATM    5  C   UNL     1      -8.094   5.197  68.427  1.00  0.00    -0.086 A  
HETATM    6  C   UNL     1      -8.330   6.366  67.716  1.00  0.00    -0.118 A  
HETATM    7  C   UNL     1      -9.101   8.756  70.441  1.00  0.00    -0.198 A  
HETATM    8  C   UNL     1      -8.658   7.552  68.382  1.00  0.00    -0.124 A  
HETATM    9  C   UNL     1      -8.924   8.741  67.672  1.00  0.00    -0.141 A  
HETATM   10  C   UNL     1      -9.274   9.912  68.334  1.00  0.00    -0.130 A  
HETATM   11  C   UNL     1      -9.365   9.921  69.719  1.00  0.00    -0.248 A  
ENDROOT
BRANCH   3  12
HETATM   12  O   UNL     1      -8.691   6.460  71.895  1.00  0.00    -0.134 OA 
HETATM   13  O   UNL     1      -7.577   5.248  73.448  1.00  0.00    -0.094 OA 
HETATM   14  O   UNL     1      -5.947   6.958  73.620  1.00  0.00    -0.057 OA 
HETATM   15  P   UNL     1      -7.243   6.722  72.805  1.00  0.00    -0.079 P  
HETATM   16  O   UNL     1      -8.226   7.569  73.811  1.00  0.00    -0.132 OA 
ENDBRANCH   3  12
BRANCH   6  17
HETATM   17  O   UNL     1      -8.378   6.340  66.350  1.00  0.00    -0.111 OA 
HETATM   18  P   UNL     1      -7.183   5.834  65.410  1.00  0.00    -0.074 P  
HETATM   19  O   UNL     1      -6.441   7.204  65.047  1.00  0.00    -0.039 OA 
HETATM   20  O   UNL     1      -6.322   4.720  65.879  1.00  0.00    -0.037 OA 
HETATM   21  O   UNL     1      -8.005   5.536  64.065  1.00  0.00    -0.104 OA 
ENDBRANCH   6  17
TORSDOF 2
ENDMDL
MODEL      166
REMARK 921   NORMALIZED FREE ENERGY PREDICTED BY IDOCK:   -1.76 KCAL/MOL
REMARK 922        TOTAL FREE ENERGY PREDICTED BY IDOCK:   -2.38 KCAL/MOL
REMARK 923 INTER-LIGAND FREE ENERGY PREDICTED BY IDOCK:   -1.99 KCAL/MOL
REMARK 924 INTRA-LIGAND FREE ENERGY PREDICTED BY IDOCK:   -0.39 KCAL/MOL
REMARK 927      BINDING AFFINITY PREDICTED BY RF-SCORE:    0.00 PKD
ROOT
HETATM    1  C   UNL     1      -6.531   7.988  65.323  1.00  0.00    -0.048 C  
HETATM    2  C   UNL     1      -6.821   7.647  66.765  1.00  0.00    -0.067 A  
HETATM    3  C   UNL     1      -6.746   8.462  67.922  1.00  0.00    -0.066 A  
HETATM    4  C   UNL     1      -7.048   7.924  69.204  1.00  0.00    -0.069 A  
HETATM    5  C   UNL     1      -7.167   6.293  66.930  1.00  0.00    -0.074 A  
HETATM    6  C   UNL     1      -7.452   5.756  68.178  1.00  0.00    -0.078 A  
HETATM    7  C   UNL     1      -6.980   8.696  70.384  1.00  0.00    -0.043 A  
HETATM    8  C   UNL     1      -7.397   6.553  69.327  1.00  0.00    -0.093 A  
HETATM    9  C   UNL     1      -7.662   6.016  70.604  1.00  0.00    -0.101 A  
HETATM   10  C   UNL     1      -7.582   6.804  71.747  1.00  0.00    -0.095 A  
HETATM   11  C   UNL     1      -7.240   8.144  71.638  1.00  0.00    -0.083 A  
ENDROOT
BRANCH   3  12
HETATM   12  O   UNL     1      -6.360   9.801  67.944  1.00  0.00    -0.055 OA 
HETATM   13  O   UNL     1      -6.626  11.251  66.228  1.00  0.00    -0.109 OA 
HETATM   14  O   UNL     1      -8.702  11.946  67.131  1.00  0.00    -0.163 OA 
HETATM   15  P   UNL     1      -7.596  10.933  67.514  1.00  0.00    -0.108 P  
HETATM   16  O   UNL     1      -6.816  11.928  68.561  1.00  0.00    -0.065 OA 
ENDBRANCH   3  12
BRANCH   6  17
HETATM   17  O   UNL     1      -7.656   4.411  68.316  1.00  0.00    -0.067 OA 
HETATM   18  P   UNL     1      -9.015   3.656  67.926  1.00  0.00    -0.162 P  
HETATM   19  O   UNL     1      -9.780   3.601  69.330  1.00  0.00    -0.160 OA 
HETATM   20  O   UNL     1      -9.799   4.143  66.764  1.00  0.00    -0.216 OA 
HETATM   21  O   UNL     1      -8.461   2.157  67.791  1.00  0.00    -0.065 OA 
ENDBRANCH   6  17
TORSDOF 2
ENDMDL
MODEL      167
REMARK 921   NORMALIZED FREE ENERGY PREDICTED BY IDOCK:   -1.65 KCAL/MOL
REMARK 922        TOTAL FREE ENERGY PREDICTED BY IDOCK:   -2.25 KCAL/MOL
REMARK 923 INTER-LIGAND FREE ENERGY PREDICTED BY IDOCK:   -1.94 KCAL/MOL
REMARK 924 INTRA-LIGAND FREE ENERGY PREDICTED BY IDOCK:   -0.31 KCAL/MOL
REMARK 927      BINDING AFFINITY PREDICTED BY RF-SCORE:    0.00 PKD
ROOT
HETATM    1  C   UNL     1      -8.204   7.112  66.662  1.00  0.00    -0.112 C  
HETATM    2  C   UNL     1      -7.805   7.150  68.117  1.00  0.00    -0.118 A  
HETATM    3  C   UNL     1      -7.422   8.251  68.924  1.00  0.00    -0.092 A  
HETATM    4  C   UNL     1      -7.061   8.056  70.286  1.00  0.00    -0.048 A  
HETATM    5  C   UNL     1      -7.781   5.867  68.695  1.00  0.00    -0.094 A  
HETATM    6  C   UNL     1      -7.419   5.665  70.019  1.00  0.00    -0.070 A  
HETATM    7  C   UNL     1      -6.669   9.122  71.125  1.00  0.00    -0.090 A  
HETATM    8  C   UNL     1      -7.055   6.745  70.832  1.00  0.00    -0.068 A  
HETATM    9  C   UNL     1      -6.662   6.552  72.172  1.00  0.00    -0.063 A  
HETATM   10  C   UNL     1      -6.277   7.624  72.971  1.00  0.00    -0.061 A  
HETATM   11  C   UNL     1      -6.279   8.910  72.447  1.00  0.00    -0.024 A  
ENDROOT
BRANCH   3  12
HETATM   12  O   UNL     1      -7.331   9.574  68.495  1.00  0.00    -0.077 OA 
HETATM   13  O   UNL     1      -8.607  10.498  66.871  1.00  0.00    -0.124 OA 
HETATM   14  O   UNL     1     -10.151  11.246  68.502  1.00  0.00    -0.190 OA 
HETATM   15  P   UNL     1      -8.819  10.456  68.499  1.00  0.00    -0.157 P  
HETATM   16  O   UNL     1      -7.861  11.748  68.825  1.00  0.00    -0.131 OA 
ENDBRANCH   3  12
BRANCH   6  17
HETATM   17  O   UNL     1      -7.281   4.395  70.508  1.00  0.00    -0.046 OA 
HETATM   18  P   UNL     1      -8.489   3.508  71.077  1.00  0.00    -0.070 P  
HETATM   19  O   UNL     1      -8.394   3.789  72.649  1.00  0.00    -0.087 OA 
HETATM   20  O   UNL     1      -9.832   3.642  70.461  1.00  0.00    -0.176 OA 
HETATM   21  O   UNL     1      -7.830   2.050  70.960  1.00  0.00    -0.042 OA 
ENDBRANCH   6  17
TORSDOF 2
ENDMDL
MODEL      168
REMARK 921   NORMALIZED FREE ENERGY PREDICTED BY IDOCK:   -1.36 KCAL/MOL
REMARK 922        TOTAL FREE ENERGY PREDICTED BY IDOCK:   -1.94 KCAL/MOL
REMARK 923 INTER-LIGAND FREE ENERGY PREDICTED BY IDOCK:   -1.65 KCAL/MOL
REMARK 924 INTRA-LIGAND FREE ENERGY PREDICTED BY IDOCK:   -0.29 KCAL/MOL
REMARK 927      BINDING AFFINITY PREDICTED BY RF-SCORE:    0.00 PKD
ROOT
HETATM    1  C   UNL     1     -11.620   6.353  67.314  1.00  0.00     0.539 C  
HETATM    2  C   UNL     1     -10.154   6.101  67.575  1.00  0.00    -0.189 A  
HETATM    3  C   UNL     1      -9.202   6.907  68.248  1.00  0.00    -0.123 A  
HETATM    4  C   UNL     1      -7.850   6.481  68.365  1.00  0.00    -0.106 A  
HETATM    5  C   UNL     1      -9.712   4.895  67.002  1.00  0.00    -0.193 A  
HETATM    6  C   UNL     1      -8.392   4.476  67.100  1.00  0.00    -0.105 A  
HETATM    7  C   UNL     1      -6.867   7.253  69.022  1.00  0.00    -0.064 A  
HETATM    8  C   UNL     1      -7.445   5.253  67.776  1.00  0.00    -0.076 A  
HETATM    9  C   UNL     1      -6.097   4.852  67.863  1.00  0.00    -0.027 A  
HETATM   10  C   UNL     1      -5.152   5.638  68.514  1.00  0.00     0.000 A  
HETATM   11  C   UNL     1      -5.536   6.840  69.093  1.00  0.00    -0.017 A  
ENDROOT
BRANCH   3  12
HETATM   12  O   UNL     1      -9.456   8.154  68.817  1.00  0.00    -0.147 OA 
HETATM   13  O   UNL     1     -11.328   8.693  69.969  1.00  0.00    -0.164 OA 
HETATM   14  O   UNL     1     -10.255   8.106  71.996  1.00  0.00    -0.210 OA 
HETATM   15  P   UNL     1      -9.878   8.128  70.495  1.00  0.00    -0.189 P  
HETATM   16  O   UNL     1      -9.134   9.591  70.533  1.00  0.00    -0.247 OA 
ENDBRANCH   3  12
BRANCH   6  17
HETATM   17  O   UNL     1      -7.972   3.366  66.420  1.00  0.00    -0.084 OA 
HETATM   18  P   UNL     1      -7.551   3.355  64.874  1.00  0.00    -0.078 P  
HETATM   19  O   UNL     1      -8.908   2.893  64.164  1.00  0.00    -0.099 OA 
HETATM   20  O   UNL     1      -6.879   4.548  64.304  1.00  0.00    -0.043 OA 
HETATM   21  O   UNL     1      -6.683   2.006  64.841  1.00  0.00    -0.026 OA 
ENDBRANCH   6  17
TORSDOF 2
ENDMDL
MODEL      169
REMARK 921   NORMALIZED FREE ENERGY PREDICTED BY IDOCK:    1.60 KCAL/MOL
REMARK 922        TOTAL FREE ENERGY PREDICTED BY IDOCK:    1.38 KCAL/MOL
REMARK 923 INTER-LIGAND FREE ENERGY PREDICTED BY IDOCK:   -0.51 KCAL/MOL
REMARK 924 INTRA-LIGAND FREE ENERGY PREDICTED BY IDOCK:    1.89 KCAL/MOL
REMARK 927      BINDING AFFINITY PREDICTED BY RF-SCORE:    0.00 PKD
ROOT
HETATM    1  C   UNL     1      -5.838  11.861  67.662  1.00  0.00    -0.083 C  
HETATM    2  C   UNL     1      -7.171  12.395  68.130  1.00  0.00    -0.100 A  
HETATM    3  C   UNL     1      -7.553  13.721  68.452  1.00  0.00    -0.135 A  
HETATM    4  C   UNL     1      -8.874  14.003  68.898  1.00  0.00     0.062 A  
HETATM    5  C   UNL     1      -8.122  11.372  68.299  1.00  0.00    -0.143 A  
HETATM    6  C   UNL     1      -9.410  11.635  68.746  1.00  0.00    -0.046 A  
HETATM    7  C   UNL     1      -9.297  15.307  69.234  1.00  0.00    -0.239 A  
HETATM    8  C   UNL     1      -9.806  12.942  69.051  1.00  0.00     0.284 A  
HETATM    9  C   UNL     1     -11.103  13.221  69.528  1.00  0.00    -0.086 A  
HETATM   10  C   UNL     1     -11.488  14.517  69.854  1.00  0.00    -0.320 A  
HETATM   11  C   UNL     1     -10.584  15.561  69.709  1.00  0.00    -0.301 A  
ENDROOT
BRANCH   3  12
HETATM   12  O   UNL     1      -6.720  14.837  68.400  1.00  0.00    -0.091 OA 
HETATM   13  O   UNL     1      -7.376  16.960  68.831  1.00  0.00    -0.216 OA 
HETATM   14  O   UNL     1      -6.721  16.709  71.093  1.00  0.00     2.087 OA 
HETATM   15  P   UNL     1      -6.722  15.825  69.821  1.00  0.00    -0.009 P  
HETATM   16  O   UNL     1      -5.161  16.126  69.411  1.00  0.00    -0.109 OA 
ENDBRANCH   3  12
BRANCH   6  17
HETATM   17  O   UNL     1     -10.264  10.604  69.023  1.00  0.00    -0.196 OA 
HETATM   18  P   UNL     1      -9.865   9.294  69.855  1.00  0.00    -0.231 P  
HETATM   19  O   UNL     1      -9.493   8.262  68.691  1.00  0.00    -0.146 OA 
HETATM   20  O   UNL     1      -8.888   9.418  70.966  1.00  0.00    -0.250 OA 
HETATM   21  O   UNL     1     -11.326   8.794  70.288  1.00  0.00    -0.239 OA 
ENDBRANCH   6  17
TORSDOF 2
ENDMDL
MODEL      170
REMARK 921   NORMALIZED FREE ENERGY PREDICTED BY IDOCK:    3.66 KCAL/MOL
REMARK 922        TOTAL FREE ENERGY PREDICTED BY IDOCK:    3.67 KCAL/MOL
REMARK 923 INTER-LIGAND FREE ENERGY PREDICTED BY IDOCK:    3.38 KCAL/MOL
REMARK 924 INTRA-LIGAND FREE ENERGY PREDICTED BY IDOCK:    0.30 KCAL/MOL
REMARK 927      BINDING AFFINITY PREDICTED BY RF-SCORE:    0.00 PKD
ROOT
HETATM    1  C   UNL     1      -5.863  17.613  67.876  1.00  0.00    -0.151 C  
HETATM    2  C   UNL     1      -7.319  18.008  67.934  1.00  0.00    -0.224 A  
HETATM    3  C   UNL     1      -7.919  19.186  68.446  1.00  0.00    -0.341 A  
HETATM    4  C   UNL     1      -9.332  19.346  68.419  1.00  0.00    -0.426 A  
HETATM    5  C   UNL     1      -8.163  16.999  67.436  1.00  0.00    -0.199 A  
HETATM    6  C   UNL     1      -9.544  17.140  67.417  1.00  0.00    -0.247 A  
HETATM    7  C   UNL     1      -9.973  20.498  68.922  1.00  0.00     0.166 A  
HETATM    8  C   UNL     1     -10.149  18.304  67.903  1.00  0.00    -0.376 A  
HETATM    9  C   UNL     1     -11.551  18.452  67.910  1.00  0.00     1.372 A  
HETATM   10  C   UNL     1     -12.151  19.600  68.418  1.00  0.00     4.058 A  
HETATM   11  C   UNL     1     -11.363  20.624  68.925  1.00  0.00     2.002 A  
ENDROOT
BRANCH   3  12
HETATM   12  O   UNL     1      -7.237  20.252  69.030  1.00  0.00    -0.141 OA 
HETATM   13  O   UNL     1      -7.158  20.674  71.252  1.00  0.00     0.065 OA 
HETATM   14  O   UNL     1      -5.146  19.436  71.420  1.00  0.00    -0.261 OA 
HETATM   15  P   UNL     1      -6.134  19.821  70.292  1.00  0.00    -0.235 P  
HETATM   16  O   UNL     1      -5.281  21.120  69.762  1.00  0.00    -0.390 OA 
ENDBRANCH   3  12
BRANCH   6  17
HETATM   17  O   UNL     1     -10.337  16.089  67.047  1.00  0.00    -0.281 OA 
HETATM   18  P   UNL     1      -9.787  14.697  66.474  1.00  0.00    -0.301 P  
HETATM   19  O   UNL     1      -9.889  14.925  64.894  1.00  0.00    -0.204 OA 
HETATM   20  O   UNL     1      -8.498  14.168  66.984  1.00  0.00    -0.208 OA 
HETATM   21  O   UNL     1     -11.062  13.766  66.758  1.00  0.00    -0.300 OA 
ENDBRANCH   6  17
TORSDOF 2
ENDMDL
MODEL      171
REMARK 921   NORMALIZED FREE ENERGY PREDICTED BY IDOCK:    9.73 KCAL/MOL
REMARK 922        TOTAL FREE ENERGY PREDICTED BY IDOCK:   10.45 KCAL/MOL
REMARK 923 INTER-LIGAND FREE ENERGY PREDICTED BY IDOCK:   10.46 KCAL/MOL
REMARK 924 INTRA-LIGAND FREE ENERGY PREDICTED BY IDOCK:   -0.01 KCAL/MOL
REMARK 927      BINDING AFFINITY PREDICTED BY RF-SCORE:    0.00 PKD
ROOT
HETATM    1  C   UNL     1     -12.407  18.604  68.588  1.00  0.00     6.538 C  
HETATM    2  C   UNL     1     -12.031  17.166  68.321  1.00  0.00     1.455 A  
HETATM    3  C   UNL     1     -11.363  16.595  67.209  1.00  0.00     0.324 A  
HETATM    4  C   UNL     1     -11.125  15.194  67.151  1.00  0.00    -0.335 A  
HETATM    5  C   UNL     1     -12.479  16.303  69.338  1.00  0.00     0.844 A  
HETATM    6  C   UNL     1     -12.263  14.933  69.285  1.00  0.00    -0.186 A  
HETATM    7  C   UNL     1     -10.468  14.581  66.062  1.00  0.00    -0.315 A  
HETATM    8  C   UNL     1     -11.590  14.358  68.201  1.00  0.00    -0.360 A  
HETATM    9  C   UNL     1     -11.384  12.965  68.124  1.00  0.00    -0.327 A  
HETATM   10  C   UNL     1     -10.736  12.393  67.034  1.00  0.00    -0.268 A  
HETATM   11  C   UNL     1     -10.279  13.200  66.001  1.00  0.00    -0.287 A  
ENDROOT
BRANCH   3  12
HETATM   12  O   UNL     1     -10.911  17.294  66.091  1.00  0.00    -0.153 OA 
HETATM   13  O   UNL     1      -9.850  19.292  66.158  1.00  0.00    -0.370 OA 
HETATM   14  O   UNL     1      -7.757  18.186  66.178  1.00  0.00    -0.344 OA 
HETATM   15  P   UNL     1      -9.246  17.765  66.138  1.00  0.00     0.066 P  
HETATM   16  O   UNL     1      -9.320  17.578  64.509  1.00  0.00     3.613 OA 
ENDBRANCH   3  12
BRANCH   6  17
HETATM   17  O   UNL     1     -12.825  14.112  70.224  1.00  0.00    -0.297 OA 
HETATM   18  P   UNL     1     -12.782  14.380  71.803  1.00  0.00    -0.355 P  
HETATM   19  O   UNL     1     -11.517  13.510  72.253  1.00  0.00     2.167 OA 
HETATM   20  O   UNL     1     -12.832  15.778  72.297  1.00  0.00    -0.408 OA 
HETATM   21  O   UNL     1     -14.005  13.451  72.268  1.00  0.00    -0.540 OA 
ENDBRANCH   6  17
TORSDOF 2
ENDMDL
MODEL      172
REMARK 921   NORMALIZED FREE ENERGY PREDICTED BY IDOCK:   15.67 KCAL/MOL
REMARK 922        TOTAL FREE ENERGY PREDICTED BY IDOCK:   17.08 KCAL/MOL
REMARK 923 INTER-LIGAND FREE ENERGY PREDICTED BY IDOCK:   12.39 KCAL/MOL
REMARK 924 INTRA-LIGAND FREE ENERGY PREDICTED BY IDOCK:    4.70 KCAL/MOL
REMARK 927      BINDING AFFINITY PREDICTED BY RF-SCORE:    0.00 PKD
ROOT
HETATM    1  C   UNL     1      -5.269  13.856  71.666  1.00  0.00    -0.194 C  
HETATM    2  C   UNL     1      -5.842  12.805  70.746  1.00  0.00    -0.050 A  
HETATM    3  C   UNL     1      -6.168  11.451  71.009  1.00  0.00     0.688 A  
HETATM    4  C   UNL     1      -6.685  10.620  69.977  1.00  0.00    -0.156 A  
HETATM    5  C   UNL     1      -6.012  13.284  69.434  1.00  0.00    -0.100 A  
HETATM    6  C   UNL     1      -6.505  12.477  68.417  1.00  0.00    -0.066 A  
HETATM    7  C   UNL     1      -7.019   9.265  70.192  1.00  0.00    -0.067 A  
HETATM    8  C   UNL     1      -6.847  11.143  68.667  1.00  0.00    -0.070 A  
HETATM    9  C   UNL     1      -7.327  10.307  67.638  1.00  0.00    -0.088 A  
HETATM   10  C   UNL     1      -7.642   8.974  67.883  1.00  0.00    -0.093 A  
HETATM   11  C   UNL     1      -7.487   8.452  69.159  1.00  0.00    -0.089 A  
ENDROOT
BRANCH   3  12
HETATM   12  O   UNL     1      -6.002  10.802  72.231  1.00  0.00     0.301 OA 
HETATM   13  O   UNL     1      -7.658   9.784  73.390  1.00  0.00     1.643 OA 
HETATM   14  O   UNL     1      -7.128   7.725  72.347  1.00  0.00    -0.071 OA 
HETATM   15  P   UNL     1      -6.597   9.179  72.292  1.00  0.00     0.447 P  
HETATM   16  O   UNL     1      -5.370   8.946  73.358  1.00  0.00    -0.081 OA 
ENDBRANCH   3  12
BRANCH   6  17
HETATM   17  O   UNL     1      -6.534  12.937  67.130  1.00  0.00    -0.210 OA 
HETATM   18  P   UNL     1      -7.873  13.165  66.279  1.00  0.00     2.235 P  
HETATM   19  O   UNL     1      -7.985  11.794  65.462  1.00  0.00     0.555 OA 
HETATM   20  O   UNL     1      -9.100  13.620  66.978  1.00  0.00    -0.231 OA 
HETATM   21  O   UNL     1      -7.315  14.172  65.162  1.00  0.00     8.084 OA 
ENDBRANCH   6  17
TORSDOF 2
ENDMDL
MODEL      173
REMARK 921   NORMALIZED FREE ENERGY PREDICTED BY IDOCK:   22.87 KCAL/MOL
REMARK 922        TOTAL FREE ENERGY PREDICTED BY IDOCK:   25.13 KCAL/MOL
REMARK 923 INTER-LIGAND FREE ENERGY PREDICTED BY IDOCK:   23.19 KCAL/MOL
REMARK 924 INTRA-LIGAND FREE ENERGY PREDICTED BY IDOCK:    1.94 KCAL/MOL
REMARK 927      BINDING AFFINITY PREDICTED BY RF-SCORE:    0.00 PKD
ROOT
HETATM    1  C   UNL     1      -7.178  14.746  74.189  1.00  0.00     5.173 C  
HETATM    2  C   UNL     1      -6.841  14.205  72.820  1.00  0.00     2.968 A  
HETATM    3  C   UNL     1      -6.442  12.901  72.433  1.00  0.00     3.988 A  
HETATM    4  C   UNL     1      -6.150  12.610  71.072  1.00  0.00     0.594 A  
HETATM    5  C   UNL     1      -6.903  15.200  71.827  1.00  0.00     2.015 A  
HETATM    6  C   UNL     1      -6.607  14.929  70.498  1.00  0.00     0.063 A  
HETATM    7  C   UNL     1      -5.745  11.329  70.642  1.00  0.00    -0.123 A  
HETATM    8  C   UNL     1      -6.229  13.642  70.099  1.00  0.00    -0.095 A  
HETATM    9  C   UNL     1      -5.904  13.358  68.757  1.00  0.00    -0.079 A  
HETATM   10  C   UNL     1      -5.504  12.084  68.367  1.00  0.00    -0.053 A  
HETATM   11  C   UNL     1      -5.423  11.069  69.309  1.00  0.00    -0.040 A  
ENDROOT
BRANCH   3  12
HETATM   12  O   UNL     1      -6.270  11.820  73.295  1.00  0.00     2.483 OA 
HETATM   13  O   UNL     1      -7.884  10.329  73.837  1.00  0.00     4.281 OA 
HETATM   14  O   UNL     1      -7.169   8.908  72.084  1.00  0.00    -0.304 OA 
HETATM   15  P   UNL     1      -6.745  10.284  72.656  1.00  0.00     3.694 P  
HETATM   16  O   UNL     1      -5.541   9.702  73.608  1.00  0.00    -0.310 OA 
ENDBRANCH   3  12
BRANCH   6  17
HETATM   17  O   UNL     1      -6.551  15.947  69.586  1.00  0.00    -0.181 OA 
HETATM   18  P   UNL     1      -7.781  16.410  68.668  1.00  0.00    -0.227 P  
HETATM   19  O   UNL     1      -7.509  15.600  67.315  1.00  0.00    -0.184 OA 
HETATM   20  O   UNL     1      -9.157  16.335  69.218  1.00  0.00    -0.251 OA 
HETATM   21  O   UNL     1      -7.285  17.884  68.277  1.00  0.00    -0.219 OA 
ENDBRANCH   6  17
TORSDOF 2
ENDMDL
