MODEL        1
REMARK 921   NORMALIZED FREE ENERGY PREDICTED BY IDOCK:   -6.55 KCAL/MOL
REMARK 922        TOTAL FREE ENERGY PREDICTED BY IDOCK:   -8.64 KCAL/MOL
REMARK 923 INTER-LIGAND FREE ENERGY PREDICTED BY IDOCK:   -7.70 KCAL/MOL
REMARK 924 INTRA-LIGAND FREE ENERGY PREDICTED BY IDOCK:   -0.94 KCAL/MOL
REMARK 927      BINDING AFFINITY PREDICTED BY RF-SCORE:    0.00 PKD
ROOT
HETATM    1  C   UNL     1     -11.776  12.556  66.620  1.00  0.00    -0.453 C  
HETATM    2  C   UNL     1     -11.490  13.874  67.340  1.00  0.00    -0.374 C  
HETATM    3  C   UNL     1     -12.139  13.972  68.755  1.00  0.00    -0.338 C  
HETATM    4  C   UNL     1      -9.987  14.161  67.299  1.00  0.00    -0.249 C  
HETATM    5  C   UNL     1     -11.893  15.381  69.351  1.00  0.00    -0.372 C  
HETATM    6  C   UNL     1     -12.652  15.613  70.652  1.00  0.00    -0.461 C  
HETATM    7  C   UNL     1     -12.346  14.528  71.689  1.00  0.00    -0.420 C  
HETATM    8  C   UNL     1     -13.183  14.749  72.948  1.00  0.00    -0.597 C  
HETATM    9  C   UNL     1     -12.576  13.134  71.094  1.00  0.00    -0.403 C  
HETATM   10  C   UNL     1     -11.735  12.911  69.816  1.00  0.00    -0.281 C  
ENDROOT
BRANCH  10  11
HETATM   11  O   UNL     1     -11.952  11.556  69.355  1.00  0.00    -0.311 OA 
BRANCH  11  12
HETATM   12  C   UNL     1     -10.916  10.700  69.589  1.00  0.00    -0.278 C  
HETATM   13  O   UNL     1      -9.881  10.689  68.931  1.00  0.00    -0.185 OA 
BRANCH  12  14
HETATM   14  C   UNL     1     -11.113   9.728  70.707  1.00  0.00    -0.415 A  
HETATM   15  C   UNL     1      -9.932   9.196  71.268  1.00  0.00    -0.373 A  
HETATM   16  C   UNL     1      -9.969   8.263  72.309  1.00  0.00    -0.366 A  
HETATM   17  C   UNL     1     -11.193   7.840  72.810  1.00  0.00    -0.456 A  
HETATM   18  C   UNL     1     -12.373   8.355  72.278  1.00  0.00    -0.436 A  
HETATM   19  C   UNL     1     -12.337   9.300  71.235  1.00  0.00    -0.328 A  
HETATM   20  O   UNL     1     -13.524   9.782  70.761  1.00  0.00    -0.600 OA 
HETATM   21  H   UNL     1     -14.354   9.491  71.120  1.00  0.00     0.000 HD 
ENDBRANCH  12  14
ENDBRANCH  11  12
ENDBRANCH  10  11
TORSDOF 3
ENDMDL
MODEL        2
REMARK 921   NORMALIZED FREE ENERGY PREDICTED BY IDOCK:   -6.53 KCAL/MOL
REMARK 922        TOTAL FREE ENERGY PREDICTED BY IDOCK:   -8.62 KCAL/MOL
REMARK 923 INTER-LIGAND FREE ENERGY PREDICTED BY IDOCK:   -7.96 KCAL/MOL
REMARK 924 INTRA-LIGAND FREE ENERGY PREDICTED BY IDOCK:   -0.66 KCAL/MOL
REMARK 927      BINDING AFFINITY PREDICTED BY RF-SCORE:    0.00 PKD
ROOT
HETATM    1  C   UNL     1     -12.282  12.724  70.174  1.00  0.00    -0.320 C  
HETATM    2  C   UNL     1     -11.929  14.183  70.467  1.00  0.00    -0.393 C  
HETATM    3  C   UNL     1     -11.096  14.867  69.340  1.00  0.00    -0.296 C  
HETATM    4  C   UNL     1     -13.193  14.939  70.884  1.00  0.00    -0.420 C  
HETATM    5  C   UNL     1     -10.689  16.296  69.780  1.00  0.00    -0.345 C  
HETATM    6  C   UNL     1      -9.720  16.960  68.809  1.00  0.00    -0.265 C  
HETATM    7  C   UNL     1     -10.269  16.973  67.379  1.00  0.00    -0.314 C  
HETATM    8  C   UNL     1      -9.239  17.573  66.423  1.00  0.00    -0.267 C  
HETATM    9  C   UNL     1     -10.684  15.561  66.949  1.00  0.00    -0.317 C  
HETATM   10  C   UNL     1     -11.721  14.949  67.920  1.00  0.00    -0.321 C  
ENDROOT
BRANCH  10  11
HETATM   11  O   UNL     1     -12.114  13.652  67.412  1.00  0.00    -0.380 OA 
BRANCH  11  12
HETATM   12  C   UNL     1     -12.410  13.625  66.082  1.00  0.00    -0.426 C  
HETATM   13  O   UNL     1     -13.278  14.320  65.563  1.00  0.00    -0.641 OA 
BRANCH  12  14
HETATM   14  C   UNL     1     -11.618  12.663  65.256  1.00  0.00    -0.389 A  
HETATM   15  C   UNL     1     -10.979  11.627  65.971  1.00  0.00    -0.338 A  
HETATM   16  C   UNL     1     -10.192  10.667  65.327  1.00  0.00    -0.351 A  
HETATM   17  C   UNL     1     -10.026  10.725  63.951  1.00  0.00    -0.404 A  
HETATM   18  C   UNL     1     -10.651  11.735  63.220  1.00  0.00    -0.427 A  
HETATM   19  C   UNL     1     -11.450  12.697  63.867  1.00  0.00    -0.442 A  
HETATM   20  O   UNL     1     -12.051  13.654  63.100  1.00  0.00    -0.902 OA 
HETATM   21  H   UNL     1     -11.937  13.677  62.157  1.00  0.00     0.000 HD 
ENDBRANCH  12  14
ENDBRANCH  11  12
ENDBRANCH  10  11
TORSDOF 3
ENDMDL
MODEL        3
REMARK 921   NORMALIZED FREE ENERGY PREDICTED BY IDOCK:   -6.51 KCAL/MOL
REMARK 922        TOTAL FREE ENERGY PREDICTED BY IDOCK:   -8.59 KCAL/MOL
REMARK 923 INTER-LIGAND FREE ENERGY PREDICTED BY IDOCK:   -7.79 KCAL/MOL
REMARK 924 INTRA-LIGAND FREE ENERGY PREDICTED BY IDOCK:   -0.80 KCAL/MOL
REMARK 927      BINDING AFFINITY PREDICTED BY RF-SCORE:    0.00 PKD
ROOT
HETATM    1  C   UNL     1     -10.707  15.816  66.647  1.00  0.00    -0.287 C  
HETATM    2  C   UNL     1     -10.251  16.039  68.090  1.00  0.00    -0.243 C  
HETATM    3  C   UNL     1     -11.292  15.579  69.157  1.00  0.00    -0.333 C  
HETATM    4  C   UNL     1      -8.843  15.467  68.273  1.00  0.00    -0.176 C  
HETATM    5  C   UNL     1     -10.792  15.953  70.575  1.00  0.00    -0.283 C  
HETATM    6  C   UNL     1     -11.837  15.700  71.655  1.00  0.00    -0.504 C  
HETATM    7  C   UNL     1     -12.344  14.256  71.627  1.00  0.00    -0.392 C  
HETATM    8  C   UNL     1     -13.445  14.062  72.669  1.00  0.00    -0.650 C  
HETATM    9  C   UNL     1     -12.826  13.882  70.220  1.00  0.00    -0.132 C  
HETATM   10  C   UNL     1     -11.715  14.084  69.162  1.00  0.00    -0.333 C  
ENDROOT
BRANCH  10  11
HETATM   11  O   UNL     1     -12.221  13.647  67.879  1.00  0.00    -0.320 OA 
BRANCH  11  12
HETATM   12  C   UNL     1     -11.908  12.361  67.550  1.00  0.00    -0.284 C  
HETATM   13  O   UNL     1     -11.916  11.432  68.351  1.00  0.00    -0.539 OA 
BRANCH  12  14
HETATM   14  C   UNL     1     -11.521  12.128  66.124  1.00  0.00    -0.429 A  
HETATM   15  C   UNL     1     -10.405  11.286  65.925  1.00  0.00    -0.304 A  
HETATM   16  C   UNL     1      -9.925  10.996  64.645  1.00  0.00    -0.357 A  
HETATM   17  C   UNL     1     -10.550  11.545  63.534  1.00  0.00    -0.487 A  
HETATM   18  C   UNL     1     -11.658  12.374  63.704  1.00  0.00    -0.580 A  
HETATM   19  C   UNL     1     -12.147  12.661  64.992  1.00  0.00    -0.444 A  
HETATM   20  O   UNL     1     -13.245  13.467  65.098  1.00  0.00    -0.720 OA 
HETATM   21  H   UNL     1     -13.670  13.829  64.330  1.00  0.00     0.000 HD 
ENDBRANCH  12  14
ENDBRANCH  11  12
ENDBRANCH  10  11
TORSDOF 3
ENDMDL
MODEL        4
REMARK 921   NORMALIZED FREE ENERGY PREDICTED BY IDOCK:   -6.44 KCAL/MOL
REMARK 922        TOTAL FREE ENERGY PREDICTED BY IDOCK:   -8.51 KCAL/MOL
REMARK 923 INTER-LIGAND FREE ENERGY PREDICTED BY IDOCK:   -7.77 KCAL/MOL
REMARK 924 INTRA-LIGAND FREE ENERGY PREDICTED BY IDOCK:   -0.74 KCAL/MOL
REMARK 927      BINDING AFFINITY PREDICTED BY RF-SCORE:    0.00 PKD
ROOT
HETATM    1  C   UNL     1     -11.179  10.799  69.772  1.00  0.00    -0.365 C  
HETATM    2  C   UNL     1     -10.388  10.599  68.479  1.00  0.00    -0.202 C  
HETATM    3  C   UNL     1     -11.082  11.200  67.218  1.00  0.00    -0.366 C  
HETATM    4  C   UNL     1      -8.940  11.046  68.693  1.00  0.00    -0.167 C  
HETATM    5  C   UNL     1     -10.266  10.843  65.949  1.00  0.00    -0.314 C  
HETATM    6  C   UNL     1     -10.977  11.239  64.660  1.00  0.00    -0.281 C  
HETATM    7  C   UNL     1     -11.360  12.722  64.655  1.00  0.00    -0.362 C  
HETATM    8  C   UNL     1     -12.139  13.063  63.385  1.00  0.00    -0.591 C  
HETATM    9  C   UNL     1     -12.155  13.077  65.918  1.00  0.00    -0.503 C  
HETATM   10  C   UNL     1     -11.371  12.726  67.205  1.00  0.00    -0.314 C  
ENDROOT
BRANCH  10  11
HETATM   11  O   UNL     1     -12.152  13.152  68.346  1.00  0.00    -0.318 OA 
BRANCH  11  12
HETATM   12  C   UNL     1     -11.804  14.368  68.855  1.00  0.00    -0.320 C  
HETATM   13  O   UNL     1     -11.203  15.227  68.218  1.00  0.00    -0.285 OA 
BRANCH  12  14
HETATM   14  C   UNL     1     -12.181  14.610  70.282  1.00  0.00    -0.389 A  
HETATM   15  C   UNL     1     -12.888  13.563  70.913  1.00  0.00    -0.298 A  
HETATM   16  C   UNL     1     -13.316  13.663  72.239  1.00  0.00    -0.622 A  
HETATM   17  C   UNL     1     -13.048  14.815  72.965  1.00  0.00    -0.614 A  
HETATM   18  C   UNL     1     -12.347  15.861  72.367  1.00  0.00    -0.570 A  
HETATM   19  C   UNL     1     -11.908  15.759  71.034  1.00  0.00    -0.420 A  
HETATM   20  O   UNL     1     -11.211  16.808  70.503  1.00  0.00    -0.469 OA 
HETATM   21  H   UNL     1     -11.026  17.587  71.013  1.00  0.00     0.000 HD 
ENDBRANCH  12  14
ENDBRANCH  11  12
ENDBRANCH  10  11
TORSDOF 3
ENDMDL
MODEL        5
REMARK 921   NORMALIZED FREE ENERGY PREDICTED BY IDOCK:   -6.40 KCAL/MOL
REMARK 922        TOTAL FREE ENERGY PREDICTED BY IDOCK:   -8.46 KCAL/MOL
REMARK 923 INTER-LIGAND FREE ENERGY PREDICTED BY IDOCK:   -7.67 KCAL/MOL
REMARK 924 INTRA-LIGAND FREE ENERGY PREDICTED BY IDOCK:   -0.79 KCAL/MOL
REMARK 927      BINDING AFFINITY PREDICTED BY RF-SCORE:    0.00 PKD
ROOT
HETATM    1  C   UNL     1     -10.287  13.189  64.458  1.00  0.00    -0.389 C  
HETATM    2  C   UNL     1     -11.326  12.848  65.527  1.00  0.00    -0.340 C  
HETATM    3  C   UNL     1     -11.058  13.530  66.904  1.00  0.00    -0.309 C  
HETATM    4  C   UNL     1     -12.731  13.067  64.961  1.00  0.00    -0.475 C  
HETATM    5  C   UNL     1     -12.090  13.031  67.947  1.00  0.00    -0.234 C  
HETATM    6  C   UNL     1     -11.782  13.512  69.360  1.00  0.00    -0.381 C  
HETATM    7  C   UNL     1     -11.645  15.036  69.423  1.00  0.00    -0.337 C  
HETATM    8  C   UNL     1     -11.259  15.474  70.835  1.00  0.00    -0.409 C  
HETATM    9  C   UNL     1     -10.635  15.531  68.381  1.00  0.00    -0.252 C  
HETATM   10  C   UNL     1     -11.021  15.082  66.952  1.00  0.00    -0.324 C  
ENDROOT
BRANCH  10  11
HETATM   11  O   UNL     1     -10.063  15.642  66.023  1.00  0.00    -0.286 OA 
BRANCH  11  12
HETATM   12  C   UNL     1     -10.415  16.850  65.498  1.00  0.00    -0.204 C  
HETATM   13  O   UNL     1     -11.141  16.983  64.518  1.00  0.00    -1.098 OA 
BRANCH  12  14
HETATM   14  C   UNL     1      -9.841  18.050  66.182  1.00  0.00    -0.255 A  
HETATM   15  C   UNL     1     -10.779  18.916  66.786  1.00  0.00    -0.414 A  
HETATM   16  C   UNL     1     -10.382  20.083  67.444  1.00  0.00    -0.533 A  
HETATM   17  C   UNL     1      -9.035  20.412  67.510  1.00  0.00    -0.419 A  
HETATM   18  C   UNL     1      -8.089  19.571  66.927  1.00  0.00    -0.306 A  
HETATM   19  C   UNL     1      -8.486  18.391  66.270  1.00  0.00    -0.196 A  
HETATM   20  O   UNL     1      -7.516  17.597  65.730  1.00  0.00    -0.512 OA 
HETATM   21  H   UNL     1      -6.596  17.828  65.790  1.00  0.00     0.000 HD 
ENDBRANCH  12  14
ENDBRANCH  11  12
ENDBRANCH  10  11
TORSDOF 3
ENDMDL
MODEL        6
REMARK 921   NORMALIZED FREE ENERGY PREDICTED BY IDOCK:   -6.39 KCAL/MOL
REMARK 922        TOTAL FREE ENERGY PREDICTED BY IDOCK:   -8.45 KCAL/MOL
REMARK 923 INTER-LIGAND FREE ENERGY PREDICTED BY IDOCK:   -7.55 KCAL/MOL
REMARK 924 INTRA-LIGAND FREE ENERGY PREDICTED BY IDOCK:   -0.90 KCAL/MOL
REMARK 927      BINDING AFFINITY PREDICTED BY RF-SCORE:    0.00 PKD
ROOT
HETATM    1  C   UNL     1     -12.397  12.634  65.319  1.00  0.00    -0.528 C  
HETATM    2  C   UNL     1     -11.704  13.877  65.877  1.00  0.00    -0.372 C  
HETATM    3  C   UNL     1     -11.975  14.122  67.394  1.00  0.00    -0.439 C  
HETATM    4  C   UNL     1     -10.225  13.857  65.481  1.00  0.00    -0.348 C  
HETATM    5  C   UNL     1     -11.332  15.461  67.834  1.00  0.00    -0.328 C  
HETATM    6  C   UNL     1     -11.709  15.858  69.256  1.00  0.00    -0.360 C  
HETATM    7  C   UNL     1     -11.383  14.748  70.260  1.00  0.00    -0.277 C  
HETATM    8  C   UNL     1     -11.846  15.149  71.660  1.00  0.00    -0.449 C  
HETATM    9  C   UNL     1     -12.008  13.420  69.817  1.00  0.00    -0.396 C  
HETATM   10  C   UNL     1     -11.546  13.016  68.397  1.00  0.00    -0.335 C  
ENDROOT
BRANCH  10  11
HETATM   11  O   UNL     1     -12.119  11.726  68.078  1.00  0.00    -0.572 OA 
BRANCH  11  12
HETATM   12  C   UNL     1     -11.238  10.686  68.108  1.00  0.00    -0.302 C  
HETATM   13  O   UNL     1     -10.699  10.221  67.109  1.00  0.00    -0.257 OA 
BRANCH  12  14
HETATM   14  C   UNL     1     -10.963  10.102  69.457  1.00  0.00    -0.295 A  
HETATM   15  C   UNL     1      -9.615   9.775  69.717  1.00  0.00    -0.256 A  
HETATM   16  C   UNL     1      -9.219   9.207  70.931  1.00  0.00    -0.326 A  
HETATM   17  C   UNL     1     -10.166   8.950  71.912  1.00  0.00    -0.403 A  
HETATM   18  C   UNL     1     -11.503   9.269  71.682  1.00  0.00    -0.468 A  
HETATM   19  C   UNL     1     -11.902   9.849  70.464  1.00  0.00    -0.270 A  
HETATM   20  O   UNL     1     -13.223  10.155  70.298  1.00  0.00    -0.571 OA 
HETATM   21  H   UNL     1     -13.860   9.983  70.982  1.00  0.00     0.000 HD 
ENDBRANCH  12  14
ENDBRANCH  11  12
ENDBRANCH  10  11
TORSDOF 3
ENDMDL
MODEL        7
REMARK 921   NORMALIZED FREE ENERGY PREDICTED BY IDOCK:   -6.36 KCAL/MOL
REMARK 922        TOTAL FREE ENERGY PREDICTED BY IDOCK:   -8.41 KCAL/MOL
REMARK 923 INTER-LIGAND FREE ENERGY PREDICTED BY IDOCK:   -7.81 KCAL/MOL
REMARK 924 INTRA-LIGAND FREE ENERGY PREDICTED BY IDOCK:   -0.60 KCAL/MOL
REMARK 927      BINDING AFFINITY PREDICTED BY RF-SCORE:    0.00 PKD
ROOT
HETATM    1  C   UNL     1      -8.948  15.376  69.151  1.00  0.00    -0.245 C  
HETATM    2  C   UNL     1      -9.664  15.907  67.908  1.00  0.00    -0.216 C  
HETATM    3  C   UNL     1     -10.219  14.787  66.975  1.00  0.00    -0.253 C  
HETATM    4  C   UNL     1     -10.687  16.967  68.324  1.00  0.00    -0.377 C  
HETATM    5  C   UNL     1     -10.817  15.420  65.693  1.00  0.00    -0.363 C  
HETATM    6  C   UNL     1     -11.214  14.380  64.652  1.00  0.00    -0.366 C  
HETATM    7  C   UNL     1     -12.168  13.331  65.232  1.00  0.00    -0.492 C  
HETATM    8  C   UNL     1     -12.481  12.264  64.184  1.00  0.00    -0.530 C  
HETATM    9  C   UNL     1     -11.582  12.716  66.508  1.00  0.00    -0.441 C  
HETATM   10  C   UNL     1     -11.258  13.796  67.567  1.00  0.00    -0.294 C  
ENDROOT
BRANCH  10  11
HETATM   11  O   UNL     1     -10.777  13.136  68.761  1.00  0.00    -0.249 OA 
BRANCH  11  12
HETATM   12  C   UNL     1     -11.727  12.448  69.457  1.00  0.00    -0.322 C  
HETATM   13  O   UNL     1     -11.996  11.268  69.257  1.00  0.00    -0.318 OA 
BRANCH  12  14
HETATM   14  C   UNL     1     -12.467  13.228  70.496  1.00  0.00    -0.332 A  
HETATM   15  C   UNL     1     -12.477  14.628  70.316  1.00  0.00    -0.401 A  
HETATM   16  C   UNL     1     -13.118  15.480  71.220  1.00  0.00    -0.581 A  
HETATM   17  C   UNL     1     -13.762  14.947  72.328  1.00  0.00    -0.564 A  
HETATM   18  C   UNL     1     -13.772  13.568  72.526  1.00  0.00    -0.664 A  
HETATM   19  C   UNL     1     -13.134  12.708  71.611  1.00  0.00    -0.323 A  
HETATM   20  O   UNL     1     -13.188  11.364  71.846  1.00  0.00    -0.484 OA 
HETATM   21  H   UNL     1     -13.641  11.011  72.603  1.00  0.00     0.000 HD 
ENDBRANCH  12  14
ENDBRANCH  11  12
ENDBRANCH  10  11
TORSDOF 3
ENDMDL
MODEL        8
REMARK 921   NORMALIZED FREE ENERGY PREDICTED BY IDOCK:   -6.35 KCAL/MOL
REMARK 922        TOTAL FREE ENERGY PREDICTED BY IDOCK:   -8.41 KCAL/MOL
REMARK 923 INTER-LIGAND FREE ENERGY PREDICTED BY IDOCK:   -7.51 KCAL/MOL
REMARK 924 INTRA-LIGAND FREE ENERGY PREDICTED BY IDOCK:   -0.89 KCAL/MOL
REMARK 927      BINDING AFFINITY PREDICTED BY RF-SCORE:    0.00 PKD
ROOT
HETATM    1  C   UNL     1     -10.161  19.432  68.533  1.00  0.00    -0.527 C  
HETATM    2  C   UNL     1      -8.638  19.517  68.425  1.00  0.00    -0.389 C  
HETATM    3  C   UNL     1      -7.918  18.141  68.580  1.00  0.00    -0.301 C  
HETATM    4  C   UNL     1      -8.259  20.305  67.169  1.00  0.00    -0.385 C  
HETATM    5  C   UNL     1      -6.382  18.348  68.576  1.00  0.00    -0.219 C  
HETATM    6  C   UNL     1      -5.614  17.073  68.906  1.00  0.00    -0.147 C  
HETATM    7  C   UNL     1      -6.005  15.919  67.979  1.00  0.00    -0.142 C  
HETATM    8  C   UNL     1      -5.275  14.641  68.389  1.00  0.00    -0.105 C  
HETATM    9  C   UNL     1      -7.526  15.725  67.972  1.00  0.00    -0.136 C  
HETATM   10  C   UNL     1      -8.267  17.020  67.564  1.00  0.00    -0.180 C  
ENDROOT
BRANCH  10  11
HETATM   11  O   UNL     1      -9.686  16.739  67.514  1.00  0.00    -0.245 OA 
BRANCH  11  12
HETATM   12  C   UNL     1     -10.223  16.731  66.261  1.00  0.00    -0.332 C  
HETATM   13  O   UNL     1     -10.189  17.693  65.499  1.00  0.00    -0.600 OA 
BRANCH  12  14
HETATM   14  C   UNL     1     -10.899  15.463  65.848  1.00  0.00    -0.328 A  
HETATM   15  C   UNL     1     -10.818  14.399  66.773  1.00  0.00    -0.301 A  
HETATM   16  C   UNL     1     -11.390  13.152  66.508  1.00  0.00    -0.350 A  
HETATM   17  C   UNL     1     -12.056  12.941  65.309  1.00  0.00    -0.496 A  
HETATM   18  C   UNL     1     -12.155  13.976  64.381  1.00  0.00    -0.486 A  
HETATM   19  C   UNL     1     -11.586  15.235  64.650  1.00  0.00    -0.333 A  
HETATM   20  O   UNL     1     -11.726  16.218  63.712  1.00  0.00    -1.511 OA 
HETATM   21  H   UNL     1     -12.192  16.064  62.899  1.00  0.00     0.000 HD 
ENDBRANCH  12  14
ENDBRANCH  11  12
ENDBRANCH  10  11
TORSDOF 3
ENDMDL
MODEL        9
REMARK 921   NORMALIZED FREE ENERGY PREDICTED BY IDOCK:   -6.35 KCAL/MOL
REMARK 922        TOTAL FREE ENERGY PREDICTED BY IDOCK:   -8.40 KCAL/MOL
REMARK 923 INTER-LIGAND FREE ENERGY PREDICTED BY IDOCK:   -7.51 KCAL/MOL
REMARK 924 INTRA-LIGAND FREE ENERGY PREDICTED BY IDOCK:   -0.89 KCAL/MOL
REMARK 927      BINDING AFFINITY PREDICTED BY RF-SCORE:    0.00 PKD
ROOT
HETATM    1  C   UNL     1      -8.972  12.774  67.013  1.00  0.00    -0.221 C  
HETATM    2  C   UNL     1     -10.168  12.025  67.605  1.00  0.00    -0.210 C  
HETATM    3  C   UNL     1     -10.765  12.700  68.878  1.00  0.00    -0.201 C  
HETATM    4  C   UNL     1     -11.182  11.728  66.497  1.00  0.00    -0.380 C  
HETATM    5  C   UNL     1     -11.888  11.810  69.467  1.00  0.00    -0.402 C  
HETATM    6  C   UNL     1     -12.395  12.312  70.814  1.00  0.00    -0.383 C  
HETATM    7  C   UNL     1     -12.849  13.773  70.740  1.00  0.00    -0.302 C  
HETATM    8  C   UNL     1     -13.275  14.265  72.123  1.00  0.00    -0.491 C  
HETATM    9  C   UNL     1     -11.742  14.652  70.144  1.00  0.00    -0.353 C  
HETATM   10  C   UNL     1     -11.305  14.151  68.747  1.00  0.00    -0.278 C  
ENDROOT
BRANCH  10  11
HETATM   11  O   UNL     1     -10.313  15.066  68.223  1.00  0.00    -0.230 OA 
BRANCH  11  12
HETATM   12  C   UNL     1     -10.726  15.804  67.154  1.00  0.00    -0.312 C  
HETATM   13  O   UNL     1     -11.225  15.320  66.143  1.00  0.00    -0.318 OA 
BRANCH  12  14
HETATM   14  C   UNL     1     -10.516  17.281  67.260  1.00  0.00    -0.319 A  
HETATM   15  C   UNL     1     -10.213  17.762  68.553  1.00  0.00    -0.382 A  
HETATM   16  C   UNL     1     -10.009  19.123  68.800  1.00  0.00    -0.493 A  
HETATM   17  C   UNL     1     -10.106  20.034  67.757  1.00  0.00    -0.563 A  
HETATM   18  C   UNL     1     -10.398  19.583  66.471  1.00  0.00    -0.583 A  
HETATM   19  C   UNL     1     -10.596  18.213  66.219  1.00  0.00    -0.274 A  
HETATM   20  O   UNL     1     -10.864  17.826  64.937  1.00  0.00    -0.815 OA 
HETATM   21  H   UNL     1     -10.918  18.458  64.230  1.00  0.00     0.000 HD 
ENDBRANCH  12  14
ENDBRANCH  11  12
ENDBRANCH  10  11
TORSDOF 3
ENDMDL
MODEL       10
REMARK 921   NORMALIZED FREE ENERGY PREDICTED BY IDOCK:   -6.34 KCAL/MOL
REMARK 922        TOTAL FREE ENERGY PREDICTED BY IDOCK:   -8.39 KCAL/MOL
REMARK 923 INTER-LIGAND FREE ENERGY PREDICTED BY IDOCK:   -7.49 KCAL/MOL
REMARK 924 INTRA-LIGAND FREE ENERGY PREDICTED BY IDOCK:   -0.90 KCAL/MOL
REMARK 927      BINDING AFFINITY PREDICTED BY RF-SCORE:    0.00 PKD
ROOT
HETATM    1  C   UNL     1      -9.065  15.497  69.297  1.00  0.00    -0.266 C  
HETATM    2  C   UNL     1      -9.686  16.036  68.009  1.00  0.00    -0.217 C  
HETATM    3  C   UNL     1     -10.262  14.927  67.075  1.00  0.00    -0.256 C  
HETATM    4  C   UNL     1     -10.664  17.165  68.347  1.00  0.00    -0.347 C  
HETATM    5  C   UNL     1     -10.758  15.560  65.751  1.00  0.00    -0.362 C  
HETATM    6  C   UNL     1     -11.166  14.518  64.715  1.00  0.00    -0.395 C  
HETATM    7  C   UNL     1     -12.208  13.543  65.271  1.00  0.00    -0.474 C  
HETATM    8  C   UNL     1     -12.533  12.469  64.234  1.00  0.00    -0.520 C  
HETATM    9  C   UNL     1     -11.722  12.928  66.589  1.00  0.00    -0.452 C  
HETATM   10  C   UNL     1     -11.387  14.015  67.637  1.00  0.00    -0.312 C  
ENDROOT
BRANCH  10  11
HETATM   11  O   UNL     1     -11.004  13.359  68.870  1.00  0.00    -0.251 OA 
BRANCH  11  12
HETATM   12  C   UNL     1     -11.992  13.280  69.806  1.00  0.00    -0.324 C  
HETATM   13  O   UNL     1     -12.701  14.227  70.130  1.00  0.00    -0.331 OA 
BRANCH  12  14
HETATM   14  C   UNL     1     -12.167  11.946  70.459  1.00  0.00    -0.426 A  
HETATM   15  C   UNL     1     -11.469  10.876  69.858  1.00  0.00    -0.402 A  
HETATM   16  C   UNL     1     -11.556   9.573  70.355  1.00  0.00    -0.268 A  
HETATM   17  C   UNL     1     -12.347   9.311  71.465  1.00  0.00    -0.439 A  
HETATM   18  C   UNL     1     -13.042  10.350  72.080  1.00  0.00    -0.521 A  
HETATM   19  C   UNL     1     -12.949  11.665  71.585  1.00  0.00    -0.378 A  
HETATM   20  O   UNL     1     -13.640  12.648  72.236  1.00  0.00    -0.547 OA 
HETATM   21  H   UNL     1     -14.170  12.457  73.000  1.00  0.00     0.000 HD 
ENDBRANCH  12  14
ENDBRANCH  11  12
ENDBRANCH  10  11
TORSDOF 3
ENDMDL
MODEL       11
REMARK 921   NORMALIZED FREE ENERGY PREDICTED BY IDOCK:   -6.26 KCAL/MOL
REMARK 922        TOTAL FREE ENERGY PREDICTED BY IDOCK:   -8.30 KCAL/MOL
REMARK 923 INTER-LIGAND FREE ENERGY PREDICTED BY IDOCK:   -7.85 KCAL/MOL
REMARK 924 INTRA-LIGAND FREE ENERGY PREDICTED BY IDOCK:   -0.45 KCAL/MOL
REMARK 927      BINDING AFFINITY PREDICTED BY RF-SCORE:    0.00 PKD
ROOT
HETATM    1  C   UNL     1      -9.223  14.092  68.410  1.00  0.00    -0.196 C  
HETATM    2  C   UNL     1      -9.807  15.300  69.145  1.00  0.00    -0.239 C  
HETATM    3  C   UNL     1      -9.563  16.657  68.416  1.00  0.00    -0.233 C  
HETATM    4  C   UNL     1     -11.266  15.017  69.512  1.00  0.00    -0.294 C  
HETATM    5  C   UNL     1     -10.083  17.825  69.292  1.00  0.00    -0.135 C  
HETATM    6  C   UNL     1      -9.717  19.194  68.730  1.00  0.00    -0.491 C  
HETATM    7  C   UNL     1     -10.186  19.356  67.281  1.00  0.00    -0.525 C  
HETATM    8  C   UNL     1      -9.732  20.706  66.727  1.00  0.00    -0.368 C  
HETATM    9  C   UNL     1      -9.683  18.193  66.418  1.00  0.00    -0.329 C  
HETATM   10  C   UNL     1     -10.135  16.825  66.981  1.00  0.00    -0.276 C  
ENDROOT
BRANCH  10  11
HETATM   11  O   UNL     1      -9.684  15.787  66.080  1.00  0.00    -0.293 OA 
BRANCH  11  12
HETATM   12  C   UNL     1     -10.549  15.494  65.067  1.00  0.00    -0.409 C  
HETATM   13  O   UNL     1     -11.153  16.343  64.420  1.00  0.00    -0.825 OA 
BRANCH  12  14
HETATM   14  C   UNL     1     -10.752  14.040  64.783  1.00  0.00    -0.442 A  
HETATM   15  C   UNL     1      -9.873  13.159  65.450  1.00  0.00    -0.123 A  
HETATM   16  C   UNL     1      -9.940  11.775  65.264  1.00  0.00    -0.284 A  
HETATM   17  C   UNL     1     -10.889  11.242  64.403  1.00  0.00    -0.373 A  
HETATM   18  C   UNL     1     -11.773  12.090  63.737  1.00  0.00    -0.575 A  
HETATM   19  C   UNL     1     -11.712  13.483  63.930  1.00  0.00    -0.368 A  
HETATM   20  O   UNL     1     -12.612  14.265  63.264  1.00  0.00    -1.069 OA 
HETATM   21  H   UNL     1     -13.263  13.886  62.685  1.00  0.00     0.000 HD 
ENDBRANCH  12  14
ENDBRANCH  11  12
ENDBRANCH  10  11
TORSDOF 3
ENDMDL
MODEL       12
REMARK 921   NORMALIZED FREE ENERGY PREDICTED BY IDOCK:   -6.26 KCAL/MOL
REMARK 922        TOTAL FREE ENERGY PREDICTED BY IDOCK:   -8.29 KCAL/MOL
REMARK 923 INTER-LIGAND FREE ENERGY PREDICTED BY IDOCK:   -7.36 KCAL/MOL
REMARK 924 INTRA-LIGAND FREE ENERGY PREDICTED BY IDOCK:   -0.93 KCAL/MOL
REMARK 927      BINDING AFFINITY PREDICTED BY RF-SCORE:    0.00 PKD
ROOT
HETATM    1  C   UNL     1     -11.976  13.973  67.029  1.00  0.00    -0.472 C  
HETATM    2  C   UNL     1     -11.348  15.021  67.949  1.00  0.00    -0.344 C  
HETATM    3  C   UNL     1     -11.892  14.983  69.411  1.00  0.00    -0.358 C  
HETATM    4  C   UNL     1      -9.823  14.959  67.827  1.00  0.00    -0.217 C  
HETATM    5  C   UNL     1     -11.287  16.152  70.228  1.00  0.00    -0.363 C  
HETATM    6  C   UNL     1     -11.910  16.289  71.612  1.00  0.00    -0.482 C  
HETATM    7  C   UNL     1     -11.830  14.980  72.403  1.00  0.00    -0.432 C  
HETATM    8  C   UNL     1     -12.533  15.133  73.751  1.00  0.00    -0.718 C  
HETATM    9  C   UNL     1     -12.416  13.821  71.588  1.00  0.00    -0.309 C  
HETATM   10  C   UNL     1     -11.710  13.670  70.220  1.00  0.00    -0.189 C  
ENDROOT
BRANCH  10  11
HETATM   11  O   UNL     1     -12.269  12.519  69.542  1.00  0.00    -0.204 OA 
BRANCH  11  12
HETATM   12  C   UNL     1     -11.458  11.423  69.515  1.00  0.00    -0.312 C  
HETATM   13  O   UNL     1     -10.533  11.279  68.722  1.00  0.00    -0.195 OA 
BRANCH  12  14
HETATM   14  C   UNL     1     -11.769  10.357  70.516  1.00  0.00    -0.434 A  
HETATM   15  C   UNL     1     -13.120  10.269  70.915  1.00  0.00    -0.423 A  
HETATM   16  C   UNL     1     -13.548   9.329  71.857  1.00  0.00    -0.494 A  
HETATM   17  C   UNL     1     -12.630   8.455  72.423  1.00  0.00    -0.372 A  
HETATM   18  C   UNL     1     -11.291   8.517  72.041  1.00  0.00    -0.425 A  
HETATM   19  C   UNL     1     -10.860   9.458  71.087  1.00  0.00    -0.357 A  
HETATM   20  O   UNL     1      -9.539   9.464  70.739  1.00  0.00    -0.261 OA 
HETATM   21  H   UNL     1      -8.923   8.854  71.127  1.00  0.00     0.000 HD 
ENDBRANCH  12  14
ENDBRANCH  11  12
ENDBRANCH  10  11
TORSDOF 3
ENDMDL
MODEL       13
REMARK 921   NORMALIZED FREE ENERGY PREDICTED BY IDOCK:   -6.21 KCAL/MOL
REMARK 922        TOTAL FREE ENERGY PREDICTED BY IDOCK:   -8.24 KCAL/MOL
REMARK 923 INTER-LIGAND FREE ENERGY PREDICTED BY IDOCK:   -7.41 KCAL/MOL
REMARK 924 INTRA-LIGAND FREE ENERGY PREDICTED BY IDOCK:   -0.83 KCAL/MOL
REMARK 927      BINDING AFFINITY PREDICTED BY RF-SCORE:    0.00 PKD
ROOT
HETATM    1  C   UNL     1     -12.646  12.641  64.958  1.00  0.00    -0.504 C  
HETATM    2  C   UNL     1     -11.596  13.686  64.580  1.00  0.00    -0.393 C  
HETATM    3  C   UNL     1     -11.449  14.837  65.623  1.00  0.00    -0.327 C  
HETATM    4  C   UNL     1     -10.288  12.983  64.208  1.00  0.00    -0.385 C  
HETATM    5  C   UNL     1     -10.454  15.901  65.096  1.00  0.00    -0.363 C  
HETATM    6  C   UNL     1     -10.397  17.144  65.977  1.00  0.00    -0.317 C  
HETATM    7  C   UNL     1     -10.089  16.793  67.435  1.00  0.00    -0.276 C  
HETATM    8  C   UNL     1     -10.118  18.052  68.300  1.00  0.00    -0.390 C  
HETATM    9  C   UNL     1     -11.065  15.729  67.952  1.00  0.00    -0.326 C  
HETATM   10  C   UNL     1     -11.042  14.456  67.073  1.00  0.00    -0.313 C  
ENDROOT
BRANCH  10  11
HETATM   11  O   UNL     1     -11.932  13.478  67.661  1.00  0.00    -0.354 OA 
BRANCH  11  12
HETATM   12  C   UNL     1     -11.347  12.643  68.565  1.00  0.00    -0.296 C  
HETATM   13  O   UNL     1     -10.294  12.047  68.360  1.00  0.00    -0.204 OA 
BRANCH  12  14
HETATM   14  C   UNL     1     -12.081  12.460  69.855  1.00  0.00    -0.317 A  
HETATM   15  C   UNL     1     -12.487  13.648  70.500  1.00  0.00    -0.394 A  
HETATM   16  C   UNL     1     -13.167  13.625  71.721  1.00  0.00    -0.477 A  
HETATM   17  C   UNL     1     -13.454  12.409  72.326  1.00  0.00    -0.428 A  
HETATM   18  C   UNL     1     -13.069  11.221  71.707  1.00  0.00    -0.527 A  
HETATM   19  C   UNL     1     -12.391  11.243  70.473  1.00  0.00    -0.356 A  
HETATM   20  O   UNL     1     -12.051  10.048  69.905  1.00  0.00    -0.463 OA 
HETATM   21  H   UNL     1     -12.262   9.223  70.324  1.00  0.00     0.000 HD 
ENDBRANCH  12  14
ENDBRANCH  11  12
ENDBRANCH  10  11
TORSDOF 3
ENDMDL
MODEL       14
REMARK 921   NORMALIZED FREE ENERGY PREDICTED BY IDOCK:   -6.19 KCAL/MOL
REMARK 922        TOTAL FREE ENERGY PREDICTED BY IDOCK:   -8.21 KCAL/MOL
REMARK 923 INTER-LIGAND FREE ENERGY PREDICTED BY IDOCK:   -7.11 KCAL/MOL
REMARK 924 INTRA-LIGAND FREE ENERGY PREDICTED BY IDOCK:   -1.11 KCAL/MOL
REMARK 927      BINDING AFFINITY PREDICTED BY RF-SCORE:    0.00 PKD
ROOT
HETATM    1  C   UNL     1     -11.876  11.037  68.811  1.00  0.00    -0.352 C  
HETATM    2  C   UNL     1     -10.517  10.602  68.260  1.00  0.00    -0.214 C  
HETATM    3  C   UNL     1     -10.491  10.433  66.710  1.00  0.00    -0.287 C  
HETATM    4  C   UNL     1      -9.423  11.510  68.828  1.00  0.00    -0.099 C  
HETATM    5  C   UNL     1      -9.114   9.879  66.264  1.00  0.00    -0.187 C  
HETATM    6  C   UNL     1      -9.075   9.515  64.784  1.00  0.00    -0.271 C  
HETATM    7  C   UNL     1      -9.495  10.692  63.899  1.00  0.00    -0.325 C  
HETATM    8  C   UNL     1      -9.520  10.267  62.432  1.00  0.00    -0.252 C  
HETATM    9  C   UNL     1     -10.851  11.249  64.350  1.00  0.00    -0.373 C  
HETATM   10  C   UNL     1     -10.829  11.673  65.837  1.00  0.00    -0.287 C  
ENDROOT
BRANCH  10  11
HETATM   11  O   UNL     1     -12.115  12.249  66.168  1.00  0.00    -0.625 OA 
BRANCH  11  12
HETATM   12  C   UNL     1     -12.333  13.493  65.653  1.00  0.00    -0.476 C  
HETATM   13  O   UNL     1     -13.160  13.733  64.780  1.00  0.00    -0.651 OA 
BRANCH  12  14
HETATM   14  C   UNL     1     -11.475  14.587  66.204  1.00  0.00    -0.357 A  
HETATM   15  C   UNL     1     -11.262  14.551  67.599  1.00  0.00    -0.335 A  
HETATM   16  C   UNL     1     -10.494  15.521  68.249  1.00  0.00    -0.242 A  
HETATM   17  C   UNL     1      -9.922  16.552  67.515  1.00  0.00    -0.255 A  
HETATM   18  C   UNL     1     -10.113  16.606  66.136  1.00  0.00    -0.361 A  
HETATM   19  C   UNL     1     -10.880  15.625  65.479  1.00  0.00    -0.346 A  
HETATM   20  O   UNL     1     -11.021  15.720  64.124  1.00  0.00    -0.811 OA 
HETATM   21  H   UNL     1     -10.617  16.425  63.632  1.00  0.00     0.000 HD 
ENDBRANCH  12  14
ENDBRANCH  11  12
ENDBRANCH  10  11
TORSDOF 3
ENDMDL
MODEL       15
REMARK 921   NORMALIZED FREE ENERGY PREDICTED BY IDOCK:   -6.19 KCAL/MOL
REMARK 922        TOTAL FREE ENERGY PREDICTED BY IDOCK:   -8.21 KCAL/MOL
REMARK 923 INTER-LIGAND FREE ENERGY PREDICTED BY IDOCK:   -7.47 KCAL/MOL
REMARK 924 INTRA-LIGAND FREE ENERGY PREDICTED BY IDOCK:   -0.74 KCAL/MOL
REMARK 927      BINDING AFFINITY PREDICTED BY RF-SCORE:    0.00 PKD
ROOT
HETATM    1  C   UNL     1      -9.474  15.225  68.803  1.00  0.00    -0.212 C  
HETATM    2  C   UNL     1      -9.064  14.036  67.934  1.00  0.00    -0.188 C  
HETATM    3  C   UNL     1     -10.137  13.628  66.878  1.00  0.00    -0.260 C  
HETATM    4  C   UNL     1      -7.662  14.278  67.368  1.00  0.00    -0.194 C  
HETATM    5  C   UNL     1      -9.682  12.348  66.132  1.00  0.00    -0.254 C  
HETATM    6  C   UNL     1     -10.760  11.785  65.214  1.00  0.00    -0.338 C  
HETATM    7  C   UNL     1     -11.266  12.836  64.221  1.00  0.00    -0.409 C  
HETATM    8  C   UNL     1     -12.398  12.259  63.372  1.00  0.00    -0.624 C  
HETATM    9  C   UNL     1     -11.703  14.107  64.959  1.00  0.00    -0.376 C  
HETATM   10  C   UNL     1     -10.560  14.688  65.824  1.00  0.00    -0.320 C  
ENDROOT
BRANCH  10  11
HETATM   11  O   UNL     1     -11.025  15.918  66.431  1.00  0.00    -0.247 OA 
BRANCH  11  12
HETATM   12  C   UNL     1     -10.734  17.048  65.726  1.00  0.00    -0.142 C  
HETATM   13  O   UNL     1     -11.058  17.224  64.556  1.00  0.00    -1.082 OA 
BRANCH  12  14
HETATM   14  C   UNL     1      -9.956  18.093  66.461  1.00  0.00    -0.374 A  
HETATM   15  C   UNL     1     -10.724  19.007  67.214  1.00  0.00    -0.556 A  
HETATM   16  C   UNL     1     -10.128  20.045  67.936  1.00  0.00    -0.559 A  
HETATM   17  C   UNL     1      -8.748  20.192  67.919  1.00  0.00    -0.274 A  
HETATM   18  C   UNL     1      -7.967  19.299  67.187  1.00  0.00    -0.287 A  
HETATM   19  C   UNL     1      -8.565  18.248  66.466  1.00  0.00    -0.266 A  
HETATM   20  O   UNL     1      -7.751  17.394  65.779  1.00  0.00    -0.508 OA 
HETATM   21  H   UNL     1      -6.807  17.499  65.783  1.00  0.00     0.000 HD 
ENDBRANCH  12  14
ENDBRANCH  11  12
ENDBRANCH  10  11
TORSDOF 3
ENDMDL
MODEL       16
REMARK 921   NORMALIZED FREE ENERGY PREDICTED BY IDOCK:   -6.14 KCAL/MOL
REMARK 922        TOTAL FREE ENERGY PREDICTED BY IDOCK:   -8.16 KCAL/MOL
REMARK 923 INTER-LIGAND FREE ENERGY PREDICTED BY IDOCK:   -7.50 KCAL/MOL
REMARK 924 INTRA-LIGAND FREE ENERGY PREDICTED BY IDOCK:   -0.66 KCAL/MOL
REMARK 927      BINDING AFFINITY PREDICTED BY RF-SCORE:    0.00 PKD
ROOT
HETATM    1  C   UNL     1     -12.495  14.118  66.060  1.00  0.00    -0.454 C  
HETATM    2  C   UNL     1     -11.080  14.583  65.713  1.00  0.00    -0.324 C  
HETATM    3  C   UNL     1     -10.633  15.865  66.481  1.00  0.00    -0.297 C  
HETATM    4  C   UNL     1     -10.114  13.400  65.816  1.00  0.00    -0.297 C  
HETATM    5  C   UNL     1      -9.241  16.323  65.976  1.00  0.00    -0.351 C  
HETATM    6  C   UNL     1      -8.819  17.671  66.549  1.00  0.00    -0.287 C  
HETATM    7  C   UNL     1      -8.865  17.676  68.080  1.00  0.00    -0.257 C  
HETATM    8  C   UNL     1      -8.513  19.063  68.614  1.00  0.00    -0.394 C  
HETATM    9  C   UNL     1     -10.238  17.209  68.579  1.00  0.00    -0.346 C  
HETATM   10  C   UNL     1     -10.599  15.808  68.033  1.00  0.00    -0.279 C  
ENDROOT
BRANCH  10  11
HETATM   11  O   UNL     1     -11.870  15.409  68.601  1.00  0.00    -0.346 OA 
BRANCH  11  12
HETATM   12  C   UNL     1     -11.801  14.370  69.481  1.00  0.00    -0.329 C  
HETATM   13  O   UNL     1     -11.500  13.225  69.161  1.00  0.00    -0.271 OA 
BRANCH  12  14
HETATM   14  C   UNL     1     -12.141  14.695  70.901  1.00  0.00    -0.393 A  
HETATM   15  C   UNL     1     -11.776  15.988  71.335  1.00  0.00    -0.536 A  
HETATM   16  C   UNL     1     -12.018  16.418  72.643  1.00  0.00    -0.595 A  
HETATM   17  C   UNL     1     -12.631  15.561  73.547  1.00  0.00    -0.672 A  
HETATM   18  C   UNL     1     -13.007  14.281  73.141  1.00  0.00    -0.426 A  
HETATM   19  C   UNL     1     -12.770  13.850  71.822  1.00  0.00    -0.304 A  
HETATM   20  O   UNL     1     -13.173  12.592  71.474  1.00  0.00    -0.345 OA 
HETATM   21  H   UNL     1     -13.600  12.018  72.100  1.00  0.00     0.000 HD 
ENDBRANCH  12  14
ENDBRANCH  11  12
ENDBRANCH  10  11
TORSDOF 3
ENDMDL
MODEL       17
REMARK 921   NORMALIZED FREE ENERGY PREDICTED BY IDOCK:   -6.14 KCAL/MOL
REMARK 922        TOTAL FREE ENERGY PREDICTED BY IDOCK:   -8.16 KCAL/MOL
REMARK 923 INTER-LIGAND FREE ENERGY PREDICTED BY IDOCK:   -7.50 KCAL/MOL
REMARK 924 INTRA-LIGAND FREE ENERGY PREDICTED BY IDOCK:   -0.66 KCAL/MOL
REMARK 927      BINDING AFFINITY PREDICTED BY RF-SCORE:    0.00 PKD
ROOT
HETATM    1  C   UNL     1     -12.391  13.861  66.441  1.00  0.00    -0.468 C  
HETATM    2  C   UNL     1     -10.977  14.354  66.128  1.00  0.00    -0.320 C  
HETATM    3  C   UNL     1     -10.647  15.749  66.742  1.00  0.00    -0.309 C  
HETATM    4  C   UNL     1      -9.969  13.249  66.456  1.00  0.00    -0.280 C  
HETATM    5  C   UNL     1      -9.244  16.211  66.273  1.00  0.00    -0.366 C  
HETATM    6  C   UNL     1      -8.926  17.644  66.683  1.00  0.00    -0.283 C  
HETATM    7  C   UNL     1      -9.085  17.851  68.192  1.00  0.00    -0.278 C  
HETATM    8  C   UNL     1      -8.836  19.315  68.554  1.00  0.00    -0.411 C  
HETATM    9  C   UNL     1     -10.468  17.380  68.658  1.00  0.00    -0.355 C  
HETATM   10  C   UNL     1     -10.724  15.901  68.286  1.00  0.00    -0.291 C  
ENDROOT
BRANCH  10  11
HETATM   11  O   UNL     1     -12.013  15.512  68.817  1.00  0.00    -0.336 OA 
BRANCH  11  12
HETATM   12  C   UNL     1     -12.032  15.286  70.162  1.00  0.00    -0.338 C  
HETATM   13  O   UNL     1     -11.804  16.151  71.002  1.00  0.00    -0.408 OA 
BRANCH  12  14
HETATM   14  C   UNL     1     -12.332  13.883  70.583  1.00  0.00    -0.451 A  
HETATM   15  C   UNL     1     -11.795  12.870  69.759  1.00  0.00    -0.380 A  
HETATM   16  C   UNL     1     -12.012  11.515  70.026  1.00  0.00    -0.435 A  
HETATM   17  C   UNL     1     -12.774  11.144  71.125  1.00  0.00    -0.510 A  
HETATM   18  C   UNL     1     -13.311  12.124  71.958  1.00  0.00    -0.470 A  
HETATM   19  C   UNL     1     -13.087  13.489  71.694  1.00  0.00    -0.374 A  
HETATM   20  O   UNL     1     -13.624  14.407  72.552  1.00  0.00    -0.435 OA 
HETATM   21  H   UNL     1     -14.136  14.139  73.306  1.00  0.00     0.000 HD 
ENDBRANCH  12  14
ENDBRANCH  11  12
ENDBRANCH  10  11
TORSDOF 3
ENDMDL
MODEL       18
REMARK 921   NORMALIZED FREE ENERGY PREDICTED BY IDOCK:   -6.13 KCAL/MOL
REMARK 922        TOTAL FREE ENERGY PREDICTED BY IDOCK:   -8.15 KCAL/MOL
REMARK 923 INTER-LIGAND FREE ENERGY PREDICTED BY IDOCK:   -7.29 KCAL/MOL
REMARK 924 INTRA-LIGAND FREE ENERGY PREDICTED BY IDOCK:   -0.86 KCAL/MOL
REMARK 927      BINDING AFFINITY PREDICTED BY RF-SCORE:    0.00 PKD
ROOT
HETATM    1  C   UNL     1      -9.678  14.328  66.321  1.00  0.00    -0.321 C  
HETATM    2  C   UNL     1     -10.913  13.916  67.123  1.00  0.00    -0.298 C  
HETATM    3  C   UNL     1     -10.937  14.482  68.576  1.00  0.00    -0.261 C  
HETATM    4  C   UNL     1     -12.172  14.198  66.299  1.00  0.00    -0.474 C  
HETATM    5  C   UNL     1     -12.160  13.915  69.341  1.00  0.00    -0.384 C  
HETATM    6  C   UNL     1     -12.151  14.278  70.821  1.00  0.00    -0.418 C  
HETATM    7  C   UNL     1     -12.037  15.790  71.034  1.00  0.00    -0.464 C  
HETATM    8  C   UNL     1     -11.951  16.109  72.526  1.00  0.00    -0.660 C  
HETATM    9  C   UNL     1     -10.835  16.353  70.266  1.00  0.00    -0.218 C  
HETATM   10  C   UNL     1     -10.917  16.025  68.756  1.00  0.00    -0.320 C  
ENDROOT
BRANCH  10  11
HETATM   11  O   UNL     1      -9.790  16.645  68.092  1.00  0.00    -0.239 OA 
BRANCH  11  12
HETATM   12  C   UNL     1      -9.990  17.941  67.717  1.00  0.00    -0.331 C  
HETATM   13  O   UNL     1     -11.062  18.374  67.308  1.00  0.00    -0.240 OA 
BRANCH  12  14
HETATM   14  C   UNL     1      -8.797  18.838  67.811  1.00  0.00    -0.313 A  
HETATM   15  C   UNL     1      -7.830  18.470  68.771  1.00  0.00    -0.301 A  
HETATM   16  C   UNL     1      -6.674  19.228  68.976  1.00  0.00    -0.351 A  
HETATM   17  C   UNL     1      -6.461  20.376  68.224  1.00  0.00    -0.344 A  
HETATM   18  C   UNL     1      -7.398  20.758  67.266  1.00  0.00    -0.397 A  
HETATM   19  C   UNL     1      -8.559  19.991  67.053  1.00  0.00    -0.334 A  
HETATM   20  O   UNL     1      -9.436  20.404  66.091  1.00  0.00    -0.627 OA 
HETATM   21  H   UNL     1      -9.274  21.186  65.577  1.00  0.00     0.000 HD 
ENDBRANCH  12  14
ENDBRANCH  11  12
ENDBRANCH  10  11
TORSDOF 3
ENDMDL
MODEL       19
REMARK 921   NORMALIZED FREE ENERGY PREDICTED BY IDOCK:   -6.07 KCAL/MOL
REMARK 922        TOTAL FREE ENERGY PREDICTED BY IDOCK:   -8.08 KCAL/MOL
REMARK 923 INTER-LIGAND FREE ENERGY PREDICTED BY IDOCK:   -7.46 KCAL/MOL
REMARK 924 INTRA-LIGAND FREE ENERGY PREDICTED BY IDOCK:   -0.62 KCAL/MOL
REMARK 927      BINDING AFFINITY PREDICTED BY RF-SCORE:    0.00 PKD
ROOT
HETATM    1  C   UNL     1     -10.779   9.745  69.310  1.00  0.00    -0.246 C  
HETATM    2  C   UNL     1     -10.060   9.796  67.961  1.00  0.00    -0.204 C  
HETATM    3  C   UNL     1     -10.832  10.596  66.866  1.00  0.00    -0.267 C  
HETATM    4  C   UNL     1      -8.608  10.230  68.173  1.00  0.00    -0.119 C  
HETATM    5  C   UNL     1     -10.085  10.490  65.513  1.00  0.00    -0.349 C  
HETATM    6  C   UNL     1     -10.872  11.093  64.355  1.00  0.00    -0.340 C  
HETATM    7  C   UNL     1     -11.274  12.544  64.637  1.00  0.00    -0.353 C  
HETATM    8  C   UNL     1     -12.127  13.089  63.492  1.00  0.00    -0.617 C  
HETATM    9  C   UNL     1     -11.999  12.651  65.984  1.00  0.00    -0.478 C  
HETATM   10  C   UNL     1     -11.140  12.094  67.143  1.00  0.00    -0.291 C  
ENDROOT
BRANCH  10  11
HETATM   11  O   UNL     1     -11.860  12.292  68.382  1.00  0.00    -0.317 OA 
BRANCH  11  12
HETATM   12  C   UNL     1     -11.456  13.371  69.112  1.00  0.00    -0.300 C  
HETATM   13  O   UNL     1     -10.447  14.022  68.863  1.00  0.00    -0.236 OA 
BRANCH  12  14
HETATM   14  C   UNL     1     -12.316  13.725  70.283  1.00  0.00    -0.407 A  
HETATM   15  C   UNL     1     -12.588  15.101  70.445  1.00  0.00    -0.405 A  
HETATM   16  C   UNL     1     -13.365  15.575  71.506  1.00  0.00    -0.593 A  
HETATM   17  C   UNL     1     -13.884  14.681  72.432  1.00  0.00    -0.580 A  
HETATM   18  C   UNL     1     -13.634  13.317  72.291  1.00  0.00    -0.703 A  
HETATM   19  C   UNL     1     -12.859  12.837  71.218  1.00  0.00    -0.262 A  
HETATM   20  O   UNL     1     -12.658  11.490  71.121  1.00  0.00    -0.389 OA 
HETATM   21  H   UNL     1     -13.028  10.887  71.756  1.00  0.00     0.000 HD 
ENDBRANCH  12  14
ENDBRANCH  11  12
ENDBRANCH  10  11
TORSDOF 3
ENDMDL
MODEL       20
REMARK 921   NORMALIZED FREE ENERGY PREDICTED BY IDOCK:   -6.06 KCAL/MOL
REMARK 922        TOTAL FREE ENERGY PREDICTED BY IDOCK:   -8.07 KCAL/MOL
REMARK 923 INTER-LIGAND FREE ENERGY PREDICTED BY IDOCK:   -7.44 KCAL/MOL
REMARK 924 INTRA-LIGAND FREE ENERGY PREDICTED BY IDOCK:   -0.62 KCAL/MOL
REMARK 927      BINDING AFFINITY PREDICTED BY RF-SCORE:    0.00 PKD
ROOT
HETATM    1  C   UNL     1     -10.222   8.486  66.765  1.00  0.00    -0.370 C  
HETATM    2  C   UNL     1      -9.648   9.417  65.696  1.00  0.00    -0.345 C  
HETATM    3  C   UNL     1     -10.576  10.623  65.349  1.00  0.00    -0.185 C  
HETATM    4  C   UNL     1      -8.212   9.795  66.067  1.00  0.00    -0.117 C  
HETATM    5  C   UNL     1      -9.965  11.436  64.179  1.00  0.00    -0.335 C  
HETATM    6  C   UNL     1     -10.902  12.521  63.662  1.00  0.00    -0.486 C  
HETATM    7  C   UNL     1     -11.363  13.455  64.785  1.00  0.00    -0.356 C  
HETATM    8  C   UNL     1     -12.361  14.479  64.245  1.00  0.00    -0.396 C  
HETATM    9  C   UNL     1     -11.954  12.649  65.948  1.00  0.00    -0.497 C  
HETATM   10  C   UNL     1     -10.948  11.607  66.491  1.00  0.00    -0.299 C  
ENDROOT
BRANCH  10  11
HETATM   11  O   UNL     1     -11.550  10.938  67.625  1.00  0.00    -0.531 OA 
BRANCH  11  12
HETATM   12  C   UNL     1     -10.926  11.161  68.817  1.00  0.00    -0.219 C  
HETATM   13  O   UNL     1      -9.713  11.066  68.980  1.00  0.00    -0.196 OA 
BRANCH  12  14
HETATM   14  C   UNL     1     -11.817  11.517  69.963  1.00  0.00    -0.435 A  
HETATM   15  C   UNL     1     -11.988  12.900  70.196  1.00  0.00    -0.373 A  
HETATM   16  C   UNL     1     -12.781  13.374  71.244  1.00  0.00    -0.424 A  
HETATM   17  C   UNL     1     -13.420  12.474  72.086  1.00  0.00    -0.523 A  
HETATM   18  C   UNL     1     -13.272  11.105  71.874  1.00  0.00    -0.488 A  
HETATM   19  C   UNL     1     -12.480  10.625  70.814  1.00  0.00    -0.385 A  
HETATM   20  O   UNL     1     -12.383   9.274  70.643  1.00  0.00    -0.482 OA 
HETATM   21  H   UNL     1     -12.833   8.668  71.221  1.00  0.00     0.000 HD 
ENDBRANCH  12  14
ENDBRANCH  11  12
ENDBRANCH  10  11
TORSDOF 3
ENDMDL
MODEL       21
REMARK 921   NORMALIZED FREE ENERGY PREDICTED BY IDOCK:   -6.04 KCAL/MOL
REMARK 922        TOTAL FREE ENERGY PREDICTED BY IDOCK:   -8.04 KCAL/MOL
REMARK 923 INTER-LIGAND FREE ENERGY PREDICTED BY IDOCK:   -7.34 KCAL/MOL
REMARK 924 INTRA-LIGAND FREE ENERGY PREDICTED BY IDOCK:   -0.70 KCAL/MOL
REMARK 927      BINDING AFFINITY PREDICTED BY RF-SCORE:    0.00 PKD
ROOT
HETATM    1  C   UNL     1     -10.527   8.644  67.256  1.00  0.00    -0.360 C  
HETATM    2  C   UNL     1      -9.798   9.550  66.263  1.00  0.00    -0.334 C  
HETATM    3  C   UNL     1     -10.660  10.746  65.753  1.00  0.00    -0.204 C  
HETATM    4  C   UNL     1      -8.431   9.936  66.833  1.00  0.00    -0.125 C  
HETATM    5  C   UNL     1      -9.880  11.531  64.668  1.00  0.00    -0.283 C  
HETATM    6  C   UNL     1     -10.726  12.604  63.992  1.00  0.00    -0.457 C  
HETATM    7  C   UNL     1     -11.345  13.564  65.012  1.00  0.00    -0.334 C  
HETATM    8  C   UNL     1     -12.248  14.575  64.306  1.00  0.00    -0.441 C  
HETATM    9  C   UNL     1     -12.104  12.786  66.094  1.00  0.00    -0.429 C  
HETATM   10  C   UNL     1     -11.193  11.758  66.805  1.00  0.00    -0.328 C  
ENDROOT
BRANCH  10  11
HETATM   11  O   UNL     1     -11.959  11.116  67.852  1.00  0.00    -0.624 OA 
BRANCH  11  12
HETATM   12  C   UNL     1     -11.702  11.575  69.110  1.00  0.00    -0.329 C  
HETATM   13  O   UNL     1     -11.404  12.738  69.364  1.00  0.00    -0.250 OA 
BRANCH  12  14
HETATM   14  C   UNL     1     -11.780  10.558  70.204  1.00  0.00    -0.410 A  
HETATM   15  C   UNL     1     -13.070  10.325  70.729  1.00  0.00    -0.360 A  
HETATM   16  C   UNL     1     -13.286   9.413  71.766  1.00  0.00    -0.489 A  
HETATM   17  C   UNL     1     -12.214   8.715  72.303  1.00  0.00    -0.447 A  
HETATM   18  C   UNL     1     -10.931   8.923  71.799  1.00  0.00    -0.431 A  
HETATM   19  C   UNL     1     -10.713   9.835  70.749  1.00  0.00    -0.323 A  
HETATM   20  O   UNL     1      -9.438   9.988  70.284  1.00  0.00    -0.380 OA 
HETATM   21  H   UNL     1      -8.714   9.496  70.654  1.00  0.00     0.000 HD 
ENDBRANCH  12  14
ENDBRANCH  11  12
ENDBRANCH  10  11
TORSDOF 3
ENDMDL
MODEL       22
REMARK 921   NORMALIZED FREE ENERGY PREDICTED BY IDOCK:   -6.03 KCAL/MOL
REMARK 922        TOTAL FREE ENERGY PREDICTED BY IDOCK:   -8.03 KCAL/MOL
REMARK 923 INTER-LIGAND FREE ENERGY PREDICTED BY IDOCK:   -7.62 KCAL/MOL
REMARK 924 INTRA-LIGAND FREE ENERGY PREDICTED BY IDOCK:   -0.42 KCAL/MOL
REMARK 927      BINDING AFFINITY PREDICTED BY RF-SCORE:    0.00 PKD
ROOT
HETATM    1  C   UNL     1     -11.192  14.900  67.123  1.00  0.00    -0.345 C  
HETATM    2  C   UNL     1     -11.311  13.897  65.975  1.00  0.00    -0.324 C  
HETATM    3  C   UNL     1     -10.642  12.519  66.272  1.00  0.00    -0.273 C  
HETATM    4  C   UNL     1     -12.768  13.821  65.514  1.00  0.00    -0.530 C  
HETATM    5  C   UNL     1     -10.711  11.619  65.012  1.00  0.00    -0.351 C  
HETATM    6  C   UNL     1      -9.918  10.326  65.166  1.00  0.00    -0.395 C  
HETATM    7  C   UNL     1     -10.345   9.544  66.412  1.00  0.00    -0.243 C  
HETATM    8  C   UNL     1      -9.476   8.298  66.576  1.00  0.00    -0.284 C  
HETATM    9  C   UNL     1     -10.290  10.439  67.655  1.00  0.00    -0.260 C  
HETATM   10  C   UNL     1     -11.163  11.705  67.488  1.00  0.00    -0.293 C  
ENDROOT
BRANCH  10  11
HETATM   11  O   UNL     1     -11.115  12.461  68.722  1.00  0.00    -0.237 OA 
BRANCH  11  12
HETATM   12  C   UNL     1     -11.957  12.016  69.697  1.00  0.00    -0.293 C  
HETATM   13  O   UNL     1     -12.278  10.840  69.837  1.00  0.00    -0.318 OA 
BRANCH  12  14
HETATM   14  C   UNL     1     -12.511  13.064  70.609  1.00  0.00    -0.347 A  
HETATM   15  C   UNL     1     -12.269  14.400  70.220  1.00  0.00    -0.397 A  
HETATM   16  C   UNL     1     -12.716  15.479  70.988  1.00  0.00    -0.526 A  
HETATM   17  C   UNL     1     -13.413  15.245  72.165  1.00  0.00    -0.546 A  
HETATM   18  C   UNL     1     -13.670  13.935  72.568  1.00  0.00    -0.665 A  
HETATM   19  C   UNL     1     -13.228  12.847  71.791  1.00  0.00    -0.384 A  
HETATM   20  O   UNL     1     -13.520  11.586  72.225  1.00  0.00    -0.602 OA 
HETATM   21  H   UNL     1     -14.007  11.439  73.028  1.00  0.00     0.000 HD 
ENDBRANCH  12  14
ENDBRANCH  11  12
ENDBRANCH  10  11
TORSDOF 3
ENDMDL
MODEL       23
REMARK 921   NORMALIZED FREE ENERGY PREDICTED BY IDOCK:   -6.02 KCAL/MOL
REMARK 922        TOTAL FREE ENERGY PREDICTED BY IDOCK:   -8.02 KCAL/MOL
REMARK 923 INTER-LIGAND FREE ENERGY PREDICTED BY IDOCK:   -6.96 KCAL/MOL
REMARK 924 INTRA-LIGAND FREE ENERGY PREDICTED BY IDOCK:   -1.06 KCAL/MOL
REMARK 927      BINDING AFFINITY PREDICTED BY RF-SCORE:    0.00 PKD
ROOT
HETATM    1  C   UNL     1      -8.729  10.644  67.680  1.00  0.00    -0.121 C  
HETATM    2  C   UNL     1      -9.870   9.966  68.439  1.00  0.00    -0.166 C  
HETATM    3  C   UNL     1     -10.606  10.908  69.441  1.00  0.00    -0.233 C  
HETATM    4  C   UNL     1     -10.782   9.240  67.447  1.00  0.00    -0.263 C  
HETATM    5  C   UNL     1     -11.660  10.102  70.243  1.00  0.00    -0.379 C  
HETATM    6  C   UNL     1     -12.292  10.913  71.368  1.00  0.00    -0.403 C  
HETATM    7  C   UNL     1     -12.893  12.225  70.853  1.00  0.00    -0.179 C  
HETATM    8  C   UNL     1     -13.446  13.045  72.018  1.00  0.00    -0.584 C  
HETATM    9  C   UNL     1     -11.855  13.014  70.048  1.00  0.00    -0.355 C  
HETATM   10  C   UNL     1     -11.289  12.183  68.873  1.00  0.00    -0.283 C  
ENDROOT
BRANCH  10  11
HETATM   11  O   UNL     1     -10.372  13.015  68.123  1.00  0.00    -0.227 OA 
BRANCH  11  12
HETATM   12  C   UNL     1     -10.962  13.829  67.203  1.00  0.00    -0.290 C  
HETATM   13  O   UNL     1     -11.192  15.019  67.394  1.00  0.00    -0.319 OA 
BRANCH  12  14
HETATM   14  C   UNL     1     -11.350  13.182  65.912  1.00  0.00    -0.338 A  
HETATM   15  C   UNL     1     -10.392  12.303  65.358  1.00  0.00    -0.298 A  
HETATM   16  C   UNL     1     -10.617  11.643  64.147  1.00  0.00    -0.411 A  
HETATM   17  C   UNL     1     -11.806  11.849  63.461  1.00  0.00    -0.560 A  
HETATM   18  C   UNL     1     -12.769  12.707  63.989  1.00  0.00    -0.363 A  
HETATM   19  C   UNL     1     -12.548  13.366  65.213  1.00  0.00    -0.464 A  
HETATM   20  O   UNL     1     -13.532  14.183  65.691  1.00  0.00    -0.725 OA 
HETATM   21  H   UNL     1     -14.346  14.309  65.216  1.00  0.00     0.000 HD 
ENDBRANCH  12  14
ENDBRANCH  11  12
ENDBRANCH  10  11
TORSDOF 3
ENDMDL
MODEL       24
REMARK 921   NORMALIZED FREE ENERGY PREDICTED BY IDOCK:   -6.00 KCAL/MOL
REMARK 922        TOTAL FREE ENERGY PREDICTED BY IDOCK:   -8.00 KCAL/MOL
REMARK 923 INTER-LIGAND FREE ENERGY PREDICTED BY IDOCK:   -6.83 KCAL/MOL
REMARK 924 INTRA-LIGAND FREE ENERGY PREDICTED BY IDOCK:   -1.17 KCAL/MOL
REMARK 927      BINDING AFFINITY PREDICTED BY RF-SCORE:    0.00 PKD
ROOT
HETATM    1  C   UNL     1      -9.030  11.539  67.669  1.00  0.00    -0.160 C  
HETATM    2  C   UNL     1     -10.255  11.214  68.525  1.00  0.00    -0.209 C  
HETATM    3  C   UNL     1     -10.818  12.440  69.308  1.00  0.00    -0.073 C  
HETATM    4  C   UNL     1     -11.285  10.463  67.676  1.00  0.00    -0.287 C  
HETATM    5  C   UNL     1     -11.977  11.987  70.232  1.00  0.00    -0.398 C  
HETATM    6  C   UNL     1     -12.457  13.093  71.164  1.00  0.00    -0.378 C  
HETATM    7  C   UNL     1     -12.846  14.357  70.391  1.00  0.00    -0.301 C  
HETATM    8  C   UNL     1     -13.245  15.468  71.362  1.00  0.00    -0.587 C  
HETATM    9  C   UNL     1     -11.704  14.797  69.467  1.00  0.00    -0.358 C  
HETATM   10  C   UNL     1     -11.294  13.671  68.489  1.00  0.00    -0.290 C  
ENDROOT
BRANCH  10  11
HETATM   11  O   UNL     1     -10.265  14.182  67.609  1.00  0.00    -0.237 OA 
BRANCH  11  12
HETATM   12  C   UNL     1     -10.723  14.692  66.430  1.00  0.00    -0.309 C  
HETATM   13  O   UNL     1     -10.794  15.893  66.189  1.00  0.00    -0.296 OA 
BRANCH  12  14
HETATM   14  C   UNL     1     -11.170  13.690  65.415  1.00  0.00    -0.306 A  
HETATM   15  C   UNL     1     -10.147  12.902  64.844  1.00  0.00    -0.229 A  
HETATM   16  C   UNL     1     -10.421  11.937  63.870  1.00  0.00    -0.441 A  
HETATM   17  C   UNL     1     -11.728  11.741  63.444  1.00  0.00    -0.423 A  
HETATM   18  C   UNL     1     -12.756  12.502  63.997  1.00  0.00    -0.416 A  
HETATM   19  C   UNL     1     -12.483  13.468  64.983  1.00  0.00    -0.417 A  
HETATM   20  O   UNL     1     -13.531  14.175  65.501  1.00  0.00    -0.710 OA 
HETATM   21  H   UNL     1     -14.422  14.024  65.208  1.00  0.00     0.000 HD 
ENDBRANCH  12  14
ENDBRANCH  11  12
ENDBRANCH  10  11
TORSDOF 3
ENDMDL
MODEL       25
REMARK 921   NORMALIZED FREE ENERGY PREDICTED BY IDOCK:   -5.99 KCAL/MOL
REMARK 922        TOTAL FREE ENERGY PREDICTED BY IDOCK:   -7.98 KCAL/MOL
REMARK 923 INTER-LIGAND FREE ENERGY PREDICTED BY IDOCK:   -7.09 KCAL/MOL
REMARK 924 INTRA-LIGAND FREE ENERGY PREDICTED BY IDOCK:   -0.89 KCAL/MOL
REMARK 927      BINDING AFFINITY PREDICTED BY RF-SCORE:    0.00 PKD
ROOT
HETATM    1  C   UNL     1     -11.981  14.166  64.433  1.00  0.00    -0.478 C  
HETATM    2  C   UNL     1     -11.640  12.895  63.655  1.00  0.00    -0.547 C  
HETATM    3  C   UNL     1     -10.376  12.151  64.187  1.00  0.00    -0.382 C  
HETATM    4  C   UNL     1     -12.893  12.026  63.524  1.00  0.00    -0.472 C  
HETATM    5  C   UNL     1     -10.046  10.949  63.265  1.00  0.00    -0.368 C  
HETATM    6  C   UNL     1      -8.721  10.283  63.616  1.00  0.00    -0.211 C  
HETATM    7  C   UNL     1      -8.669   9.863  65.088  1.00  0.00    -0.187 C  
HETATM    8  C   UNL     1      -7.299   9.272  65.421  1.00  0.00    -0.090 C  
HETATM    9  C   UNL     1      -9.010  11.048  65.999  1.00  0.00    -0.209 C  
HETATM   10  C   UNL     1     -10.393  11.652  65.659  1.00  0.00    -0.262 C  
ENDROOT
BRANCH  10  11
HETATM   11  O   UNL     1     -10.672  12.715  66.601  1.00  0.00    -0.249 OA 
BRANCH  11  12
HETATM   12  C   UNL     1     -11.545  12.382  67.594  1.00  0.00    -0.357 C  
HETATM   13  O   UNL     1     -12.157  11.320  67.637  1.00  0.00    -0.600 OA 
BRANCH  12  14
HETATM   14  C   UNL     1     -11.748  13.415  68.657  1.00  0.00    -0.384 A  
HETATM   15  C   UNL     1     -11.731  14.756  68.215  1.00  0.00    -0.340 A  
HETATM   16  C   UNL     1     -11.892  15.823  69.104  1.00  0.00    -0.367 A  
HETATM   17  C   UNL     1     -12.071  15.570  70.457  1.00  0.00    -0.423 A  
HETATM   18  C   UNL     1     -12.097  14.255  70.917  1.00  0.00    -0.417 A  
HETATM   19  C   UNL     1     -11.944  13.179  70.022  1.00  0.00    -0.321 A  
HETATM   20  O   UNL     1     -11.993  11.911  70.526  1.00  0.00    -0.423 OA 
HETATM   21  H   UNL     1     -12.126  11.751  71.453  1.00  0.00     0.000 HD 
ENDBRANCH  12  14
ENDBRANCH  11  12
ENDBRANCH  10  11
TORSDOF 3
ENDMDL
MODEL       26
REMARK 921   NORMALIZED FREE ENERGY PREDICTED BY IDOCK:   -5.94 KCAL/MOL
REMARK 922        TOTAL FREE ENERGY PREDICTED BY IDOCK:   -7.92 KCAL/MOL
REMARK 923 INTER-LIGAND FREE ENERGY PREDICTED BY IDOCK:   -6.98 KCAL/MOL
REMARK 924 INTRA-LIGAND FREE ENERGY PREDICTED BY IDOCK:   -0.95 KCAL/MOL
REMARK 927      BINDING AFFINITY PREDICTED BY RF-SCORE:    0.00 PKD
ROOT
HETATM    1  C   UNL     1     -10.718  19.673  67.283  1.00  0.00    -0.583 C  
HETATM    2  C   UNL     1      -9.208  19.582  67.509  1.00  0.00    -0.391 C  
HETATM    3  C   UNL     1      -8.752  18.253  68.186  1.00  0.00    -0.293 C  
HETATM    4  C   UNL     1      -8.477  19.928  66.209  1.00  0.00    -0.373 C  
HETATM    5  C   UNL     1      -7.231  18.308  68.479  1.00  0.00    -0.293 C  
HETATM    6  C   UNL     1      -6.745  17.122  69.304  1.00  0.00    -0.228 C  
HETATM    7  C   UNL     1      -7.122  15.787  68.655  1.00  0.00    -0.129 C  
HETATM    8  C   UNL     1      -6.690  14.624  69.548  1.00  0.00    -0.158 C  
HETATM    9  C   UNL     1      -8.624  15.739  68.352  1.00  0.00    -0.171 C  
HETATM   10  C   UNL     1      -9.064  16.919  67.454  1.00  0.00    -0.217 C  
ENDROOT
BRANCH  10  11
HETATM   11  O   UNL     1     -10.473  16.768  67.157  1.00  0.00    -0.317 OA 
BRANCH  11  12
HETATM   12  C   UNL     1     -10.746  16.321  65.898  1.00  0.00    -0.229 C  
HETATM   13  O   UNL     1     -10.827  17.054  64.918  1.00  0.00    -0.717 OA 
BRANCH  12  14
HETATM   14  C   UNL     1     -10.972  14.849  65.763  1.00  0.00    -0.345 A  
HETATM   15  C   UNL     1     -10.337  14.233  64.662  1.00  0.00    -0.256 A  
HETATM   16  C   UNL     1     -10.476  12.866  64.406  1.00  0.00    -0.419 A  
HETATM   17  C   UNL     1     -11.257  12.084  65.246  1.00  0.00    -0.374 A  
HETATM   18  C   UNL     1     -11.889  12.667  66.343  1.00  0.00    -0.466 A  
HETATM   19  C   UNL     1     -11.743  14.042  66.607  1.00  0.00    -0.399 A  
HETATM   20  O   UNL     1     -12.373  14.557  67.704  1.00  0.00    -0.617 OA 
HETATM   21  H   UNL     1     -12.896  14.009  68.277  1.00  0.00     0.000 HD 
ENDBRANCH  12  14
ENDBRANCH  11  12
ENDBRANCH  10  11
TORSDOF 3
ENDMDL
MODEL       27
REMARK 921   NORMALIZED FREE ENERGY PREDICTED BY IDOCK:   -5.87 KCAL/MOL
REMARK 922        TOTAL FREE ENERGY PREDICTED BY IDOCK:   -7.85 KCAL/MOL
REMARK 923 INTER-LIGAND FREE ENERGY PREDICTED BY IDOCK:   -6.98 KCAL/MOL
REMARK 924 INTRA-LIGAND FREE ENERGY PREDICTED BY IDOCK:   -0.86 KCAL/MOL
REMARK 927      BINDING AFFINITY PREDICTED BY RF-SCORE:    0.00 PKD
ROOT
HETATM    1  C   UNL     1     -12.145  13.011  65.826  1.00  0.00    -0.510 C  
HETATM    2  C   UNL     1     -11.114  12.202  66.614  1.00  0.00    -0.353 C  
HETATM    3  C   UNL     1      -9.714  12.884  66.703  1.00  0.00    -0.254 C  
HETATM    4  C   UNL     1     -11.714  11.784  67.959  1.00  0.00    -0.363 C  
HETATM    5  C   UNL     1      -8.713  11.939  67.414  1.00  0.00    -0.166 C  
HETATM    6  C   UNL     1      -7.281  12.459  67.376  1.00  0.00    -0.148 C  
HETATM    7  C   UNL     1      -7.177  13.878  67.943  1.00  0.00    -0.162 C  
HETATM    8  C   UNL     1      -5.744  14.394  67.816  1.00  0.00    -0.072 C  
HETATM    9  C   UNL     1      -8.178  14.809  67.249  1.00  0.00    -0.237 C  
HETATM   10  C   UNL     1      -9.628  14.284  67.371  1.00  0.00    -0.214 C  
ENDROOT
BRANCH  10  11
HETATM   11  O   UNL     1     -10.516  15.247  66.755  1.00  0.00    -0.281 OA 
BRANCH  11  12
HETATM   12  C   UNL     1     -11.008  16.194  67.604  1.00  0.00    -0.268 C  
HETATM   13  O   UNL     1     -11.724  15.941  68.567  1.00  0.00    -0.383 OA 
BRANCH  12  14
HETATM   14  C   UNL     1     -10.640  17.609  67.286  1.00  0.00    -0.297 A  
HETATM   15  C   UNL     1     -10.271  18.406  68.391  1.00  0.00    -0.407 A  
HETATM   16  C   UNL     1      -9.920  19.750  68.241  1.00  0.00    -0.557 A  
HETATM   17  C   UNL     1      -9.933  20.328  66.979  1.00  0.00    -0.601 A  
HETATM   18  C   UNL     1     -10.289  19.561  65.871  1.00  0.00    -0.562 A  
HETATM   19  C   UNL     1     -10.635  18.205  66.020  1.00  0.00    -0.264 A  
HETATM   20  O   UNL     1     -10.960  17.497  64.898  1.00  0.00    -0.887 OA 
HETATM   21  H   UNL     1     -10.956  17.902  64.039  1.00  0.00     0.000 HD 
ENDBRANCH  12  14
ENDBRANCH  11  12
ENDBRANCH  10  11
TORSDOF 3
ENDMDL
MODEL       28
REMARK 921   NORMALIZED FREE ENERGY PREDICTED BY IDOCK:   -5.87 KCAL/MOL
REMARK 922        TOTAL FREE ENERGY PREDICTED BY IDOCK:   -7.84 KCAL/MOL
REMARK 923 INTER-LIGAND FREE ENERGY PREDICTED BY IDOCK:   -6.98 KCAL/MOL
REMARK 924 INTRA-LIGAND FREE ENERGY PREDICTED BY IDOCK:   -0.86 KCAL/MOL
REMARK 927      BINDING AFFINITY PREDICTED BY RF-SCORE:    0.00 PKD
ROOT
HETATM    1  C   UNL     1     -10.939  16.048  66.506  1.00  0.00    -0.080 C  
HETATM    2  C   UNL     1     -10.490  16.431  67.917  1.00  0.00    -0.307 C  
HETATM    3  C   UNL     1     -11.415  15.877  69.044  1.00  0.00    -0.380 C  
HETATM    4  C   UNL     1      -9.003  16.106  68.084  1.00  0.00    -0.185 C  
HETATM    5  C   UNL     1     -10.947  16.416  70.420  1.00  0.00    -0.218 C  
HETATM    6  C   UNL     1     -11.909  16.066  71.549  1.00  0.00    -0.554 C  
HETATM    7  C   UNL     1     -12.175  14.560  71.622  1.00  0.00    -0.403 C  
HETATM    8  C   UNL     1     -13.203  14.256  72.712  1.00  0.00    -0.614 C  
HETATM    9  C   UNL     1     -12.624  14.025  70.257  1.00  0.00    -0.354 C  
HETATM   10  C   UNL     1     -11.589  14.337  69.151  1.00  0.00    -0.305 C  
ENDROOT
BRANCH  10  11
HETATM   11  O   UNL     1     -12.048  13.744  67.913  1.00  0.00    -0.365 OA 
BRANCH  11  12
HETATM   12  C   UNL     1     -11.344  12.649  67.509  1.00  0.00    -0.308 C  
HETATM   13  O   UNL     1     -10.780  11.879  68.280  1.00  0.00    -0.204 OA 
BRANCH  12  14
HETATM   14  C   UNL     1     -11.269  12.429  66.032  1.00  0.00    -0.374 A  
HETATM   15  C   UNL     1     -12.490  12.555  65.334  1.00  0.00    -0.311 A  
HETATM   16  C   UNL     1     -12.568  12.360  63.952  1.00  0.00    -0.528 A  
HETATM   17  C   UNL     1     -11.424  12.032  63.237  1.00  0.00    -0.398 A  
HETATM   18  C   UNL     1     -10.205  11.908  63.902  1.00  0.00    -0.420 A  
HETATM   19  C   UNL     1     -10.124  12.112  65.293  1.00  0.00    -0.265 A  
HETATM   20  O   UNL     1      -8.901  11.992  65.890  1.00  0.00    -0.403 OA 
HETATM   21  H   UNL     1      -8.124  11.776  65.389  1.00  0.00     0.000 HD 
ENDBRANCH  12  14
ENDBRANCH  11  12
ENDBRANCH  10  11
TORSDOF 3
ENDMDL
MODEL       29
REMARK 921   NORMALIZED FREE ENERGY PREDICTED BY IDOCK:   -5.82 KCAL/MOL
REMARK 922        TOTAL FREE ENERGY PREDICTED BY IDOCK:   -7.78 KCAL/MOL
REMARK 923 INTER-LIGAND FREE ENERGY PREDICTED BY IDOCK:   -7.45 KCAL/MOL
REMARK 924 INTRA-LIGAND FREE ENERGY PREDICTED BY IDOCK:   -0.33 KCAL/MOL
REMARK 927      BINDING AFFINITY PREDICTED BY RF-SCORE:    0.00 PKD
ROOT
HETATM    1  C   UNL     1      -9.649  18.419  68.511  1.00  0.00    -0.368 C  
HETATM    2  C   UNL     1      -9.849  17.993  67.056  1.00  0.00    -0.318 C  
HETATM    3  C   UNL     1     -10.289  16.505  66.892  1.00  0.00    -0.300 C  
HETATM    4  C   UNL     1     -10.743  19.012  66.345  1.00  0.00    -0.410 C  
HETATM    5  C   UNL     1     -10.351  16.138  65.387  1.00  0.00    -0.356 C  
HETATM    6  C   UNL     1     -10.596  14.652  65.152  1.00  0.00    -0.441 C  
HETATM    7  C   UNL     1     -11.852  14.162  65.877  1.00  0.00    -0.391 C  
HETATM    8  C   UNL     1     -12.021  12.656  65.683  1.00  0.00    -0.507 C  
HETATM    9  C   UNL     1     -11.798  14.539  67.363  1.00  0.00    -0.416 C  
HETATM   10  C   UNL     1     -11.620  16.062  67.561  1.00  0.00     0.162 C  
ENDROOT
BRANCH  10  11
HETATM   11  O   UNL     1     -11.647  16.345  68.980  1.00  0.00    -0.276 OA 
BRANCH  11  12
HETATM   12  C   UNL     1     -11.128  15.362  69.769  1.00  0.00    -0.288 C  
HETATM   13  O   UNL     1      -9.950  15.020  69.745  1.00  0.00    -0.165 OA 
BRANCH  12  14
HETATM   14  C   UNL     1     -12.096  14.679  70.682  1.00  0.00    -0.385 A  
HETATM   15  C   UNL     1     -12.874  15.532  71.494  1.00  0.00    -0.519 A  
HETATM   16  C   UNL     1     -13.807  15.028  72.405  1.00  0.00    -0.596 A  
HETATM   17  C   UNL     1     -13.978  13.656  72.526  1.00  0.00    -0.572 A  
HETATM   18  C   UNL     1     -13.226  12.793  71.732  1.00  0.00    -0.471 A  
HETATM   19  C   UNL     1     -12.293  13.299  70.808  1.00  0.00    -0.344 A  
HETATM   20  O   UNL     1     -11.594  12.408  70.045  1.00  0.00    -0.485 OA 
HETATM   21  H   UNL     1     -11.728  11.471  70.130  1.00  0.00     0.000 HD 
ENDBRANCH  12  14
ENDBRANCH  11  12
ENDBRANCH  10  11
TORSDOF 3
ENDMDL
MODEL       30
REMARK 921   NORMALIZED FREE ENERGY PREDICTED BY IDOCK:   -5.82 KCAL/MOL
REMARK 922        TOTAL FREE ENERGY PREDICTED BY IDOCK:   -7.78 KCAL/MOL
REMARK 923 INTER-LIGAND FREE ENERGY PREDICTED BY IDOCK:   -7.08 KCAL/MOL
REMARK 924 INTRA-LIGAND FREE ENERGY PREDICTED BY IDOCK:   -0.70 KCAL/MOL
REMARK 927      BINDING AFFINITY PREDICTED BY RF-SCORE:    0.00 PKD
ROOT
HETATM    1  C   UNL     1     -10.214   8.426  66.782  1.00  0.00    -0.376 C  
HETATM    2  C   UNL     1      -9.524   9.418  65.845  1.00  0.00    -0.315 C  
HETATM    3  C   UNL     1     -10.417  10.635  65.450  1.00  0.00    -0.254 C  
HETATM    4  C   UNL     1      -8.150   9.783  66.412  1.00  0.00    -0.116 C  
HETATM    5  C   UNL     1      -9.676  11.515  64.412  1.00  0.00    -0.229 C  
HETATM    6  C   UNL     1     -10.555  12.622  63.841  1.00  0.00    -0.460 C  
HETATM    7  C   UNL     1     -11.164  13.490  64.947  1.00  0.00    -0.353 C  
HETATM    8  C   UNL     1     -12.100  14.536  64.343  1.00  0.00    -0.492 C  
HETATM    9  C   UNL     1     -11.884  12.617  65.982  1.00  0.00    -0.492 C  
HETATM   10  C   UNL     1     -10.940  11.553  66.589  1.00  0.00    -0.296 C  
ENDROOT
BRANCH  10  11
HETATM   11  O   UNL     1     -11.670  10.819  67.601  1.00  0.00    -0.538 OA 
BRANCH  11  12
HETATM   12  C   UNL     1     -11.635  11.374  68.846  1.00  0.00    -0.323 C  
HETATM   13  O   UNL     1     -11.887  12.553  69.073  1.00  0.00    -0.299 OA 
BRANCH  12  14
HETATM   14  C   UNL     1     -11.243  10.456  69.959  1.00  0.00    -0.385 A  
HETATM   15  C   UNL     1      -9.885  10.070  69.982  1.00  0.00    -0.247 A  
HETATM   16  C   UNL     1      -9.386   9.203  70.958  1.00  0.00    -0.333 A  
HETATM   17  C   UNL     1     -10.237   8.699  71.932  1.00  0.00    -0.404 A  
HETATM   18  C   UNL     1     -11.581   9.069  71.934  1.00  0.00    -0.441 A  
HETATM   19  C   UNL     1     -12.083   9.949  70.957  1.00  0.00    -0.358 A  
HETATM   20  O   UNL     1     -13.405  10.289  71.016  1.00  0.00    -0.368 OA 
HETATM   21  H   UNL     1     -13.975   9.945  71.694  1.00  0.00     0.000 HD 
ENDBRANCH  12  14
ENDBRANCH  11  12
ENDBRANCH  10  11
TORSDOF 3
ENDMDL
MODEL       31
REMARK 921   NORMALIZED FREE ENERGY PREDICTED BY IDOCK:   -5.79 KCAL/MOL
REMARK 922        TOTAL FREE ENERGY PREDICTED BY IDOCK:   -7.74 KCAL/MOL
REMARK 923 INTER-LIGAND FREE ENERGY PREDICTED BY IDOCK:   -7.27 KCAL/MOL
REMARK 924 INTRA-LIGAND FREE ENERGY PREDICTED BY IDOCK:   -0.47 KCAL/MOL
REMARK 927      BINDING AFFINITY PREDICTED BY RF-SCORE:    0.00 PKD
ROOT
HETATM    1  C   UNL     1     -10.989  15.166  67.092  1.00  0.00    -0.326 C  
HETATM    2  C   UNL     1     -11.189  14.071  66.044  1.00  0.00    -0.310 C  
HETATM    3  C   UNL     1     -10.605  12.686  66.462  1.00  0.00    -0.272 C  
HETATM    4  C   UNL     1     -12.655  14.047  65.605  1.00  0.00    -0.542 C  
HETATM    5  C   UNL     1     -10.751  11.680  65.292  1.00  0.00    -0.346 C  
HETATM    6  C   UNL     1     -10.040  10.358  65.559  1.00  0.00    -0.352 C  
HETATM    7  C   UNL     1     -10.496   9.724  66.876  1.00  0.00    -0.281 C  
HETATM    8  C   UNL     1      -9.707   8.444  67.148  1.00  0.00    -0.250 C  
HETATM    9  C   UNL     1     -10.366  10.725  68.030  1.00  0.00    -0.211 C  
HETATM   10  C   UNL     1     -11.159  12.023  67.753  1.00  0.00    -0.249 C  
ENDROOT
BRANCH  10  11
HETATM   11  O   UNL     1     -11.044  12.885  68.911  1.00  0.00    -0.246 OA 
BRANCH  11  12
HETATM   12  C   UNL     1     -11.903  12.592  69.929  1.00  0.00    -0.303 C  
HETATM   13  O   UNL     1     -12.374  11.475  70.123  1.00  0.00    -0.288 OA 
BRANCH  12  14
HETATM   14  C   UNL     1     -12.276  13.735  70.817  1.00  0.00    -0.437 A  
HETATM   15  C   UNL     1     -13.527  13.622  71.464  1.00  0.00    -0.332 A  
HETATM   16  C   UNL     1     -14.008  14.625  72.310  1.00  0.00    -0.589 A  
HETATM   17  C   UNL     1     -13.248  15.767  72.526  1.00  0.00    -0.568 A  
HETATM   18  C   UNL     1     -12.008  15.900  71.904  1.00  0.00    -0.588 A  
HETATM   19  C   UNL     1     -11.519  14.887  71.058  1.00  0.00    -0.261 A  
HETATM   20  O   UNL     1     -10.290  15.063  70.486  1.00  0.00    -0.512 OA 
HETATM   21  H   UNL     1      -9.776  15.845  70.650  1.00  0.00     0.000 HD 
ENDBRANCH  12  14
ENDBRANCH  11  12
ENDBRANCH  10  11
TORSDOF 3
ENDMDL
MODEL       32
REMARK 921   NORMALIZED FREE ENERGY PREDICTED BY IDOCK:   -5.76 KCAL/MOL
REMARK 922        TOTAL FREE ENERGY PREDICTED BY IDOCK:   -7.71 KCAL/MOL
REMARK 923 INTER-LIGAND FREE ENERGY PREDICTED BY IDOCK:   -6.79 KCAL/MOL
REMARK 924 INTRA-LIGAND FREE ENERGY PREDICTED BY IDOCK:   -0.92 KCAL/MOL
REMARK 927      BINDING AFFINITY PREDICTED BY RF-SCORE:    0.00 PKD
ROOT
HETATM    1  C   UNL     1     -11.269   9.328  70.918  1.00  0.00    -0.372 C  
HETATM    2  C   UNL     1     -12.506   9.996  71.520  1.00  0.00    -0.516 C  
HETATM    3  C   UNL     1     -12.419  11.553  71.569  1.00  0.00    -0.266 C  
HETATM    4  C   UNL     1     -13.764   9.441  70.846  1.00  0.00     0.035 C  
HETATM    5  C   UNL     1     -13.660  12.126  72.300  1.00  0.00    -0.226 C  
HETATM    6  C   UNL     1     -13.558  13.626  72.549  1.00  0.00    -0.675 C  
HETATM    7  C   UNL     1     -13.290  14.399  71.254  1.00  0.00    -0.409 C  
HETATM    8  C   UNL     1     -13.115  15.887  71.553  1.00  0.00    -0.278 C  
HETATM    9  C   UNL     1     -12.071  13.822  70.524  1.00  0.00    -0.416 C  
HETATM   10  C   UNL     1     -12.243  12.314  70.227  1.00  0.00    -0.262 C  
ENDROOT
BRANCH  10  11
HETATM   11  O   UNL     1     -11.088  11.861  69.480  1.00  0.00    -0.201 OA 
BRANCH  11  12
HETATM   12  C   UNL     1     -11.316  11.644  68.153  1.00  0.00    -0.292 C  
HETATM   13  O   UNL     1     -11.799  10.609  67.705  1.00  0.00    -0.460 OA 
BRANCH  12  14
HETATM   14  C   UNL     1     -10.916  12.752  67.233  1.00  0.00    -0.294 A  
HETATM   15  C   UNL     1      -9.818  13.531  67.657  1.00  0.00    -0.228 A  
HETATM   16  C   UNL     1      -9.348  14.610  66.902  1.00  0.00    -0.258 A  
HETATM   17  C   UNL     1      -9.971  14.935  65.705  1.00  0.00    -0.389 A  
HETATM   18  C   UNL     1     -11.054  14.178  65.261  1.00  0.00    -0.331 A  
HETATM   19  C   UNL     1     -11.522  13.086  66.016  1.00  0.00    -0.335 A  
HETATM   20  O   UNL     1     -12.577  12.370  65.527  1.00  0.00    -0.616 OA 
HETATM   21  H   UNL     1     -12.989  12.596  64.701  1.00  0.00     0.000 HD 
ENDBRANCH  12  14
ENDBRANCH  11  12
ENDBRANCH  10  11
TORSDOF 3
ENDMDL
MODEL       33
REMARK 921   NORMALIZED FREE ENERGY PREDICTED BY IDOCK:   -5.74 KCAL/MOL
REMARK 922        TOTAL FREE ENERGY PREDICTED BY IDOCK:   -7.69 KCAL/MOL
REMARK 923 INTER-LIGAND FREE ENERGY PREDICTED BY IDOCK:   -6.96 KCAL/MOL
REMARK 924 INTRA-LIGAND FREE ENERGY PREDICTED BY IDOCK:   -0.73 KCAL/MOL
REMARK 927      BINDING AFFINITY PREDICTED BY RF-SCORE:    0.00 PKD
ROOT
HETATM    1  C   UNL     1      -7.723  11.116  68.019  1.00  0.00    -0.107 C  
HETATM    2  C   UNL     1      -8.444   9.918  68.638  1.00  0.00    -0.114 C  
HETATM    3  C   UNL     1      -9.596  10.312  69.613  1.00  0.00    -0.192 C  
HETATM    4  C   UNL     1      -8.842   8.937  67.532  1.00  0.00    -0.135 C  
HETATM    5  C   UNL     1     -10.183   9.039  70.275  1.00  0.00    -0.235 C  
HETATM    6  C   UNL     1     -11.188   9.356  71.376  1.00  0.00    -0.452 C  
HETATM    7  C   UNL     1     -12.311  10.269  70.873  1.00  0.00    -0.471 C  
HETATM    8  C   UNL     1     -13.253  10.628  72.021  1.00  0.00    -0.473 C  
HETATM    9  C   UNL     1     -11.730  11.521  70.205  1.00  0.00    -0.379 C  
HETATM   10  C   UNL     1     -10.770  11.158  69.048  1.00  0.00    -0.225 C  
ENDROOT
BRANCH  10  11
HETATM   11  O   UNL     1     -10.319  12.385  68.426  1.00  0.00    -0.221 OA 
BRANCH  11  12
HETATM   12  C   UNL     1     -11.275  13.054  67.721  1.00  0.00    -0.279 C  
HETATM   13  O   UNL     1     -11.995  13.923  68.204  1.00  0.00    -0.355 OA 
BRANCH  12  14
HETATM   14  C   UNL     1     -11.430  12.653  66.289  1.00  0.00    -0.415 A  
HETATM   15  C   UNL     1     -10.495  11.707  65.816  1.00  0.00    -0.308 A  
HETATM   16  C   UNL     1     -10.512  11.257  64.493  1.00  0.00    -0.396 A  
HETATM   17  C   UNL     1     -11.467  11.746  63.612  1.00  0.00    -0.524 A  
HETATM   18  C   UNL     1     -12.405  12.677  64.056  1.00  0.00    -0.528 A  
HETATM   19  C   UNL     1     -12.393  13.125  65.390  1.00  0.00    -0.481 A  
HETATM   20  O   UNL     1     -13.345  14.026  65.775  1.00  0.00    -0.675 OA 
HETATM   21  H   UNL     1     -13.999  14.346  65.164  1.00  0.00     0.000 HD 
ENDBRANCH  12  14
ENDBRANCH  11  12
ENDBRANCH  10  11
TORSDOF 3
ENDMDL
MODEL       34
REMARK 921   NORMALIZED FREE ENERGY PREDICTED BY IDOCK:   -5.71 KCAL/MOL
REMARK 922        TOTAL FREE ENERGY PREDICTED BY IDOCK:   -7.65 KCAL/MOL
REMARK 923 INTER-LIGAND FREE ENERGY PREDICTED BY IDOCK:   -7.75 KCAL/MOL
REMARK 924 INTRA-LIGAND FREE ENERGY PREDICTED BY IDOCK:    0.10 KCAL/MOL
REMARK 927      BINDING AFFINITY PREDICTED BY RF-SCORE:    0.00 PKD
ROOT
HETATM    1  C   UNL     1     -11.110  15.179  65.425  1.00  0.00    -0.371 C  
HETATM    2  C   UNL     1     -10.856  13.794  64.830  1.00  0.00    -0.410 C  
HETATM    3  C   UNL     1     -10.588  12.689  65.899  1.00  0.00    -0.297 C  
HETATM    4  C   UNL     1     -11.959  13.462  63.822  1.00  0.00    -0.517 C  
HETATM    5  C   UNL     1     -10.226  11.356  65.197  1.00  0.00    -0.328 C  
HETATM    6  C   UNL     1      -9.774  10.278  66.176  1.00  0.00    -0.266 C  
HETATM    7  C   UNL     1     -10.809  10.043  67.280  1.00  0.00    -0.284 C  
HETATM    8  C   UNL     1     -10.287   9.015  68.283  1.00  0.00    -0.252 C  
HETATM    9  C   UNL     1     -11.177  11.365  67.964  1.00  0.00    -0.346 C  
HETATM   10  C   UNL     1     -11.699  12.408  66.948  1.00  0.00    -0.362 C  
ENDROOT
BRANCH  10  11
HETATM   11  O   UNL     1     -12.089  13.598  67.674  1.00  0.00    -0.355 OA 
BRANCH  11  12
HETATM   12  C   UNL     1     -11.420  13.798  68.845  1.00  0.00    -0.304 C  
HETATM   13  O   UNL     1     -10.209  13.982  68.916  1.00  0.00    -0.223 OA 
BRANCH  12  14
HETATM   14  C   UNL     1     -12.253  13.760  70.087  1.00  0.00    -0.425 A  
HETATM   15  C   UNL     1     -12.323  12.508  70.737  1.00  0.00    -0.376 A  
HETATM   16  C   UNL     1     -13.079  12.326  71.898  1.00  0.00    -0.469 A  
HETATM   17  C   UNL     1     -13.785  13.394  72.434  1.00  0.00    -0.698 A  
HETATM   18  C   UNL     1     -13.728  14.641  71.815  1.00  0.00    -0.502 A  
HETATM   19  C   UNL     1     -12.961  14.828  70.650  1.00  0.00    -0.324 A  
HETATM   20  O   UNL     1     -12.929  16.075  70.093  1.00  0.00    -0.639 OA 
HETATM   21  H   UNL     1     -13.409  16.800  70.475  1.00  0.00     0.000 HD 
ENDBRANCH  12  14
ENDBRANCH  11  12
ENDBRANCH  10  11
TORSDOF 3
ENDMDL
MODEL       35
REMARK 921   NORMALIZED FREE ENERGY PREDICTED BY IDOCK:   -5.69 KCAL/MOL
REMARK 922        TOTAL FREE ENERGY PREDICTED BY IDOCK:   -7.63 KCAL/MOL
REMARK 923 INTER-LIGAND FREE ENERGY PREDICTED BY IDOCK:   -6.86 KCAL/MOL
REMARK 924 INTRA-LIGAND FREE ENERGY PREDICTED BY IDOCK:   -0.78 KCAL/MOL
REMARK 927      BINDING AFFINITY PREDICTED BY RF-SCORE:    0.00 PKD
ROOT
HETATM    1  C   UNL     1      -8.618   9.562  67.412  1.00  0.00    -0.125 C  
HETATM    2  C   UNL     1      -9.631   8.850  68.310  1.00  0.00    -0.159 C  
HETATM    3  C   UNL     1     -10.400   9.806  69.273  1.00  0.00    -0.230 C  
HETATM    4  C   UNL     1     -10.521   7.944  67.455  1.00  0.00    -0.360 C  
HETATM    5  C   UNL     1     -11.310   8.981  70.217  1.00  0.00    -0.202 C  
HETATM    6  C   UNL     1     -11.954   9.829  71.307  1.00  0.00    -0.471 C  
HETATM    7  C   UNL     1     -12.722  11.018  70.722  1.00  0.00    -0.414 C  
HETATM    8  C   UNL     1     -13.286  11.888  71.844  1.00  0.00    -0.467 C  
HETATM    9  C   UNL     1     -11.825  11.826  69.776  1.00  0.00    -0.420 C  
HETATM   10  C   UNL     1     -11.248  10.945  68.643  1.00  0.00    -0.267 C  
ENDROOT
BRANCH  10  11
HETATM   11  O   UNL     1     -10.474  11.788  67.757  1.00  0.00    -0.188 OA 
BRANCH  11  12
HETATM   12  C   UNL     1     -11.199  12.420  66.791  1.00  0.00    -0.310 C  
HETATM   13  O   UNL     1     -12.053  11.865  66.108  1.00  0.00    -0.519 OA 
BRANCH  12  14
HETATM   14  C   UNL     1     -10.881  13.865  66.577  1.00  0.00    -0.295 A  
HETATM   15  C   UNL     1     -11.107  14.710  67.685  1.00  0.00    -0.311 A  
HETATM   16  C   UNL     1     -10.869  16.086  67.619  1.00  0.00    -0.311 A  
HETATM   17  C   UNL     1     -10.400  16.647  66.440  1.00  0.00    -0.310 A  
HETATM   18  C   UNL     1     -10.162  15.834  65.333  1.00  0.00    -0.380 A  
HETATM   19  C   UNL     1     -10.395  14.447  65.400  1.00  0.00    -0.378 A  
HETATM   20  O   UNL     1     -10.131  13.696  64.291  1.00  0.00    -0.738 OA 
HETATM   21  H   UNL     1      -9.800  14.091  63.493  1.00  0.00     0.000 HD 
ENDBRANCH  12  14
ENDBRANCH  11  12
ENDBRANCH  10  11
TORSDOF 3
ENDMDL
MODEL       36
REMARK 921   NORMALIZED FREE ENERGY PREDICTED BY IDOCK:   -5.69 KCAL/MOL
REMARK 922        TOTAL FREE ENERGY PREDICTED BY IDOCK:   -7.63 KCAL/MOL
REMARK 923 INTER-LIGAND FREE ENERGY PREDICTED BY IDOCK:   -6.62 KCAL/MOL
REMARK 924 INTRA-LIGAND FREE ENERGY PREDICTED BY IDOCK:   -1.01 KCAL/MOL
REMARK 927      BINDING AFFINITY PREDICTED BY RF-SCORE:    0.00 PKD
ROOT
HETATM    1  C   UNL     1      -9.403  15.137  68.915  1.00  0.00    -0.207 C  
HETATM    2  C   UNL     1      -9.022  13.946  68.035  1.00  0.00    -0.184 C  
HETATM    3  C   UNL     1     -10.108  13.571  66.979  1.00  0.00    -0.244 C  
HETATM    4  C   UNL     1      -7.617  14.160  67.468  1.00  0.00    -0.200 C  
HETATM    5  C   UNL     1      -9.684  12.287  66.222  1.00  0.00    -0.254 C  
HETATM    6  C   UNL     1     -10.777  11.755  65.302  1.00  0.00    -0.338 C  
HETATM    7  C   UNL     1     -11.261  12.826  64.319  1.00  0.00    -0.409 C  
HETATM    8  C   UNL     1     -12.409  12.282  63.469  1.00  0.00    -0.670 C  
HETATM    9  C   UNL     1     -11.667  14.101  65.068  1.00  0.00    -0.376 C  
HETATM   10  C   UNL     1     -10.508  14.649  65.934  1.00  0.00    -0.314 C  
ENDROOT
BRANCH  10  11
HETATM   11  O   UNL     1     -10.943  15.884  66.551  1.00  0.00    -0.252 OA 
BRANCH  11  12
HETATM   12  C   UNL     1     -10.474  17.016  65.954  1.00  0.00    -0.274 C  
HETATM   13  O   UNL     1     -10.875  17.432  64.872  1.00  0.00    -0.814 OA 
BRANCH  12  14
HETATM   14  C   UNL     1      -9.396  17.744  66.692  1.00  0.00    -0.296 A  
HETATM   15  C   UNL     1      -8.076  17.468  66.273  1.00  0.00    -0.289 A  
HETATM   16  C   UNL     1      -6.972  18.066  66.886  1.00  0.00    -0.218 A  
HETATM   17  C   UNL     1      -7.164  18.954  67.936  1.00  0.00    -0.260 A  
HETATM   18  C   UNL     1      -8.458  19.248  68.365  1.00  0.00    -0.386 A  
HETATM   19  C   UNL     1      -9.571  18.653  67.743  1.00  0.00    -0.304 A  
HETATM   20  O   UNL     1     -10.816  18.988  68.193  1.00  0.00    -0.330 OA 
HETATM   21  H   UNL     1     -10.935  19.605  68.906  1.00  0.00     0.000 HD 
ENDBRANCH  12  14
ENDBRANCH  11  12
ENDBRANCH  10  11
TORSDOF 3
ENDMDL
MODEL       37
REMARK 921   NORMALIZED FREE ENERGY PREDICTED BY IDOCK:   -5.64 KCAL/MOL
REMARK 922        TOTAL FREE ENERGY PREDICTED BY IDOCK:   -7.57 KCAL/MOL
REMARK 923 INTER-LIGAND FREE ENERGY PREDICTED BY IDOCK:   -6.82 KCAL/MOL
REMARK 924 INTRA-LIGAND FREE ENERGY PREDICTED BY IDOCK:   -0.75 KCAL/MOL
REMARK 927      BINDING AFFINITY PREDICTED BY RF-SCORE:    0.00 PKD
ROOT
HETATM    1  C   UNL     1      -8.873  10.921  68.305  1.00  0.00    -0.140 C  
HETATM    2  C   UNL     1      -9.265   9.461  68.072  1.00  0.00    -0.137 C  
HETATM    3  C   UNL     1      -9.887   8.768  69.323  1.00  0.00    -0.180 C  
HETATM    4  C   UNL     1     -10.101   9.356  66.794  1.00  0.00    -0.325 C  
HETATM    5  C   UNL     1     -10.138   7.268  69.024  1.00  0.00    -0.186 C  
HETATM    6  C   UNL     1     -10.574   6.485  70.257  1.00  0.00    -0.278 C  
HETATM    7  C   UNL     1     -11.801   7.114  70.924  1.00  0.00    -0.379 C  
HETATM    8  C   UNL     1     -12.160   6.350  72.198  1.00  0.00    -0.316 C  
HETATM    9  C   UNL     1     -11.557   8.601  71.207  1.00  0.00    -0.340 C  
HETATM   10  C   UNL     1     -11.186   9.375  69.920  1.00  0.00    -0.155 C  
ENDROOT
BRANCH  10  11
HETATM   11  O   UNL     1     -11.040  10.776  70.254  1.00  0.00    -0.276 OA 
BRANCH  11  12
HETATM   12  C   UNL     1     -11.936  11.605  69.646  1.00  0.00    -0.324 C  
HETATM   13  O   UNL     1     -12.272  11.500  68.471  1.00  0.00    -0.524 OA 
BRANCH  12  14
HETATM   14  C   UNL     1     -12.495  12.699  70.498  1.00  0.00    -0.273 A  
HETATM   15  C   UNL     1     -12.358  14.006  69.980  1.00  0.00    -0.397 A  
HETATM   16  C   UNL     1     -12.821  15.124  70.680  1.00  0.00    -0.440 A  
HETATM   17  C   UNL     1     -13.431  14.959  71.916  1.00  0.00    -0.477 A  
HETATM   18  C   UNL     1     -13.584  13.679  72.446  1.00  0.00    -0.703 A  
HETATM   19  C   UNL     1     -13.125  12.551  71.739  1.00  0.00    -0.347 A  
HETATM   20  O   UNL     1     -13.315  11.320  72.299  1.00  0.00    -0.625 OA 
HETATM   21  H   UNL     1     -13.742  11.219  73.141  1.00  0.00     0.000 HD 
ENDBRANCH  12  14
ENDBRANCH  11  12
ENDBRANCH  10  11
TORSDOF 3
ENDMDL
MODEL       38
REMARK 921   NORMALIZED FREE ENERGY PREDICTED BY IDOCK:   -5.63 KCAL/MOL
REMARK 922        TOTAL FREE ENERGY PREDICTED BY IDOCK:   -7.56 KCAL/MOL
REMARK 923 INTER-LIGAND FREE ENERGY PREDICTED BY IDOCK:   -6.78 KCAL/MOL
REMARK 924 INTRA-LIGAND FREE ENERGY PREDICTED BY IDOCK:   -0.78 KCAL/MOL
REMARK 927      BINDING AFFINITY PREDICTED BY RF-SCORE:    0.00 PKD
ROOT
HETATM    1  C   UNL     1     -10.160  19.580  68.987  1.00  0.00    -0.444 C  
HETATM    2  C   UNL     1      -9.303  19.149  67.796  1.00  0.00    -0.360 C  
HETATM    3  C   UNL     1      -8.598  17.772  67.993  1.00  0.00    -0.250 C  
HETATM    4  C   UNL     1     -10.120  19.277  66.508  1.00  0.00    -0.498 C  
HETATM    5  C   UNL     1      -7.665  17.481  66.790  1.00  0.00    -0.264 C  
HETATM    6  C   UNL     1      -6.804  16.240  66.997  1.00  0.00    -0.235 C  
HETATM    7  C   UNL     1      -7.653  15.010  67.331  1.00  0.00    -0.233 C  
HETATM    8  C   UNL     1      -6.753  13.807  67.608  1.00  0.00    -0.189 C  
HETATM    9  C   UNL     1      -8.586  15.303  68.512  1.00  0.00    -0.167 C  
HETATM   10  C   UNL     1      -9.493  16.525  68.235  1.00  0.00    -0.220 C  
ENDROOT
BRANCH  10  11
HETATM   11  O   UNL     1     -10.388  16.695  69.360  1.00  0.00    -0.300 OA 
BRANCH  11  12
HETATM   12  C   UNL     1     -11.421  15.806  69.407  1.00  0.00    -0.355 C  
HETATM   13  O   UNL     1     -11.983  15.361  68.412  1.00  0.00    -0.301 OA 
BRANCH  12  14
HETATM   14  C   UNL     1     -11.870  15.400  70.774  1.00  0.00    -0.394 A  
HETATM   15  C   UNL     1     -11.693  16.367  71.787  1.00  0.00    -0.395 A  
HETATM   16  C   UNL     1     -12.054  16.114  73.114  1.00  0.00    -0.621 A  
HETATM   17  C   UNL     1     -12.598  14.884  73.457  1.00  0.00    -0.622 A  
HETATM   18  C   UNL     1     -12.787  13.914  72.474  1.00  0.00    -0.371 A  
HETATM   19  C   UNL     1     -12.432  14.170  71.136  1.00  0.00    -0.371 A  
HETATM   20  O   UNL     1     -12.654  13.189  70.212  1.00  0.00    -0.191 OA 
HETATM   21  H   UNL     1     -13.036  12.355  70.458  1.00  0.00     0.000 HD 
ENDBRANCH  12  14
ENDBRANCH  11  12
ENDBRANCH  10  11
TORSDOF 3
ENDMDL
MODEL       39
REMARK 921   NORMALIZED FREE ENERGY PREDICTED BY IDOCK:   -5.62 KCAL/MOL
REMARK 922        TOTAL FREE ENERGY PREDICTED BY IDOCK:   -7.54 KCAL/MOL
REMARK 923 INTER-LIGAND FREE ENERGY PREDICTED BY IDOCK:   -6.31 KCAL/MOL
REMARK 924 INTRA-LIGAND FREE ENERGY PREDICTED BY IDOCK:   -1.23 KCAL/MOL
REMARK 927      BINDING AFFINITY PREDICTED BY RF-SCORE:    0.00 PKD
ROOT
HETATM    1  C   UNL     1     -12.735  12.017  63.977  1.00  0.00    -0.415 C  
HETATM    2  C   UNL     1     -11.701  13.139  63.868  1.00  0.00    -0.515 C  
HETATM    3  C   UNL     1     -11.668  14.086  65.107  1.00  0.00    -0.353 C  
HETATM    4  C   UNL     1     -10.346  12.546  63.473  1.00  0.00    -0.311 C  
HETATM    5  C   UNL     1     -10.678  15.251  64.852  1.00  0.00    -0.423 C  
HETATM    6  C   UNL     1     -10.727  16.317  65.940  1.00  0.00    -0.235 C  
HETATM    7  C   UNL     1     -10.505  15.717  67.332  1.00  0.00    -0.291 C  
HETATM    8  C   UNL     1     -10.639  16.799  68.402  1.00  0.00    -0.354 C  
HETATM    9  C   UNL     1     -11.474  14.555  67.579  1.00  0.00    -0.375 C  
HETATM   10  C   UNL     1     -11.345  13.461  66.492  1.00  0.00    -0.320 C  
ENDROOT
BRANCH  10  11
HETATM   11  O   UNL     1     -12.237  12.372  66.830  1.00  0.00    -0.527 OA 
BRANCH  11  12
HETATM   12  C   UNL     1     -11.729  11.473  67.720  1.00  0.00    -0.227 C  
HETATM   13  O   UNL     1     -12.288  11.160  68.766  1.00  0.00    -0.539 OA 
BRANCH  12  14
HETATM   14  C   UNL     1     -10.404  10.880  67.364  1.00  0.00    -0.248 A  
HETATM   15  C   UNL     1     -10.381  10.100  66.187  1.00  0.00    -0.237 A  
HETATM   16  C   UNL     1      -9.212   9.473  65.746  1.00  0.00    -0.267 A  
HETATM   17  C   UNL     1      -8.039   9.611  66.475  1.00  0.00    -0.119 A  
HETATM   18  C   UNL     1      -8.034  10.380  67.637  1.00  0.00    -0.106 A  
HETATM   19  C   UNL     1      -9.208  11.019  68.079  1.00  0.00    -0.159 A  
HETATM   20  O   UNL     1      -9.142  11.773  69.216  1.00  0.00    -0.293 OA 
HETATM   21  H   UNL     1      -8.331  11.867  69.701  1.00  0.00     0.000 HD 
ENDBRANCH  12  14
ENDBRANCH  11  12
ENDBRANCH  10  11
TORSDOF 3
ENDMDL
MODEL       40
REMARK 921   NORMALIZED FREE ENERGY PREDICTED BY IDOCK:   -5.61 KCAL/MOL
REMARK 922        TOTAL FREE ENERGY PREDICTED BY IDOCK:   -7.53 KCAL/MOL
REMARK 923 INTER-LIGAND FREE ENERGY PREDICTED BY IDOCK:   -6.87 KCAL/MOL
REMARK 924 INTRA-LIGAND FREE ENERGY PREDICTED BY IDOCK:   -0.66 KCAL/MOL
REMARK 927      BINDING AFFINITY PREDICTED BY RF-SCORE:    0.00 PKD
ROOT
HETATM    1  C   UNL     1     -11.892  14.734  67.472  1.00  0.00    -0.326 C  
HETATM    2  C   UNL     1     -11.826  14.704  69.000  1.00  0.00    -0.346 C  
HETATM    3  C   UNL     1     -12.385  13.390  69.628  1.00  0.00    -0.187 C  
HETATM    4  C   UNL     1     -10.416  15.089  69.456  1.00  0.00    -0.245 C  
HETATM    5  C   UNL     1     -12.385  13.505  71.173  1.00  0.00    -0.377 C  
HETATM    6  C   UNL     1     -13.086  12.334  71.853  1.00  0.00    -0.469 C  
HETATM    7  C   UNL     1     -12.500  10.989  71.412  1.00  0.00    -0.436 C  
HETATM    8  C   UNL     1     -13.278   9.840  72.051  1.00  0.00    -0.557 C  
HETATM    9  C   UNL     1     -12.487  10.882  69.882  1.00  0.00    -0.292 C  
HETATM   10  C   UNL     1     -11.706  12.050  69.234  1.00  0.00    -0.330 C  
ENDROOT
BRANCH  10  11
HETATM   11  O   UNL     1     -11.679  11.842  67.802  1.00  0.00    -0.439 OA 
BRANCH  11  12
HETATM   12  C   UNL     1     -10.470  11.459  67.302  1.00  0.00    -0.206 C  
HETATM   13  O   UNL     1      -9.500  11.184  68.002  1.00  0.00    -0.163 OA 
BRANCH  12  14
HETATM   14  C   UNL     1     -10.366  11.407  65.812  1.00  0.00    -0.304 A  
HETATM   15  C   UNL     1      -9.192  10.812  65.302  1.00  0.00    -0.233 A  
HETATM   16  C   UNL     1      -8.957  10.712  63.928  1.00  0.00    -0.205 A  
HETATM   17  C   UNL     1      -9.893  11.208  63.032  1.00  0.00    -0.368 A  
HETATM   18  C   UNL     1     -11.064  11.795  63.509  1.00  0.00    -0.503 A  
HETATM   19  C   UNL     1     -11.305  11.889  64.892  1.00  0.00    -0.277 A  
HETATM   20  O   UNL     1     -12.476  12.460  65.304  1.00  0.00    -0.611 OA 
HETATM   21  H   UNL     1     -13.113  12.787  64.680  1.00  0.00     0.000 HD 
ENDBRANCH  12  14
ENDBRANCH  11  12
ENDBRANCH  10  11
TORSDOF 3
ENDMDL
MODEL       41
REMARK 921   NORMALIZED FREE ENERGY PREDICTED BY IDOCK:   -5.60 KCAL/MOL
REMARK 922        TOTAL FREE ENERGY PREDICTED BY IDOCK:   -7.52 KCAL/MOL
REMARK 923 INTER-LIGAND FREE ENERGY PREDICTED BY IDOCK:   -6.87 KCAL/MOL
REMARK 924 INTRA-LIGAND FREE ENERGY PREDICTED BY IDOCK:   -0.65 KCAL/MOL
REMARK 927      BINDING AFFINITY PREDICTED BY RF-SCORE:    0.00 PKD
ROOT
HETATM    1  C   UNL     1     -12.470  13.052  65.186  1.00  0.00    -0.552 C  
HETATM    2  C   UNL     1     -11.725  14.217  65.840  1.00  0.00    -0.369 C  
HETATM    3  C   UNL     1     -11.971  14.338  67.376  1.00  0.00    -0.426 C  
HETATM    4  C   UNL     1     -10.252  14.177  65.424  1.00  0.00    -0.380 C  
HETATM    5  C   UNL     1     -11.273  15.610  67.921  1.00  0.00    -0.328 C  
HETATM    6  C   UNL     1     -11.619  15.895  69.378  1.00  0.00    -0.352 C  
HETATM    7  C   UNL     1     -11.325  14.691  70.277  1.00  0.00    -0.253 C  
HETATM    8  C   UNL     1     -11.758  14.986  71.713  1.00  0.00    -0.452 C  
HETATM    9  C   UNL     1     -12.004  13.430  69.729  1.00  0.00    -0.396 C  
HETATM   10  C   UNL     1     -11.573  13.135  68.274  1.00  0.00    -0.335 C  
ENDROOT
BRANCH  10  11
HETATM   11  O   UNL     1     -12.198  11.899  67.853  1.00  0.00    -0.508 OA 
BRANCH  11  12
HETATM   12  C   UNL     1     -11.649  10.771  68.386  1.00  0.00    -0.239 C  
HETATM   13  O   UNL     1     -11.870  10.379  69.527  1.00  0.00    -0.225 OA 
BRANCH  12  14
HETATM   14  C   UNL     1     -10.715  10.015  67.495  1.00  0.00    -0.339 A  
HETATM   15  C   UNL     1     -10.044  10.787  66.521  1.00  0.00    -0.277 A  
HETATM   16  C   UNL     1      -9.155  10.207  65.611  1.00  0.00    -0.216 A  
HETATM   17  C   UNL     1      -8.920   8.840  65.655  1.00  0.00    -0.248 A  
HETATM   18  C   UNL     1      -9.566   8.057  66.610  1.00  0.00    -0.297 A  
HETATM   19  C   UNL     1     -10.455   8.641  67.532  1.00  0.00    -0.266 A  
HETATM   20  O   UNL     1     -11.048   7.829  68.456  1.00  0.00    -0.414 OA 
HETATM   21  H   UNL     1     -10.872   6.896  68.482  1.00  0.00     0.000 HD 
ENDBRANCH  12  14
ENDBRANCH  11  12
ENDBRANCH  10  11
TORSDOF 3
ENDMDL
MODEL       42
REMARK 921   NORMALIZED FREE ENERGY PREDICTED BY IDOCK:   -5.60 KCAL/MOL
REMARK 922        TOTAL FREE ENERGY PREDICTED BY IDOCK:   -7.52 KCAL/MOL
REMARK 923 INTER-LIGAND FREE ENERGY PREDICTED BY IDOCK:   -6.96 KCAL/MOL
REMARK 924 INTRA-LIGAND FREE ENERGY PREDICTED BY IDOCK:   -0.56 KCAL/MOL
REMARK 927      BINDING AFFINITY PREDICTED BY RF-SCORE:    0.00 PKD
ROOT
HETATM    1  C   UNL     1      -7.814  14.378  67.277  1.00  0.00    -0.188 C  
HETATM    2  C   UNL     1      -7.051  15.381  68.143  1.00  0.00    -0.128 C  
HETATM    3  C   UNL     1      -6.705  16.712  67.406  1.00  0.00    -0.199 C  
HETATM    4  C   UNL     1      -7.774  15.553  69.481  1.00  0.00    -0.197 C  
HETATM    5  C   UNL     1      -5.834  17.608  68.322  1.00  0.00    -0.160 C  
HETATM    6  C   UNL     1      -5.305  18.846  67.607  1.00  0.00    -0.168 C  
HETATM    7  C   UNL     1      -6.435  19.661  66.972  1.00  0.00    -0.205 C  
HETATM    8  C   UNL     1      -5.861  20.847  66.198  1.00  0.00    -0.277 C  
HETATM    9  C   UNL     1      -7.305  18.770  66.077  1.00  0.00    -0.283 C  
HETATM   10  C   UNL     1      -7.881  17.565  66.857  1.00  0.00    -0.228 C  
ENDROOT
BRANCH  10  11
HETATM   11  O   UNL     1      -8.743  16.815  65.968  1.00  0.00    -0.454 OA 
BRANCH  11  12
HETATM   12  C   UNL     1     -10.072  16.893  66.260  1.00  0.00    -0.324 C  
HETATM   13  O   UNL     1     -10.590  17.850  66.826  1.00  0.00    -0.328 OA 
BRANCH  12  14
HETATM   14  C   UNL     1     -10.898  15.710  65.865  1.00  0.00    -0.297 A  
HETATM   15  C   UNL     1     -11.051  14.716  66.855  1.00  0.00    -0.333 A  
HETATM   16  C   UNL     1     -11.784  13.549  66.616  1.00  0.00    -0.425 A  
HETATM   17  C   UNL     1     -12.377  13.352  65.377  1.00  0.00    -0.522 A  
HETATM   18  C   UNL     1     -12.245  14.321  64.385  1.00  0.00    -0.471 A  
HETATM   19  C   UNL     1     -11.515  15.499  64.627  1.00  0.00    -0.324 A  
HETATM   20  O   UNL     1     -11.431  16.422  63.623  1.00  0.00    -1.446 OA 
HETATM   21  H   UNL     1     -11.850  16.279  62.783  1.00  0.00     0.000 HD 
ENDBRANCH  12  14
ENDBRANCH  11  12
ENDBRANCH  10  11
TORSDOF 3
ENDMDL
MODEL       43
REMARK 921   NORMALIZED FREE ENERGY PREDICTED BY IDOCK:   -5.45 KCAL/MOL
REMARK 922        TOTAL FREE ENERGY PREDICTED BY IDOCK:   -7.34 KCAL/MOL
REMARK 923 INTER-LIGAND FREE ENERGY PREDICTED BY IDOCK:   -6.56 KCAL/MOL
REMARK 924 INTRA-LIGAND FREE ENERGY PREDICTED BY IDOCK:   -0.78 KCAL/MOL
REMARK 927      BINDING AFFINITY PREDICTED BY RF-SCORE:    0.00 PKD
ROOT
HETATM    1  C   UNL     1     -11.486  10.197  70.816  1.00  0.00    -0.442 C  
HETATM    2  C   UNL     1     -10.919   8.784  70.962  1.00  0.00    -0.328 C  
HETATM    3  C   UNL     1     -11.026   7.927  69.663  1.00  0.00    -0.114 C  
HETATM    4  C   UNL     1      -9.518   8.858  71.572  1.00  0.00    -0.347 C  
HETATM    5  C   UNL     1     -10.537   6.484  69.944  1.00  0.00    -0.282 C  
HETATM    6  C   UNL     1     -10.782   5.539  68.773  1.00  0.00    -0.195 C  
HETATM    7  C   UNL     1     -10.168   6.073  67.475  1.00  0.00    -0.225 C  
HETATM    8  C   UNL     1     -10.501   5.141  66.311  1.00  0.00    -0.341 C  
HETATM    9  C   UNL     1     -10.641   7.506  67.205  1.00  0.00    -0.394 C  
HETATM   10  C   UNL     1     -10.311   8.449  68.386  1.00  0.00    -0.200 C  
ENDROOT
BRANCH  10  11
HETATM   11  O   UNL     1     -10.723   9.790  68.030  1.00  0.00    -0.237 OA 
BRANCH  11  12
HETATM   12  C   UNL     1      -9.921  10.411  67.119  1.00  0.00    -0.195 C  
HETATM   13  O   UNL     1      -8.695  10.384  67.161  1.00  0.00    -0.129 OA 
BRANCH  12  14
HETATM   14  C   UNL     1     -10.624  11.172  66.041  1.00  0.00    -0.298 A  
HETATM   15  C   UNL     1     -10.205  10.891  64.722  1.00  0.00    -0.398 A  
HETATM   16  C   UNL     1     -10.766  11.541  63.620  1.00  0.00    -0.491 A  
HETATM   17  C   UNL     1     -11.759  12.492  63.813  1.00  0.00    -0.564 A  
HETATM   18  C   UNL     1     -12.194  12.784  65.105  1.00  0.00    -0.530 A  
HETATM   19  C   UNL     1     -11.636  12.123  66.215  1.00  0.00    -0.360 A  
HETATM   20  O   UNL     1     -12.111  12.438  67.457  1.00  0.00    -0.491 OA 
HETATM   21  H   UNL     1     -12.798  13.083  67.575  1.00  0.00     0.000 HD 
ENDBRANCH  12  14
ENDBRANCH  11  12
ENDBRANCH  10  11
TORSDOF 3
ENDMDL
MODEL       44
REMARK 921   NORMALIZED FREE ENERGY PREDICTED BY IDOCK:   -5.44 KCAL/MOL
REMARK 922        TOTAL FREE ENERGY PREDICTED BY IDOCK:   -7.33 KCAL/MOL
REMARK 923 INTER-LIGAND FREE ENERGY PREDICTED BY IDOCK:   -7.50 KCAL/MOL
REMARK 924 INTRA-LIGAND FREE ENERGY PREDICTED BY IDOCK:    0.17 KCAL/MOL
REMARK 927      BINDING AFFINITY PREDICTED BY RF-SCORE:    0.00 PKD
ROOT
HETATM    1  C   UNL     1     -11.962  10.164  70.565  1.00  0.00    -0.400 C  
HETATM    2  C   UNL     1     -11.007   9.877  69.406  1.00  0.00    -0.263 C  
HETATM    3  C   UNL     1     -11.268  10.754  68.143  1.00  0.00    -0.365 C  
HETATM    4  C   UNL     1      -9.564   9.896  69.918  1.00  0.00    -0.265 C  
HETATM    5  C   UNL     1     -10.333  10.308  66.990  1.00  0.00    -0.299 C  
HETATM    6  C   UNL     1     -10.656  10.996  65.669  1.00  0.00    -0.263 C  
HETATM    7  C   UNL     1     -10.652  12.521  65.807  1.00  0.00    -0.299 C  
HETATM    8  C   UNL     1     -11.056  13.173  64.485  1.00  0.00    -0.380 C  
HETATM    9  C   UNL     1     -11.566  12.961  66.957  1.00  0.00    -0.419 C  
HETATM   10  C   UNL     1     -11.162  12.296  68.294  1.00  0.00    -0.267 C  
ENDROOT
BRANCH  10  11
HETATM   11  O   UNL     1     -12.023  12.811  69.339  1.00  0.00    -0.301 OA 
BRANCH  11  12
HETATM   12  C   UNL     1     -11.925  14.154  69.549  1.00  0.00    -0.340 C  
HETATM   13  O   UNL     1     -11.602  14.959  68.681  1.00  0.00    -0.290 OA 
BRANCH  12  14
HETATM   14  C   UNL     1     -12.218  14.620  70.940  1.00  0.00    -0.391 A  
HETATM   15  C   UNL     1     -11.676  15.876  71.289  1.00  0.00    -0.504 A  
HETATM   16  C   UNL     1     -11.859  16.425  72.562  1.00  0.00    -0.547 A  
HETATM   17  C   UNL     1     -12.587  15.726  73.515  1.00  0.00    -0.680 A  
HETATM   18  C   UNL     1     -13.137  14.487  73.193  1.00  0.00    -0.553 A  
HETATM   19  C   UNL     1     -12.961  13.937  71.909  1.00  0.00    -0.354 A  
HETATM   20  O   UNL     1     -13.535  12.726  71.643  1.00  0.00    -0.322 OA 
HETATM   21  H   UNL     1     -14.039  12.262  72.301  1.00  0.00     0.000 HD 
ENDBRANCH  12  14
ENDBRANCH  11  12
ENDBRANCH  10  11
TORSDOF 3
ENDMDL
MODEL       45
REMARK 921   NORMALIZED FREE ENERGY PREDICTED BY IDOCK:   -5.43 KCAL/MOL
REMARK 922        TOTAL FREE ENERGY PREDICTED BY IDOCK:   -7.33 KCAL/MOL
REMARK 923 INTER-LIGAND FREE ENERGY PREDICTED BY IDOCK:   -6.39 KCAL/MOL
REMARK 924 INTRA-LIGAND FREE ENERGY PREDICTED BY IDOCK:   -0.93 KCAL/MOL
REMARK 927      BINDING AFFINITY PREDICTED BY RF-SCORE:    0.00 PKD
ROOT
HETATM    1  C   UNL     1      -7.918  13.346  67.154  1.00  0.00    -0.068 C  
HETATM    2  C   UNL     1      -7.691  14.708  67.810  1.00  0.00    -0.169 C  
HETATM    3  C   UNL     1      -8.393  15.888  67.070  1.00  0.00    -0.255 C  
HETATM    4  C   UNL     1      -8.000  14.611  69.307  1.00  0.00    -0.055 C  
HETATM    5  C   UNL     1      -8.007  17.232  67.739  1.00  0.00    -0.194 C  
HETATM    6  C   UNL     1      -8.507  18.444  66.961  1.00  0.00    -0.257 C  
HETATM    7  C   UNL     1     -10.018  18.377  66.716  1.00  0.00    -0.374 C  
HETATM    8  C   UNL     1     -10.469  19.565  65.867  1.00  0.00    -0.585 C  
HETATM    9  C   UNL     1     -10.400  17.041  66.067  1.00  0.00    -0.324 C  
HETATM   10  C   UNL     1      -9.938  15.837  66.922  1.00  0.00    -0.243 C  
ENDROOT
BRANCH  10  11
HETATM   11  O   UNL     1     -10.394  14.621  66.283  1.00  0.00    -0.278 OA 
BRANCH  11  12
HETATM   12  C   UNL     1     -11.665  14.248  66.606  1.00  0.00    -0.400 C  
HETATM   13  O   UNL     1     -12.626  14.384  65.856  1.00  0.00    -0.383 OA 
BRANCH  12  14
HETATM   14  C   UNL     1     -11.847  13.664  67.970  1.00  0.00    -0.397 A  
HETATM   15  C   UNL     1     -11.590  12.280  68.080  1.00  0.00    -0.396 A  
HETATM   16  C   UNL     1     -11.737  11.601  69.293  1.00  0.00    -0.396 A  
HETATM   17  C   UNL     1     -12.147  12.293  70.424  1.00  0.00    -0.385 A  
HETATM   18  C   UNL     1     -12.401  13.661  70.343  1.00  0.00    -0.415 A  
HETATM   19  C   UNL     1     -12.246  14.348  69.124  1.00  0.00    -0.220 A  
HETATM   20  O   UNL     1     -12.494  15.691  69.105  1.00  0.00    -0.598 OA 
HETATM   21  H   UNL     1     -12.765  16.155  69.889  1.00  0.00     0.000 HD 
ENDBRANCH  12  14
ENDBRANCH  11  12
ENDBRANCH  10  11
TORSDOF 3
ENDMDL
MODEL       46
REMARK 921   NORMALIZED FREE ENERGY PREDICTED BY IDOCK:   -5.43 KCAL/MOL
REMARK 922        TOTAL FREE ENERGY PREDICTED BY IDOCK:   -7.32 KCAL/MOL
REMARK 923 INTER-LIGAND FREE ENERGY PREDICTED BY IDOCK:   -6.56 KCAL/MOL
REMARK 924 INTRA-LIGAND FREE ENERGY PREDICTED BY IDOCK:   -0.77 KCAL/MOL
REMARK 927      BINDING AFFINITY PREDICTED BY RF-SCORE:    0.00 PKD
ROOT
HETATM    1  C   UNL     1     -10.964   9.782  69.373  1.00  0.00    -0.241 C  
HETATM    2  C   UNL     1      -9.648   9.578  68.621  1.00  0.00    -0.151 C  
HETATM    3  C   UNL     1      -9.795   9.636  67.069  1.00  0.00    -0.249 C  
HETATM    4  C   UNL     1      -8.580  10.506  69.204  1.00  0.00    -0.157 C  
HETATM    5  C   UNL     1      -8.437   9.301  66.400  1.00  0.00    -0.128 C  
HETATM    6  C   UNL     1      -8.544   9.159  64.887  1.00  0.00    -0.208 C  
HETATM    7  C   UNL     1      -9.171  10.399  64.243  1.00  0.00    -0.295 C  
HETATM    8  C   UNL     1      -9.334  10.189  62.738  1.00  0.00    -0.323 C  
HETATM    9  C   UNL     1     -10.507  10.738  64.915  1.00  0.00    -0.324 C  
HETATM   10  C   UNL     1     -10.345  10.945  66.439  1.00  0.00    -0.251 C  
ENDROOT
BRANCH  10  11
HETATM   11  O   UNL     1     -11.628  11.327  66.988  1.00  0.00    -0.496 OA 
BRANCH  11  12
HETATM   12  C   UNL     1     -11.694  12.609  67.448  1.00  0.00    -0.369 C  
HETATM   13  O   UNL     1     -11.876  12.903  68.625  1.00  0.00    -0.305 OA 
BRANCH  12  14
HETATM   14  C   UNL     1     -11.549  13.681  66.415  1.00  0.00    -0.375 A  
HETATM   15  C   UNL     1     -10.579  14.669  66.692  1.00  0.00    -0.289 A  
HETATM   16  C   UNL     1     -10.351  15.737  65.820  1.00  0.00    -0.390 A  
HETATM   17  C   UNL     1     -11.092  15.842  64.651  1.00  0.00    -0.368 A  
HETATM   18  C   UNL     1     -12.052  14.877  64.352  1.00  0.00    -0.417 A  
HETATM   19  C   UNL     1     -12.277  13.796  65.224  1.00  0.00    -0.439 A  
HETATM   20  O   UNL     1     -13.219  12.871  64.874  1.00  0.00    -0.782 OA 
HETATM   21  H   UNL     1     -13.712  12.949  64.066  1.00  0.00     0.000 HD 
ENDBRANCH  12  14
ENDBRANCH  11  12
ENDBRANCH  10  11
TORSDOF 3
ENDMDL
MODEL       47
REMARK 921   NORMALIZED FREE ENERGY PREDICTED BY IDOCK:   -5.40 KCAL/MOL
REMARK 922        TOTAL FREE ENERGY PREDICTED BY IDOCK:   -7.29 KCAL/MOL
REMARK 923 INTER-LIGAND FREE ENERGY PREDICTED BY IDOCK:   -6.42 KCAL/MOL
REMARK 924 INTRA-LIGAND FREE ENERGY PREDICTED BY IDOCK:   -0.87 KCAL/MOL
REMARK 927      BINDING AFFINITY PREDICTED BY RF-SCORE:    0.00 PKD
ROOT
HETATM    1  C   UNL     1      -7.862  11.165  68.227  1.00  0.00    -0.123 C  
HETATM    2  C   UNL     1      -8.457   9.916  68.879  1.00  0.00    -0.127 C  
HETATM    3  C   UNL     1      -9.669  10.212  69.816  1.00  0.00    -0.232 C  
HETATM    4  C   UNL     1      -8.715   8.855  67.806  1.00  0.00    -0.125 C  
HETATM    5  C   UNL     1     -10.122   8.906  70.517  1.00  0.00    -0.248 C  
HETATM    6  C   UNL     1     -11.183   9.147  71.585  1.00  0.00    -0.447 C  
HETATM    7  C   UNL     1     -12.390   9.906  71.025  1.00  0.00    -0.451 C  
HETATM    8  C   UNL     1     -13.393  10.198  72.140  1.00  0.00    -0.431 C  
HETATM    9  C   UNL     1     -11.939  11.190  70.320  1.00  0.00    -0.460 C  
HETATM   10  C   UNL     1     -10.917  10.897  69.196  1.00  0.00    -0.239 C  
ENDROOT
BRANCH  10  11
HETATM   11  O   UNL     1     -10.594  12.144  68.535  1.00  0.00    -0.221 OA 
BRANCH  11  12
HETATM   12  C   UNL     1     -11.214  12.331  67.335  1.00  0.00    -0.301 C  
HETATM   13  O   UNL     1     -12.022  11.543  66.855  1.00  0.00    -0.516 OA 
BRANCH  12  14
HETATM   14  C   UNL     1     -10.835  13.572  66.592  1.00  0.00    -0.283 A  
HETATM   15  C   UNL     1      -9.538  14.066  66.850  1.00  0.00    -0.275 A  
HETATM   16  C   UNL     1      -9.060  15.228  66.237  1.00  0.00    -0.337 A  
HETATM   17  C   UNL     1      -9.872  15.923  65.352  1.00  0.00    -0.163 A  
HETATM   18  C   UNL     1     -11.155  15.453  65.076  1.00  0.00    -0.428 A  
HETATM   19  C   UNL     1     -11.635  14.279  65.686  1.00  0.00    -0.346 A  
HETATM   20  O   UNL     1     -12.894  13.856  65.367  1.00  0.00    -0.662 OA 
HETATM   21  H   UNL     1     -13.436  14.336  64.753  1.00  0.00     0.000 HD 
ENDBRANCH  12  14
ENDBRANCH  11  12
ENDBRANCH  10  11
TORSDOF 3
ENDMDL
MODEL       48
REMARK 921   NORMALIZED FREE ENERGY PREDICTED BY IDOCK:   -5.40 KCAL/MOL
REMARK 922        TOTAL FREE ENERGY PREDICTED BY IDOCK:   -7.28 KCAL/MOL
REMARK 923 INTER-LIGAND FREE ENERGY PREDICTED BY IDOCK:   -6.67 KCAL/MOL
REMARK 924 INTRA-LIGAND FREE ENERGY PREDICTED BY IDOCK:   -0.62 KCAL/MOL
REMARK 927      BINDING AFFINITY PREDICTED BY RF-SCORE:    0.00 PKD
ROOT
HETATM    1  C   UNL     1      -7.149  14.967  67.006  1.00  0.00     0.289 C  
HETATM    2  C   UNL     1      -7.432  15.917  68.170  1.00  0.00    -0.132 C  
HETATM    3  C   UNL     1      -7.983  17.308  67.727  1.00  0.00    -0.194 C  
HETATM    4  C   UNL     1      -8.276  15.195  69.224  1.00  0.00    -0.216 C  
HETATM    5  C   UNL     1      -8.124  18.234  68.961  1.00  0.00    -0.091 C  
HETATM    6  C   UNL     1      -8.484  19.667  68.586  1.00  0.00    -0.310 C  
HETATM    7  C   UNL     1      -9.745  19.728  67.719  1.00  0.00    -0.495 C  
HETATM    8  C   UNL     1     -10.028  21.169  67.297  1.00  0.00     0.235 C  
HETATM    9  C   UNL     1      -9.610  18.799  66.506  1.00  0.00    -0.369 C  
HETATM   10  C   UNL     1      -9.317  17.341  66.931  1.00  0.00    -0.255 C  
ENDROOT
BRANCH  10  11
HETATM   11  O   UNL     1      -9.272  16.518  65.741  1.00  0.00    -0.486 OA 
BRANCH  11  12
HETATM   12  C   UNL     1     -10.491  16.214  65.211  1.00  0.00    -0.331 C  
HETATM   13  O   UNL     1     -11.116  16.962  64.466  1.00  0.00    -1.054 OA 
BRANCH  12  14
HETATM   14  C   UNL     1     -11.064  14.891  65.608  1.00  0.00    -0.348 A  
HETATM   15  C   UNL     1     -10.673  14.414  66.878  1.00  0.00    -0.292 A  
HETATM   16  C   UNL     1     -11.120  13.184  67.369  1.00  0.00    -0.301 A  
HETATM   17  C   UNL     1     -11.968  12.402  66.597  1.00  0.00    -0.300 A  
HETATM   18  C   UNL     1     -12.374  12.854  65.342  1.00  0.00    -0.538 A  
HETATM   19  C   UNL     1     -11.931  14.096  64.850  1.00  0.00    -0.417 A  
HETATM   20  O   UNL     1     -12.372  14.496  63.621  1.00  0.00    -1.064 OA 
HETATM   21  H   UNL     1     -12.961  13.956  63.107  1.00  0.00     0.000 HD 
ENDBRANCH  12  14
ENDBRANCH  11  12
ENDBRANCH  10  11
TORSDOF 3
ENDMDL
MODEL       49
REMARK 921   NORMALIZED FREE ENERGY PREDICTED BY IDOCK:   -5.33 KCAL/MOL
REMARK 922        TOTAL FREE ENERGY PREDICTED BY IDOCK:   -7.21 KCAL/MOL
REMARK 923 INTER-LIGAND FREE ENERGY PREDICTED BY IDOCK:   -6.36 KCAL/MOL
REMARK 924 INTRA-LIGAND FREE ENERGY PREDICTED BY IDOCK:   -0.85 KCAL/MOL
REMARK 927      BINDING AFFINITY PREDICTED BY RF-SCORE:    0.00 PKD
ROOT
HETATM    1  C   UNL     1      -8.408  10.208  67.748  1.00  0.00    -0.114 C  
HETATM    2  C   UNL     1      -8.851   8.746  67.679  1.00  0.00    -0.138 C  
HETATM    3  C   UNL     1      -9.496   8.220  68.998  1.00  0.00    -0.155 C  
HETATM    4  C   UNL     1      -9.691   8.527  66.418  1.00  0.00    -0.328 C  
HETATM    5  C   UNL     1      -9.800   6.706  68.868  1.00  0.00    -0.143 C  
HETATM    6  C   UNL     1     -10.263   6.082  70.179  1.00  0.00    -0.267 C  
HETATM    7  C   UNL     1     -11.466   6.825  70.768  1.00  0.00    -0.392 C  
HETATM    8  C   UNL     1     -11.852   6.222  72.118  1.00  0.00    -0.365 C  
HETATM    9  C   UNL     1     -11.170   8.325  70.882  1.00  0.00    -0.292 C  
HETATM   10  C   UNL     1     -10.773   8.936  69.518  1.00  0.00    -0.199 C  
ENDROOT
BRANCH  10  11
HETATM   11  O   UNL     1     -10.578  10.360  69.693  1.00  0.00    -0.229 OA 
BRANCH  11  12
HETATM   12  C   UNL     1     -11.556  11.141  69.153  1.00  0.00    -0.324 C  
HETATM   13  O   UNL     1     -11.947  11.040  67.995  1.00  0.00    -0.623 OA 
BRANCH  12  14
HETATM   14  C   UNL     1     -12.138  12.178  70.060  1.00  0.00    -0.352 A  
HETATM   15  C   UNL     1     -12.815  11.685  71.196  1.00  0.00    -0.392 A  
HETATM   16  C   UNL     1     -13.421  12.542  72.119  1.00  0.00    -0.523 A  
HETATM   17  C   UNL     1     -13.364  13.915  71.923  1.00  0.00    -0.496 A  
HETATM   18  C   UNL     1     -12.696  14.428  70.813  1.00  0.00    -0.427 A  
HETATM   19  C   UNL     1     -12.078  13.566  69.887  1.00  0.00    -0.341 A  
HETATM   20  O   UNL     1     -11.425  14.123  68.825  1.00  0.00    -0.262 OA 
HETATM   21  H   UNL     1     -11.385  15.065  68.708  1.00  0.00     0.000 HD 
ENDBRANCH  12  14
ENDBRANCH  11  12
ENDBRANCH  10  11
TORSDOF 3
ENDMDL
MODEL       50
REMARK 921   NORMALIZED FREE ENERGY PREDICTED BY IDOCK:   -5.30 KCAL/MOL
REMARK 922        TOTAL FREE ENERGY PREDICTED BY IDOCK:   -7.17 KCAL/MOL
REMARK 923 INTER-LIGAND FREE ENERGY PREDICTED BY IDOCK:   -6.34 KCAL/MOL
REMARK 924 INTRA-LIGAND FREE ENERGY PREDICTED BY IDOCK:   -0.83 KCAL/MOL
REMARK 927      BINDING AFFINITY PREDICTED BY RF-SCORE:    0.00 PKD
ROOT
HETATM    1  C   UNL     1      -7.401   9.967  69.632  1.00  0.00    -0.115 C  
HETATM    2  C   UNL     1      -8.070   8.782  70.330  1.00  0.00    -0.118 C  
HETATM    3  C   UNL     1      -9.489   9.103  70.894  1.00  0.00    -0.343 C  
HETATM    4  C   UNL     1      -8.000   7.551  69.423  1.00  0.00    -0.123 C  
HETATM    5  C   UNL     1     -10.031   7.882  71.681  1.00  0.00    -0.227 C  
HETATM    6  C   UNL     1     -11.332   8.183  72.414  1.00  0.00    -0.456 C  
HETATM    7  C   UNL     1     -12.404   8.732  71.467  1.00  0.00    -0.380 C  
HETATM    8  C   UNL     1     -13.665   9.096  72.250  1.00  0.00    -0.548 C  
HETATM    9  C   UNL     1     -11.863   9.931  70.679  1.00  0.00    -0.386 C  
HETATM   10  C   UNL     1     -10.582   9.566  69.891  1.00  0.00    -0.241 C  
ENDROOT
BRANCH  10  11
HETATM   11  O   UNL     1     -10.173  10.722  69.122  1.00  0.00    -0.208 OA 
BRANCH  11  12
HETATM   12  C   UNL     1     -10.560  10.704  67.814  1.00  0.00    -0.236 C  
HETATM   13  O   UNL     1     -10.407   9.739  67.072  1.00  0.00    -0.224 OA 
BRANCH  12  14
HETATM   14  C   UNL     1     -11.181  11.963  67.300  1.00  0.00    -0.376 A  
HETATM   15  C   UNL     1     -11.764  11.875  66.017  1.00  0.00    -0.209 A  
HETATM   16  C   UNL     1     -12.365  12.980  65.408  1.00  0.00    -0.538 A  
HETATM   17  C   UNL     1     -12.395  14.200  66.070  1.00  0.00    -0.470 A  
HETATM   18  C   UNL     1     -11.831  14.311  67.340  1.00  0.00    -0.441 A  
HETATM   19  C   UNL     1     -11.233  13.197  67.958  1.00  0.00    -0.277 A  
HETATM   20  O   UNL     1     -10.710  13.359  69.209  1.00  0.00    -0.428 OA 
HETATM   21  H   UNL     1     -10.745  14.197  69.656  1.00  0.00     0.000 HD 
ENDBRANCH  12  14
ENDBRANCH  11  12
ENDBRANCH  10  11
TORSDOF 3
ENDMDL
MODEL       51
REMARK 921   NORMALIZED FREE ENERGY PREDICTED BY IDOCK:   -5.30 KCAL/MOL
REMARK 922        TOTAL FREE ENERGY PREDICTED BY IDOCK:   -7.17 KCAL/MOL
REMARK 923 INTER-LIGAND FREE ENERGY PREDICTED BY IDOCK:   -6.44 KCAL/MOL
REMARK 924 INTRA-LIGAND FREE ENERGY PREDICTED BY IDOCK:   -0.73 KCAL/MOL
REMARK 927      BINDING AFFINITY PREDICTED BY RF-SCORE:    0.00 PKD
ROOT
HETATM    1  C   UNL     1      -7.492  10.311  67.955  1.00  0.00    -0.087 C  
HETATM    2  C   UNL     1      -8.022   9.268  68.939  1.00  0.00    -0.098 C  
HETATM    3  C   UNL     1      -9.301   9.721  69.709  1.00  0.00    -0.249 C  
HETATM    4  C   UNL     1      -8.140   7.915  68.233  1.00  0.00    -0.123 C  
HETATM    5  C   UNL     1      -9.688   8.650  70.761  1.00  0.00    -0.237 C  
HETATM    6  C   UNL     1     -10.819   9.104  71.676  1.00  0.00    -0.442 C  
HETATM    7  C   UNL     1     -12.050   9.548  70.881  1.00  0.00    -0.357 C  
HETATM    8  C   UNL     1     -13.131  10.070  71.826  1.00  0.00    -0.562 C  
HETATM    9  C   UNL     1     -11.664  10.597  69.830  1.00  0.00    -0.395 C  
HETATM   10  C   UNL     1     -10.564  10.073  68.877  1.00  0.00    -0.218 C  
ENDROOT
BRANCH  10  11
HETATM   11  O   UNL     1     -10.304  11.087  67.877  1.00  0.00    -0.176 OA 
BRANCH  11  12
HETATM   12  C   UNL     1     -10.551  10.701  66.593  1.00  0.00    -0.214 C  
HETATM   13  O   UNL     1     -10.273   9.591  66.151  1.00  0.00    -0.273 OA 
BRANCH  12  14
HETATM   14  C   UNL     1     -11.177  11.732  65.710  1.00  0.00    -0.337 A  
HETATM   15  C   UNL     1     -11.934  12.723  66.372  1.00  0.00    -0.443 A  
HETATM   16  C   UNL     1     -12.588  13.738  65.668  1.00  0.00    -0.551 A  
HETATM   17  C   UNL     1     -12.501  13.782  64.284  1.00  0.00    -0.308 A  
HETATM   18  C   UNL     1     -11.755  12.819  63.607  1.00  0.00    -0.587 A  
HETATM   19  C   UNL     1     -11.090  11.800  64.315  1.00  0.00    -0.355 A  
HETATM   20  O   UNL     1     -10.361  10.891  63.602  1.00  0.00    -0.427 OA 
HETATM   21  H   UNL     1     -10.301  10.938  62.655  1.00  0.00     0.000 HD 
ENDBRANCH  12  14
ENDBRANCH  11  12
ENDBRANCH  10  11
TORSDOF 3
ENDMDL
MODEL       52
REMARK 921   NORMALIZED FREE ENERGY PREDICTED BY IDOCK:   -5.29 KCAL/MOL
REMARK 922        TOTAL FREE ENERGY PREDICTED BY IDOCK:   -7.16 KCAL/MOL
REMARK 923 INTER-LIGAND FREE ENERGY PREDICTED BY IDOCK:   -6.20 KCAL/MOL
REMARK 924 INTRA-LIGAND FREE ENERGY PREDICTED BY IDOCK:   -0.96 KCAL/MOL
REMARK 927      BINDING AFFINITY PREDICTED BY RF-SCORE:    0.00 PKD
ROOT
HETATM    1  C   UNL     1     -10.947   9.312  67.817  1.00  0.00    -0.072 C  
HETATM    2  C   UNL     1      -9.970  10.489  67.827  1.00  0.00    -0.198 C  
HETATM    3  C   UNL     1     -10.649  11.867  68.095  1.00  0.00    -0.233 C  
HETATM    4  C   UNL     1      -8.789  10.162  68.743  1.00  0.00    -0.146 C  
HETATM    5  C   UNL     1      -9.601  13.002  67.968  1.00  0.00    -0.224 C  
HETATM    6  C   UNL     1     -10.224  14.392  68.036  1.00  0.00    -0.228 C  
HETATM    7  C   UNL     1     -11.066  14.574  69.303  1.00  0.00    -0.296 C  
HETATM    8  C   UNL     1     -11.737  15.947  69.297  1.00  0.00    -0.360 C  
HETATM    9  C   UNL     1     -12.092  13.443  69.436  1.00  0.00    -0.321 C  
HETATM   10  C   UNL     1     -11.415  12.053  69.434  1.00  0.00    -0.296 C  
ENDROOT
BRANCH  10  11
HETATM   11  O   UNL     1     -12.436  11.046  69.631  1.00  0.00    -0.291 OA 
BRANCH  11  12
HETATM   12  C   UNL     1     -12.622  10.668  70.928  1.00  0.00    -0.407 C  
HETATM   13  O   UNL     1     -13.072  11.409  71.796  1.00  0.00    -0.480 OA 
BRANCH  12  14
HETATM   14  C   UNL     1     -12.219   9.267  71.263  1.00  0.00    -0.410 A  
HETATM   15  C   UNL     1     -10.876   9.098  71.665  1.00  0.00    -0.442 A  
HETATM   16  C   UNL     1     -10.361   7.841  71.992  1.00  0.00    -0.267 A  
HETATM   17  C   UNL     1     -11.180   6.722  71.921  1.00  0.00    -0.294 A  
HETATM   18  C   UNL     1     -12.511   6.863  71.533  1.00  0.00    -0.420 A  
HETATM   19  C   UNL     1     -13.033   8.130  71.211  1.00  0.00    -0.162 A  
HETATM   20  O   UNL     1     -14.348   8.212  70.852  1.00  0.00    -0.654 OA 
HETATM   21  H   UNL     1     -14.901   7.440  70.817  1.00  0.00     0.000 HD 
ENDBRANCH  12  14
ENDBRANCH  11  12
ENDBRANCH  10  11
TORSDOF 3
ENDMDL
MODEL       53
REMARK 921   NORMALIZED FREE ENERGY PREDICTED BY IDOCK:   -5.28 KCAL/MOL
REMARK 922        TOTAL FREE ENERGY PREDICTED BY IDOCK:   -7.15 KCAL/MOL
REMARK 923 INTER-LIGAND FREE ENERGY PREDICTED BY IDOCK:   -6.23 KCAL/MOL
REMARK 924 INTRA-LIGAND FREE ENERGY PREDICTED BY IDOCK:   -0.91 KCAL/MOL
REMARK 927      BINDING AFFINITY PREDICTED BY RF-SCORE:    0.00 PKD
ROOT
HETATM    1  C   UNL     1      -9.300  14.709  68.743  1.00  0.00    -0.191 C  
HETATM    2  C   UNL     1     -10.289  15.290  67.731  1.00  0.00    -0.244 C  
HETATM    3  C   UNL     1     -10.665  14.304  66.581  1.00  0.00    -0.290 C  
HETATM    4  C   UNL     1     -11.481  15.897  68.475  1.00  0.00    -0.377 C  
HETATM    5  C   UNL     1     -11.573  15.021  65.550  1.00  0.00    -0.208 C  
HETATM    6  C   UNL     1     -11.832  14.179  64.306  1.00  0.00    -0.420 C  
HETATM    7  C   UNL     1     -12.402  12.803  64.661  1.00  0.00    -0.524 C  
HETATM    8  C   UNL     1     -12.573  11.960  63.397  1.00  0.00    -0.555 C  
HETATM    9  C   UNL     1     -11.511  12.100  65.692  1.00  0.00    -0.408 C  
HETATM   10  C   UNL     1     -11.330  12.955  66.969  1.00  0.00    -0.309 C  
ENDROOT
BRANCH  10  11
HETATM   11  O   UNL     1     -10.539  12.199  67.917  1.00  0.00    -0.197 OA 
BRANCH  11  12
HETATM   12  C   UNL     1     -11.231  11.734  68.995  1.00  0.00    -0.265 C  
HETATM   13  O   UNL     1     -11.949  12.437  69.699  1.00  0.00    -0.304 OA 
BRANCH  12  14
HETATM   14  C   UNL     1     -11.054  10.283  69.308  1.00  0.00    -0.293 A  
HETATM   15  C   UNL     1     -10.505   9.498  68.270  1.00  0.00    -0.265 A  
HETATM   16  C   UNL     1     -10.301   8.123  68.420  1.00  0.00    -0.236 A  
HETATM   17  C   UNL     1     -10.644   7.502  69.613  1.00  0.00    -0.243 A  
HETATM   18  C   UNL     1     -11.182   8.256  70.655  1.00  0.00    -0.270 A  
HETATM   19  C   UNL     1     -11.381   9.642  70.508  1.00  0.00    -0.296 A  
HETATM   20  O   UNL     1     -11.898  10.333  71.567  1.00  0.00    -0.336 OA 
HETATM   21  H   UNL     1     -12.119   9.898  72.382  1.00  0.00     0.000 HD 
ENDBRANCH  12  14
ENDBRANCH  11  12
ENDBRANCH  10  11
TORSDOF 3
ENDMDL
MODEL       54
REMARK 921   NORMALIZED FREE ENERGY PREDICTED BY IDOCK:   -5.26 KCAL/MOL
REMARK 922        TOTAL FREE ENERGY PREDICTED BY IDOCK:   -7.13 KCAL/MOL
REMARK 923 INTER-LIGAND FREE ENERGY PREDICTED BY IDOCK:   -5.96 KCAL/MOL
REMARK 924 INTRA-LIGAND FREE ENERGY PREDICTED BY IDOCK:   -1.17 KCAL/MOL
REMARK 927      BINDING AFFINITY PREDICTED BY RF-SCORE:    0.00 PKD
ROOT
HETATM    1  C   UNL     1     -11.532  15.866  68.383  1.00  0.00    -0.348 C  
HETATM    2  C   UNL     1     -10.196  16.064  67.665  1.00  0.00    -0.262 C  
HETATM    3  C   UNL     1      -9.157  14.936  67.947  1.00  0.00    -0.182 C  
HETATM    4  C   UNL     1     -10.452  16.351  66.184  1.00  0.00    -0.321 C  
HETATM    5  C   UNL     1      -7.805  15.286  67.276  1.00  0.00    -0.240 C  
HETATM    6  C   UNL     1      -6.688  14.322  67.658  1.00  0.00    -0.188 C  
HETATM    7  C   UNL     1      -7.071  12.867  67.370  1.00  0.00    -0.130 C  
HETATM    8  C   UNL     1      -5.962  11.926  67.838  1.00  0.00    -0.054 C  
HETATM    9  C   UNL     1      -8.416  12.525  68.022  1.00  0.00    -0.173 C  
HETATM   10  C   UNL     1      -9.539  13.482  67.555  1.00  0.00    -0.221 C  
ENDROOT
BRANCH  10  11
HETATM   11  O   UNL     1     -10.784  13.054  68.157  1.00  0.00    -0.228 OA 
BRANCH  11  12
HETATM   12  C   UNL     1     -11.424  12.051  67.493  1.00  0.00    -0.333 C  
HETATM   13  O   UNL     1     -11.847  11.035  68.036  1.00  0.00    -0.593 OA 
BRANCH  12  14
HETATM   14  C   UNL     1     -11.577  12.238  66.017  1.00  0.00    -0.451 A  
HETATM   15  C   UNL     1     -12.364  13.342  65.620  1.00  0.00    -0.521 A  
HETATM   16  C   UNL     1     -12.603  13.625  64.273  1.00  0.00    -0.195 A  
HETATM   17  C   UNL     1     -12.060  12.808  63.290  1.00  0.00    -0.524 A  
HETATM   18  C   UNL     1     -11.275  11.716  63.656  1.00  0.00    -0.497 A  
HETATM   19  C   UNL     1     -11.027  11.434  65.012  1.00  0.00    -0.204 A  
HETATM   20  O   UNL     1     -10.238  10.360  65.313  1.00  0.00    -0.299 OA 
HETATM   21  H   UNL     1      -9.865   9.814  64.631  1.00  0.00     0.000 HD 
ENDBRANCH  12  14
ENDBRANCH  11  12
ENDBRANCH  10  11
TORSDOF 3
ENDMDL
MODEL       55
REMARK 921   NORMALIZED FREE ENERGY PREDICTED BY IDOCK:   -5.25 KCAL/MOL
REMARK 922        TOTAL FREE ENERGY PREDICTED BY IDOCK:   -7.11 KCAL/MOL
REMARK 923 INTER-LIGAND FREE ENERGY PREDICTED BY IDOCK:   -6.25 KCAL/MOL
REMARK 924 INTRA-LIGAND FREE ENERGY PREDICTED BY IDOCK:   -0.86 KCAL/MOL
REMARK 927      BINDING AFFINITY PREDICTED BY RF-SCORE:    0.00 PKD
ROOT
HETATM    1  C   UNL     1     -10.518  15.957  66.796  1.00  0.00    -0.309 C  
HETATM    2  C   UNL     1     -10.429  16.428  68.248  1.00  0.00    -0.302 C  
HETATM    3  C   UNL     1     -11.405  15.683  69.212  1.00  0.00    -0.348 C  
HETATM    4  C   UNL     1      -8.964  16.434  68.693  1.00  0.00    -0.233 C  
HETATM    5  C   UNL     1     -11.325  16.309  70.627  1.00  0.00    -0.321 C  
HETATM    6  C   UNL     1     -12.381  15.756  71.577  1.00  0.00    -0.514 C  
HETATM    7  C   UNL     1     -12.326  14.228  71.660  1.00  0.00    -0.392 C  
HETATM    8  C   UNL     1     -13.447  13.706  72.557  1.00  0.00    -0.675 C  
HETATM    9  C   UNL     1     -12.390  13.610  70.258  1.00  0.00    -0.392 C  
HETATM   10  C   UNL     1     -11.260  14.142  69.345  1.00  0.00    -0.255 C  
ENDROOT
BRANCH  10  11
HETATM   11  O   UNL     1     -11.345  13.465  68.069  1.00  0.00    -0.257 OA 
BRANCH  11  12
HETATM   12  C   UNL     1     -11.316  12.104  68.142  1.00  0.00    -0.293 C  
HETATM   13  O   UNL     1     -12.279  11.387  67.889  1.00  0.00    -0.592 OA 
BRANCH  12  14
HETATM   14  C   UNL     1     -10.019  11.501  68.579  1.00  0.00    -0.207 A  
HETATM   15  C   UNL     1     -10.119  10.464  69.532  1.00  0.00    -0.246 A  
HETATM   16  C   UNL     1      -8.986   9.824  70.041  1.00  0.00    -0.255 A  
HETATM   17  C   UNL     1      -7.725  10.209  69.608  1.00  0.00    -0.167 A  
HETATM   18  C   UNL     1      -7.599  11.227  68.663  1.00  0.00    -0.129 A  
HETATM   19  C   UNL     1      -8.740  11.867  68.144  1.00  0.00    -0.173 A  
HETATM   20  O   UNL     1      -8.560  12.847  67.210  1.00  0.00    -0.189 OA 
HETATM   21  H   UNL     1      -7.691  13.095  66.914  1.00  0.00     0.000 HD 
ENDBRANCH  12  14
ENDBRANCH  11  12
ENDBRANCH  10  11
TORSDOF 3
ENDMDL
MODEL       56
REMARK 921   NORMALIZED FREE ENERGY PREDICTED BY IDOCK:   -5.22 KCAL/MOL
REMARK 922        TOTAL FREE ENERGY PREDICTED BY IDOCK:   -7.08 KCAL/MOL
REMARK 923 INTER-LIGAND FREE ENERGY PREDICTED BY IDOCK:   -6.19 KCAL/MOL
REMARK 924 INTRA-LIGAND FREE ENERGY PREDICTED BY IDOCK:   -0.88 KCAL/MOL
REMARK 927      BINDING AFFINITY PREDICTED BY RF-SCORE:    0.00 PKD
ROOT
HETATM    1  C   UNL     1      -8.555  14.617  68.933  1.00  0.00    -0.131 C  
HETATM    2  C   UNL     1      -9.262  15.870  69.451  1.00  0.00    -0.235 C  
HETATM    3  C   UNL     1      -9.419  16.993  68.380  1.00  0.00    -0.269 C  
HETATM    4  C   UNL     1     -10.559  15.467  70.158  1.00  0.00    -0.314 C  
HETATM    5  C   UNL     1     -10.036  18.257  69.030  1.00  0.00    -0.283 C  
HETATM    6  C   UNL     1     -10.051  19.457  68.090  1.00  0.00    -0.526 C  
HETATM    7  C   UNL     1     -10.754  19.133  66.768  1.00  0.00    -0.488 C  
HETATM    8  C   UNL     1     -10.680  20.331  65.823  1.00  0.00    -0.151 C  
HETATM    9  C   UNL     1     -10.152  17.873  66.132  1.00  0.00    -0.322 C  
HETATM   10  C   UNL     1     -10.220  16.661  67.091  1.00  0.00    -0.290 C  
ENDROOT
BRANCH  10  11
HETATM   11  O   UNL     1      -9.700  15.501  66.398  1.00  0.00    -0.247 OA 
BRANCH  11  12
HETATM   12  C   UNL     1     -10.648  14.692  65.846  1.00  0.00    -0.311 C  
HETATM   13  O   UNL     1     -11.355  15.020  64.899  1.00  0.00    -0.389 OA 
BRANCH  12  14
HETATM   14  C   UNL     1     -10.810  13.348  66.482  1.00  0.00    -0.286 A  
HETATM   15  C   UNL     1      -9.949  12.338  65.999  1.00  0.00    -0.270 A  
HETATM   16  C   UNL     1     -10.004  11.031  66.493  1.00  0.00    -0.253 A  
HETATM   17  C   UNL     1     -10.924  10.706  67.480  1.00  0.00    -0.371 A  
HETATM   18  C   UNL     1     -11.780  11.686  67.977  1.00  0.00    -0.351 A  
HETATM   19  C   UNL     1     -11.721  13.005  67.487  1.00  0.00    -0.370 A  
HETATM   20  O   UNL     1     -12.574  13.929  68.020  1.00  0.00    -0.335 OA 
HETATM   21  H   UNL     1     -13.193  13.695  68.702  1.00  0.00     0.000 HD 
ENDBRANCH  12  14
ENDBRANCH  11  12
ENDBRANCH  10  11
TORSDOF 3
ENDMDL
MODEL       57
REMARK 921   NORMALIZED FREE ENERGY PREDICTED BY IDOCK:   -5.20 KCAL/MOL
REMARK 922        TOTAL FREE ENERGY PREDICTED BY IDOCK:   -7.05 KCAL/MOL
REMARK 923 INTER-LIGAND FREE ENERGY PREDICTED BY IDOCK:   -6.41 KCAL/MOL
REMARK 924 INTRA-LIGAND FREE ENERGY PREDICTED BY IDOCK:   -0.64 KCAL/MOL
REMARK 927      BINDING AFFINITY PREDICTED BY RF-SCORE:    0.00 PKD
ROOT
HETATM    1  C   UNL     1     -11.513   8.923  71.222  1.00  0.00    -0.368 C  
HETATM    2  C   UNL     1     -12.624   9.850  71.717  1.00  0.00    -0.506 C  
HETATM    3  C   UNL     1     -12.347  11.362  71.450  1.00  0.00    -0.270 C  
HETATM    4  C   UNL     1     -13.975   9.342  71.208  1.00  0.00    -0.114 C  
HETATM    5  C   UNL     1     -13.466  12.222  72.090  1.00  0.00    -0.431 C  
HETATM    6  C   UNL     1     -13.170  13.716  72.029  1.00  0.00    -0.522 C  
HETATM    7  C   UNL     1     -12.884  14.181  70.598  1.00  0.00    -0.356 C  
HETATM    8  C   UNL     1     -12.515  15.663  70.587  1.00  0.00    -0.463 C  
HETATM    9  C   UNL     1     -11.787  13.320  69.961  1.00  0.00    -0.365 C  
HETATM   10  C   UNL     1     -12.157  11.818  69.977  1.00  0.00    -0.310 C  
ENDROOT
BRANCH  10  11
HETATM   11  O   UNL     1     -11.110  11.082  69.300  1.00  0.00    -0.218 OA 
BRANCH  11  12
HETATM   12  C   UNL     1     -11.285  10.946  67.955  1.00  0.00    -0.314 C  
HETATM   13  O   UNL     1     -12.066  11.628  67.298  1.00  0.00    -0.595 OA 
BRANCH  12  14
HETATM   14  C   UNL     1     -10.472   9.879  67.295  1.00  0.00    -0.319 A  
HETATM   15  C   UNL     1     -10.038   8.833  68.139  1.00  0.00    -0.228 A  
HETATM   16  C   UNL     1      -9.257   7.779  67.657  1.00  0.00    -0.146 A  
HETATM   17  C   UNL     1      -8.889   7.750  66.319  1.00  0.00    -0.187 A  
HETATM   18  C   UNL     1      -9.309   8.768  65.465  1.00  0.00    -0.165 A  
HETATM   19  C   UNL     1     -10.103   9.826  65.946  1.00  0.00    -0.243 A  
HETATM   20  O   UNL     1     -10.499  10.788  65.061  1.00  0.00    -0.293 OA 
HETATM   21  H   UNL     1     -10.248  10.751  64.145  1.00  0.00     0.000 HD 
ENDBRANCH  12  14
ENDBRANCH  11  12
ENDBRANCH  10  11
TORSDOF 3
ENDMDL
MODEL       58
REMARK 921   NORMALIZED FREE ENERGY PREDICTED BY IDOCK:   -5.19 KCAL/MOL
REMARK 922        TOTAL FREE ENERGY PREDICTED BY IDOCK:   -7.05 KCAL/MOL
REMARK 923 INTER-LIGAND FREE ENERGY PREDICTED BY IDOCK:   -6.29 KCAL/MOL
REMARK 924 INTRA-LIGAND FREE ENERGY PREDICTED BY IDOCK:   -0.75 KCAL/MOL
REMARK 927      BINDING AFFINITY PREDICTED BY RF-SCORE:    0.00 PKD
ROOT
HETATM    1  C   UNL     1     -11.686  10.368  70.759  1.00  0.00    -0.464 C  
HETATM    2  C   UNL     1     -11.058   8.981  70.900  1.00  0.00    -0.343 C  
HETATM    3  C   UNL     1     -11.139   8.118  69.602  1.00  0.00    -0.015 C  
HETATM    4  C   UNL     1      -9.655   9.116  71.498  1.00  0.00    -0.278 C  
HETATM    5  C   UNL     1     -10.586   6.698  69.880  1.00  0.00    -0.268 C  
HETATM    6  C   UNL     1     -10.800   5.742  68.712  1.00  0.00    -0.285 C  
HETATM    7  C   UNL     1     -10.222   6.301  67.408  1.00  0.00    -0.223 C  
HETATM    8  C   UNL     1     -10.525   5.354  66.247  1.00  0.00    -0.277 C  
HETATM    9  C   UNL     1     -10.758   7.712  67.142  1.00  0.00    -0.361 C  
HETATM   10  C   UNL     1     -10.459   8.670  68.319  1.00  0.00    -0.184 C  
ENDROOT
BRANCH  10  11
HETATM   11  O   UNL     1     -10.932   9.991  67.966  1.00  0.00    -0.261 OA 
BRANCH  11  12
HETATM   12  C   UNL     1     -10.092  10.702  67.159  1.00  0.00    -0.207 C  
HETATM   13  O   UNL     1      -8.911  10.909  67.420  1.00  0.00    -0.136 OA 
BRANCH  12  14
HETATM   14  C   UNL     1     -10.700  11.254  65.910  1.00  0.00    -0.291 A  
HETATM   15  C   UNL     1     -11.693  12.240  66.098  1.00  0.00    -0.440 A  
HETATM   16  C   UNL     1     -12.355  12.829  65.018  1.00  0.00    -0.559 A  
HETATM   17  C   UNL     1     -12.039  12.443  63.723  1.00  0.00    -0.618 A  
HETATM   18  C   UNL     1     -11.058  11.476  63.510  1.00  0.00    -0.434 A  
HETATM   19  C   UNL     1     -10.385  10.887  64.596  1.00  0.00    -0.338 A  
HETATM   20  O   UNL     1      -9.422   9.956  64.329  1.00  0.00    -0.313 OA 
HETATM   21  H   UNL     1      -9.208   9.707  63.437  1.00  0.00     0.000 HD 
ENDBRANCH  12  14
ENDBRANCH  11  12
ENDBRANCH  10  11
TORSDOF 3
ENDMDL
MODEL       59
REMARK 921   NORMALIZED FREE ENERGY PREDICTED BY IDOCK:   -5.19 KCAL/MOL
REMARK 922        TOTAL FREE ENERGY PREDICTED BY IDOCK:   -7.04 KCAL/MOL
REMARK 923 INTER-LIGAND FREE ENERGY PREDICTED BY IDOCK:   -6.35 KCAL/MOL
REMARK 924 INTRA-LIGAND FREE ENERGY PREDICTED BY IDOCK:   -0.69 KCAL/MOL
REMARK 927      BINDING AFFINITY PREDICTED BY RF-SCORE:    0.00 PKD
ROOT
HETATM    1  C   UNL     1     -12.056  15.580  69.773  1.00  0.00    -0.372 C  
HETATM    2  C   UNL     1     -10.733  16.107  69.216  1.00  0.00    -0.295 C  
HETATM    3  C   UNL     1      -9.676  14.993  68.945  1.00  0.00    -0.224 C  
HETATM    4  C   UNL     1     -11.013  17.034  68.030  1.00  0.00    -0.252 C  
HETATM    5  C   UNL     1      -8.338  15.635  68.498  1.00  0.00    -0.166 C  
HETATM    6  C   UNL     1      -7.204  14.623  68.391  1.00  0.00    -0.117 C  
HETATM    7  C   UNL     1      -7.573  13.452  67.474  1.00  0.00    -0.176 C  
HETATM    8  C   UNL     1      -6.445  12.421  67.454  1.00  0.00    -0.154 C  
HETATM    9  C   UNL     1      -8.904  12.827  67.908  1.00  0.00    -0.186 C  
HETATM   10  C   UNL     1     -10.045  13.871  67.935  1.00  0.00    -0.242 C  
ENDROOT
BRANCH  10  11
HETATM   11  O   UNL     1     -11.276  13.194  68.284  1.00  0.00    -0.244 OA 
BRANCH  11  12
HETATM   12  C   UNL     1     -11.580  12.122  67.500  1.00  0.00    -0.343 C  
HETATM   13  O   UNL     1     -11.796  10.996  67.938  1.00  0.00    -0.600 OA 
BRANCH  12  14
HETATM   14  C   UNL     1     -11.620  12.380  66.028  1.00  0.00    -0.455 A  
HETATM   15  C   UNL     1     -10.899  11.467  65.228  1.00  0.00    -0.297 A  
HETATM   16  C   UNL     1     -10.837  11.598  63.838  1.00  0.00    -0.471 A  
HETATM   17  C   UNL     1     -11.494  12.651  63.216  1.00  0.00    -0.368 A  
HETATM   18  C   UNL     1     -12.218  13.563  63.983  1.00  0.00    -0.458 A  
HETATM   19  C   UNL     1     -12.288  13.427  65.382  1.00  0.00    -0.477 A  
HETATM   20  O   UNL     1     -13.024  14.341  66.082  1.00  0.00    -0.454 OA 
HETATM   21  H   UNL     1     -13.477  15.051  65.643  1.00  0.00     0.000 HD 
ENDBRANCH  12  14
ENDBRANCH  11  12
ENDBRANCH  10  11
TORSDOF 3
ENDMDL
MODEL       60
REMARK 921   NORMALIZED FREE ENERGY PREDICTED BY IDOCK:   -5.19 KCAL/MOL
REMARK 922        TOTAL FREE ENERGY PREDICTED BY IDOCK:   -7.04 KCAL/MOL
REMARK 923 INTER-LIGAND FREE ENERGY PREDICTED BY IDOCK:   -6.20 KCAL/MOL
REMARK 924 INTRA-LIGAND FREE ENERGY PREDICTED BY IDOCK:   -0.85 KCAL/MOL
REMARK 927      BINDING AFFINITY PREDICTED BY RF-SCORE:    0.00 PKD
ROOT
HETATM    1  C   UNL     1      -8.875   8.323  73.180  1.00  0.00    -0.292 C  
HETATM    2  C   UNL     1      -8.240   6.937  73.057  1.00  0.00    -0.117 C  
HETATM    3  C   UNL     1      -9.210   5.767  73.408  1.00  0.00    -0.132 C  
HETATM    4  C   UNL     1      -7.545   6.814  71.699  1.00  0.00    -0.088 C  
HETATM    5  C   UNL     1      -8.445   4.420  73.370  1.00  0.00    -0.097 C  
HETATM    6  C   UNL     1      -9.281   3.252  73.879  1.00  0.00    -0.099 C  
HETATM    7  C   UNL     1     -10.612   3.137  73.130  1.00  0.00    -0.261 C  
HETATM    8  C   UNL     1     -11.454   2.007  73.720  1.00  0.00    -0.277 C  
HETATM    9  C   UNL     1     -11.362   4.474  73.156  1.00  0.00    -0.318 C  
HETATM   10  C   UNL     1     -10.507   5.621  72.566  1.00  0.00    -0.213 C  
ENDROOT
BRANCH  10  11
HETATM   11  O   UNL     1     -11.304   6.829  72.561  1.00  0.00    -0.262 OA 
BRANCH  11  12
HETATM   12  C   UNL     1     -11.620   7.300  71.321  1.00  0.00    -0.286 C  
HETATM   13  O   UNL     1     -11.625   6.606  70.309  1.00  0.00    -0.370 OA 
BRANCH  12  14
HETATM   14  C   UNL     1     -11.951   8.756  71.241  1.00  0.00    -0.353 A  
HETATM   15  C   UNL     1     -11.276   9.481  70.235  1.00  0.00    -0.307 A  
HETATM   16  C   UNL     1     -11.478  10.853  70.059  1.00  0.00    -0.411 A  
HETATM   17  C   UNL     1     -12.359  11.531  70.889  1.00  0.00    -0.460 A  
HETATM   18  C   UNL     1     -13.043  10.837  71.886  1.00  0.00    -0.557 A  
HETATM   19  C   UNL     1     -12.846   9.454  72.059  1.00  0.00    -0.414 A  
HETATM   20  O   UNL     1     -13.553   8.822  73.042  1.00  0.00    -0.882 OA 
HETATM   21  H   UNL     1     -14.161   9.296  73.598  1.00  0.00     0.000 HD 
ENDBRANCH  12  14
ENDBRANCH  11  12
ENDBRANCH  10  11
TORSDOF 3
ENDMDL
MODEL       61
REMARK 921   NORMALIZED FREE ENERGY PREDICTED BY IDOCK:   -5.18 KCAL/MOL
REMARK 922        TOTAL FREE ENERGY PREDICTED BY IDOCK:   -7.03 KCAL/MOL
REMARK 923 INTER-LIGAND FREE ENERGY PREDICTED BY IDOCK:   -6.21 KCAL/MOL
REMARK 924 INTRA-LIGAND FREE ENERGY PREDICTED BY IDOCK:   -0.82 KCAL/MOL
REMARK 927      BINDING AFFINITY PREDICTED BY RF-SCORE:    0.00 PKD
ROOT
HETATM    1  C   UNL     1     -10.941  19.356  67.502  1.00  0.00    -0.416 C  
HETATM    2  C   UNL     1      -9.525  19.922  67.612  1.00  0.00    -0.479 C  
HETATM    3  C   UNL     1      -8.587  19.093  68.543  1.00  0.00    -0.398 C  
HETATM    4  C   UNL     1      -8.971  20.186  66.209  1.00  0.00    -0.327 C  
HETATM    5  C   UNL     1      -7.219  19.808  68.682  1.00  0.00    -0.358 C  
HETATM    6  C   UNL     1      -6.314  19.154  69.720  1.00  0.00    -0.260 C  
HETATM    7  C   UNL     1      -6.116  17.662  69.441  1.00  0.00    -0.242 C  
HETATM    8  C   UNL     1      -5.270  17.025  70.543  1.00  0.00    -0.236 C  
HETATM    9  C   UNL     1      -7.470  16.958  69.289  1.00  0.00    -0.116 C  
HETATM   10  C   UNL     1      -8.330  17.605  68.178  1.00  0.00    -0.259 C  
ENDROOT
BRANCH  10  11
HETATM   11  O   UNL     1      -9.555  16.847  68.048  1.00  0.00    -0.238 OA 
BRANCH  11  12
HETATM   12  C   UNL     1      -9.514  15.849  67.119  1.00  0.00    -0.213 C  
HETATM   13  O   UNL     1      -8.937  15.945  66.041  1.00  0.00    -0.333 OA 
BRANCH  12  14
HETATM   14  C   UNL     1     -10.248  14.596  67.475  1.00  0.00    -0.225 A  
HETATM   15  C   UNL     1     -10.719  13.834  66.384  1.00  0.00    -0.281 A  
HETATM   16  C   UNL     1     -11.435  12.648  66.572  1.00  0.00    -0.409 A  
HETATM   17  C   UNL     1     -11.697  12.199  67.859  1.00  0.00    -0.403 A  
HETATM   18  C   UNL     1     -11.237  12.930  68.953  1.00  0.00    -0.327 A  
HETATM   19  C   UNL     1     -10.509  14.120  68.765  1.00  0.00    -0.247 A  
HETATM   20  O   UNL     1     -10.070  14.787  69.873  1.00  0.00    -0.438 OA 
HETATM   21  H   UNL     1     -10.247  14.464  70.748  1.00  0.00     0.000 HD 
ENDBRANCH  12  14
ENDBRANCH  11  12
ENDBRANCH  10  11
TORSDOF 3
ENDMDL
MODEL       62
REMARK 921   NORMALIZED FREE ENERGY PREDICTED BY IDOCK:   -5.12 KCAL/MOL
REMARK 922        TOTAL FREE ENERGY PREDICTED BY IDOCK:   -6.95 KCAL/MOL
REMARK 923 INTER-LIGAND FREE ENERGY PREDICTED BY IDOCK:   -5.86 KCAL/MOL
REMARK 924 INTRA-LIGAND FREE ENERGY PREDICTED BY IDOCK:   -1.10 KCAL/MOL
REMARK 927      BINDING AFFINITY PREDICTED BY RF-SCORE:    0.00 PKD
ROOT
HETATM    1  C   UNL     1     -11.054   9.897  67.629  1.00  0.00    -0.170 C  
HETATM    2  C   UNL     1     -10.755  11.336  68.051  1.00  0.00    -0.245 C  
HETATM    3  C   UNL     1     -11.785  11.921  69.066  1.00  0.00    -0.391 C  
HETATM    4  C   UNL     1      -9.290  11.445  68.484  1.00  0.00    -0.180 C  
HETATM    5  C   UNL     1     -11.465  13.413  69.339  1.00  0.00    -0.333 C  
HETATM    6  C   UNL     1     -12.534  14.102  70.178  1.00  0.00    -0.391 C  
HETATM    7  C   UNL     1     -12.793  13.357  71.491  1.00  0.00    -0.427 C  
HETATM    8  C   UNL     1     -13.924  14.031  72.267  1.00  0.00    -0.651 C  
HETATM    9  C   UNL     1     -13.095  11.879  71.221  1.00  0.00    -0.228 C  
HETATM   10  C   UNL     1     -11.955  11.197  70.429  1.00  0.00    -0.378 C  
ENDROOT
BRANCH  10  11
HETATM   11  O   UNL     1     -12.280   9.795  70.275  1.00  0.00    -0.135 OA 
BRANCH  11  12
HETATM   12  C   UNL     1     -11.685   8.967  71.181  1.00  0.00    -0.302 C  
HETATM   13  O   UNL     1     -12.104   8.791  72.320  1.00  0.00    -0.366 OA 
BRANCH  12  14
HETATM   14  C   UNL     1     -10.444   8.276  70.716  1.00  0.00    -0.223 A  
HETATM   15  C   UNL     1      -9.227   8.860  71.133  1.00  0.00    -0.324 A  
HETATM   16  C   UNL     1      -7.991   8.327  70.757  1.00  0.00    -0.100 A  
HETATM   17  C   UNL     1      -7.945   7.196  69.953  1.00  0.00    -0.122 A  
HETATM   18  C   UNL     1      -9.131   6.597  69.534  1.00  0.00    -0.144 A  
HETATM   19  C   UNL     1     -10.377   7.128  69.917  1.00  0.00    -0.213 A  
HETATM   20  O   UNL     1     -11.507   6.492  69.490  1.00  0.00    -0.533 OA 
HETATM   21  H   UNL     1     -11.462   5.713  68.948  1.00  0.00     0.000 HD 
ENDBRANCH  12  14
ENDBRANCH  11  12
ENDBRANCH  10  11
TORSDOF 3
ENDMDL
MODEL       63
REMARK 921   NORMALIZED FREE ENERGY PREDICTED BY IDOCK:   -5.10 KCAL/MOL
REMARK 922        TOTAL FREE ENERGY PREDICTED BY IDOCK:   -6.93 KCAL/MOL
REMARK 923 INTER-LIGAND FREE ENERGY PREDICTED BY IDOCK:   -6.63 KCAL/MOL
REMARK 924 INTRA-LIGAND FREE ENERGY PREDICTED BY IDOCK:   -0.30 KCAL/MOL
REMARK 927      BINDING AFFINITY PREDICTED BY RF-SCORE:    0.00 PKD
ROOT
HETATM    1  C   UNL     1     -11.277  16.054  70.086  1.00  0.00    -0.376 C  
HETATM    2  C   UNL     1     -12.107  14.964  69.406  1.00  0.00    -0.297 C  
HETATM    3  C   UNL     1     -11.667  14.661  67.941  1.00  0.00    -0.379 C  
HETATM    4  C   UNL     1     -12.188  13.740  70.322  1.00  0.00    -0.429 C  
HETATM    5  C   UNL     1     -12.637  13.635  67.302  1.00  0.00     0.231 C  
HETATM    6  C   UNL     1     -12.380  13.427  65.814  1.00  0.00    -0.513 C  
HETATM    7  C   UNL     1     -10.925  13.037  65.538  1.00  0.00    -0.296 C  
HETATM    8  C   UNL     1     -10.687  12.915  64.034  1.00  0.00    -0.429 C  
HETATM    9  C   UNL     1      -9.966  14.045  66.183  1.00  0.00    -0.325 C  
HETATM   10  C   UNL     1     -10.210  14.175  67.704  1.00  0.00    -0.241 C  
ENDROOT
BRANCH  10  11
HETATM   11  O   UNL     1      -9.227  15.086  68.250  1.00  0.00    -0.175 OA 
BRANCH  11  12
HETATM   12  C   UNL     1      -8.741  16.000  67.362  1.00  0.00    -0.180 C  
HETATM   13  O   UNL     1      -7.878  15.748  66.528  1.00  0.00    -0.220 OA 
BRANCH  12  14
HETATM   14  C   UNL     1      -9.311  17.378  67.467  1.00  0.00    -0.233 A  
HETATM   15  C   UNL     1      -9.021  18.069  68.664  1.00  0.00    -0.278 A  
HETATM   16  C   UNL     1      -9.505  19.359  68.902  1.00  0.00    -0.448 A  
HETATM   17  C   UNL     1     -10.293  19.986  67.946  1.00  0.00    -0.506 A  
HETATM   18  C   UNL     1     -10.589  19.328  66.754  1.00  0.00    -0.543 A  
HETATM   19  C   UNL     1     -10.096  18.032  66.510  1.00  0.00    -0.379 A  
HETATM   20  O   UNL     1     -10.404  17.440  65.318  1.00  0.00    -0.616 OA 
HETATM   21  H   UNL     1     -10.937  17.884  64.668  1.00  0.00     0.000 HD 
ENDBRANCH  12  14
ENDBRANCH  11  12
ENDBRANCH  10  11
TORSDOF 3
ENDMDL
MODEL       64
REMARK 921   NORMALIZED FREE ENERGY PREDICTED BY IDOCK:   -5.07 KCAL/MOL
REMARK 922        TOTAL FREE ENERGY PREDICTED BY IDOCK:   -6.90 KCAL/MOL
REMARK 923 INTER-LIGAND FREE ENERGY PREDICTED BY IDOCK:   -6.03 KCAL/MOL
REMARK 924 INTRA-LIGAND FREE ENERGY PREDICTED BY IDOCK:   -0.87 KCAL/MOL
REMARK 927      BINDING AFFINITY PREDICTED BY RF-SCORE:    0.00 PKD
ROOT
HETATM    1  C   UNL     1      -7.476  14.280  67.445  1.00  0.00    -0.172 C  
HETATM    2  C   UNL     1      -7.056  15.545  68.195  1.00  0.00    -0.126 C  
HETATM    3  C   UNL     1      -7.803  16.831  67.726  1.00  0.00    -0.187 C  
HETATM    4  C   UNL     1      -7.105  15.283  69.702  1.00  0.00    -0.187 C  
HETATM    5  C   UNL     1      -7.227  18.070  68.457  1.00  0.00    -0.265 C  
HETATM    6  C   UNL     1      -7.781  19.384  67.919  1.00  0.00    -0.319 C  
HETATM    7  C   UNL     1      -9.312  19.407  67.945  1.00  0.00    -0.397 C  
HETATM    8  C   UNL     1      -9.831  20.705  67.326  1.00  0.00    -0.529 C  
HETATM    9  C   UNL     1      -9.882  18.174  67.234  1.00  0.00    -0.316 C  
HETATM   10  C   UNL     1      -9.351  16.860  67.854  1.00  0.00    -0.238 C  
ENDROOT
BRANCH  10  11
HETATM   11  O   UNL     1      -9.984  15.747  67.179  1.00  0.00    -0.236 OA 
BRANCH  11  12
HETATM   12  C   UNL     1     -10.982  15.143  67.885  1.00  0.00    -0.302 C  
HETATM   13  O   UNL     1     -11.794  15.752  68.574  1.00  0.00    -0.363 OA 
BRANCH  12  14
HETATM   14  C   UNL     1     -11.033  13.651  67.796  1.00  0.00    -0.276 A  
HETATM   15  C   UNL     1     -10.773  13.107  66.519  1.00  0.00    -0.288 A  
HETATM   16  C   UNL     1     -10.804  11.728  66.290  1.00  0.00    -0.325 A  
HETATM   17  C   UNL     1     -11.099  10.863  67.335  1.00  0.00    -0.373 A  
HETATM   18  C   UNL     1     -11.353  11.375  68.606  1.00  0.00    -0.327 A  
HETATM   19  C   UNL     1     -11.315  12.762  68.840  1.00  0.00    -0.296 A  
HETATM   20  O   UNL     1     -11.557  13.208  70.108  1.00  0.00    -0.506 OA 
HETATM   21  H   UNL     1     -11.748  12.605  70.817  1.00  0.00     0.000 HD 
ENDBRANCH  12  14
ENDBRANCH  11  12
ENDBRANCH  10  11
TORSDOF 3
ENDMDL
MODEL       65
REMARK 921   NORMALIZED FREE ENERGY PREDICTED BY IDOCK:   -5.04 KCAL/MOL
REMARK 922        TOTAL FREE ENERGY PREDICTED BY IDOCK:   -6.87 KCAL/MOL
REMARK 923 INTER-LIGAND FREE ENERGY PREDICTED BY IDOCK:   -6.10 KCAL/MOL
REMARK 924 INTRA-LIGAND FREE ENERGY PREDICTED BY IDOCK:   -0.77 KCAL/MOL
REMARK 927      BINDING AFFINITY PREDICTED BY RF-SCORE:    0.00 PKD
ROOT
HETATM    1  C   UNL     1      -9.002   6.600  66.701  1.00  0.00    -0.150 C  
HETATM    2  C   UNL     1      -8.743   7.846  65.854  1.00  0.00    -0.180 C  
HETATM    3  C   UNL     1      -9.767   8.997  66.098  1.00  0.00    -0.354 C  
HETATM    4  C   UNL     1      -7.272   8.253  65.984  1.00  0.00    -0.072 C  
HETATM    5  C   UNL     1      -9.492  10.163  65.114  1.00  0.00    -0.319 C  
HETATM    6  C   UNL     1     -10.564  11.246  65.168  1.00  0.00    -0.343 C  
HETATM    7  C   UNL     1     -10.763  11.777  66.591  1.00  0.00    -0.300 C  
HETATM    8  C   UNL     1     -11.897  12.801  66.618  1.00  0.00    -0.462 C  
HETATM    9  C   UNL     1     -11.021  10.622  67.566  1.00  0.00    -0.371 C  
HETATM   10  C   UNL     1      -9.877   9.580  67.534  1.00  0.00    -0.167 C  
ENDROOT
BRANCH  10  11
HETATM   11  O   UNL     1     -10.157   8.563  68.525  1.00  0.00    -0.183 OA 
BRANCH  11  12
HETATM   12  C   UNL     1     -10.149   9.005  69.815  1.00  0.00    -0.200 C  
HETATM   13  O   UNL     1      -9.184   9.550  70.342  1.00  0.00    -0.242 OA 
BRANCH  12  14
HETATM   14  C   UNL     1     -11.403   8.769  70.593  1.00  0.00    -0.289 A  
HETATM   15  C   UNL     1     -11.978   9.914  71.186  1.00  0.00    -0.473 A  
HETATM   16  C   UNL     1     -13.143   9.836  71.955  1.00  0.00    -0.544 A  
HETATM   17  C   UNL     1     -13.757   8.607  72.150  1.00  0.00    -0.462 A  
HETATM   18  C   UNL     1     -13.213   7.462  71.572  1.00  0.00    -0.426 A  
HETATM   19  C   UNL     1     -12.045   7.540  70.790  1.00  0.00    -0.161 A  
HETATM   20  O   UNL     1     -11.563   6.389  70.234  1.00  0.00    -0.399 OA 
HETATM   21  H   UNL     1     -11.999   5.556  70.368  1.00  0.00     0.000 HD 
ENDBRANCH  12  14
ENDBRANCH  11  12
ENDBRANCH  10  11
TORSDOF 3
ENDMDL
MODEL       66
REMARK 921   NORMALIZED FREE ENERGY PREDICTED BY IDOCK:   -5.02 KCAL/MOL
REMARK 922        TOTAL FREE ENERGY PREDICTED BY IDOCK:   -6.84 KCAL/MOL
REMARK 923 INTER-LIGAND FREE ENERGY PREDICTED BY IDOCK:   -6.35 KCAL/MOL
REMARK 924 INTRA-LIGAND FREE ENERGY PREDICTED BY IDOCK:   -0.49 KCAL/MOL
REMARK 927      BINDING AFFINITY PREDICTED BY RF-SCORE:    0.00 PKD
ROOT
HETATM    1  C   UNL     1     -12.526   7.159  71.263  1.00  0.00    -0.425 C  
HETATM    2  C   UNL     1     -11.062   7.190  71.705  1.00  0.00    -0.267 C  
HETATM    3  C   UNL     1     -10.138   8.024  70.765  1.00  0.00    -0.207 C  
HETATM    4  C   UNL     1     -10.985   7.568  73.187  1.00  0.00    -0.420 C  
HETATM    5  C   UNL     1      -8.664   7.896  71.227  1.00  0.00    -0.149 C  
HETATM    6  C   UNL     1      -7.682   8.534  70.252  1.00  0.00    -0.077 C  
HETATM    7  C   UNL     1      -8.034   9.998  69.969  1.00  0.00    -0.166 C  
HETATM    8  C   UNL     1      -7.077  10.580  68.929  1.00  0.00    -0.074 C  
HETATM    9  C   UNL     1      -9.496  10.125  69.525  1.00  0.00    -0.235 C  
HETATM   10  C   UNL     1     -10.466   9.530  70.574  1.00  0.00    -0.296 C  
ENDROOT
BRANCH  10  11
HETATM   11  O   UNL     1     -11.822   9.749  70.118  1.00  0.00    -0.196 OA 
BRANCH  11  12
HETATM   12  C   UNL     1     -12.052  10.980  69.579  1.00  0.00    -0.329 C  
HETATM   13  O   UNL     1     -11.928  11.235  68.385  1.00  0.00    -0.555 OA 
BRANCH  12  14
HETATM   14  C   UNL     1     -12.456  12.050  70.543  1.00  0.00    -0.292 A  
HETATM   15  C   UNL     1     -12.036  13.357  70.214  1.00  0.00    -0.419 A  
HETATM   16  C   UNL     1     -12.330  14.450  71.034  1.00  0.00    -0.427 A  
HETATM   17  C   UNL     1     -13.049  14.257  72.206  1.00  0.00    -0.493 A  
HETATM   18  C   UNL     1     -13.479  12.977  72.551  1.00  0.00    -0.522 A  
HETATM   19  C   UNL     1     -13.191  11.877  71.721  1.00  0.00    -0.321 A  
HETATM   20  O   UNL     1     -13.651  10.647  72.100  1.00  0.00    -0.476 OA 
HETATM   21  H   UNL     1     -14.150  10.530  72.899  1.00  0.00     0.000 HD 
ENDBRANCH  12  14
ENDBRANCH  11  12
ENDBRANCH  10  11
TORSDOF 3
ENDMDL
MODEL       67
REMARK 921   NORMALIZED FREE ENERGY PREDICTED BY IDOCK:   -5.02 KCAL/MOL
REMARK 922        TOTAL FREE ENERGY PREDICTED BY IDOCK:   -6.84 KCAL/MOL
REMARK 923 INTER-LIGAND FREE ENERGY PREDICTED BY IDOCK:   -6.40 KCAL/MOL
REMARK 924 INTRA-LIGAND FREE ENERGY PREDICTED BY IDOCK:   -0.44 KCAL/MOL
REMARK 927      BINDING AFFINITY PREDICTED BY RF-SCORE:    0.00 PKD
ROOT
HETATM    1  C   UNL     1     -12.128  14.222  63.999  1.00  0.00    -0.350 C  
HETATM    2  C   UNL     1     -11.616  12.784  63.913  1.00  0.00    -0.518 C  
HETATM    3  C   UNL     1     -10.864  12.306  65.193  1.00  0.00    -0.340 C  
HETATM    4  C   UNL     1     -12.751  11.866  63.451  1.00  0.00    -0.496 C  
HETATM    5  C   UNL     1     -10.284  10.887  64.964  1.00  0.00    -0.367 C  
HETATM    6  C   UNL     1      -9.382  10.427  66.103  1.00  0.00    -0.210 C  
HETATM    7  C   UNL     1     -10.092  10.507  67.458  1.00  0.00    -0.225 C  
HETATM    8  C   UNL     1      -9.133  10.115  68.581  1.00  0.00    -0.143 C  
HETATM    9  C   UNL     1     -10.678  11.907  67.678  1.00  0.00    -0.253 C  
HETATM   10  C   UNL     1     -11.643  12.308  66.537  1.00  0.00    -0.377 C  
ENDROOT
BRANCH  10  11
HETATM   11  O   UNL     1     -12.206  13.605  66.850  1.00  0.00    -0.399 OA 
BRANCH  11  12
HETATM   12  C   UNL     1     -11.768  14.151  68.020  1.00  0.00    -0.359 C  
HETATM   13  O   UNL     1     -12.213  13.847  69.122  1.00  0.00    -0.356 OA 
BRANCH  12  14
HETATM   14  C   UNL     1     -10.698  15.188  67.896  1.00  0.00    -0.268 A  
HETATM   15  C   UNL     1     -10.635  15.854  66.653  1.00  0.00    -0.305 A  
HETATM   16  C   UNL     1      -9.674  16.835  66.394  1.00  0.00    -0.309 A  
HETATM   17  C   UNL     1      -8.750  17.170  67.375  1.00  0.00    -0.211 A  
HETATM   18  C   UNL     1      -8.795  16.531  68.613  1.00  0.00    -0.237 A  
HETATM   19  C   UNL     1      -9.768  15.549  68.878  1.00  0.00    -0.223 A  
HETATM   20  O   UNL     1      -9.775  14.966  70.113  1.00  0.00    -0.449 OA 
HETATM   21  H   UNL     1      -9.143  15.211  70.779  1.00  0.00     0.000 HD 
ENDBRANCH  12  14
ENDBRANCH  11  12
ENDBRANCH  10  11
TORSDOF 3
ENDMDL
MODEL       68
REMARK 921   NORMALIZED FREE ENERGY PREDICTED BY IDOCK:   -5.00 KCAL/MOL
REMARK 922        TOTAL FREE ENERGY PREDICTED BY IDOCK:   -6.82 KCAL/MOL
REMARK 923 INTER-LIGAND FREE ENERGY PREDICTED BY IDOCK:   -6.20 KCAL/MOL
REMARK 924 INTRA-LIGAND FREE ENERGY PREDICTED BY IDOCK:   -0.62 KCAL/MOL
REMARK 927      BINDING AFFINITY PREDICTED BY RF-SCORE:    0.00 PKD
ROOT
HETATM    1  C   UNL     1     -12.425   9.188  71.987  1.00  0.00    -0.452 C  
HETATM    2  C   UNL     1     -11.632   7.887  71.862  1.00  0.00    -0.338 C  
HETATM    3  C   UNL     1     -11.370   7.450  70.387  1.00  0.00    -0.273 C  
HETATM    4  C   UNL     1     -10.383   7.966  72.743  1.00  0.00    -0.399 C  
HETATM    5  C   UNL     1     -10.667   6.069  70.366  1.00  0.00    -0.358 C  
HETATM    6  C   UNL     1     -10.543   5.492  68.960  1.00  0.00    -0.271 C  
HETATM    7  C   UNL     1      -9.845   6.466  68.006  1.00  0.00    -0.126 C  
HETATM    8  C   UNL     1      -9.809   5.888  66.593  1.00  0.00    -0.197 C  
HETATM    9  C   UNL     1     -10.532   7.837  68.039  1.00  0.00    -0.244 C  
HETATM   10  C   UNL     1     -10.575   8.421  69.471  1.00  0.00    -0.213 C  
ENDROOT
BRANCH  10  11
HETATM   11  O   UNL     1     -11.172   9.738  69.410  1.00  0.00    -0.205 OA 
BRANCH  11  12
HETATM   12  C   UNL     1     -10.342  10.721  68.957  1.00  0.00    -0.215 C  
HETATM   13  O   UNL     1      -9.140  10.762  69.198  1.00  0.00    -0.167 OA 
BRANCH  12  14
HETATM   14  C   UNL     1     -10.988  11.796  68.143  1.00  0.00    -0.275 A  
HETATM   15  C   UNL     1     -11.179  11.495  66.777  1.00  0.00    -0.350 A  
HETATM   16  C   UNL     1     -11.756  12.415  65.897  1.00  0.00    -0.476 A  
HETATM   17  C   UNL     1     -12.153  13.660  66.365  1.00  0.00    -0.478 A  
HETATM   18  C   UNL     1     -11.980  13.980  67.711  1.00  0.00    -0.392 A  
HETATM   19  C   UNL     1     -11.407  13.051  68.600  1.00  0.00    -0.291 A  
HETATM   20  O   UNL     1     -11.276  13.411  69.911  1.00  0.00    -0.479 OA 
HETATM   21  H   UNL     1     -11.560  14.263  70.221  1.00  0.00     0.000 HD 
ENDBRANCH  12  14
ENDBRANCH  11  12
ENDBRANCH  10  11
TORSDOF 3
ENDMDL
MODEL       69
REMARK 921   NORMALIZED FREE ENERGY PREDICTED BY IDOCK:   -4.99 KCAL/MOL
REMARK 922        TOTAL FREE ENERGY PREDICTED BY IDOCK:   -6.81 KCAL/MOL
REMARK 923 INTER-LIGAND FREE ENERGY PREDICTED BY IDOCK:   -6.00 KCAL/MOL
REMARK 924 INTRA-LIGAND FREE ENERGY PREDICTED BY IDOCK:   -0.81 KCAL/MOL
REMARK 927      BINDING AFFINITY PREDICTED BY RF-SCORE:    0.00 PKD
ROOT
HETATM    1  C   UNL     1     -10.771   9.623  67.658  1.00  0.00    -0.324 C  
HETATM    2  C   UNL     1     -10.715  11.122  67.951  1.00  0.00    -0.261 C  
HETATM    3  C   UNL     1     -11.664  11.574  69.104  1.00  0.00    -0.395 C  
HETATM    4  C   UNL     1      -9.255  11.556  68.109  1.00  0.00    -0.181 C  
HETATM    5  C   UNL     1     -11.623  13.117  69.244  1.00  0.00    -0.370 C  
HETATM    6  C   UNL     1     -12.660  13.648  70.226  1.00  0.00    -0.253 C  
HETATM    7  C   UNL     1     -12.537  12.979  71.598  1.00  0.00    -0.222 C  
HETATM    8  C   UNL     1     -13.641  13.478  72.531  1.00  0.00    -0.674 C  
HETATM    9  C   UNL     1     -12.563  11.452  71.458  1.00  0.00    -0.393 C  
HETATM   10  C   UNL     1     -11.451  10.947  70.509  1.00  0.00    -0.220 C  
ENDROOT
BRANCH  10  11
HETATM   11  O   UNL     1     -11.495   9.500  70.482  1.00  0.00    -0.262 OA 
BRANCH  11  12
HETATM   12  C   UNL     1     -10.377   8.885  70.961  1.00  0.00    -0.253 C  
HETATM   13  O   UNL     1      -9.256   9.381  70.919  1.00  0.00    -0.244 OA 
BRANCH  12  14
HETATM   14  C   UNL     1     -10.580   7.522  71.543  1.00  0.00    -0.236 A  
HETATM   15  C   UNL     1      -9.697   6.523  71.078  1.00  0.00    -0.189 A  
HETATM   16  C   UNL     1      -9.785   5.202  71.525  1.00  0.00    -0.221 A  
HETATM   17  C   UNL     1     -10.761   4.850  72.447  1.00  0.00    -0.240 A  
HETATM   18  C   UNL     1     -11.642   5.819  72.925  1.00  0.00    -0.210 A  
HETATM   19  C   UNL     1     -11.549   7.152  72.482  1.00  0.00    -0.226 A  
HETATM   20  O   UNL     1     -12.428   8.063  72.996  1.00  0.00    -0.625 OA 
HETATM   21  H   UNL     1     -13.086   7.812  73.633  1.00  0.00     0.000 HD 
ENDBRANCH  12  14
ENDBRANCH  11  12
ENDBRANCH  10  11
TORSDOF 3
ENDMDL
MODEL       70
REMARK 921   NORMALIZED FREE ENERGY PREDICTED BY IDOCK:   -4.95 KCAL/MOL
REMARK 922        TOTAL FREE ENERGY PREDICTED BY IDOCK:   -6.76 KCAL/MOL
REMARK 923 INTER-LIGAND FREE ENERGY PREDICTED BY IDOCK:   -6.21 KCAL/MOL
REMARK 924 INTRA-LIGAND FREE ENERGY PREDICTED BY IDOCK:   -0.55 KCAL/MOL
REMARK 927      BINDING AFFINITY PREDICTED BY RF-SCORE:    0.00 PKD
ROOT
HETATM    1  C   UNL     1     -10.747  18.956  67.910  1.00  0.00    -0.362 C  
HETATM    2  C   UNL     1      -9.231  18.836  67.749  1.00  0.00    -0.316 C  
HETATM    3  C   UNL     1      -8.589  17.733  68.646  1.00  0.00    -0.264 C  
HETATM    4  C   UNL     1      -8.883  18.741  66.261  1.00  0.00    -0.242 C  
HETATM    5  C   UNL     1      -7.046  17.770  68.500  1.00  0.00    -0.245 C  
HETATM    6  C   UNL     1      -6.338  16.844  69.483  1.00  0.00    -0.233 C  
HETATM    7  C   UNL     1      -6.855  15.406  69.381  1.00  0.00    -0.174 C  
HETATM    8  C   UNL     1      -6.181  14.527  70.433  1.00  0.00    -0.174 C  
HETATM    9  C   UNL     1      -8.383  15.372  69.511  1.00  0.00    -0.204 C  
HETATM   10  C   UNL     1      -9.067  16.268  68.451  1.00  0.00    -0.203 C  
ENDROOT
BRANCH  10  11
HETATM   11  O   UNL     1     -10.501  16.130  68.592  1.00  0.00    -0.244 OA 
BRANCH  11  12
HETATM   12  C   UNL     1     -10.927  14.868  68.883  1.00  0.00    -0.251 C  
HETATM   13  O   UNL     1     -10.717  13.896  68.165  1.00  0.00    -0.240 OA 
BRANCH  12  14
HETATM   14  C   UNL     1     -11.708  14.719  70.149  1.00  0.00    -0.352 A  
HETATM   15  C   UNL     1     -12.264  13.441  70.376  1.00  0.00    -0.415 A  
HETATM   16  C   UNL     1     -13.032  13.166  71.512  1.00  0.00    -0.412 A  
HETATM   17  C   UNL     1     -13.261  14.166  72.446  1.00  0.00    -0.566 A  
HETATM   18  C   UNL     1     -12.719  15.434  72.248  1.00  0.00    -0.466 A  
HETATM   19  C   UNL     1     -11.939  15.711  71.109  1.00  0.00    -0.409 A  
HETATM   20  O   UNL     1     -11.419  16.967  70.974  1.00  0.00    -0.435 OA 
HETATM   21  H   UNL     1     -11.576  17.640  71.626  1.00  0.00     0.000 HD 
ENDBRANCH  12  14
ENDBRANCH  11  12
ENDBRANCH  10  11
TORSDOF 3
ENDMDL
MODEL       71
REMARK 921   NORMALIZED FREE ENERGY PREDICTED BY IDOCK:   -4.95 KCAL/MOL
REMARK 922        TOTAL FREE ENERGY PREDICTED BY IDOCK:   -6.76 KCAL/MOL
REMARK 923 INTER-LIGAND FREE ENERGY PREDICTED BY IDOCK:   -5.92 KCAL/MOL
REMARK 924 INTRA-LIGAND FREE ENERGY PREDICTED BY IDOCK:   -0.84 KCAL/MOL
REMARK 927      BINDING AFFINITY PREDICTED BY RF-SCORE:    0.00 PKD
ROOT
HETATM    1  C   UNL     1      -8.914   7.205  69.555  1.00  0.00    -0.140 C  
HETATM    2  C   UNL     1     -10.273   7.054  70.239  1.00  0.00    -0.206 C  
HETATM    3  C   UNL     1     -10.866   8.398  70.765  1.00  0.00    -0.255 C  
HETATM    4  C   UNL     1     -11.209   6.244  69.339  1.00  0.00    -0.489 C  
HETATM    5  C   UNL     1     -12.178   8.125  71.542  1.00  0.00    -0.332 C  
HETATM    6  C   UNL     1     -12.720   9.366  72.241  1.00  0.00    -0.416 C  
HETATM    7  C   UNL     1     -12.904  10.532  71.265  1.00  0.00    -0.532 C  
HETATM    8  C   UNL     1     -13.371  11.779  72.014  1.00  0.00    -0.417 C  
HETATM    9  C   UNL     1     -11.609  10.792  70.486  1.00  0.00    -0.425 C  
HETATM   10  C   UNL     1     -11.131   9.528  69.733  1.00  0.00    -0.191 C  
ENDROOT
BRANCH  10  11
HETATM   11  O   UNL     1      -9.949   9.870  68.970  1.00  0.00    -0.170 OA 
BRANCH  11  12
HETATM   12  C   UNL     1     -10.193  10.281  67.693  1.00  0.00    -0.205 C  
HETATM   13  O   UNL     1     -10.620   9.544  66.810  1.00  0.00    -0.212 OA 
BRANCH  12  14
HETATM   14  C   UNL     1      -9.886  11.715  67.399  1.00  0.00    -0.197 A  
HETATM   15  C   UNL     1      -8.576  12.136  67.714  1.00  0.00    -0.164 A  
HETATM   16  C   UNL     1      -8.159  13.454  67.507  1.00  0.00    -0.183 A  
HETATM   17  C   UNL     1      -9.047  14.382  66.981  1.00  0.00    -0.250 A  
HETATM   18  C   UNL     1     -10.345  13.990  66.656  1.00  0.00    -0.278 A  
HETATM   19  C   UNL     1     -10.763  12.661  66.857  1.00  0.00    -0.242 A  
HETATM   20  O   UNL     1     -12.041  12.329  66.507  1.00  0.00    -0.616 OA 
HETATM   21  H   UNL     1     -12.636  12.972  66.139  1.00  0.00     0.000 HD 
ENDBRANCH  12  14
ENDBRANCH  11  12
ENDBRANCH  10  11
TORSDOF 3
ENDMDL
MODEL       72
REMARK 921   NORMALIZED FREE ENERGY PREDICTED BY IDOCK:   -4.90 KCAL/MOL
REMARK 922        TOTAL FREE ENERGY PREDICTED BY IDOCK:   -6.70 KCAL/MOL
REMARK 923 INTER-LIGAND FREE ENERGY PREDICTED BY IDOCK:   -6.09 KCAL/MOL
REMARK 924 INTRA-LIGAND FREE ENERGY PREDICTED BY IDOCK:   -0.61 KCAL/MOL
REMARK 927      BINDING AFFINITY PREDICTED BY RF-SCORE:    0.00 PKD
ROOT
HETATM    1  C   UNL     1      -9.752   8.589  66.622  1.00  0.00    -0.318 C  
HETATM    2  C   UNL     1      -9.829   7.390  67.568  1.00  0.00    -0.203 C  
HETATM    3  C   UNL     1      -9.501   7.737  69.053  1.00  0.00    -0.150 C  
HETATM    4  C   UNL     1     -11.156   6.657  67.355  1.00  0.00    -0.398 C  
HETATM    5  C   UNL     1      -9.489   6.443  69.905  1.00  0.00    -0.163 C  
HETATM    6  C   UNL     1      -8.997   6.678  71.329  1.00  0.00    -0.144 C  
HETATM    7  C   UNL     1      -9.798   7.779  72.031  1.00  0.00    -0.226 C  
HETATM    8  C   UNL     1      -9.226   8.040  73.424  1.00  0.00    -0.332 C  
HETATM    9  C   UNL     1      -9.821   9.054  71.180  1.00  0.00    -0.371 C  
HETATM   10  C   UNL     1     -10.392   8.789  69.767  1.00  0.00    -0.211 C  
ENDROOT
BRANCH  10  11
HETATM   11  O   UNL     1     -10.446  10.047  69.053  1.00  0.00    -0.192 OA 
BRANCH  11  12
HETATM   12  C   UNL     1     -11.558  10.796  69.299  1.00  0.00    -0.305 C  
HETATM   13  O   UNL     1     -12.439  10.470  70.088  1.00  0.00    -0.295 OA 
BRANCH  12  14
HETATM   14  C   UNL     1     -11.673  12.069  68.522  1.00  0.00    -0.387 A  
HETATM   15  C   UNL     1     -11.719  11.924  67.118  1.00  0.00    -0.311 A  
HETATM   16  C   UNL     1     -11.809  13.031  66.269  1.00  0.00    -0.466 A  
HETATM   17  C   UNL     1     -11.852  14.310  66.808  1.00  0.00    -0.449 A  
HETATM   18  C   UNL     1     -11.813  14.479  68.191  1.00  0.00    -0.348 A  
HETATM   19  C   UNL     1     -11.731  13.365  69.047  1.00  0.00    -0.323 A  
HETATM   20  O   UNL     1     -11.711  13.588  70.394  1.00  0.00    -0.498 OA 
HETATM   21  H   UNL     1     -11.751  14.468  70.751  1.00  0.00     0.000 HD 
ENDBRANCH  12  14
ENDBRANCH  11  12
ENDBRANCH  10  11
TORSDOF 3
ENDMDL
MODEL       73
REMARK 921   NORMALIZED FREE ENERGY PREDICTED BY IDOCK:   -4.88 KCAL/MOL
REMARK 922        TOTAL FREE ENERGY PREDICTED BY IDOCK:   -6.67 KCAL/MOL
REMARK 923 INTER-LIGAND FREE ENERGY PREDICTED BY IDOCK:   -7.04 KCAL/MOL
REMARK 924 INTRA-LIGAND FREE ENERGY PREDICTED BY IDOCK:    0.37 KCAL/MOL
REMARK 927      BINDING AFFINITY PREDICTED BY RF-SCORE:    0.00 PKD
ROOT
HETATM    1  C   UNL     1     -12.661   8.933  72.287  1.00  0.00    -0.455 C  
HETATM    2  C   UNL     1     -11.548   8.127  71.615  1.00  0.00    -0.325 C  
HETATM    3  C   UNL     1     -11.382   8.429  70.094  1.00  0.00    -0.065 C  
HETATM    4  C   UNL     1     -10.264   8.245  72.440  1.00  0.00    -0.397 C  
HETATM    5  C   UNL     1     -10.318   7.483  69.483  1.00  0.00    -0.216 C  
HETATM    6  C   UNL     1     -10.232   7.593  67.965  1.00  0.00    -0.248 C  
HETATM    7  C   UNL     1      -9.992   9.037  67.514  1.00  0.00    -0.262 C  
HETATM    8  C   UNL     1      -9.990   9.120  65.988  1.00  0.00    -0.293 C  
HETATM    9  C   UNL     1     -11.036   9.975  68.130  1.00  0.00    -0.252 C  
HETATM   10  C   UNL     1     -11.044   9.886  69.675  1.00  0.00    -0.241 C  
ENDROOT
BRANCH  10  11
HETATM   11  O   UNL     1     -12.002  10.845  70.183  1.00  0.00    -0.290 OA 
BRANCH  11  12
HETATM   12  C   UNL     1     -11.679  12.150  69.955  1.00  0.00    -0.252 C  
HETATM   13  O   UNL     1     -10.794  12.509  69.185  1.00  0.00    -0.189 OA 
BRANCH  12  14
HETATM   14  C   UNL     1     -12.464  13.161  70.729  1.00  0.00    -0.389 A  
HETATM   15  C   UNL     1     -12.402  14.485  70.241  1.00  0.00    -0.408 A  
HETATM   16  C   UNL     1     -13.074  15.532  70.877  1.00  0.00    -0.508 A  
HETATM   17  C   UNL     1     -13.823  15.278  72.018  1.00  0.00    -0.626 A  
HETATM   18  C   UNL     1     -13.905  13.979  72.515  1.00  0.00    -0.610 A  
HETATM   19  C   UNL     1     -13.235  12.922  71.872  1.00  0.00    -0.423 A  
HETATM   20  O   UNL     1     -13.363  11.666  72.394  1.00  0.00    -0.592 OA 
HETATM   21  H   UNL     1     -13.887  11.504  73.170  1.00  0.00     0.000 HD 
ENDBRANCH  12  14
ENDBRANCH  11  12
ENDBRANCH  10  11
TORSDOF 3
ENDMDL
MODEL       74
REMARK 921   NORMALIZED FREE ENERGY PREDICTED BY IDOCK:   -4.87 KCAL/MOL
REMARK 922        TOTAL FREE ENERGY PREDICTED BY IDOCK:   -6.67 KCAL/MOL
REMARK 923 INTER-LIGAND FREE ENERGY PREDICTED BY IDOCK:   -5.47 KCAL/MOL
REMARK 924 INTRA-LIGAND FREE ENERGY PREDICTED BY IDOCK:   -1.20 KCAL/MOL
REMARK 927      BINDING AFFINITY PREDICTED BY RF-SCORE:    0.00 PKD
ROOT
HETATM    1  C   UNL     1     -10.136   7.091  72.566  1.00  0.00    -0.198 C  
HETATM    2  C   UNL     1     -11.498   7.732  72.293  1.00  0.00    -0.384 C  
HETATM    3  C   UNL     1     -11.408   9.153  71.657  1.00  0.00    -0.446 C  
HETATM    4  C   UNL     1     -12.384   6.741  71.534  1.00  0.00    -0.407 C  
HETATM    5  C   UNL     1     -12.827   9.763  71.530  1.00  0.00    -0.502 C  
HETATM    6  C   UNL     1     -12.806  11.221  71.087  1.00  0.00    -0.452 C  
HETATM    7  C   UNL     1     -12.020  11.407  69.785  1.00  0.00    -0.422 C  
HETATM    8  C   UNL     1     -11.953  12.889  69.415  1.00  0.00    -0.327 C  
HETATM    9  C   UNL     1     -10.622  10.791  69.907  1.00  0.00    -0.130 C  
HETATM   10  C   UNL     1     -10.687   9.294  70.288  1.00  0.00    -0.243 C  
ENDROOT
BRANCH  10  11
HETATM   11  O   UNL     1      -9.339   8.769  70.315  1.00  0.00    -0.159 OA 
BRANCH  11  12
HETATM   12  C   UNL     1      -8.829   8.438  69.095  1.00  0.00    -0.142 C  
HETATM   13  O   UNL     1      -7.953   9.080  68.525  1.00  0.00    -0.101 OA 
BRANCH  12  14
HETATM   14  C   UNL     1      -9.421   7.227  68.447  1.00  0.00    -0.142 A  
HETATM   15  C   UNL     1      -9.244   6.013  69.147  1.00  0.00    -0.131 A  
HETATM   16  C   UNL     1      -9.731   4.802  68.648  1.00  0.00    -0.223 A  
HETATM   17  C   UNL     1     -10.406   4.778  67.435  1.00  0.00    -0.079 A  
HETATM   18  C   UNL     1     -10.599   5.963  66.728  1.00  0.00    -0.368 A  
HETATM   19  C   UNL     1     -10.116   7.185  67.233  1.00  0.00    -0.215 A  
HETATM   20  O   UNL     1     -10.346   8.318  66.506  1.00  0.00    -0.396 OA 
HETATM   21  H   UNL     1     -10.818   8.290  65.681  1.00  0.00     0.000 HD 
ENDBRANCH  12  14
ENDBRANCH  11  12
ENDBRANCH  10  11
TORSDOF 3
ENDMDL
MODEL       75
REMARK 921   NORMALIZED FREE ENERGY PREDICTED BY IDOCK:   -4.87 KCAL/MOL
REMARK 922        TOTAL FREE ENERGY PREDICTED BY IDOCK:   -6.66 KCAL/MOL
REMARK 923 INTER-LIGAND FREE ENERGY PREDICTED BY IDOCK:   -6.34 KCAL/MOL
REMARK 924 INTRA-LIGAND FREE ENERGY PREDICTED BY IDOCK:   -0.32 KCAL/MOL
REMARK 927      BINDING AFFINITY PREDICTED BY RF-SCORE:    0.00 PKD
ROOT
HETATM    1  C   UNL     1     -12.134  13.501  65.813  1.00  0.00    -0.473 C  
HETATM    2  C   UNL     1     -11.491  12.633  64.731  1.00  0.00    -0.364 C  
HETATM    3  C   UNL     1     -10.488  11.575  65.287  1.00  0.00    -0.336 C  
HETATM    4  C   UNL     1     -12.581  12.070  63.815  1.00  0.00    -0.567 C  
HETATM    5  C   UNL     1      -9.805  10.831  64.113  1.00  0.00    -0.384 C  
HETATM    6  C   UNL     1      -8.680   9.910  64.572  1.00  0.00    -0.219 C  
HETATM    7  C   UNL     1      -9.158   8.916  65.634  1.00  0.00    -0.269 C  
HETATM    8  C   UNL     1      -7.988   8.066  66.127  1.00  0.00    -0.103 C  
HETATM    9  C   UNL     1      -9.847   9.653  66.790  1.00  0.00    -0.270 C  
HETATM   10  C   UNL     1     -11.027  10.520  66.292  1.00  0.00     0.101 C  
ENDROOT
BRANCH  10  11
HETATM   11  O   UNL     1     -11.666  11.125  67.441  1.00  0.00    -0.564 OA 
BRANCH  11  12
HETATM   12  C   UNL     1     -10.847  11.323  68.513  1.00  0.00    -0.205 C  
HETATM   13  O   UNL     1      -9.891  12.091  68.507  1.00  0.00    -0.209 OA 
BRANCH  12  14
HETATM   14  C   UNL     1     -11.162  10.518  69.733  1.00  0.00    -0.361 A  
HETATM   15  C   UNL     1     -12.504  10.573  70.170  1.00  0.00    -0.297 A  
HETATM   16  C   UNL     1     -12.934   9.882  71.307  1.00  0.00    -0.488 A  
HETATM   17  C   UNL     1     -12.028   9.121  72.033  1.00  0.00    -0.421 A  
HETATM   18  C   UNL     1     -10.700   9.045  71.619  1.00  0.00    -0.441 A  
HETATM   19  C   UNL     1     -10.267   9.734  70.470  1.00  0.00    -0.255 A  
HETATM   20  O   UNL     1      -8.957   9.612  70.101  1.00  0.00    -0.218 OA 
HETATM   21  H   UNL     1      -8.350   9.080  70.601  1.00  0.00     0.000 HD 
ENDBRANCH  12  14
ENDBRANCH  11  12
ENDBRANCH  10  11
TORSDOF 3
ENDMDL
MODEL       76
REMARK 921   NORMALIZED FREE ENERGY PREDICTED BY IDOCK:   -4.86 KCAL/MOL
REMARK 922        TOTAL FREE ENERGY PREDICTED BY IDOCK:   -6.65 KCAL/MOL
REMARK 923 INTER-LIGAND FREE ENERGY PREDICTED BY IDOCK:   -6.35 KCAL/MOL
REMARK 924 INTRA-LIGAND FREE ENERGY PREDICTED BY IDOCK:   -0.30 KCAL/MOL
REMARK 927      BINDING AFFINITY PREDICTED BY RF-SCORE:    0.00 PKD
ROOT
HETATM    1  C   UNL     1     -11.127  15.144  65.737  1.00  0.00    -0.330 C  
HETATM    2  C   UNL     1     -11.163  13.616  65.696  1.00  0.00    -0.305 C  
HETATM    3  C   UNL     1     -11.102  12.947  67.105  1.00  0.00    -0.309 C  
HETATM    4  C   UNL     1     -12.327  13.157  64.814  1.00  0.00    -0.477 C  
HETATM    5  C   UNL     1     -11.024  11.407  66.952  1.00  0.00    -0.355 C  
HETATM    6  C   UNL     1     -10.779  10.694  68.277  1.00  0.00    -0.260 C  
HETATM    7  C   UNL     1     -11.821  11.080  69.331  1.00  0.00    -0.407 C  
HETATM    8  C   UNL     1     -11.497  10.409  70.665  1.00  0.00    -0.438 C  
HETATM    9  C   UNL     1     -11.908  12.604  69.470  1.00  0.00    -0.376 C  
HETATM   10  C   UNL     1     -12.229  13.285  68.119  1.00  0.00    -0.061 C  
ENDROOT
BRANCH  10  11
HETATM   11  O   UNL     1     -12.362  14.709  68.345  1.00  0.00    -0.148 OA 
BRANCH  11  12
HETATM   12  C   UNL     1     -11.517  15.220  69.284  1.00  0.00    -0.320 C  
HETATM   13  O   UNL     1     -10.365  15.570  69.046  1.00  0.00    -0.214 OA 
BRANCH  12  14
HETATM   14  C   UNL     1     -12.067  15.321  70.671  1.00  0.00    -0.399 A  
HETATM   15  C   UNL     1     -11.109  15.316  71.709  1.00  0.00    -0.235 A  
HETATM   16  C   UNL     1     -11.484  15.388  73.053  1.00  0.00    -0.192 A  
HETATM   17  C   UNL     1     -12.829  15.464  73.390  1.00  0.00    -0.662 A  
HETATM   18  C   UNL     1     -13.794  15.476  72.384  1.00  0.00    -0.662 A  
HETATM   19  C   UNL     1     -13.417  15.412  71.029  1.00  0.00    -0.444 A  
HETATM   20  O   UNL     1     -14.403  15.443  70.084  1.00  0.00     0.246 OA 
HETATM   21  H   UNL     1     -15.319  15.505  70.327  1.00  0.00     0.000 HD 
ENDBRANCH  12  14
ENDBRANCH  11  12
ENDBRANCH  10  11
TORSDOF 3
ENDMDL
MODEL       77
REMARK 921   NORMALIZED FREE ENERGY PREDICTED BY IDOCK:   -4.86 KCAL/MOL
REMARK 922        TOTAL FREE ENERGY PREDICTED BY IDOCK:   -6.65 KCAL/MOL
REMARK 923 INTER-LIGAND FREE ENERGY PREDICTED BY IDOCK:   -5.83 KCAL/MOL
REMARK 924 INTRA-LIGAND FREE ENERGY PREDICTED BY IDOCK:   -0.82 KCAL/MOL
REMARK 927      BINDING AFFINITY PREDICTED BY RF-SCORE:    0.00 PKD
ROOT
HETATM    1  C   UNL     1     -12.392  13.038  65.880  1.00  0.00    -0.432 C  
HETATM    2  C   UNL     1     -11.311  13.981  65.353  1.00  0.00    -0.315 C  
HETATM    3  C   UNL     1     -10.412  14.595  66.470  1.00  0.00    -0.290 C  
HETATM    4  C   UNL     1     -10.549  13.298  64.215  1.00  0.00    -0.402 C  
HETATM    5  C   UNL     1      -9.430  15.622  65.851  1.00  0.00    -0.376 C  
HETATM    6  C   UNL     1      -8.645  16.397  66.902  1.00  0.00    -0.245 C  
HETATM    7  C   UNL     1      -7.908  15.460  67.864  1.00  0.00    -0.143 C  
HETATM    8  C   UNL     1      -7.198  16.269  68.949  1.00  0.00    -0.190 C  
HETATM    9  C   UNL     1      -8.877  14.435  68.466  1.00  0.00    -0.182 C  
HETATM   10  C   UNL     1      -9.601  13.621  67.369  1.00  0.00    -0.226 C  
ENDROOT
BRANCH  10  11
HETATM   11  O   UNL     1     -10.441  12.633  68.012  1.00  0.00    -0.212 OA 
BRANCH  11  12
HETATM   12  C   UNL     1      -9.941  11.364  68.002  1.00  0.00    -0.182 C  
HETATM   13  O   UNL     1      -9.322  10.883  67.058  1.00  0.00    -0.162 OA 
BRANCH  12  14
HETATM   14  C   UNL     1     -10.207  10.548  69.227  1.00  0.00    -0.245 A  
HETATM   15  C   UNL     1      -9.075   9.939  69.811  1.00  0.00    -0.249 A  
HETATM   16  C   UNL     1      -9.182   9.135  70.950  1.00  0.00    -0.326 A  
HETATM   17  C   UNL     1     -10.425   8.922  71.528  1.00  0.00    -0.393 A  
HETATM   18  C   UNL     1     -11.557   9.517  70.974  1.00  0.00    -0.419 A  
HETATM   19  C   UNL     1     -11.450  10.333  69.832  1.00  0.00    -0.273 A  
HETATM   20  O   UNL     1     -12.590  10.904  69.340  1.00  0.00    -0.566 OA 
HETATM   21  H   UNL     1     -13.434  10.758  69.751  1.00  0.00     0.000 HD 
ENDBRANCH  12  14
ENDBRANCH  11  12
ENDBRANCH  10  11
TORSDOF 3
ENDMDL
MODEL       78
REMARK 921   NORMALIZED FREE ENERGY PREDICTED BY IDOCK:   -4.85 KCAL/MOL
REMARK 922        TOTAL FREE ENERGY PREDICTED BY IDOCK:   -6.65 KCAL/MOL
REMARK 923 INTER-LIGAND FREE ENERGY PREDICTED BY IDOCK:   -5.88 KCAL/MOL
REMARK 924 INTRA-LIGAND FREE ENERGY PREDICTED BY IDOCK:   -0.76 KCAL/MOL
REMARK 927      BINDING AFFINITY PREDICTED BY RF-SCORE:    0.00 PKD
ROOT
HETATM    1  C   UNL     1      -9.882   9.539  66.876  1.00  0.00    -0.262 C  
HETATM    2  C   UNL     1      -9.954  10.039  65.432  1.00  0.00    -0.364 C  
HETATM    3  C   UNL     1     -10.760  11.364  65.264  1.00  0.00    -0.326 C  
HETATM    4  C   UNL     1      -8.547  10.058  64.829  1.00  0.00    -0.188 C  
HETATM    5  C   UNL     1     -10.875  11.721  63.760  1.00  0.00    -0.490 C  
HETATM    6  C   UNL     1     -11.803  12.903  63.504  1.00  0.00    -0.605 C  
HETATM    7  C   UNL     1     -11.395  14.133  64.321  1.00  0.00    -0.241 C  
HETATM    8  C   UNL     1     -12.391  15.270  64.099  1.00  0.00    -0.065 C  
HETATM    9  C   UNL     1     -11.266  13.775  65.806  1.00  0.00    -0.300 C  
HETATM   10  C   UNL     1     -10.263  12.619  66.031  1.00  0.00    -0.272 C  
ENDROOT
BRANCH  10  11
HETATM   11  O   UNL     1     -10.145  12.387  67.455  1.00  0.00    -0.199 OA 
BRANCH  11  12
HETATM   12  C   UNL     1      -9.759  13.475  68.181  1.00  0.00    -0.233 C  
HETATM   13  O   UNL     1      -8.663  14.015  68.070  1.00  0.00    -0.162 OA 
BRANCH  12  14
HETATM   14  C   UNL     1     -10.757  13.987  69.170  1.00  0.00    -0.198 A  
HETATM   15  C   UNL     1     -11.658  13.027  69.680  1.00  0.00    -0.322 A  
HETATM   16  C   UNL     1     -12.654  13.371  70.599  1.00  0.00    -0.325 A  
HETATM   17  C   UNL     1     -12.771  14.686  71.026  1.00  0.00    -0.406 A  
HETATM   18  C   UNL     1     -11.890  15.652  70.542  1.00  0.00    -0.402 A  
HETATM   19  C   UNL     1     -10.882  15.305  69.623  1.00  0.00    -0.286 A  
HETATM   20  O   UNL     1     -10.037  16.289  69.193  1.00  0.00    -0.236 OA 
HETATM   21  H   UNL     1     -10.122  17.183  69.501  1.00  0.00     0.000 HD 
ENDBRANCH  12  14
ENDBRANCH  11  12
ENDBRANCH  10  11
TORSDOF 3
ENDMDL
MODEL       79
REMARK 921   NORMALIZED FREE ENERGY PREDICTED BY IDOCK:   -4.83 KCAL/MOL
REMARK 922        TOTAL FREE ENERGY PREDICTED BY IDOCK:   -6.62 KCAL/MOL
REMARK 923 INTER-LIGAND FREE ENERGY PREDICTED BY IDOCK:   -5.69 KCAL/MOL
REMARK 924 INTRA-LIGAND FREE ENERGY PREDICTED BY IDOCK:   -0.93 KCAL/MOL
REMARK 927      BINDING AFFINITY PREDICTED BY RF-SCORE:    0.00 PKD
ROOT
HETATM    1  C   UNL     1     -10.882  11.106  64.839  1.00  0.00    -0.261 C  
HETATM    2  C   UNL     1      -9.536  10.544  65.299  1.00  0.00    -0.281 C  
HETATM    3  C   UNL     1      -8.684  11.553  66.130  1.00  0.00    -0.131 C  
HETATM    4  C   UNL     1      -9.752   9.182  65.964  1.00  0.00    -0.358 C  
HETATM    5  C   UNL     1      -7.298  10.936  66.445  1.00  0.00    -0.141 C  
HETATM    6  C   UNL     1      -6.344  11.931  67.096  1.00  0.00    -0.151 C  
HETATM    7  C   UNL     1      -6.951  12.562  68.352  1.00  0.00    -0.096 C  
HETATM    8  C   UNL     1      -6.000  13.609  68.931  1.00  0.00    -0.085 C  
HETATM    9  C   UNL     1      -8.329  13.159  68.042  1.00  0.00    -0.162 C  
HETATM   10  C   UNL     1      -9.291  12.103  67.450  1.00  0.00    -0.181 C  
ENDROOT
BRANCH  10  11
HETATM   11  O   UNL     1     -10.584  12.722  67.250  1.00  0.00    -0.231 OA 
BRANCH  11  12
HETATM   12  C   UNL     1     -11.550  12.321  68.125  1.00  0.00    -0.339 C  
HETATM   13  O   UNL     1     -12.147  11.253  68.038  1.00  0.00    -0.638 OA 
BRANCH  12  14
HETATM   14  C   UNL     1     -11.878  13.284  69.221  1.00  0.00    -0.383 A  
HETATM   15  C   UNL     1     -11.708  14.650  68.905  1.00  0.00    -0.343 A  
HETATM   16  C   UNL     1     -11.961  15.656  69.841  1.00  0.00    -0.376 A  
HETATM   17  C   UNL     1     -12.389  15.317  71.117  1.00  0.00    -0.421 A  
HETATM   18  C   UNL     1     -12.571  13.976  71.452  1.00  0.00    -0.451 A  
HETATM   19  C   UNL     1     -12.324  12.962  70.508  1.00  0.00    -0.283 A  
HETATM   20  O   UNL     1     -12.532  11.666  70.886  1.00  0.00    -0.376 OA 
HETATM   21  H   UNL     1     -12.835  11.448  71.759  1.00  0.00     0.000 HD 
ENDBRANCH  12  14
ENDBRANCH  11  12
ENDBRANCH  10  11
TORSDOF 3
ENDMDL
MODEL       80
REMARK 921   NORMALIZED FREE ENERGY PREDICTED BY IDOCK:   -4.83 KCAL/MOL
REMARK 922        TOTAL FREE ENERGY PREDICTED BY IDOCK:   -6.61 KCAL/MOL
REMARK 923 INTER-LIGAND FREE ENERGY PREDICTED BY IDOCK:   -5.48 KCAL/MOL
REMARK 924 INTRA-LIGAND FREE ENERGY PREDICTED BY IDOCK:   -1.14 KCAL/MOL
REMARK 927      BINDING AFFINITY PREDICTED BY RF-SCORE:    0.00 PKD
ROOT
HETATM    1  C   UNL     1     -11.477  12.824  65.482  1.00  0.00    -0.372 C  
HETATM    2  C   UNL     1     -11.286  13.834  66.614  1.00  0.00    -0.340 C  
HETATM    3  C   UNL     1     -11.986  13.425  67.947  1.00  0.00    -0.360 C  
HETATM    4  C   UNL     1      -9.801  14.179  66.744  1.00  0.00    -0.275 C  
HETATM    5  C   UNL     1     -11.836  14.562  68.990  1.00  0.00    -0.354 C  
HETATM    6  C   UNL     1     -12.649  14.314  70.255  1.00  0.00    -0.378 C  
HETATM    7  C   UNL     1     -12.318  12.957  70.885  1.00  0.00    -0.365 C  
HETATM    8  C   UNL     1     -13.206  12.709  72.103  1.00  0.00    -0.527 C  
HETATM    9  C   UNL     1     -12.452  11.835  69.849  1.00  0.00    -0.086 C  
HETATM   10  C   UNL     1     -11.559  12.088  68.612  1.00  0.00    -0.319 C  
ENDROOT
BRANCH  10  11
HETATM   11  O   UNL     1     -11.687  10.958  67.716  1.00  0.00    -0.569 OA 
BRANCH  11  12
HETATM   12  C   UNL     1     -10.765   9.971  67.906  1.00  0.00    -0.272 C  
HETATM   13  O   UNL     1     -11.003   8.921  68.493  1.00  0.00    -0.052 OA 
BRANCH  12  14
HETATM   14  C   UNL     1      -9.397  10.243  67.366  1.00  0.00    -0.163 A  
HETATM   15  C   UNL     1      -9.257  10.116  65.967  1.00  0.00    -0.198 A  
HETATM   16  C   UNL     1      -8.030  10.325  65.331  1.00  0.00    -0.148 A  
HETATM   17  C   UNL     1      -6.914  10.665  66.083  1.00  0.00    -0.135 A  
HETATM   18  C   UNL     1      -7.027  10.802  67.465  1.00  0.00    -0.084 A  
HETATM   19  C   UNL     1      -8.264  10.600  68.106  1.00  0.00    -0.116 A  
HETATM   20  O   UNL     1      -8.321  10.763  69.461  1.00  0.00    -0.365 OA 
HETATM   21  H   UNL     1      -7.552  11.005  69.964  1.00  0.00     0.000 HD 
ENDBRANCH  12  14
ENDBRANCH  11  12
ENDBRANCH  10  11
TORSDOF 3
ENDMDL
MODEL       81
REMARK 921   NORMALIZED FREE ENERGY PREDICTED BY IDOCK:   -4.83 KCAL/MOL
REMARK 922        TOTAL FREE ENERGY PREDICTED BY IDOCK:   -6.61 KCAL/MOL
REMARK 923 INTER-LIGAND FREE ENERGY PREDICTED BY IDOCK:   -6.31 KCAL/MOL
REMARK 924 INTRA-LIGAND FREE ENERGY PREDICTED BY IDOCK:   -0.31 KCAL/MOL
REMARK 927      BINDING AFFINITY PREDICTED BY RF-SCORE:    0.00 PKD
ROOT
HETATM    1  C   UNL     1     -10.582   8.596  67.208  1.00  0.00    -0.308 C  
HETATM    2  C   UNL     1      -9.889   9.390  66.099  1.00  0.00    -0.356 C  
HETATM    3  C   UNL     1     -10.727  10.595  65.571  1.00  0.00    -0.105 C  
HETATM    4  C   UNL     1      -8.464   9.737  66.535  1.00  0.00    -0.127 C  
HETATM    5  C   UNL     1      -9.997  11.259  64.376  1.00  0.00    -0.338 C  
HETATM    6  C   UNL     1     -10.839  12.329  63.690  1.00  0.00    -0.522 C  
HETATM    7  C   UNL     1     -11.326  13.390  64.682  1.00  0.00    -0.372 C  
HETATM    8  C   UNL     1     -12.230  14.399  63.975  1.00  0.00    -0.300 C  
HETATM    9  C   UNL     1     -12.036  12.731  65.871  1.00  0.00    -0.506 C  
HETATM   10  C   UNL     1     -11.124  11.704  66.583  1.00  0.00    -0.307 C  
ENDROOT
BRANCH  10  11
HETATM   11  O   UNL     1     -11.836  11.179  67.729  1.00  0.00    -0.608 OA 
BRANCH  11  12
HETATM   12  C   UNL     1     -11.467  11.717  68.926  1.00  0.00    -0.297 C  
HETATM   13  O   UNL     1     -11.471  11.095  69.984  1.00  0.00    -0.285 OA 
BRANCH  12  14
HETATM   14  C   UNL     1     -11.063  13.157  68.898  1.00  0.00    -0.310 A  
HETATM   15  C   UNL     1     -12.123  14.089  68.948  1.00  0.00    -0.351 A  
HETATM   16  C   UNL     1     -11.890  15.466  68.912  1.00  0.00    -0.350 A  
HETATM   17  C   UNL     1     -10.589  15.943  68.822  1.00  0.00    -0.245 A  
HETATM   18  C   UNL     1      -9.525  15.043  68.776  1.00  0.00    -0.210 A  
HETATM   19  C   UNL     1      -9.758  13.656  68.820  1.00  0.00    -0.034 A  
HETATM   20  O   UNL     1      -8.677  12.821  68.788  1.00  0.00    -0.372 OA 
HETATM   21  H   UNL     1      -7.791  13.160  68.735  1.00  0.00     0.000 HD 
ENDBRANCH  12  14
ENDBRANCH  11  12
ENDBRANCH  10  11
TORSDOF 3
ENDMDL
MODEL       82
REMARK 921   NORMALIZED FREE ENERGY PREDICTED BY IDOCK:   -4.82 KCAL/MOL
REMARK 922        TOTAL FREE ENERGY PREDICTED BY IDOCK:   -6.60 KCAL/MOL
REMARK 923 INTER-LIGAND FREE ENERGY PREDICTED BY IDOCK:   -5.85 KCAL/MOL
REMARK 924 INTRA-LIGAND FREE ENERGY PREDICTED BY IDOCK:   -0.75 KCAL/MOL
REMARK 927      BINDING AFFINITY PREDICTED BY RF-SCORE:    0.00 PKD
ROOT
HETATM    1  C   UNL     1     -10.159  15.739  66.519  1.00  0.00    -0.292 C  
HETATM    2  C   UNL     1     -10.421  16.279  67.925  1.00  0.00    -0.295 C  
HETATM    3  C   UNL     1     -11.380  15.387  68.773  1.00  0.00    -0.328 C  
HETATM    4  C   UNL     1      -9.088  16.616  68.599  1.00  0.00    -0.245 C  
HETATM    5  C   UNL     1     -11.676  16.075  70.130  1.00  0.00    -0.290 C  
HETATM    6  C   UNL     1     -12.748  15.352  70.937  1.00  0.00    -0.520 C  
HETATM    7  C   UNL     1     -12.400  13.875  71.146  1.00  0.00    -0.440 C  
HETATM    8  C   UNL     1     -13.532  13.166  71.889  1.00  0.00    -0.513 C  
HETATM    9  C   UNL     1     -12.093  13.198  69.805  1.00  0.00    -0.336 C  
HETATM   10  C   UNL     1     -10.953  13.919  69.048  1.00  0.00    -0.250 C  
ENDROOT
BRANCH  10  11
HETATM   11  O   UNL     1     -10.675  13.185  67.832  1.00  0.00    -0.227 OA 
BRANCH  11  12
HETATM   12  C   UNL     1      -9.489  12.513  67.828  1.00  0.00    -0.197 C  
HETATM   13  O   UNL     1      -8.472  12.924  68.377  1.00  0.00    -0.163 OA 
BRANCH  12  14
HETATM   14  C   UNL     1      -9.475  11.218  67.080  1.00  0.00    -0.183 A  
HETATM   15  C   UNL     1      -9.312  10.059  67.870  1.00  0.00    -0.151 A  
HETATM   16  C   UNL     1      -9.264   8.784  67.300  1.00  0.00    -0.165 A  
HETATM   17  C   UNL     1      -9.377   8.640  65.924  1.00  0.00    -0.262 A  
HETATM   18  C   UNL     1      -9.545   9.768  65.123  1.00  0.00    -0.356 A  
HETATM   19  C   UNL     1      -9.601  11.053  65.696  1.00  0.00    -0.226 A  
HETATM   20  O   UNL     1      -9.782  12.121  64.865  1.00  0.00    -0.413 OA 
HETATM   21  H   UNL     1      -9.867  12.009  63.925  1.00  0.00     0.000 HD 
ENDBRANCH  12  14
ENDBRANCH  11  12
ENDBRANCH  10  11
TORSDOF 3
ENDMDL
MODEL       83
REMARK 921   NORMALIZED FREE ENERGY PREDICTED BY IDOCK:   -4.82 KCAL/MOL
REMARK 922        TOTAL FREE ENERGY PREDICTED BY IDOCK:   -6.60 KCAL/MOL
REMARK 923 INTER-LIGAND FREE ENERGY PREDICTED BY IDOCK:   -5.77 KCAL/MOL
REMARK 924 INTRA-LIGAND FREE ENERGY PREDICTED BY IDOCK:   -0.83 KCAL/MOL
REMARK 927      BINDING AFFINITY PREDICTED BY RF-SCORE:    0.00 PKD
ROOT
HETATM    1  C   UNL     1     -10.204   8.114  72.305  1.00  0.00    -0.348 C  
HETATM    2  C   UNL     1     -11.245   9.190  71.993  1.00  0.00    -0.310 C  
HETATM    3  C   UNL     1     -10.992   9.939  70.648  1.00  0.00    -0.405 C  
HETATM    4  C   UNL     1     -12.649   8.600  72.149  1.00  0.00    -0.451 C  
HETATM    5  C   UNL     1     -12.025  11.082  70.480  1.00  0.00    -0.474 C  
HETATM    6  C   UNL     1     -11.730  11.973  69.280  1.00  0.00    -0.389 C  
HETATM    7  C   UNL     1     -11.609  11.162  67.986  1.00  0.00    -0.337 C  
HETATM    8  C   UNL     1     -11.234  12.078  66.821  1.00  0.00    -0.376 C  
HETATM    9  C   UNL     1     -10.597  10.022  68.158  1.00  0.00    -0.268 C  
HETATM   10  C   UNL     1     -10.971   9.099  69.341  1.00  0.00    -0.092 C  
ENDROOT
BRANCH  10  11
HETATM   11  O   UNL     1     -10.013   8.015  69.395  1.00  0.00    -0.182 OA 
BRANCH  11  12
HETATM   12  C   UNL     1     -10.487   6.812  68.961  1.00  0.00    -0.206 C  
HETATM   13  O   UNL     1     -11.520   6.296  69.378  1.00  0.00    -0.427 OA 
BRANCH  12  14
HETATM   14  C   UNL     1      -9.654   6.114  67.935  1.00  0.00    -0.118 A  
HETATM   15  C   UNL     1      -8.289   5.955  68.262  1.00  0.00    -0.112 A  
HETATM   16  C   UNL     1      -7.392   5.336  67.388  1.00  0.00    -0.083 A  
HETATM   17  C   UNL     1      -7.842   4.862  66.163  1.00  0.00    -0.099 A  
HETATM   18  C   UNL     1      -9.185   5.000  65.819  1.00  0.00    -0.159 A  
HETATM   19  C   UNL     1     -10.091   5.617  66.702  1.00  0.00    -0.198 A  
HETATM   20  O   UNL     1     -11.399   5.713  66.320  1.00  0.00    -0.734 OA 
HETATM   21  H   UNL     1     -11.696   5.376  65.482  1.00  0.00     0.000 HD 
ENDBRANCH  12  14
ENDBRANCH  11  12
ENDBRANCH  10  11
TORSDOF 3
ENDMDL
MODEL       84
REMARK 921   NORMALIZED FREE ENERGY PREDICTED BY IDOCK:   -4.80 KCAL/MOL
REMARK 922        TOTAL FREE ENERGY PREDICTED BY IDOCK:   -6.58 KCAL/MOL
REMARK 923 INTER-LIGAND FREE ENERGY PREDICTED BY IDOCK:   -5.79 KCAL/MOL
REMARK 924 INTRA-LIGAND FREE ENERGY PREDICTED BY IDOCK:   -0.80 KCAL/MOL
REMARK 927      BINDING AFFINITY PREDICTED BY RF-SCORE:    0.00 PKD
ROOT
HETATM    1  C   UNL     1     -10.654   7.571  67.414  1.00  0.00    -0.364 C  
HETATM    2  C   UNL     1     -10.265   8.930  66.833  1.00  0.00    -0.347 C  
HETATM    3  C   UNL     1     -10.976  10.136  67.522  1.00  0.00    -0.319 C  
HETATM    4  C   UNL     1      -8.740   9.036  66.762  1.00  0.00    -0.134 C  
HETATM    5  C   UNL     1     -10.610  11.451  66.788  1.00  0.00    -0.298 C  
HETATM    6  C   UNL     1     -11.409  12.649  67.289  1.00  0.00    -0.372 C  
HETATM    7  C   UNL     1     -11.280  12.823  68.806  1.00  0.00    -0.327 C  
HETATM    8  C   UNL     1     -12.156  13.982  69.281  1.00  0.00    -0.380 C  
HETATM    9  C   UNL     1     -11.629  11.517  69.530  1.00  0.00    -0.400 C  
HETATM   10  C   UNL     1     -10.748  10.341  69.045  1.00  0.00    -0.227 C  
ENDROOT
BRANCH  10  11
HETATM   11  O   UNL     1     -11.087   9.166  69.819  1.00  0.00    -0.215 OA 
BRANCH  11  12
HETATM   12  C   UNL     1     -10.088   8.705  70.624  1.00  0.00    -0.198 C  
HETATM   13  O   UNL     1      -9.043   9.314  70.831  1.00  0.00    -0.241 OA 
BRANCH  12  14
HETATM   14  C   UNL     1     -10.320   7.367  71.251  1.00  0.00    -0.203 A  
HETATM   15  C   UNL     1      -9.375   6.370  70.927  1.00  0.00    -0.168 A  
HETATM   16  C   UNL     1      -9.480   5.070  71.429  1.00  0.00    -0.206 A  
HETATM   17  C   UNL     1     -10.536   4.738  72.267  1.00  0.00    -0.255 A  
HETATM   18  C   UNL     1     -11.479   5.706  72.606  1.00  0.00    -0.339 A  
HETATM   19  C   UNL     1     -11.371   7.018  72.108  1.00  0.00    -0.265 A  
HETATM   20  O   UNL     1     -12.314   7.931  72.485  1.00  0.00    -0.528 OA 
HETATM   21  H   UNL     1     -13.027   7.693  73.067  1.00  0.00     0.000 HD 
ENDBRANCH  12  14
ENDBRANCH  11  12
ENDBRANCH  10  11
TORSDOF 3
ENDMDL
MODEL       85
REMARK 921   NORMALIZED FREE ENERGY PREDICTED BY IDOCK:   -4.78 KCAL/MOL
REMARK 922        TOTAL FREE ENERGY PREDICTED BY IDOCK:   -6.56 KCAL/MOL
REMARK 923 INTER-LIGAND FREE ENERGY PREDICTED BY IDOCK:   -5.63 KCAL/MOL
REMARK 924 INTRA-LIGAND FREE ENERGY PREDICTED BY IDOCK:   -0.93 KCAL/MOL
REMARK 927      BINDING AFFINITY PREDICTED BY RF-SCORE:    0.00 PKD
ROOT
HETATM    1  C   UNL     1     -10.792   7.223  67.595  1.00  0.00    -0.251 C  
HETATM    2  C   UNL     1      -9.792   7.923  66.675  1.00  0.00    -0.311 C  
HETATM    3  C   UNL     1     -10.293   9.296  66.129  1.00  0.00    -0.118 C  
HETATM    4  C   UNL     1      -8.418   7.960  67.349  1.00  0.00    -0.122 C  
HETATM    5  C   UNL     1      -9.266   9.867  65.119  1.00  0.00    -0.288 C  
HETATM    6  C   UNL     1      -9.771  11.117  64.406  1.00  0.00    -0.312 C  
HETATM    7  C   UNL     1     -10.209  12.198  65.398  1.00  0.00    -0.299 C  
HETATM    8  C   UNL     1     -10.781  13.401  64.650  1.00  0.00    -0.425 C  
HETATM    9  C   UNL     1     -11.214  11.628  66.407  1.00  0.00    -0.349 C  
HETATM   10  C   UNL     1     -10.639  10.406  67.160  1.00  0.00    -0.261 C  
ENDROOT
BRANCH  10  11
HETATM   11  O   UNL     1     -11.614   9.970  68.137  1.00  0.00    -0.144 OA 
BRANCH  11  12
HETATM   12  C   UNL     1     -11.485  10.543  69.367  1.00  0.00    -0.262 C  
HETATM   13  O   UNL     1     -11.903  11.662  69.645  1.00  0.00    -0.304 OA 
BRANCH  12  14
HETATM   14  C   UNL     1     -10.768   9.727  70.395  1.00  0.00    -0.368 A  
HETATM   15  C   UNL     1     -11.586   8.913  71.208  1.00  0.00    -0.371 A  
HETATM   16  C   UNL     1     -11.049   8.111  72.219  1.00  0.00    -0.410 A  
HETATM   17  C   UNL     1      -9.679   8.109  72.441  1.00  0.00    -0.338 A  
HETATM   18  C   UNL     1      -8.849   8.899  71.649  1.00  0.00    -0.214 A  
HETATM   19  C   UNL     1      -9.387   9.701  70.625  1.00  0.00    -0.106 A  
HETATM   20  O   UNL     1      -8.526  10.444  69.869  1.00  0.00    -0.377 OA 
HETATM   21  H   UNL     1      -7.589  10.426  70.025  1.00  0.00     0.000 HD 
ENDBRANCH  12  14
ENDBRANCH  11  12
ENDBRANCH  10  11
TORSDOF 3
ENDMDL
MODEL       86
REMARK 921   NORMALIZED FREE ENERGY PREDICTED BY IDOCK:   -4.78 KCAL/MOL
REMARK 922        TOTAL FREE ENERGY PREDICTED BY IDOCK:   -6.55 KCAL/MOL
REMARK 923 INTER-LIGAND FREE ENERGY PREDICTED BY IDOCK:   -5.75 KCAL/MOL
REMARK 924 INTRA-LIGAND FREE ENERGY PREDICTED BY IDOCK:   -0.80 KCAL/MOL
REMARK 927      BINDING AFFINITY PREDICTED BY RF-SCORE:    0.00 PKD
ROOT
HETATM    1  C   UNL     1      -5.992  13.435  67.672  1.00  0.00    -0.111 C  
HETATM    2  C   UNL     1      -6.213  14.826  68.268  1.00  0.00    -0.125 C  
HETATM    3  C   UNL     1      -7.277  15.676  67.507  1.00  0.00    -0.219 C  
HETATM    4  C   UNL     1      -6.444  14.704  69.776  1.00  0.00    -0.159 C  
HETATM    5  C   UNL     1      -7.342  17.101  68.111  1.00  0.00    -0.202 C  
HETATM    6  C   UNL     1      -8.227  18.045  67.304  1.00  0.00    -0.224 C  
HETATM    7  C   UNL     1      -9.636  17.476  67.113  1.00  0.00    -0.262 C  
HETATM    8  C   UNL     1     -10.468  18.409  66.235  1.00  0.00    -0.421 C  
HETATM    9  C   UNL     1      -9.571  16.059  66.529  1.00  0.00    -0.283 C  
HETATM   10  C   UNL     1      -8.723  15.115  67.413  1.00  0.00    -0.190 C  
ENDROOT
BRANCH  10  11
HETATM   11  O   UNL     1      -8.766  13.788  66.837  1.00  0.00    -0.219 OA 
BRANCH  11  12
HETATM   12  C   UNL     1      -9.910  13.091  67.091  1.00  0.00    -0.230 C  
HETATM   13  O   UNL     1     -10.292  12.795  68.219  1.00  0.00    -0.231 OA 
BRANCH  12  14
HETATM   14  C   UNL     1     -10.698  12.671  65.891  1.00  0.00    -0.293 A  
HETATM   15  C   UNL     1     -12.033  13.129  65.846  1.00  0.00    -0.479 A  
HETATM   16  C   UNL     1     -12.887  12.798  64.791  1.00  0.00    -0.374 A  
HETATM   17  C   UNL     1     -12.424  11.996  63.757  1.00  0.00    -0.594 A  
HETATM   18  C   UNL     1     -11.109  11.535  63.775  1.00  0.00    -0.471 A  
HETATM   19  C   UNL     1     -10.245  11.875  64.833  1.00  0.00    -0.271 A  
HETATM   20  O   UNL     1      -8.962  11.408  64.791  1.00  0.00    -0.393 OA 
HETATM   21  H   UNL     1      -8.655  10.868  64.073  1.00  0.00     0.000 HD 
ENDBRANCH  12  14
ENDBRANCH  11  12
ENDBRANCH  10  11
TORSDOF 3
ENDMDL
MODEL       87
REMARK 921   NORMALIZED FREE ENERGY PREDICTED BY IDOCK:   -4.76 KCAL/MOL
REMARK 922        TOTAL FREE ENERGY PREDICTED BY IDOCK:   -6.54 KCAL/MOL
REMARK 923 INTER-LIGAND FREE ENERGY PREDICTED BY IDOCK:   -5.87 KCAL/MOL
REMARK 924 INTRA-LIGAND FREE ENERGY PREDICTED BY IDOCK:   -0.67 KCAL/MOL
REMARK 927      BINDING AFFINITY PREDICTED BY RF-SCORE:    0.00 PKD
ROOT
HETATM    1  C   UNL     1      -7.865  11.042  66.467  1.00  0.00    -0.155 C  
HETATM    2  C   UNL     1      -8.879  10.016  66.976  1.00  0.00    -0.147 C  
HETATM    3  C   UNL     1      -9.716  10.511  68.196  1.00  0.00    -0.166 C  
HETATM    4  C   UNL     1      -9.703   9.487  65.800  1.00  0.00    -0.357 C  
HETATM    5  C   UNL     1     -10.624   9.366  68.710  1.00  0.00    -0.234 C  
HETATM    6  C   UNL     1     -11.337   9.716  70.011  1.00  0.00    -0.239 C  
HETATM    7  C   UNL     1     -12.130  11.020  69.890  1.00  0.00    -0.435 C  
HETATM    8  C   UNL     1     -12.765  11.380  71.233  1.00  0.00    -0.498 C  
HETATM    9  C   UNL     1     -11.235  12.150  69.367  1.00  0.00    -0.248 C  
HETATM   10  C   UNL     1     -10.586  11.785  68.011  1.00  0.00    -0.206 C  
ENDROOT
BRANCH  10  11
HETATM   11  O   UNL     1      -9.815  12.921  67.552  1.00  0.00    -0.202 OA 
BRANCH  11  12
HETATM   12  C   UNL     1     -10.508  13.808  66.783  1.00  0.00    -0.270 C  
HETATM   13  O   UNL     1     -11.300  13.476  65.906  1.00  0.00    -0.303 OA 
BRANCH  12  14
HETATM   14  C   UNL     1     -10.237  15.254  67.049  1.00  0.00    -0.260 A  
HETATM   15  C   UNL     1      -9.121  15.799  66.378  1.00  0.00    -0.357 A  
HETATM   16  C   UNL     1      -8.742  17.134  66.548  1.00  0.00    -0.293 A  
HETATM   17  C   UNL     1      -9.473  17.953  67.397  1.00  0.00    -0.258 A  
HETATM   18  C   UNL     1     -10.583  17.441  68.067  1.00  0.00    -0.389 A  
HETATM   19  C   UNL     1     -10.970  16.099  67.890  1.00  0.00    -0.318 A  
HETATM   20  O   UNL     1     -12.074  15.654  68.559  1.00  0.00    -0.533 OA 
HETATM   21  H   UNL     1     -12.572  16.228  69.130  1.00  0.00     0.000 HD 
ENDBRANCH  12  14
ENDBRANCH  11  12
ENDBRANCH  10  11
TORSDOF 3
ENDMDL
MODEL       88
REMARK 921   NORMALIZED FREE ENERGY PREDICTED BY IDOCK:   -4.74 KCAL/MOL
REMARK 922        TOTAL FREE ENERGY PREDICTED BY IDOCK:   -6.51 KCAL/MOL
REMARK 923 INTER-LIGAND FREE ENERGY PREDICTED BY IDOCK:   -5.67 KCAL/MOL
REMARK 924 INTRA-LIGAND FREE ENERGY PREDICTED BY IDOCK:   -0.84 KCAL/MOL
REMARK 927      BINDING AFFINITY PREDICTED BY RF-SCORE:    0.00 PKD
ROOT
HETATM    1  C   UNL     1     -10.774   7.321  67.039  1.00  0.00    -0.406 C  
HETATM    2  C   UNL     1      -9.917   7.340  68.305  1.00  0.00    -0.177 C  
HETATM    3  C   UNL     1      -8.903   8.525  68.361  1.00  0.00    -0.139 C  
HETATM    4  C   UNL     1     -10.820   7.206  69.534  1.00  0.00    -0.244 C  
HETATM    5  C   UNL     1      -8.005   8.390  69.617  1.00  0.00    -0.106 C  
HETATM    6  C   UNL     1      -6.871   9.408  69.644  1.00  0.00    -0.056 C  
HETATM    7  C   UNL     1      -7.392  10.841  69.505  1.00  0.00    -0.125 C  
HETATM    8  C   UNL     1      -6.224  11.826  69.457  1.00  0.00    -0.115 C  
HETATM    9  C   UNL     1      -8.292  10.971  68.270  1.00  0.00    -0.133 C  
HETATM   10  C   UNL     1      -9.471   9.970  68.314  1.00  0.00    -0.140 C  
ENDROOT
BRANCH  10  11
HETATM   11  O   UNL     1     -10.309  10.199  67.156  1.00  0.00    -0.212 OA 
BRANCH  11  12
HETATM   12  C   UNL     1     -11.267  11.155  67.325  1.00  0.00    -0.277 C  
HETATM   13  O   UNL     1     -11.916  11.294  68.356  1.00  0.00    -0.555 OA 
BRANCH  12  14
HETATM   14  C   UNL     1     -11.515  12.043  66.148  1.00  0.00    -0.401 A  
HETATM   15  C   UNL     1     -11.133  11.518  64.895  1.00  0.00    -0.282 A  
HETATM   16  C   UNL     1     -11.293  12.248  63.714  1.00  0.00    -0.534 A  
HETATM   17  C   UNL     1     -11.839  13.523  63.761  1.00  0.00    -0.429 A  
HETATM   18  C   UNL     1     -12.230  14.062  64.985  1.00  0.00    -0.448 A  
HETATM   19  C   UNL     1     -12.077  13.325  66.175  1.00  0.00    -0.421 A  
HETATM   20  O   UNL     1     -12.491  13.897  67.344  1.00  0.00    -0.468 OA 
HETATM   21  H   UNL     1     -12.872  14.767  67.362  1.00  0.00     0.000 HD 
ENDBRANCH  12  14
ENDBRANCH  11  12
ENDBRANCH  10  11
TORSDOF 3
ENDMDL
MODEL       89
REMARK 921   NORMALIZED FREE ENERGY PREDICTED BY IDOCK:   -4.73 KCAL/MOL
REMARK 922        TOTAL FREE ENERGY PREDICTED BY IDOCK:   -6.50 KCAL/MOL
REMARK 923 INTER-LIGAND FREE ENERGY PREDICTED BY IDOCK:   -5.61 KCAL/MOL
REMARK 924 INTRA-LIGAND FREE ENERGY PREDICTED BY IDOCK:   -0.89 KCAL/MOL
REMARK 927      BINDING AFFINITY PREDICTED BY RF-SCORE:    0.00 PKD
ROOT
HETATM    1  C   UNL     1     -10.522   9.143  66.919  1.00  0.00    -0.287 C  
HETATM    2  C   UNL     1     -10.303  10.657  66.943  1.00  0.00    -0.288 C  
HETATM    3  C   UNL     1     -11.207  11.407  67.970  1.00  0.00    -0.346 C  
HETATM    4  C   UNL     1      -8.806  10.953  67.064  1.00  0.00    -0.141 C  
HETATM    5  C   UNL     1     -10.998  12.937  67.835  1.00  0.00    -0.266 C  
HETATM    6  C   UNL     1     -11.979  13.743  68.677  1.00  0.00    -0.401 C  
HETATM    7  C   UNL     1     -11.942  13.322  70.149  1.00  0.00    -0.388 C  
HETATM    8  C   UNL     1     -12.993  14.095  70.946  1.00  0.00    -0.374 C  
HETATM    9  C   UNL     1     -12.135  11.807  70.281  1.00  0.00    -0.426 C  
HETATM   10  C   UNL     1     -11.077  11.023  69.469  1.00  0.00    -0.263 C  
ENDROOT
BRANCH  10  11
HETATM   11  O   UNL     1     -11.281   9.608  69.698  1.00  0.00    -0.220 OA 
BRANCH  11  12
HETATM   12  C   UNL     1     -10.345   9.018  70.494  1.00  0.00    -0.218 C  
HETATM   13  O   UNL     1      -9.795   9.583  71.435  1.00  0.00    -0.200 OA 
BRANCH  12  14
HETATM   14  C   UNL     1      -9.988   7.608  70.147  1.00  0.00    -0.186 A  
HETATM   15  C   UNL     1      -8.609   7.351  69.981  1.00  0.00    -0.140 A  
HETATM   16  C   UNL     1      -8.136   6.081  69.639  1.00  0.00    -0.107 A  
HETATM   17  C   UNL     1      -9.034   5.039  69.452  1.00  0.00    -0.125 A  
HETATM   18  C   UNL     1     -10.399   5.266  69.615  1.00  0.00    -0.348 A  
HETATM   19  C   UNL     1     -10.877   6.542  69.967  1.00  0.00    -0.287 A  
HETATM   20  O   UNL     1     -12.223   6.704  70.129  1.00  0.00    -0.598 OA 
HETATM   21  H   UNL     1     -12.827   5.980  70.008  1.00  0.00     0.000 HD 
ENDBRANCH  12  14
ENDBRANCH  11  12
ENDBRANCH  10  11
TORSDOF 3
ENDMDL
MODEL       90
REMARK 921   NORMALIZED FREE ENERGY PREDICTED BY IDOCK:   -4.73 KCAL/MOL
REMARK 922        TOTAL FREE ENERGY PREDICTED BY IDOCK:   -6.50 KCAL/MOL
REMARK 923 INTER-LIGAND FREE ENERGY PREDICTED BY IDOCK:   -5.70 KCAL/MOL
REMARK 924 INTRA-LIGAND FREE ENERGY PREDICTED BY IDOCK:   -0.80 KCAL/MOL
REMARK 927      BINDING AFFINITY PREDICTED BY RF-SCORE:    0.00 PKD
ROOT
HETATM    1  C   UNL     1     -11.940  10.084  71.414  1.00  0.00    -0.470 C  
HETATM    2  C   UNL     1     -11.286   8.703  71.469  1.00  0.00    -0.360 C  
HETATM    3  C   UNL     1     -11.207   7.989  70.085  1.00  0.00    -0.145 C  
HETATM    4  C   UNL     1      -9.956   8.799  72.222  1.00  0.00    -0.302 C  
HETATM    5  C   UNL     1     -10.641   6.557  70.263  1.00  0.00    -0.278 C  
HETATM    6  C   UNL     1     -10.705   5.733  68.982  1.00  0.00    -0.354 C  
HETATM    7  C   UNL     1     -10.015   6.444  67.815  1.00  0.00    -0.147 C  
HETATM    8  C   UNL     1     -10.168   5.627  66.533  1.00  0.00    -0.259 C  
HETATM    9  C   UNL     1     -10.566   7.866  67.648  1.00  0.00    -0.276 C  
HETATM   10  C   UNL     1     -10.418   8.692  68.947  1.00  0.00    -0.192 C  
ENDROOT
BRANCH  10  11
HETATM   11  O   UNL     1     -10.894  10.035  68.691  1.00  0.00    -0.223 OA 
BRANCH  11  12
HETATM   12  C   UNL     1      -9.955  10.889  68.192  1.00  0.00    -0.174 C  
HETATM   13  O   UNL     1      -8.774  10.872  68.524  1.00  0.00    -0.139 OA 
BRANCH  12  14
HETATM   14  C   UNL     1     -10.448  11.897  67.204  1.00  0.00    -0.249 A  
HETATM   15  C   UNL     1     -11.645  12.559  67.554  1.00  0.00    -0.424 A  
HETATM   16  C   UNL     1     -12.228  13.513  66.715  1.00  0.00    -0.392 A  
HETATM   17  C   UNL     1     -11.625  13.824  65.503  1.00  0.00    -0.335 A  
HETATM   18  C   UNL     1     -10.440  13.188  65.137  1.00  0.00    -0.339 A  
HETATM   19  C   UNL     1      -9.848  12.233  65.985  1.00  0.00    -0.248 A  
HETATM   20  O   UNL     1      -8.678  11.653  65.583  1.00  0.00    -0.393 OA 
HETATM   21  H   UNL     1      -8.271  11.882  64.756  1.00  0.00     0.000 HD 
ENDBRANCH  12  14
ENDBRANCH  11  12
ENDBRANCH  10  11
TORSDOF 3
ENDMDL
MODEL       91
REMARK 921   NORMALIZED FREE ENERGY PREDICTED BY IDOCK:   -4.71 KCAL/MOL
REMARK 922        TOTAL FREE ENERGY PREDICTED BY IDOCK:   -6.48 KCAL/MOL
REMARK 923 INTER-LIGAND FREE ENERGY PREDICTED BY IDOCK:   -5.92 KCAL/MOL
REMARK 924 INTRA-LIGAND FREE ENERGY PREDICTED BY IDOCK:   -0.56 KCAL/MOL
REMARK 927      BINDING AFFINITY PREDICTED BY RF-SCORE:    0.00 PKD
ROOT
HETATM    1  C   UNL     1      -8.946  15.820  65.743  1.00  0.00    -0.072 C  
HETATM    2  C   UNL     1     -10.197  14.943  65.817  1.00  0.00    -0.358 C  
HETATM    3  C   UNL     1     -10.545  14.465  67.260  1.00  0.00    -0.279 C  
HETATM    4  C   UNL     1     -11.344  15.627  65.069  1.00  0.00    -0.255 C  
HETATM    5  C   UNL     1     -11.750  13.492  67.215  1.00  0.00    -0.423 C  
HETATM    6  C   UNL     1     -12.035  12.841  68.564  1.00  0.00    -0.265 C  
HETATM    7  C   UNL     1     -12.226  13.885  69.669  1.00  0.00    -0.374 C  
HETATM    8  C   UNL     1     -12.430  13.196  71.017  1.00  0.00    -0.406 C  
HETATM    9  C   UNL     1     -11.040  14.856  69.703  1.00  0.00    -0.298 C  
HETATM   10  C   UNL     1     -10.829  15.549  68.337  1.00  0.00    -0.273 C  
ENDROOT
BRANCH  10  11
HETATM   11  O   UNL     1      -9.742  16.497  68.468  1.00  0.00    -0.223 OA 
BRANCH  11  12
HETATM   12  C   UNL     1     -10.021  17.752  68.014  1.00  0.00    -0.333 C  
HETATM   13  O   UNL     1     -11.146  18.130  67.702  1.00  0.00    -0.223 OA 
BRANCH  12  14
HETATM   14  C   UNL     1      -8.852  18.675  67.888  1.00  0.00    -0.308 A  
HETATM   15  C   UNL     1      -9.090  19.868  67.171  1.00  0.00    -0.443 A  
HETATM   16  C   UNL     1      -8.081  20.813  66.963  1.00  0.00    -0.209 A  
HETATM   17  C   UNL     1      -6.809  20.584  67.468  1.00  0.00    -0.360 A  
HETATM   18  C   UNL     1      -6.549  19.417  68.185  1.00  0.00    -0.276 A  
HETATM   19  C   UNL     1      -7.566  18.468  68.402  1.00  0.00    -0.292 A  
HETATM   20  O   UNL     1      -7.260  17.350  69.124  1.00  0.00    -0.244 OA 
HETATM   21  H   UNL     1      -6.388  17.210  69.473  1.00  0.00     0.000 HD 
ENDBRANCH  12  14
ENDBRANCH  11  12
ENDBRANCH  10  11
TORSDOF 3
ENDMDL
MODEL       92
REMARK 921   NORMALIZED FREE ENERGY PREDICTED BY IDOCK:   -4.71 KCAL/MOL
REMARK 922        TOTAL FREE ENERGY PREDICTED BY IDOCK:   -6.47 KCAL/MOL
REMARK 923 INTER-LIGAND FREE ENERGY PREDICTED BY IDOCK:   -5.77 KCAL/MOL
REMARK 924 INTRA-LIGAND FREE ENERGY PREDICTED BY IDOCK:   -0.70 KCAL/MOL
REMARK 927      BINDING AFFINITY PREDICTED BY RF-SCORE:    0.00 PKD
ROOT
HETATM    1  C   UNL     1     -11.292  13.235  65.021  1.00  0.00    -0.326 C  
HETATM    2  C   UNL     1     -11.162  14.420  65.980  1.00  0.00    -0.333 C  
HETATM    3  C   UNL     1     -11.747  14.147  67.400  1.00  0.00    -0.422 C  
HETATM    4  C   UNL     1      -9.719  14.932  65.964  1.00  0.00    -0.358 C  
HETATM    5  C   UNL     1     -11.675  15.437  68.255  1.00  0.00    -0.313 C  
HETATM    6  C   UNL     1     -12.394  15.300  69.593  1.00  0.00    -0.245 C  
HETATM    7  C   UNL     1     -11.883  14.096  70.390  1.00  0.00    -0.367 C  
HETATM    8  C   UNL     1     -12.679  13.944  71.686  1.00  0.00    -0.416 C  
HETATM    9  C   UNL     1     -11.941  12.822  69.539  1.00  0.00    -0.338 C  
HETATM   10  C   UNL     1     -11.141  12.976  68.223  1.00  0.00    -0.263 C  
ENDROOT
BRANCH  10  11
HETATM   11  O   UNL     1     -11.185  11.717  67.511  1.00  0.00    -0.252 OA 
BRANCH  11  12
HETATM   12  C   UNL     1     -10.000  11.045  67.466  1.00  0.00    -0.174 C  
HETATM   13  O   UNL     1      -8.956  11.531  67.043  1.00  0.00    -0.164 OA 
BRANCH  12  14
HETATM   14  C   UNL     1     -10.033   9.632  67.954  1.00  0.00    -0.201 A  
HETATM   15  C   UNL     1     -10.471   8.672  67.015  1.00  0.00    -0.354 A  
HETATM   16  C   UNL     1     -10.566   7.317  67.342  1.00  0.00    -0.370 A  
HETATM   17  C   UNL     1     -10.227   6.891  68.619  1.00  0.00    -0.181 A  
HETATM   18  C   UNL     1      -9.786   7.817  69.562  1.00  0.00    -0.165 A  
HETATM   19  C   UNL     1      -9.681   9.181  69.232  1.00  0.00    -0.164 A  
HETATM   20  O   UNL     1      -9.229  10.043  70.191  1.00  0.00    -0.363 OA 
HETATM   21  H   UNL     1      -8.991   9.738  71.058  1.00  0.00     0.000 HD 
ENDBRANCH  12  14
ENDBRANCH  11  12
ENDBRANCH  10  11
TORSDOF 3
ENDMDL
MODEL       93
REMARK 921   NORMALIZED FREE ENERGY PREDICTED BY IDOCK:   -4.69 KCAL/MOL
REMARK 922        TOTAL FREE ENERGY PREDICTED BY IDOCK:   -6.45 KCAL/MOL
REMARK 923 INTER-LIGAND FREE ENERGY PREDICTED BY IDOCK:   -5.55 KCAL/MOL
REMARK 924 INTRA-LIGAND FREE ENERGY PREDICTED BY IDOCK:   -0.90 KCAL/MOL
REMARK 927      BINDING AFFINITY PREDICTED BY RF-SCORE:    0.00 PKD
ROOT
HETATM    1  C   UNL     1     -10.985   7.152  72.573  1.00  0.00    -0.309 C  
HETATM    2  C   UNL     1     -12.154   8.096  72.289  1.00  0.00    -0.419 C  
HETATM    3  C   UNL     1     -11.733   9.428  71.594  1.00  0.00    -0.468 C  
HETATM    4  C   UNL     1     -13.272   7.325  71.583  1.00  0.00    -0.421 C  
HETATM    5  C   UNL     1     -12.962  10.362  71.458  1.00  0.00    -0.562 C  
HETATM    6  C   UNL     1     -12.594  11.752  70.954  1.00  0.00    -0.384 C  
HETATM    7  C   UNL     1     -11.815  11.691  69.637  1.00  0.00    -0.419 C  
HETATM    8  C   UNL     1     -11.395  13.095  69.205  1.00  0.00    -0.335 C  
HETATM    9  C   UNL     1     -10.607  10.755  69.768  1.00  0.00    -0.191 C  
HETATM   10  C   UNL     1     -11.029   9.335  70.212  1.00  0.00    -0.247 C  
ENDROOT
BRANCH  10  11
HETATM   11  O   UNL     1      -9.850   8.497  70.246  1.00  0.00    -0.178 OA 
BRANCH  11  12
HETATM   12  C   UNL     1      -9.787   7.558  69.259  1.00  0.00    -0.170 C  
HETATM   13  O   UNL     1     -10.272   6.435  69.354  1.00  0.00    -0.174 OA 
BRANCH  12  14
HETATM   14  C   UNL     1      -9.058   7.964  68.018  1.00  0.00    -0.132 A  
HETATM   15  C   UNL     1      -7.846   8.660  68.222  1.00  0.00    -0.102 A  
HETATM   16  C   UNL     1      -7.071   9.112  67.151  1.00  0.00    -0.082 A  
HETATM   17  C   UNL     1      -7.493   8.880  65.849  1.00  0.00    -0.093 A  
HETATM   18  C   UNL     1      -8.683   8.191  65.621  1.00  0.00    -0.176 A  
HETATM   19  C   UNL     1      -9.460   7.727  66.698  1.00  0.00    -0.205 A  
HETATM   20  O   UNL     1     -10.609   7.044  66.416  1.00  0.00    -0.484 OA 
HETATM   21  H   UNL     1     -10.882   6.883  65.520  1.00  0.00     0.000 HD 
ENDBRANCH  12  14
ENDBRANCH  11  12
ENDBRANCH  10  11
TORSDOF 3
ENDMDL
MODEL       94
REMARK 921   NORMALIZED FREE ENERGY PREDICTED BY IDOCK:   -4.66 KCAL/MOL
REMARK 922        TOTAL FREE ENERGY PREDICTED BY IDOCK:   -6.41 KCAL/MOL
REMARK 923 INTER-LIGAND FREE ENERGY PREDICTED BY IDOCK:   -5.85 KCAL/MOL
REMARK 924 INTRA-LIGAND FREE ENERGY PREDICTED BY IDOCK:   -0.57 KCAL/MOL
REMARK 927      BINDING AFFINITY PREDICTED BY RF-SCORE:    0.00 PKD
ROOT
HETATM    1  C   UNL     1     -10.841  15.302  64.725  1.00  0.00    -0.379 C  
HETATM    2  C   UNL     1     -11.540  14.018  65.175  1.00  0.00    -0.344 C  
HETATM    3  C   UNL     1     -10.643  13.086  66.047  1.00  0.00    -0.292 C  
HETATM    4  C   UNL     1     -12.898  14.366  65.789  1.00  0.00    -0.179 C  
HETATM    5  C   UNL     1     -11.396  11.766  66.351  1.00  0.00    -0.361 C  
HETATM    6  C   UNL     1     -10.517  10.731  67.044  1.00  0.00    -0.297 C  
HETATM    7  C   UNL     1      -9.876  11.292  68.317  1.00  0.00    -0.201 C  
HETATM    8  C   UNL     1      -8.942  10.254  68.939  1.00  0.00    -0.164 C  
HETATM    9  C   UNL     1      -9.144  12.605  68.018  1.00  0.00    -0.207 C  
HETATM   10  C   UNL     1     -10.086  13.654  67.381  1.00  0.00    -0.241 C  
ENDROOT
BRANCH  10  11
HETATM   11  O   UNL     1      -9.343  14.882  67.194  1.00  0.00    -0.204 OA 
BRANCH  11  12
HETATM   12  C   UNL     1      -9.241  15.663  68.306  1.00  0.00    -0.188 C  
HETATM   13  O   UNL     1      -9.082  15.219  69.439  1.00  0.00    -0.244 OA 
BRANCH  12  14
HETATM   14  C   UNL     1      -9.357  17.137  68.081  1.00  0.00    -0.264 A  
HETATM   15  C   UNL     1     -10.546  17.567  67.452  1.00  0.00    -0.311 A  
HETATM   16  C   UNL     1     -10.778  18.915  67.166  1.00  0.00    -0.506 A  
HETATM   17  C   UNL     1      -9.823  19.865  67.502  1.00  0.00    -0.538 A  
HETATM   18  C   UNL     1      -8.643  19.467  68.129  1.00  0.00    -0.374 A  
HETATM   19  C   UNL     1      -8.411  18.110  68.425  1.00  0.00    -0.299 A  
HETATM   20  O   UNL     1      -7.245  17.779  69.054  1.00  0.00    -0.255 OA 
HETATM   21  H   UNL     1      -6.603  18.439  69.287  1.00  0.00     0.000 HD 
ENDBRANCH  12  14
ENDBRANCH  11  12
ENDBRANCH  10  11
TORSDOF 3
ENDMDL
MODEL       95
REMARK 921   NORMALIZED FREE ENERGY PREDICTED BY IDOCK:   -4.65 KCAL/MOL
REMARK 922        TOTAL FREE ENERGY PREDICTED BY IDOCK:   -6.41 KCAL/MOL
REMARK 923 INTER-LIGAND FREE ENERGY PREDICTED BY IDOCK:   -6.26 KCAL/MOL
REMARK 924 INTRA-LIGAND FREE ENERGY PREDICTED BY IDOCK:   -0.15 KCAL/MOL
REMARK 927      BINDING AFFINITY PREDICTED BY RF-SCORE:    0.00 PKD
ROOT
HETATM    1  C   UNL     1     -11.671  15.765  68.643  1.00  0.00    -0.353 C  
HETATM    2  C   UNL     1     -11.984  14.747  69.739  1.00  0.00    -0.368 C  
HETATM    3  C   UNL     1     -11.698  13.270  69.326  1.00  0.00    -0.380 C  
HETATM    4  C   UNL     1     -11.326  15.189  71.049  1.00  0.00    -0.358 C  
HETATM    5  C   UNL     1     -12.156  12.310  70.454  1.00  0.00    -0.385 C  
HETATM    6  C   UNL     1     -12.078  10.843  70.049  1.00  0.00    -0.433 C  
HETATM    7  C   UNL     1     -10.678  10.465  69.555  1.00  0.00    -0.284 C  
HETATM    8  C   UNL     1     -10.659   9.011  69.084  1.00  0.00    -0.219 C  
HETATM    9  C   UNL     1     -10.220  11.423  68.449  1.00  0.00    -0.206 C  
HETATM   10  C   UNL     1     -10.246  12.896  68.922  1.00  0.00     0.012 C  
ENDROOT
BRANCH  10  11
HETATM   11  O   UNL     1      -9.737  13.729  67.852  1.00  0.00    -0.215 OA 
BRANCH  11  12
HETATM   12  C   UNL     1      -9.376  13.053  66.725  1.00  0.00    -0.244 C  
HETATM   13  O   UNL     1      -8.312  12.453  66.601  1.00  0.00    -0.113 OA 
BRANCH  12  14
HETATM   14  C   UNL     1     -10.358  13.092  65.598  1.00  0.00    -0.291 A  
HETATM   15  C   UNL     1     -10.635  11.850  64.986  1.00  0.00    -0.335 A  
HETATM   16  C   UNL     1     -11.521  11.744  63.911  1.00  0.00    -0.481 A  
HETATM   17  C   UNL     1     -12.148  12.881  63.420  1.00  0.00    -0.610 A  
HETATM   18  C   UNL     1     -11.895  14.118  64.010  1.00  0.00    -0.301 A  
HETATM   19  C   UNL     1     -11.010  14.226  65.098  1.00  0.00    -0.363 A  
HETATM   20  O   UNL     1     -10.811  15.461  65.647  1.00  0.00    -0.331 OA 
HETATM   21  H   UNL     1     -11.254  16.230  65.308  1.00  0.00     0.000 HD 
ENDBRANCH  12  14
ENDBRANCH  11  12
ENDBRANCH  10  11
TORSDOF 3
ENDMDL
MODEL       96
REMARK 921   NORMALIZED FREE ENERGY PREDICTED BY IDOCK:   -4.64 KCAL/MOL
REMARK 922        TOTAL FREE ENERGY PREDICTED BY IDOCK:   -6.39 KCAL/MOL
REMARK 923 INTER-LIGAND FREE ENERGY PREDICTED BY IDOCK:   -6.00 KCAL/MOL
REMARK 924 INTRA-LIGAND FREE ENERGY PREDICTED BY IDOCK:   -0.40 KCAL/MOL
REMARK 927      BINDING AFFINITY PREDICTED BY RF-SCORE:    0.00 PKD
ROOT
HETATM    1  C   UNL     1     -11.142  12.885  66.618  1.00  0.00    -0.316 C  
HETATM    2  C   UNL     1      -9.686  12.513  66.896  1.00  0.00    -0.232 C  
HETATM    3  C   UNL     1      -8.813  13.709  67.388  1.00  0.00    -0.221 C  
HETATM    4  C   UNL     1      -9.639  11.270  67.789  1.00  0.00    -0.181 C  
HETATM    5  C   UNL     1      -7.337  13.260  67.527  1.00  0.00    -0.159 C  
HETATM    6  C   UNL     1      -6.393  14.419  67.828  1.00  0.00    -0.168 C  
HETATM    7  C   UNL     1      -6.837  15.206  69.065  1.00  0.00    -0.122 C  
HETATM    8  C   UNL     1      -5.915  16.404  69.288  1.00  0.00    -0.154 C  
HETATM    9  C   UNL     1      -8.302  15.637  68.933  1.00  0.00    -0.210 C  
HETATM   10  C   UNL     1      -9.236  14.426  68.700  1.00  0.00    -0.181 C  
ENDROOT
BRANCH  10  11
HETATM   11  O   UNL     1     -10.602  14.903  68.655  1.00  0.00    -0.237 OA 
BRANCH  11  12
HETATM   12  C   UNL     1     -10.992  15.622  69.746  1.00  0.00    -0.304 C  
HETATM   13  O   UNL     1     -10.703  16.801  69.924  1.00  0.00    -0.292 OA 
BRANCH  12  14
HETATM   14  C   UNL     1     -11.799  14.879  70.762  1.00  0.00    -0.368 A  
HETATM   15  C   UNL     1     -12.073  13.528  70.455  1.00  0.00    -0.415 A  
HETATM   16  C   UNL     1     -12.830  12.721  71.308  1.00  0.00    -0.355 A  
HETATM   17  C   UNL     1     -13.333  13.250  72.490  1.00  0.00    -0.569 A  
HETATM   18  C   UNL     1     -13.071  14.578  72.819  1.00  0.00    -0.589 A  
HETATM   19  C   UNL     1     -12.302  15.390  71.964  1.00  0.00    -0.373 A  
HETATM   20  O   UNL     1     -12.063  16.680  72.344  1.00  0.00    -0.551 OA 
HETATM   21  H   UNL     1     -12.405  17.027  73.160  1.00  0.00     0.000 HD 
ENDBRANCH  12  14
ENDBRANCH  11  12
ENDBRANCH  10  11
TORSDOF 3
ENDMDL
MODEL       97
REMARK 921   NORMALIZED FREE ENERGY PREDICTED BY IDOCK:   -4.64 KCAL/MOL
REMARK 922        TOTAL FREE ENERGY PREDICTED BY IDOCK:   -6.39 KCAL/MOL
REMARK 923 INTER-LIGAND FREE ENERGY PREDICTED BY IDOCK:   -5.61 KCAL/MOL
REMARK 924 INTRA-LIGAND FREE ENERGY PREDICTED BY IDOCK:   -0.78 KCAL/MOL
REMARK 927      BINDING AFFINITY PREDICTED BY RF-SCORE:    0.00 PKD
ROOT
HETATM    1  C   UNL     1      -9.569   7.201  67.206  1.00  0.00    -0.179 C  
HETATM    2  C   UNL     1      -9.201   8.179  66.090  1.00  0.00    -0.230 C  
HETATM    3  C   UNL     1     -10.176   9.391  65.969  1.00  0.00    -0.204 C  
HETATM    4  C   UNL     1      -7.721   8.552  66.207  1.00  0.00    -0.094 C  
HETATM    5  C   UNL     1      -9.790  10.256  64.742  1.00  0.00    -0.403 C  
HETATM    6  C   UNL     1     -10.806  11.355  64.451  1.00  0.00    -0.397 C  
HETATM    7  C   UNL     1     -11.052  12.238  65.678  1.00  0.00    -0.357 C  
HETATM    8  C   UNL     1     -12.132  13.276  65.373  1.00  0.00    -0.464 C  
HETATM    9  C   UNL     1     -11.420  11.381  66.895  1.00  0.00    -0.198 C  
HETATM   10  C   UNL     1     -10.332  10.325  67.200  1.00  0.00    -0.238 C  
ENDROOT
BRANCH  10  11
HETATM   11  O   UNL     1     -10.716   9.605  68.396  1.00  0.00    -0.226 OA 
BRANCH  11  12
HETATM   12  C   UNL     1      -9.902   9.808  69.471  1.00  0.00    -0.214 C  
HETATM   13  O   UNL     1      -8.887  10.497  69.437  1.00  0.00    -0.152 OA 
BRANCH  12  14
HETATM   14  C   UNL     1     -10.301   9.112  70.733  1.00  0.00    -0.323 A  
HETATM   15  C   UNL     1      -9.334   8.241  71.282  1.00  0.00    -0.218 A  
HETATM   16  C   UNL     1      -9.581   7.514  72.450  1.00  0.00    -0.205 A  
HETATM   17  C   UNL     1     -10.805   7.640  73.093  1.00  0.00    -0.440 A  
HETATM   18  C   UNL     1     -11.774   8.497  72.575  1.00  0.00    -0.390 A  
HETATM   19  C   UNL     1     -11.523   9.236  71.403  1.00  0.00    -0.369 A  
HETATM   20  O   UNL     1     -12.503  10.072  70.948  1.00  0.00    -0.312 OA 
HETATM   21  H   UNL     1     -13.332  10.157  71.403  1.00  0.00     0.000 HD 
ENDBRANCH  12  14
ENDBRANCH  11  12
ENDBRANCH  10  11
TORSDOF 3
ENDMDL
MODEL       98
REMARK 921   NORMALIZED FREE ENERGY PREDICTED BY IDOCK:   -4.61 KCAL/MOL
REMARK 922        TOTAL FREE ENERGY PREDICTED BY IDOCK:   -6.36 KCAL/MOL
REMARK 923 INTER-LIGAND FREE ENERGY PREDICTED BY IDOCK:   -5.44 KCAL/MOL
REMARK 924 INTRA-LIGAND FREE ENERGY PREDICTED BY IDOCK:   -0.92 KCAL/MOL
REMARK 927      BINDING AFFINITY PREDICTED BY RF-SCORE:    0.00 PKD
ROOT
HETATM    1  C   UNL     1      -7.176  11.898  68.884  1.00  0.00    -0.098 C  
HETATM    2  C   UNL     1      -6.931  10.743  67.912  1.00  0.00    -0.073 C  
HETATM    3  C   UNL     1      -8.054   9.661  67.924  1.00  0.00    -0.106 C  
HETATM    4  C   UNL     1      -6.592  11.305  66.529  1.00  0.00    -0.108 C  
HETATM    5  C   UNL     1      -7.659   8.482  66.999  1.00  0.00    -0.092 C  
HETATM    6  C   UNL     1      -8.621   7.304  67.099  1.00  0.00    -0.121 C  
HETATM    7  C   UNL     1     -10.069   7.730  66.840  1.00  0.00    -0.356 C  
HETATM    8  C   UNL     1     -11.011   6.542  67.027  1.00  0.00    -0.466 C  
HETATM    9  C   UNL     1     -10.455   8.906  67.745  1.00  0.00    -0.300 C  
HETATM   10  C   UNL     1      -9.498  10.107  67.562  1.00  0.00    -0.152 C  
ENDROOT
BRANCH  10  11
HETATM   11  O   UNL     1      -9.966  11.196  68.394  1.00  0.00    -0.173 OA 
BRANCH  11  12
HETATM   12  C   UNL     1     -11.099  11.809  67.948  1.00  0.00    -0.245 C  
HETATM   13  O   UNL     1     -12.232  11.455  68.258  1.00  0.00    -0.588 OA 
BRANCH  12  14
HETATM   14  C   UNL     1     -10.895  12.959  67.015  1.00  0.00    -0.282 A  
HETATM   15  C   UNL     1      -9.849  13.844  67.358  1.00  0.00    -0.237 A  
HETATM   16  C   UNL     1      -9.559  14.971  66.583  1.00  0.00    -0.281 A  
HETATM   17  C   UNL     1     -10.311  15.238  65.447  1.00  0.00    -0.421 A  
HETATM   18  C   UNL     1     -11.345  14.377  65.084  1.00  0.00    -0.359 A  
HETATM   19  C   UNL     1     -11.633  13.237  65.859  1.00  0.00    -0.347 A  
HETATM   20  O   UNL     1     -12.647  12.420  65.448  1.00  0.00    -0.637 OA 
HETATM   21  H   UNL     1     -13.148  12.608  64.664  1.00  0.00     0.000 HD 
ENDBRANCH  12  14
ENDBRANCH  11  12
ENDBRANCH  10  11
TORSDOF 3
ENDMDL
MODEL       99
REMARK 921   NORMALIZED FREE ENERGY PREDICTED BY IDOCK:   -4.61 KCAL/MOL
REMARK 922        TOTAL FREE ENERGY PREDICTED BY IDOCK:   -6.36 KCAL/MOL
REMARK 923 INTER-LIGAND FREE ENERGY PREDICTED BY IDOCK:   -5.52 KCAL/MOL
REMARK 924 INTRA-LIGAND FREE ENERGY PREDICTED BY IDOCK:   -0.84 KCAL/MOL
REMARK 927      BINDING AFFINITY PREDICTED BY RF-SCORE:    0.00 PKD
ROOT
HETATM    1  C   UNL     1     -10.124  10.465  64.295  1.00  0.00    -0.306 C  
HETATM    2  C   UNL     1      -9.202   9.927  65.390  1.00  0.00    -0.264 C  
HETATM    3  C   UNL     1      -8.370  11.032  66.111  1.00  0.00    -0.163 C  
HETATM    4  C   UNL     1      -9.998   9.008  66.320  1.00  0.00    -0.352 C  
HETATM    5  C   UNL     1      -7.386  10.378  67.114  1.00  0.00    -0.092 C  
HETATM    6  C   UNL     1      -6.413  11.380  67.724  1.00  0.00    -0.065 C  
HETATM    7  C   UNL     1      -7.144  12.557  68.376  1.00  0.00    -0.107 C  
HETATM    8  C   UNL     1      -6.137  13.577  68.906  1.00  0.00    -0.089 C  
HETATM    9  C   UNL     1      -8.128  13.194  67.388  1.00  0.00    -0.181 C  
HETATM   10  C   UNL     1      -9.144  12.161  66.845  1.00  0.00    -0.203 C  
ENDROOT
BRANCH  10  11
HETATM   11  O   UNL     1     -10.076  12.849  65.978  1.00  0.00    -0.275 OA 
BRANCH  11  12
HETATM   12  C   UNL     1     -11.326  13.013  66.498  1.00  0.00    -0.320 C  
HETATM   13  O   UNL     1     -12.326  12.454  66.059  1.00  0.00    -0.627 OA 
BRANCH  12  14
HETATM   14  C   UNL     1     -11.432  13.955  67.655  1.00  0.00    -0.354 A  
HETATM   15  C   UNL     1     -11.957  13.403  68.844  1.00  0.00    -0.362 A  
HETATM   16  C   UNL     1     -12.126  14.174  69.997  1.00  0.00    -0.409 A  
HETATM   17  C   UNL     1     -11.776  15.517  69.985  1.00  0.00    -0.363 A  
HETATM   18  C   UNL     1     -11.251  16.084  68.826  1.00  0.00    -0.360 A  
HETATM   19  C   UNL     1     -11.072  15.307  67.666  1.00  0.00    -0.323 A  
HETATM   20  O   UNL     1     -10.539  15.911  66.563  1.00  0.00    -0.307 OA 
HETATM   21  H   UNL     1     -10.294  16.829  66.570  1.00  0.00     0.000 HD 
ENDBRANCH  12  14
ENDBRANCH  11  12
ENDBRANCH  10  11
TORSDOF 3
ENDMDL
MODEL      100
REMARK 921   NORMALIZED FREE ENERGY PREDICTED BY IDOCK:   -4.61 KCAL/MOL
REMARK 922        TOTAL FREE ENERGY PREDICTED BY IDOCK:   -6.36 KCAL/MOL
REMARK 923 INTER-LIGAND FREE ENERGY PREDICTED BY IDOCK:   -5.35 KCAL/MOL
REMARK 924 INTRA-LIGAND FREE ENERGY PREDICTED BY IDOCK:   -1.01 KCAL/MOL
REMARK 927      BINDING AFFINITY PREDICTED BY RF-SCORE:    0.00 PKD
ROOT
HETATM    1  C   UNL     1     -11.411   6.533  69.883  1.00  0.00    -0.467 C  
HETATM    2  C   UNL     1     -10.253   6.860  70.826  1.00  0.00    -0.212 C  
HETATM    3  C   UNL     1      -9.181   7.806  70.201  1.00  0.00    -0.153 C  
HETATM    4  C   UNL     1     -10.809   7.319  72.177  1.00  0.00    -0.263 C  
HETATM    5  C   UNL     1      -7.996   7.980  71.186  1.00  0.00    -0.095 C  
HETATM    6  C   UNL     1      -6.827   8.742  70.573  1.00  0.00    -0.046 C  
HETATM    7  C   UNL     1      -7.265  10.098  70.011  1.00  0.00    -0.166 C  
HETATM    8  C   UNL     1      -6.086  10.797  69.336  1.00  0.00    -0.053 C  
HETATM    9  C   UNL     1      -8.447   9.926  69.049  1.00  0.00    -0.136 C  
HETATM   10  C   UNL     1      -9.639   9.212  69.728  1.00  0.00    -0.181 C  
ENDROOT
BRANCH  10  11
HETATM   11  O   UNL     1     -10.733   9.150  68.783  1.00  0.00    -0.207 OA 
BRANCH  11  12
HETATM   12  C   UNL     1     -11.354  10.341  68.547  1.00  0.00    -0.168 C  
HETATM   13  O   UNL     1     -11.413  10.871  67.442  1.00  0.00    -0.479 OA 
BRANCH  12  14
HETATM   14  C   UNL     1     -11.962  11.007  69.740  1.00  0.00    -0.428 A  
HETATM   15  C   UNL     1     -12.587  10.145  70.667  1.00  0.00    -0.353 A  
HETATM   16  C   UNL     1     -13.210  10.634  71.818  1.00  0.00    -0.526 A  
HETATM   17  C   UNL     1     -13.224  12.000  72.066  1.00  0.00    -0.481 A  
HETATM   18  C   UNL     1     -12.609  12.872  71.169  1.00  0.00    -0.373 A  
HETATM   19  C   UNL     1     -11.974  12.379  70.013  1.00  0.00    -0.299 A  
HETATM   20  O   UNL     1     -11.374  13.277  69.176  1.00  0.00    -0.266 OA 
HETATM   21  H   UNL     1     -11.382  14.209  69.362  1.00  0.00     0.000 HD 
ENDBRANCH  12  14
ENDBRANCH  11  12
ENDBRANCH  10  11
TORSDOF 3
ENDMDL
MODEL      101
REMARK 921   NORMALIZED FREE ENERGY PREDICTED BY IDOCK:   -4.61 KCAL/MOL
REMARK 922        TOTAL FREE ENERGY PREDICTED BY IDOCK:   -6.35 KCAL/MOL
REMARK 923 INTER-LIGAND FREE ENERGY PREDICTED BY IDOCK:   -5.40 KCAL/MOL
REMARK 924 INTRA-LIGAND FREE ENERGY PREDICTED BY IDOCK:   -0.95 KCAL/MOL
REMARK 927      BINDING AFFINITY PREDICTED BY RF-SCORE:    0.00 PKD
ROOT
HETATM    1  C   UNL     1     -12.201  11.859  64.479  1.00  0.00    -0.231 C  
HETATM    2  C   UNL     1     -11.654  13.197  64.976  1.00  0.00    -0.354 C  
HETATM    3  C   UNL     1     -11.927  13.467  66.488  1.00  0.00    -0.460 C  
HETATM    4  C   UNL     1     -10.190  13.339  64.550  1.00  0.00    -0.332 C  
HETATM    5  C   UNL     1     -11.442  14.890  66.864  1.00  0.00    -0.318 C  
HETATM    6  C   UNL     1     -11.840  15.295  68.279  1.00  0.00    -0.251 C  
HETATM    7  C   UNL     1     -11.366  14.272  69.316  1.00  0.00    -0.322 C  
HETATM    8  C   UNL     1     -11.851  14.670  70.709  1.00  0.00    -0.372 C  
HETATM    9  C   UNL     1     -11.834  12.863  68.935  1.00  0.00    -0.352 C  
HETATM   10  C   UNL     1     -11.350  12.461  67.522  1.00  0.00    -0.315 C  
ENDROOT
BRANCH  10  11
HETATM   11  O   UNL     1     -11.770  11.100  67.264  1.00  0.00    -0.540 OA 
BRANCH  11  12
HETATM   12  C   UNL     1     -10.844  10.149  67.574  1.00  0.00    -0.290 C  
HETATM   13  O   UNL     1     -11.104   9.121  68.191  1.00  0.00    -0.030 OA 
BRANCH  12  14
HETATM   14  C   UNL     1      -9.444  10.432  67.132  1.00  0.00    -0.183 A  
HETATM   15  C   UNL     1      -8.591  10.975  68.117  1.00  0.00    -0.140 A  
HETATM   16  C   UNL     1      -7.261  11.303  67.837  1.00  0.00    -0.086 A  
HETATM   17  C   UNL     1      -6.756  11.097  66.560  1.00  0.00    -0.128 A  
HETATM   18  C   UNL     1      -7.576  10.557  65.571  1.00  0.00    -0.120 A  
HETATM   19  C   UNL     1      -8.913  10.218  65.854  1.00  0.00    -0.158 A  
HETATM   20  O   UNL     1      -9.667   9.678  64.852  1.00  0.00    -0.417 OA 
HETATM   21  H   UNL     1      -9.306   9.533  63.985  1.00  0.00     0.000 HD 
ENDBRANCH  12  14
ENDBRANCH  11  12
ENDBRANCH  10  11
TORSDOF 3
ENDMDL
MODEL      102
REMARK 921   NORMALIZED FREE ENERGY PREDICTED BY IDOCK:   -4.60 KCAL/MOL
REMARK 922        TOTAL FREE ENERGY PREDICTED BY IDOCK:   -6.35 KCAL/MOL
REMARK 923 INTER-LIGAND FREE ENERGY PREDICTED BY IDOCK:   -5.55 KCAL/MOL
REMARK 924 INTRA-LIGAND FREE ENERGY PREDICTED BY IDOCK:   -0.81 KCAL/MOL
REMARK 927      BINDING AFFINITY PREDICTED BY RF-SCORE:    0.00 PKD
ROOT
HETATM    1  C   UNL     1      -8.240  11.995  67.275  1.00  0.00    -0.173 C  
HETATM    2  C   UNL     1      -8.434  10.547  66.824  1.00  0.00    -0.127 C  
HETATM    3  C   UNL     1      -9.021   9.617  67.931  1.00  0.00    -0.120 C  
HETATM    4  C   UNL     1      -9.192  10.524  65.494  1.00  0.00    -0.223 C  
HETATM    5  C   UNL     1      -9.069   8.155  67.418  1.00  0.00    -0.148 C  
HETATM    6  C   UNL     1      -9.459   7.160  68.505  1.00  0.00    -0.139 C  
HETATM    7  C   UNL     1     -10.783   7.541  69.173  1.00  0.00    -0.163 C  
HETATM    8  C   UNL     1     -11.101   6.568  70.308  1.00  0.00    -0.392 C  
HETATM    9  C   UNL     1     -10.741   8.992  69.667  1.00  0.00    -0.228 C  
HETATM   10  C   UNL     1     -10.412   9.977  68.521  1.00  0.00    -0.202 C  
ENDROOT
BRANCH  10  11
HETATM   11  O   UNL     1     -10.458  11.324  69.049  1.00  0.00    -0.212 OA 
BRANCH  11  12
HETATM   12  C   UNL     1     -11.515  12.070  68.618  1.00  0.00    -0.297 C  
HETATM   13  O   UNL     1     -11.938  12.051  67.467  1.00  0.00    -0.572 OA 
BRANCH  12  14
HETATM   14  C   UNL     1     -12.145  12.960  69.641  1.00  0.00    -0.290 A  
HETATM   15  C   UNL     1     -12.122  14.341  69.345  1.00  0.00    -0.361 A  
HETATM   16  C   UNL     1     -12.661  15.287  70.221  1.00  0.00    -0.388 A  
HETATM   17  C   UNL     1     -13.233  14.873  71.416  1.00  0.00    -0.462 A  
HETATM   18  C   UNL     1     -13.272  13.515  71.729  1.00  0.00    -0.490 A  
HETATM   19  C   UNL     1     -12.738  12.560  70.844  1.00  0.00    -0.182 A  
HETATM   20  O   UNL     1     -12.818  11.242  71.194  1.00  0.00    -0.376 OA 
HETATM   21  H   UNL     1     -13.220  10.970  72.011  1.00  0.00     0.000 HD 
ENDBRANCH  12  14
ENDBRANCH  11  12
ENDBRANCH  10  11
TORSDOF 3
ENDMDL
MODEL      103
REMARK 921   NORMALIZED FREE ENERGY PREDICTED BY IDOCK:   -4.60 KCAL/MOL
REMARK 922        TOTAL FREE ENERGY PREDICTED BY IDOCK:   -6.34 KCAL/MOL
REMARK 923 INTER-LIGAND FREE ENERGY PREDICTED BY IDOCK:   -5.60 KCAL/MOL
REMARK 924 INTRA-LIGAND FREE ENERGY PREDICTED BY IDOCK:   -0.74 KCAL/MOL
REMARK 927      BINDING AFFINITY PREDICTED BY RF-SCORE:    0.00 PKD
ROOT
HETATM    1  C   UNL     1     -11.733  15.622  68.499  1.00  0.00    -0.339 C  
HETATM    2  C   UNL     1     -10.486  15.688  67.616  1.00  0.00    -0.283 C  
HETATM    3  C   UNL     1      -9.417  14.604  67.956  1.00  0.00    -0.207 C  
HETATM    4  C   UNL     1     -10.905  15.742  66.145  1.00  0.00    -0.240 C  
HETATM    5  C   UNL     1      -8.149  14.827  67.093  1.00  0.00    -0.226 C  
HETATM    6  C   UNL     1      -6.993  13.920  67.497  1.00  0.00    -0.162 C  
HETATM    7  C   UNL     1      -7.399  12.443  67.486  1.00  0.00    -0.146 C  
HETATM    8  C   UNL     1      -6.241  11.572  67.971  1.00  0.00    -0.046 C  
HETATM    9  C   UNL     1      -8.662  12.225  68.328  1.00  0.00    -0.178 C  
HETATM   10  C   UNL     1      -9.833  13.111  67.843  1.00  0.00    -0.231 C  
ENDROOT
BRANCH  10  11
HETATM   11  O   UNL     1     -11.002  12.800  68.638  1.00  0.00    -0.242 OA 
BRANCH  11  12
HETATM   12  C   UNL     1     -11.541  11.570  68.404  1.00  0.00    -0.308 C  
HETATM   13  O   UNL     1     -11.848  11.161  67.288  1.00  0.00    -0.525 OA 
BRANCH  12  14
HETATM   14  C   UNL     1     -11.770  10.718  69.611  1.00  0.00    -0.395 A  
HETATM   15  C   UNL     1     -12.730  11.202  70.526  1.00  0.00    -0.302 A  
HETATM   16  C   UNL     1     -13.031  10.514  71.705  1.00  0.00    -0.582 A  
HETATM   17  C   UNL     1     -12.375   9.325  71.995  1.00  0.00    -0.433 A  
HETATM   18  C   UNL     1     -11.428   8.823  71.105  1.00  0.00    -0.344 A  
HETATM   19  C   UNL     1     -11.129   9.511  69.914  1.00  0.00    -0.216 A  
HETATM   20  O   UNL     1     -10.204   8.965  69.070  1.00  0.00    -0.196 OA 
HETATM   21  H   UNL     1      -9.769   8.146  69.276  1.00  0.00     0.000 HD 
ENDBRANCH  12  14
ENDBRANCH  11  12
ENDBRANCH  10  11
TORSDOF 3
ENDMDL
MODEL      104
REMARK 921   NORMALIZED FREE ENERGY PREDICTED BY IDOCK:   -4.59 KCAL/MOL
REMARK 922        TOTAL FREE ENERGY PREDICTED BY IDOCK:   -6.33 KCAL/MOL
REMARK 923 INTER-LIGAND FREE ENERGY PREDICTED BY IDOCK:   -5.47 KCAL/MOL
REMARK 924 INTRA-LIGAND FREE ENERGY PREDICTED BY IDOCK:   -0.86 KCAL/MOL
REMARK 927      BINDING AFFINITY PREDICTED BY RF-SCORE:    0.00 PKD
ROOT
HETATM    1  C   UNL     1     -12.069  12.588  66.095  1.00  0.00    -0.357 C  
HETATM    2  C   UNL     1     -11.577  13.823  65.338  1.00  0.00    -0.330 C  
HETATM    3  C   UNL     1     -11.015  14.945  66.264  1.00  0.00    -0.338 C  
HETATM    4  C   UNL     1     -10.640  13.389  64.208  1.00  0.00    -0.358 C  
HETATM    5  C   UNL     1     -10.655  16.193  65.419  1.00  0.00    -0.399 C  
HETATM    6  C   UNL     1     -10.271  17.395  66.274  1.00  0.00    -0.344 C  
HETATM    7  C   UNL     1      -9.137  17.059  67.248  1.00  0.00    -0.229 C  
HETATM    8  C   UNL     1      -8.834  18.262  68.141  1.00  0.00    -0.307 C  
HETATM    9  C   UNL     1      -9.488  15.815  68.074  1.00  0.00    -0.202 C  
HETATM   10  C   UNL     1      -9.802  14.599  67.172  1.00  0.00    -0.237 C  
ENDROOT
BRANCH  10  11
HETATM   11  O   UNL     1     -10.054  13.453  68.020  1.00  0.00    -0.228 OA 
BRANCH  11  12
HETATM   12  C   UNL     1      -9.089  12.490  67.980  1.00  0.00    -0.200 C  
HETATM   13  O   UNL     1      -7.888  12.726  68.056  1.00  0.00    -0.126 OA 
BRANCH  12  14
HETATM   14  C   UNL     1      -9.575  11.086  67.812  1.00  0.00    -0.180 A  
HETATM   15  C   UNL     1      -9.217  10.457  66.599  1.00  0.00    -0.178 A  
HETATM   16  C   UNL     1      -9.618   9.152  66.304  1.00  0.00    -0.321 A  
HETATM   17  C   UNL     1     -10.391   8.446  67.216  1.00  0.00    -0.369 A  
HETATM   18  C   UNL     1     -10.753   9.042  68.422  1.00  0.00    -0.145 A  
HETATM   19  C   UNL     1     -10.343  10.354  68.725  1.00  0.00    -0.196 A  
HETATM   20  O   UNL     1     -10.714  10.884  69.928  1.00  0.00    -0.427 OA 
HETATM   21  H   UNL     1     -11.235  10.387  70.548  1.00  0.00     0.000 HD 
ENDBRANCH  12  14
ENDBRANCH  11  12
ENDBRANCH  10  11
TORSDOF 3
ENDMDL
MODEL      105
REMARK 921   NORMALIZED FREE ENERGY PREDICTED BY IDOCK:   -4.58 KCAL/MOL
REMARK 922        TOTAL FREE ENERGY PREDICTED BY IDOCK:   -6.32 KCAL/MOL
REMARK 923 INTER-LIGAND FREE ENERGY PREDICTED BY IDOCK:   -5.47 KCAL/MOL
REMARK 924 INTRA-LIGAND FREE ENERGY PREDICTED BY IDOCK:   -0.85 KCAL/MOL
REMARK 927      BINDING AFFINITY PREDICTED BY RF-SCORE:    0.00 PKD
ROOT
HETATM    1  C   UNL     1     -10.423   6.938  73.663  1.00  0.00    -0.400 C  
HETATM    2  C   UNL     1      -9.320   5.960  73.258  1.00  0.00    -0.135 C  
HETATM    3  C   UNL     1      -9.604   5.209  71.920  1.00  0.00    -0.193 C  
HETATM    4  C   UNL     1      -7.963   6.664  73.327  1.00  0.00    -0.103 C  
HETATM    5  C   UNL     1      -8.493   4.161  71.659  1.00  0.00    -0.105 C  
HETATM    6  C   UNL     1      -8.798   3.263  70.466  1.00  0.00    -0.147 C  
HETATM    7  C   UNL     1      -9.078   4.078  69.200  1.00  0.00    -0.197 C  
HETATM    8  C   UNL     1      -9.456   3.149  68.046  1.00  0.00    -0.218 C  
HETATM    9  C   UNL     1     -10.167   5.125  69.463  1.00  0.00    -0.318 C  
HETATM   10  C   UNL     1      -9.789   6.061  70.634  1.00  0.00    -0.181 C  
ENDROOT
BRANCH  10  11
HETATM   11  O   UNL     1     -10.828   7.059  70.776  1.00  0.00    -0.234 OA 
BRANCH  11  12
HETATM   12  C   UNL     1     -10.517   8.284  70.262  1.00  0.00    -0.218 C  
HETATM   13  O   UNL     1      -9.563   8.489  69.519  1.00  0.00    -0.167 OA 
BRANCH  12  14
HETATM   14  C   UNL     1     -11.409   9.410  70.676  1.00  0.00    -0.352 A  
HETATM   15  C   UNL     1     -12.436   9.073  71.585  1.00  0.00    -0.418 A  
HETATM   16  C   UNL     1     -13.352  10.025  72.043  1.00  0.00    -0.513 A  
HETATM   17  C   UNL     1     -13.262  11.336  71.597  1.00  0.00    -0.431 A  
HETATM   18  C   UNL     1     -12.254  11.696  70.704  1.00  0.00    -0.461 A  
HETATM   19  C   UNL     1     -11.326  10.740  70.249  1.00  0.00    -0.290 A  
HETATM   20  O   UNL     1     -10.350  11.151  69.386  1.00  0.00    -0.390 OA 
HETATM   21  H   UNL     1     -10.294  12.054  69.096  1.00  0.00     0.000 HD 
ENDBRANCH  12  14
ENDBRANCH  11  12
ENDBRANCH  10  11
TORSDOF 3
ENDMDL
MODEL      106
REMARK 921   NORMALIZED FREE ENERGY PREDICTED BY IDOCK:   -4.57 KCAL/MOL
REMARK 922        TOTAL FREE ENERGY PREDICTED BY IDOCK:   -6.32 KCAL/MOL
REMARK 923 INTER-LIGAND FREE ENERGY PREDICTED BY IDOCK:   -5.94 KCAL/MOL
REMARK 924 INTRA-LIGAND FREE ENERGY PREDICTED BY IDOCK:   -0.37 KCAL/MOL
REMARK 927      BINDING AFFINITY PREDICTED BY RF-SCORE:    0.00 PKD
ROOT
HETATM    1  C   UNL     1     -11.271   6.190  69.355  1.00  0.00    -0.466 C  
HETATM    2  C   UNL     1     -10.964   6.708  67.949  1.00  0.00    -0.342 C  
HETATM    3  C   UNL     1     -10.270   8.105  67.931  1.00  0.00    -0.274 C  
HETATM    4  C   UNL     1     -10.241   5.619  67.151  1.00  0.00    -0.255 C  
HETATM    5  C   UNL     1     -10.110   8.594  66.469  1.00  0.00    -0.339 C  
HETATM    6  C   UNL     1      -9.607  10.030  66.378  1.00  0.00    -0.248 C  
HETATM    7  C   UNL     1      -8.303  10.225  67.158  1.00  0.00    -0.122 C  
HETATM    8  C   UNL     1      -7.873  11.691  67.110  1.00  0.00    -0.163 C  
HETATM    9  C   UNL     1      -8.458   9.728  68.600  1.00  0.00    -0.116 C  
HETATM   10  C   UNL     1      -8.901   8.247  68.651  1.00  0.00    -0.133 C  
ENDROOT
BRANCH  10  11
HETATM   11  O   UNL     1      -8.958   7.833  70.036  1.00  0.00    -0.142 OA 
BRANCH  11  12
HETATM   12  C   UNL     1      -9.169   8.844  70.926  1.00  0.00    -0.231 C  
HETATM   13  O   UNL     1      -8.268   9.504  71.435  1.00  0.00    -0.239 OA 
BRANCH  12  14
HETATM   14  C   UNL     1     -10.596   9.110  71.285  1.00  0.00    -0.399 A  
HETATM   15  C   UNL     1     -11.203  10.192  70.610  1.00  0.00    -0.418 A  
HETATM   16  C   UNL     1     -12.528  10.562  70.860  1.00  0.00    -0.488 A  
HETATM   17  C   UNL     1     -13.274   9.858  71.794  1.00  0.00    -0.535 A  
HETATM   18  C   UNL     1     -12.700   8.782  72.470  1.00  0.00    -0.378 A  
HETATM   19  C   UNL     1     -11.369   8.403  72.213  1.00  0.00    -0.378 A  
HETATM   20  O   UNL     1     -10.862   7.333  72.893  1.00  0.00    -0.278 OA 
HETATM   21  H   UNL     1     -11.387   6.853  73.523  1.00  0.00     0.000 HD 
ENDBRANCH  12  14
ENDBRANCH  11  12
ENDBRANCH  10  11
TORSDOF 3
ENDMDL
MODEL      107
REMARK 921   NORMALIZED FREE ENERGY PREDICTED BY IDOCK:   -4.57 KCAL/MOL
REMARK 922        TOTAL FREE ENERGY PREDICTED BY IDOCK:   -6.31 KCAL/MOL
REMARK 923 INTER-LIGAND FREE ENERGY PREDICTED BY IDOCK:   -6.02 KCAL/MOL
REMARK 924 INTRA-LIGAND FREE ENERGY PREDICTED BY IDOCK:   -0.29 KCAL/MOL
REMARK 927      BINDING AFFINITY PREDICTED BY RF-SCORE:    0.00 PKD
ROOT
HETATM    1  C   UNL     1     -11.408   6.231  69.286  1.00  0.00    -0.411 C  
HETATM    2  C   UNL     1     -11.064   6.730  67.882  1.00  0.00    -0.262 C  
HETATM    3  C   UNL     1     -10.334   8.108  67.865  1.00  0.00    -0.280 C  
HETATM    4  C   UNL     1     -10.358   5.616  67.104  1.00  0.00    -0.301 C  
HETATM    5  C   UNL     1     -10.136   8.581  66.402  1.00  0.00    -0.271 C  
HETATM    6  C   UNL     1      -9.594  10.002  66.309  1.00  0.00    -0.256 C  
HETATM    7  C   UNL     1      -8.299  10.169  67.109  1.00  0.00    -0.125 C  
HETATM    8  C   UNL     1      -7.830  11.623  67.057  1.00  0.00    -0.164 C  
HETATM    9  C   UNL     1      -8.492   9.688  68.552  1.00  0.00    -0.118 C  
HETATM   10  C   UNL     1      -8.974   8.220  68.606  1.00  0.00    -0.137 C  
ENDROOT
BRANCH  10  11
HETATM   11  O   UNL     1      -9.065   7.819  69.994  1.00  0.00    -0.149 OA 
BRANCH  11  12
HETATM   12  C   UNL     1      -9.213   8.847  70.877  1.00  0.00    -0.231 C  
HETATM   13  O   UNL     1      -8.272   9.455  71.379  1.00  0.00    -0.302 OA 
BRANCH  12  14
HETATM   14  C   UNL     1     -10.620   9.201  71.237  1.00  0.00    -0.399 A  
HETATM   15  C   UNL     1     -11.261   8.320  72.135  1.00  0.00    -0.413 A  
HETATM   16  C   UNL     1     -12.582   8.521  72.543  1.00  0.00    -0.346 A  
HETATM   17  C   UNL     1     -13.294   9.610  72.059  1.00  0.00    -0.547 A  
HETATM   18  C   UNL     1     -12.683  10.498  71.176  1.00  0.00    -0.518 A  
HETATM   19  C   UNL     1     -11.349  10.301  70.770  1.00  0.00    -0.337 A  
HETATM   20  O   UNL     1     -10.795  11.211  69.915  1.00  0.00    -0.451 OA 
HETATM   21  H   UNL     1     -11.290  11.957  69.598  1.00  0.00     0.000 HD 
ENDBRANCH  12  14
ENDBRANCH  11  12
ENDBRANCH  10  11
TORSDOF 3
ENDMDL
MODEL      108
REMARK 921   NORMALIZED FREE ENERGY PREDICTED BY IDOCK:   -4.54 KCAL/MOL
REMARK 922        TOTAL FREE ENERGY PREDICTED BY IDOCK:   -6.27 KCAL/MOL
REMARK 923 INTER-LIGAND FREE ENERGY PREDICTED BY IDOCK:   -5.36 KCAL/MOL
REMARK 924 INTRA-LIGAND FREE ENERGY PREDICTED BY IDOCK:   -0.91 KCAL/MOL
REMARK 927      BINDING AFFINITY PREDICTED BY RF-SCORE:    0.00 PKD
ROOT
HETATM    1  C   UNL     1     -12.184  13.725  66.379  1.00  0.00    -0.480 C  
HETATM    2  C   UNL     1     -11.468  12.802  67.367  1.00  0.00    -0.396 C  
HETATM    3  C   UNL     1      -9.917  12.969  67.373  1.00  0.00    -0.228 C  
HETATM    4  C   UNL     1     -12.134  12.911  68.741  1.00  0.00    -0.175 C  
HETATM    5  C   UNL     1      -9.278  11.915  68.312  1.00  0.00    -0.187 C  
HETATM    6  C   UNL     1      -7.756  11.896  68.230  1.00  0.00    -0.127 C  
HETATM    7  C   UNL     1      -7.157  13.282  68.488  1.00  0.00    -0.105 C  
HETATM    8  C   UNL     1      -5.638  13.241  68.320  1.00  0.00    -0.095 C  
HETATM    9  C   UNL     1      -7.800  14.327  67.569  1.00  0.00    -0.209 C  
HETATM   10  C   UNL     1      -9.337  14.365  67.733  1.00  0.00    -0.200 C  
ENDROOT
BRANCH  10  11
HETATM   11  O   UNL     1      -9.861  15.417  66.888  1.00  0.00    -0.236 OA 
BRANCH  11  12
HETATM   12  C   UNL     1     -10.292  16.525  67.556  1.00  0.00    -0.294 C  
HETATM   13  O   UNL     1     -11.320  16.562  68.224  1.00  0.00    -0.331 OA 
BRANCH  12  14
HETATM   14  C   UNL     1      -9.436  17.744  67.418  1.00  0.00    -0.254 A  
HETATM   15  C   UNL     1      -8.486  17.707  66.374  1.00  0.00    -0.279 A  
HETATM   16  C   UNL     1      -7.610  18.771  66.142  1.00  0.00    -0.286 A  
HETATM   17  C   UNL     1      -7.664  19.897  66.952  1.00  0.00    -0.317 A  
HETATM   18  C   UNL     1      -8.597  19.960  67.986  1.00  0.00    -0.311 A  
HETATM   19  C   UNL     1      -9.485  18.893  68.216  1.00  0.00    -0.348 A  
HETATM   20  O   UNL     1     -10.389  19.015  69.233  1.00  0.00    -0.506 OA 
HETATM   21  H   UNL     1     -10.423  19.795  69.774  1.00  0.00     0.000 HD 
ENDBRANCH  12  14
ENDBRANCH  11  12
ENDBRANCH  10  11
TORSDOF 3
ENDMDL
MODEL      109
REMARK 921   NORMALIZED FREE ENERGY PREDICTED BY IDOCK:   -4.52 KCAL/MOL
REMARK 922        TOTAL FREE ENERGY PREDICTED BY IDOCK:   -6.25 KCAL/MOL
REMARK 923 INTER-LIGAND FREE ENERGY PREDICTED BY IDOCK:   -5.47 KCAL/MOL
REMARK 924 INTRA-LIGAND FREE ENERGY PREDICTED BY IDOCK:   -0.78 KCAL/MOL
REMARK 927      BINDING AFFINITY PREDICTED BY RF-SCORE:    0.00 PKD
ROOT
HETATM    1  C   UNL     1     -10.091  20.052  67.444  1.00  0.00    -0.568 C  
HETATM    2  C   UNL     1      -8.610  19.799  67.159  1.00  0.00    -0.376 C  
HETATM    3  C   UNL     1      -8.023  18.572  67.921  1.00  0.00    -0.270 C  
HETATM    4  C   UNL     1      -8.377  19.791  65.646  1.00  0.00     0.105 C  
HETATM    5  C   UNL     1      -6.498  18.471  67.660  1.00  0.00    -0.204 C  
HETATM    6  C   UNL     1      -5.822  17.407  68.516  1.00  0.00    -0.160 C  
HETATM    7  C   UNL     1      -6.488  16.038  68.351  1.00  0.00    -0.120 C  
HETATM    8  C   UNL     1      -5.835  15.016  69.281  1.00  0.00    -0.103 C  
HETATM    9  C   UNL     1      -7.999  16.141  68.594  1.00  0.00    -0.201 C  
HETATM   10  C   UNL     1      -8.660  17.180  67.658  1.00  0.00    -0.212 C  
ENDROOT
BRANCH  10  11
HETATM   11  O   UNL     1     -10.087  17.169  67.899  1.00  0.00    -0.282 OA 
BRANCH  11  12
HETATM   12  C   UNL     1     -10.715  16.008  67.559  1.00  0.00    -0.314 C  
HETATM   13  O   UNL     1     -10.840  15.613  66.405  1.00  0.00    -0.306 OA 
BRANCH  12  14
HETATM   14  C   UNL     1     -11.284  15.218  68.694  1.00  0.00    -0.303 A  
HETATM   15  C   UNL     1     -11.619  15.960  69.847  1.00  0.00    -0.337 A  
HETATM   16  C   UNL     1     -12.144  15.347  70.988  1.00  0.00    -0.417 A  
HETATM   17  C   UNL     1     -12.344  13.973  71.001  1.00  0.00    -0.443 A  
HETATM   18  C   UNL     1     -12.027  13.218  69.873  1.00  0.00    -0.400 A  
HETATM   19  C   UNL     1     -11.505  13.836  68.721  1.00  0.00    -0.303 A  
HETATM   20  O   UNL     1     -11.226  13.049  67.639  1.00  0.00    -0.256 OA 
HETATM   21  H   UNL     1     -11.376  12.112  67.657  1.00  0.00     0.000 HD 
ENDBRANCH  12  14
ENDBRANCH  11  12
ENDBRANCH  10  11
TORSDOF 3
ENDMDL
MODEL      110
REMARK 921   NORMALIZED FREE ENERGY PREDICTED BY IDOCK:   -4.48 KCAL/MOL
REMARK 922        TOTAL FREE ENERGY PREDICTED BY IDOCK:   -6.21 KCAL/MOL
REMARK 923 INTER-LIGAND FREE ENERGY PREDICTED BY IDOCK:   -5.38 KCAL/MOL
REMARK 924 INTRA-LIGAND FREE ENERGY PREDICTED BY IDOCK:   -0.83 KCAL/MOL
REMARK 927      BINDING AFFINITY PREDICTED BY RF-SCORE:    0.00 PKD
ROOT
HETATM    1  C   UNL     1     -13.338   7.881  71.583  1.00  0.00    -0.374 C  
HETATM    2  C   UNL     1     -12.214   6.848  71.677  1.00  0.00    -0.403 C  
HETATM    3  C   UNL     1     -11.444   6.633  70.337  1.00  0.00    -0.444 C  
HETATM    4  C   UNL     1     -11.330   7.166  72.885  1.00  0.00    -0.257 C  
HETATM    5  C   UNL     1     -10.410   5.490  70.503  1.00  0.00    -0.342 C  
HETATM    6  C   UNL     1      -9.747   5.098  69.188  1.00  0.00    -0.232 C  
HETATM    7  C   UNL     1      -9.110   6.305  68.492  1.00  0.00    -0.125 C  
HETATM    8  C   UNL     1      -8.526   5.889  67.143  1.00  0.00    -0.107 C  
HETATM    9  C   UNL     1     -10.129   7.441  68.342  1.00  0.00    -0.196 C  
HETATM   10  C   UNL     1     -10.726   7.858  69.706  1.00  0.00    -0.233 C  
ENDROOT
BRANCH  10  11
HETATM   11  O   UNL     1     -11.622   8.974  69.491  1.00  0.00     0.193 OA 
BRANCH  11  12
HETATM   12  C   UNL     1     -11.232  10.141  70.080  1.00  0.00    -0.299 C  
HETATM   13  O   UNL     1     -10.681  10.201  71.174  1.00  0.00    -0.098 OA 
BRANCH  12  14
HETATM   14  C   UNL     1     -11.534  11.390  69.315  1.00  0.00    -0.370 A  
HETATM   15  C   UNL     1     -11.331  11.315  67.920  1.00  0.00    -0.367 A  
HETATM   16  C   UNL     1     -11.558  12.414  67.086  1.00  0.00    -0.435 A  
HETATM   17  C   UNL     1     -11.992  13.614  67.632  1.00  0.00    -0.386 A  
HETATM   18  C   UNL     1     -12.205  13.712  69.005  1.00  0.00    -0.245 A  
HETATM   19  C   UNL     1     -11.985  12.604  69.845  1.00  0.00    -0.295 A  
HETATM   20  O   UNL     1     -12.224  12.752  71.182  1.00  0.00    -0.361 OA 
HETATM   21  H   UNL     1     -12.530  13.576  71.542  1.00  0.00     0.000 HD 
ENDBRANCH  12  14
ENDBRANCH  11  12
ENDBRANCH  10  11
TORSDOF 3
ENDMDL
MODEL      111
REMARK 921   NORMALIZED FREE ENERGY PREDICTED BY IDOCK:   -4.48 KCAL/MOL
REMARK 922        TOTAL FREE ENERGY PREDICTED BY IDOCK:   -6.20 KCAL/MOL
REMARK 923 INTER-LIGAND FREE ENERGY PREDICTED BY IDOCK:   -6.37 KCAL/MOL
REMARK 924 INTRA-LIGAND FREE ENERGY PREDICTED BY IDOCK:    0.17 KCAL/MOL
REMARK 927      BINDING AFFINITY PREDICTED BY RF-SCORE:    0.00 PKD
ROOT
HETATM    1  C   UNL     1     -11.432   8.658  70.665  1.00  0.00    -0.256 C  
HETATM    2  C   UNL     1     -12.258   9.746  71.351  1.00  0.00    -0.486 C  
HETATM    3  C   UNL     1     -11.959  11.186  70.829  1.00  0.00    -0.415 C  
HETATM    4  C   UNL     1     -13.737   9.349  71.336  1.00  0.00    -0.309 C  
HETATM    5  C   UNL     1     -12.754  12.223  71.663  1.00  0.00    -0.309 C  
HETATM    6  C   UNL     1     -12.374  13.662  71.333  1.00  0.00    -0.301 C  
HETATM    7  C   UNL     1     -12.511  13.955  69.836  1.00  0.00    -0.285 C  
HETATM    8  C   UNL     1     -12.047  15.379  69.532  1.00  0.00    -0.332 C  
HETATM    9  C   UNL     1     -11.736  12.920  69.011  1.00  0.00    -0.375 C  
HETATM   10  C   UNL     1     -12.200  11.478  69.322  1.00  0.00    -0.179 C  
ENDROOT
BRANCH  10  11
HETATM   11  O   UNL     1     -11.476  10.568  68.460  1.00  0.00    -0.270 OA 
BRANCH  11  12
HETATM   12  C   UNL     1     -10.391  11.113  67.837  1.00  0.00    -0.185 C  
HETATM   13  O   UNL     1      -9.451  11.628  68.433  1.00  0.00    -0.189 OA 
BRANCH  12  14
HETATM   14  C   UNL     1     -10.408  11.071  66.343  1.00  0.00    -0.302 A  
HETATM   15  C   UNL     1      -9.391  10.297  65.742  1.00  0.00    -0.233 A  
HETATM   16  C   UNL     1      -9.278  10.185  64.354  1.00  0.00    -0.306 A  
HETATM   17  C   UNL     1     -10.181  10.847  63.534  1.00  0.00    -0.379 A  
HETATM   18  C   UNL     1     -11.198  11.613  64.102  1.00  0.00    -0.421 A  
HETATM   19  C   UNL     1     -11.318  11.721  65.500  1.00  0.00    -0.223 A  
HETATM   20  O   UNL     1     -12.342  12.472  66.003  1.00  0.00    -0.615 OA 
HETATM   21  H   UNL     1     -12.959  12.913  65.431  1.00  0.00     0.000 HD 
ENDBRANCH  12  14
ENDBRANCH  11  12
ENDBRANCH  10  11
TORSDOF 3
ENDMDL
MODEL      112
REMARK 921   NORMALIZED FREE ENERGY PREDICTED BY IDOCK:   -4.47 KCAL/MOL
REMARK 922        TOTAL FREE ENERGY PREDICTED BY IDOCK:   -6.20 KCAL/MOL
REMARK 923 INTER-LIGAND FREE ENERGY PREDICTED BY IDOCK:   -5.38 KCAL/MOL
REMARK 924 INTRA-LIGAND FREE ENERGY PREDICTED BY IDOCK:   -0.82 KCAL/MOL
REMARK 927      BINDING AFFINITY PREDICTED BY RF-SCORE:    0.00 PKD
ROOT
HETATM    1  C   UNL     1     -10.800   6.800  68.575  1.00  0.00    -0.280 C  
HETATM    2  C   UNL     1     -10.254   7.455  67.306  1.00  0.00    -0.330 C  
HETATM    3  C   UNL     1     -10.443   9.003  67.265  1.00  0.00    -0.343 C  
HETATM    4  C   UNL     1      -8.822   6.973  67.059  1.00  0.00    -0.124 C  
HETATM    5  C   UNL     1      -9.968   9.554  65.896  1.00  0.00    -0.342 C  
HETATM    6  C   UNL     1     -10.290  11.033  65.712  1.00  0.00    -0.316 C  
HETATM    7  C   UNL     1      -9.732  11.882  66.858  1.00  0.00    -0.212 C  
HETATM    8  C   UNL     1     -10.141  13.344  66.680  1.00  0.00    -0.275 C  
HETATM    9  C   UNL     1     -10.190  11.327  68.212  1.00  0.00    -0.198 C  
HETATM   10  C   UNL     1      -9.783   9.846  68.391  1.00  0.00    -0.149 C  
ENDROOT
BRANCH  10  11
HETATM   11  O   UNL     1     -10.186   9.416  69.713  1.00  0.00    -0.196 OA 
BRANCH  11  12
HETATM   12  C   UNL     1      -9.171   9.324  70.618  1.00  0.00    -0.264 C  
HETATM   13  O   UNL     1      -8.082   9.873  70.479  1.00  0.00    -0.230 OA 
BRANCH  12  14
HETATM   14  C   UNL     1      -9.443   8.478  71.821  1.00  0.00    -0.328 A  
HETATM   15  C   UNL     1     -10.741   7.926  71.897  1.00  0.00    -0.290 A  
HETATM   16  C   UNL     1     -11.136   7.129  72.975  1.00  0.00    -0.323 A  
HETATM   17  C   UNL     1     -10.241   6.869  74.003  1.00  0.00    -0.384 A  
HETATM   18  C   UNL     1      -8.953   7.397  73.949  1.00  0.00    -0.281 A  
HETATM   19  C   UNL     1      -8.550   8.193  72.860  1.00  0.00    -0.205 A  
HETATM   20  O   UNL     1      -7.271   8.672  72.851  1.00  0.00    -0.305 OA 
HETATM   21  H   UNL     1      -6.665   8.479  73.557  1.00  0.00     0.000 HD 
ENDBRANCH  12  14
ENDBRANCH  11  12
ENDBRANCH  10  11
TORSDOF 3
ENDMDL
MODEL      113
REMARK 921   NORMALIZED FREE ENERGY PREDICTED BY IDOCK:   -4.44 KCAL/MOL
REMARK 922        TOTAL FREE ENERGY PREDICTED BY IDOCK:   -6.16 KCAL/MOL
REMARK 923 INTER-LIGAND FREE ENERGY PREDICTED BY IDOCK:   -5.62 KCAL/MOL
REMARK 924 INTRA-LIGAND FREE ENERGY PREDICTED BY IDOCK:   -0.54 KCAL/MOL
REMARK 927      BINDING AFFINITY PREDICTED BY RF-SCORE:    0.00 PKD
ROOT
HETATM    1  C   UNL     1      -8.181  11.512  67.048  1.00  0.00    -0.167 C  
HETATM    2  C   UNL     1      -7.301  12.594  67.675  1.00  0.00    -0.139 C  
HETATM    3  C   UNL     1      -7.926  14.023  67.622  1.00  0.00    -0.186 C  
HETATM    4  C   UNL     1      -6.847  12.140  69.065  1.00  0.00    -0.098 C  
HETATM    5  C   UNL     1      -6.913  15.060  68.170  1.00  0.00    -0.130 C  
HETATM    6  C   UNL     1      -7.381  16.499  67.981  1.00  0.00    -0.151 C  
HETATM    7  C   UNL     1      -8.769  16.728  68.587  1.00  0.00    -0.255 C  
HETATM    8  C   UNL     1      -9.237  18.156  68.309  1.00  0.00    -0.307 C  
HETATM    9  C   UNL     1      -9.767  15.692  68.054  1.00  0.00    -0.204 C  
HETATM   10  C   UNL     1      -9.291  14.246  68.328  1.00  0.00    -0.208 C  
ENDROOT
BRANCH  10  11
HETATM   11  O   UNL     1     -10.312  13.332  67.862  1.00  0.00    -0.228 OA 
BRANCH  11  12
HETATM   12  C   UNL     1     -11.592  13.727  68.119  1.00  0.00    -0.335 C  
HETATM   13  O   UNL     1     -12.306  14.299  67.302  1.00  0.00    -0.337 OA 
BRANCH  12  14
HETATM   14  C   UNL     1     -12.099  13.439  69.496  1.00  0.00    -0.334 A  
HETATM   15  C   UNL     1     -12.018  12.090  69.907  1.00  0.00    -0.391 A  
HETATM   16  C   UNL     1     -12.471  11.678  71.163  1.00  0.00    -0.412 A  
HETATM   17  C   UNL     1     -13.019  12.607  72.036  1.00  0.00    -0.379 A  
HETATM   18  C   UNL     1     -13.106  13.946  71.657  1.00  0.00    -0.446 A  
HETATM   19  C   UNL     1     -12.642  14.364  70.395  1.00  0.00    -0.345 A  
HETATM   20  O   UNL     1     -12.737  15.690  70.081  1.00  0.00    -0.566 OA 
HETATM   21  H   UNL     1     -13.106  16.318  70.692  1.00  0.00     0.000 HD 
ENDBRANCH  12  14
ENDBRANCH  11  12
ENDBRANCH  10  11
TORSDOF 3
ENDMDL
MODEL      114
REMARK 921   NORMALIZED FREE ENERGY PREDICTED BY IDOCK:   -4.43 KCAL/MOL
REMARK 922        TOTAL FREE ENERGY PREDICTED BY IDOCK:   -6.15 KCAL/MOL
REMARK 923 INTER-LIGAND FREE ENERGY PREDICTED BY IDOCK:   -5.47 KCAL/MOL
REMARK 924 INTRA-LIGAND FREE ENERGY PREDICTED BY IDOCK:   -0.68 KCAL/MOL
REMARK 927      BINDING AFFINITY PREDICTED BY RF-SCORE:    0.00 PKD
ROOT
HETATM    1  C   UNL     1     -11.826  15.962  68.837  1.00  0.00    -0.314 C  
HETATM    2  C   UNL     1     -12.024  14.479  68.521  1.00  0.00    -0.321 C  
HETATM    3  C   UNL     1     -11.654  14.094  67.056  1.00  0.00    -0.404 C  
HETATM    4  C   UNL     1     -11.347  13.633  69.602  1.00  0.00    -0.226 C  
HETATM    5  C   UNL     1     -12.000  12.605  66.800  1.00  0.00    -0.362 C  
HETATM    6  C   UNL     1     -11.836  12.203  65.339  1.00  0.00    -0.357 C  
HETATM    7  C   UNL     1     -10.435  12.528  64.815  1.00  0.00    -0.336 C  
HETATM    8  C   UNL     1     -10.334  12.185  63.329  1.00  0.00    -0.352 C  
HETATM    9  C   UNL     1     -10.087  13.998  65.080  1.00  0.00    -0.343 C  
HETATM   10  C   UNL     1     -10.196  14.348  66.583  1.00  0.00    -0.277 C  
ENDROOT
BRANCH  10  11
HETATM   11  O   UNL     1      -9.788  15.726  66.762  1.00  0.00    -0.233 OA 
BRANCH  11  12
HETATM   12  C   UNL     1      -8.481  15.894  67.110  1.00  0.00    -0.199 C  
HETATM   13  O   UNL     1      -7.696  14.966  67.280  1.00  0.00    -0.192 OA 
BRANCH  12  14
HETATM   14  C   UNL     1      -8.033  17.307  67.302  1.00  0.00    -0.207 A  
HETATM   15  C   UNL     1      -8.112  18.133  66.159  1.00  0.00    -0.198 A  
HETATM   16  C   UNL     1      -7.710  19.471  66.193  1.00  0.00    -0.324 A  
HETATM   17  C   UNL     1      -7.219  20.013  67.372  1.00  0.00    -0.295 A  
HETATM   18  C   UNL     1      -7.136  19.221  68.516  1.00  0.00    -0.339 A  
HETATM   19  C   UNL     1      -7.548  17.875  68.486  1.00  0.00    -0.289 A  
HETATM   20  O   UNL     1      -7.459  17.149  69.640  1.00  0.00     0.097 OA 
HETATM   21  H   UNL     1      -7.130  17.535  70.443  1.00  0.00     0.000 HD 
ENDBRANCH  12  14
ENDBRANCH  11  12
ENDBRANCH  10  11
TORSDOF 3
ENDMDL
MODEL      115
REMARK 921   NORMALIZED FREE ENERGY PREDICTED BY IDOCK:   -4.40 KCAL/MOL
REMARK 922        TOTAL FREE ENERGY PREDICTED BY IDOCK:   -6.11 KCAL/MOL
REMARK 923 INTER-LIGAND FREE ENERGY PREDICTED BY IDOCK:   -5.88 KCAL/MOL
REMARK 924 INTRA-LIGAND FREE ENERGY PREDICTED BY IDOCK:   -0.23 KCAL/MOL
REMARK 927      BINDING AFFINITY PREDICTED BY RF-SCORE:    0.00 PKD
ROOT
HETATM    1  C   UNL     1     -11.767  10.586  70.867  1.00  0.00    -0.431 C  
HETATM    2  C   UNL     1     -11.081   9.372  70.240  1.00  0.00    -0.299 C  
HETATM    3  C   UNL     1     -10.784   9.534  68.717  1.00  0.00    -0.218 C  
HETATM    4  C   UNL     1      -9.875   8.971  71.093  1.00  0.00    -0.371 C  
HETATM    5  C   UNL     1     -10.201   8.214  68.152  1.00  0.00    -0.253 C  
HETATM    6  C   UNL     1     -10.056   8.235  66.635  1.00  0.00    -0.351 C  
HETATM    7  C   UNL     1      -9.232   9.436  66.160  1.00  0.00    -0.241 C  
HETATM    8  C   UNL     1      -9.175   9.467  64.633  1.00  0.00    -0.247 C  
HETATM    9  C   UNL     1      -9.801  10.740  66.731  1.00  0.00    -0.233 C  
HETATM   10  C   UNL     1      -9.866  10.707  68.276  1.00  0.00    -0.163 C  
ENDROOT
BRANCH  10  11
HETATM   11  O   UNL     1     -10.345  11.991  68.742  1.00  0.00    -0.218 OA 
BRANCH  11  12
HETATM   12  C   UNL     1     -11.139  12.659  67.857  1.00  0.00    -0.247 C  
HETATM   13  O   UNL     1     -12.162  12.189  67.369  1.00  0.00    -0.486 OA 
BRANCH  12  14
HETATM   14  C   UNL     1     -10.682  14.031  67.477  1.00  0.00    -0.271 A  
HETATM   15  C   UNL     1     -10.642  14.299  66.091  1.00  0.00    -0.293 A  
HETATM   16  C   UNL     1     -10.218  15.535  65.595  1.00  0.00    -0.403 A  
HETATM   17  C   UNL     1      -9.822  16.532  66.477  1.00  0.00    -0.292 A  
HETATM   18  C   UNL     1      -9.858  16.294  67.850  1.00  0.00    -0.237 A  
HETATM   19  C   UNL     1     -10.292  15.053  68.351  1.00  0.00    -0.231 A  
HETATM   20  O   UNL     1     -10.322  14.880  69.706  1.00  0.00    -0.392 OA 
HETATM   21  H   UNL     1     -10.057  15.573  70.299  1.00  0.00     0.000 HD 
ENDBRANCH  12  14
ENDBRANCH  11  12
ENDBRANCH  10  11
TORSDOF 3
ENDMDL
MODEL      116
REMARK 921   NORMALIZED FREE ENERGY PREDICTED BY IDOCK:   -4.39 KCAL/MOL
REMARK 922        TOTAL FREE ENERGY PREDICTED BY IDOCK:   -6.11 KCAL/MOL
REMARK 923 INTER-LIGAND FREE ENERGY PREDICTED BY IDOCK:   -5.22 KCAL/MOL
REMARK 924 INTRA-LIGAND FREE ENERGY PREDICTED BY IDOCK:   -0.89 KCAL/MOL
REMARK 927      BINDING AFFINITY PREDICTED BY RF-SCORE:    0.00 PKD
ROOT
HETATM    1  C   UNL     1     -12.504  13.866  66.437  1.00  0.00    -0.414 C  
HETATM    2  C   UNL     1     -11.268  14.650  65.993  1.00  0.00    -0.342 C  
HETATM    3  C   UNL     1      -9.997  14.359  66.850  1.00  0.00    -0.261 C  
HETATM    4  C   UNL     1     -11.078  14.489  64.482  1.00  0.00    -0.280 C  
HETATM    5  C   UNL     1      -8.837  15.283  66.401  1.00  0.00    -0.311 C  
HETATM    6  C   UNL     1      -7.618  15.185  67.311  1.00  0.00    -0.236 C  
HETATM    7  C   UNL     1      -7.132  13.740  67.455  1.00  0.00    -0.172 C  
HETATM    8  C   UNL     1      -5.961  13.672  68.435  1.00  0.00    -0.097 C  
HETATM    9  C   UNL     1      -8.283  12.824  67.886  1.00  0.00    -0.168 C  
HETATM   10  C   UNL     1      -9.472  12.897  66.899  1.00  0.00    -0.237 C  
ENDROOT
BRANCH  10  11
HETATM   11  O   UNL     1     -10.485  11.959  67.332  1.00  0.00    -0.210 OA 
BRANCH  11  12
HETATM   12  C   UNL     1     -10.419  10.733  66.739  1.00  0.00    -0.251 C  
HETATM   13  O   UNL     1     -10.312  10.566  65.528  1.00  0.00    -0.270 OA 
BRANCH  12  14
HETATM   14  C   UNL     1     -10.507   9.557  67.659  1.00  0.00    -0.321 A  
HETATM   15  C   UNL     1     -10.865   9.852  68.993  1.00  0.00    -0.242 A  
HETATM   16  C   UNL     1     -10.969   8.851  69.963  1.00  0.00    -0.217 A  
HETATM   17  C   UNL     1     -10.713   7.531  69.619  1.00  0.00    -0.236 A  
HETATM   18  C   UNL     1     -10.364   7.213  68.308  1.00  0.00    -0.227 A  
HETATM   19  C   UNL     1     -10.267   8.219  67.328  1.00  0.00    -0.274 A  
HETATM   20  O   UNL     1      -9.936   7.849  66.056  1.00  0.00    -0.451 OA 
HETATM   21  H   UNL     1      -9.773   6.940  65.831  1.00  0.00     0.000 HD 
ENDBRANCH  12  14
ENDBRANCH  11  12
ENDBRANCH  10  11
TORSDOF 3
ENDMDL
MODEL      117
REMARK 921   NORMALIZED FREE ENERGY PREDICTED BY IDOCK:   -4.39 KCAL/MOL
REMARK 922        TOTAL FREE ENERGY PREDICTED BY IDOCK:   -6.10 KCAL/MOL
REMARK 923 INTER-LIGAND FREE ENERGY PREDICTED BY IDOCK:   -5.39 KCAL/MOL
REMARK 924 INTRA-LIGAND FREE ENERGY PREDICTED BY IDOCK:   -0.71 KCAL/MOL
REMARK 927      BINDING AFFINITY PREDICTED BY RF-SCORE:    0.00 PKD
ROOT
HETATM    1  C   UNL     1      -7.175   9.917  69.610  1.00  0.00    -0.108 C  
HETATM    2  C   UNL     1      -7.913   8.742  70.252  1.00  0.00    -0.106 C  
HETATM    3  C   UNL     1      -9.295   9.127  70.865  1.00  0.00    -0.335 C  
HETATM    4  C   UNL     1      -7.947   7.565  69.273  1.00  0.00    -0.121 C  
HETATM    5  C   UNL     1      -9.907   7.902  71.592  1.00  0.00    -0.212 C  
HETATM    6  C   UNL     1     -11.171   8.249  72.371  1.00  0.00    -0.451 C  
HETATM    7  C   UNL     1     -12.218   8.927  71.482  1.00  0.00    -0.388 C  
HETATM    8  C   UNL     1     -13.435   9.330  72.313  1.00  0.00    -0.548 C  
HETATM    9  C   UNL     1     -11.607  10.130  70.752  1.00  0.00    -0.445 C  
HETATM   10  C   UNL     1     -10.370   9.724  69.916  1.00  0.00    -0.254 C  
ENDROOT
BRANCH  10  11
HETATM   11  O   UNL     1      -9.895  10.893  69.207  1.00  0.00    -0.185 OA 
BRANCH  11  12
HETATM   12  C   UNL     1     -10.595  11.199  68.077  1.00  0.00    -0.198 C  
HETATM   13  O   UNL     1     -11.632  11.856  68.076  1.00  0.00    -0.303 OA 
BRANCH  12  14
HETATM   14  C   UNL     1     -10.036  10.665  66.798  1.00  0.00    -0.272 A  
HETATM   15  C   UNL     1      -9.692   9.295  66.808  1.00  0.00    -0.260 A  
HETATM   16  C   UNL     1      -9.144   8.669  65.685  1.00  0.00    -0.221 A  
HETATM   17  C   UNL     1      -8.925   9.401  64.526  1.00  0.00    -0.227 A  
HETATM   18  C   UNL     1      -9.262  10.753  64.489  1.00  0.00    -0.250 A  
HETATM   19  C   UNL     1      -9.821  11.383  65.616  1.00  0.00    -0.235 A  
HETATM   20  O   UNL     1     -10.146  12.707  65.519  1.00  0.00    -0.273 OA 
HETATM   21  H   UNL     1     -10.000  13.194  64.717  1.00  0.00     0.000 HD 
ENDBRANCH  12  14
ENDBRANCH  11  12
ENDBRANCH  10  11
TORSDOF 3
ENDMDL
MODEL      118
REMARK 921   NORMALIZED FREE ENERGY PREDICTED BY IDOCK:   -4.39 KCAL/MOL
REMARK 922        TOTAL FREE ENERGY PREDICTED BY IDOCK:   -6.09 KCAL/MOL
REMARK 923 INTER-LIGAND FREE ENERGY PREDICTED BY IDOCK:   -5.23 KCAL/MOL
REMARK 924 INTRA-LIGAND FREE ENERGY PREDICTED BY IDOCK:   -0.86 KCAL/MOL
REMARK 927      BINDING AFFINITY PREDICTED BY RF-SCORE:    0.00 PKD
ROOT
HETATM    1  C   UNL     1     -10.891  10.120  70.066  1.00  0.00    -0.361 C  
HETATM    2  C   UNL     1      -9.849   9.087  69.634  1.00  0.00    -0.182 C  
HETATM    3  C   UNL     1      -9.742   8.910  68.088  1.00  0.00    -0.180 C  
HETATM    4  C   UNL     1      -8.524   9.373  70.344  1.00  0.00    -0.247 C  
HETATM    5  C   UNL     1      -8.752   7.765  67.757  1.00  0.00    -0.123 C  
HETATM    6  C   UNL     1      -8.733   7.411  66.275  1.00  0.00    -0.163 C  
HETATM    7  C   UNL     1      -8.449   8.637  65.402  1.00  0.00    -0.189 C  
HETATM    8  C   UNL     1      -8.516   8.260  63.923  1.00  0.00     0.051 C  
HETATM    9  C   UNL     1      -9.419   9.775  65.740  1.00  0.00    -0.300 C  
HETATM   10  C   UNL     1      -9.358  10.153  67.239  1.00  0.00    -0.152 C  
ENDROOT
BRANCH  10  11
HETATM   11  O   UNL     1     -10.246  11.274  67.464  1.00  0.00    -0.183 OA 
BRANCH  11  12
HETATM   12  C   UNL     1      -9.740  12.486  67.098  1.00  0.00    -0.205 C  
HETATM   13  O   UNL     1      -8.672  12.930  67.506  1.00  0.00    -0.169 OA 
BRANCH  12  14
HETATM   14  C   UNL     1     -10.584  13.288  66.160  1.00  0.00    -0.293 A  
HETATM   15  C   UNL     1     -11.818  12.704  65.798  1.00  0.00    -0.497 A  
HETATM   16  C   UNL     1     -12.698  13.337  64.915  1.00  0.00    -0.391 A  
HETATM   17  C   UNL     1     -12.360  14.569  64.372  1.00  0.00    -0.437 A  
HETATM   18  C   UNL     1     -11.151  15.169  64.718  1.00  0.00    -0.395 A  
HETATM   19  C   UNL     1     -10.267  14.537  65.613  1.00  0.00    -0.357 A  
HETATM   20  O   UNL     1      -9.103  15.177  65.928  1.00  0.00    -0.458 OA 
HETATM   21  H   UNL     1      -8.888  16.025  65.557  1.00  0.00     0.000 HD 
ENDBRANCH  12  14
ENDBRANCH  11  12
ENDBRANCH  10  11
TORSDOF 3
ENDMDL
MODEL      119
REMARK 921   NORMALIZED FREE ENERGY PREDICTED BY IDOCK:   -4.37 KCAL/MOL
REMARK 922        TOTAL FREE ENERGY PREDICTED BY IDOCK:   -6.07 KCAL/MOL
REMARK 923 INTER-LIGAND FREE ENERGY PREDICTED BY IDOCK:   -5.18 KCAL/MOL
REMARK 924 INTRA-LIGAND FREE ENERGY PREDICTED BY IDOCK:   -0.90 KCAL/MOL
REMARK 927      BINDING AFFINITY PREDICTED BY RF-SCORE:    0.00 PKD
ROOT
HETATM    1  C   UNL     1      -8.066  12.094  68.638  1.00  0.00    -0.048 C  
HETATM    2  C   UNL     1      -8.264  11.373  67.304  1.00  0.00    -0.150 C  
HETATM    3  C   UNL     1      -9.458  11.922  66.463  1.00  0.00    -0.226 C  
HETATM    4  C   UNL     1      -6.928  11.304  66.559  1.00  0.00    -0.100 C  
HETATM    5  C   UNL     1      -9.649  11.055  65.193  1.00  0.00    -0.281 C  
HETATM    6  C   UNL     1     -10.909  11.417  64.415  1.00  0.00    -0.397 C  
HETATM    7  C   UNL     1     -10.949  12.906  64.062  1.00  0.00    -0.447 C  
HETATM    8  C   UNL     1     -12.260  13.246  63.354  1.00  0.00    -0.476 C  
HETATM    9  C   UNL     1     -10.746  13.763  65.317  1.00  0.00    -0.345 C  
HETATM   10  C   UNL     1      -9.423  13.416  66.039  1.00  0.00    -0.086 C  
ENDROOT
BRANCH  10  11
HETATM   11  O   UNL     1      -9.269  14.309  67.168  1.00  0.00    -0.204 OA 
BRANCH  11  12
HETATM   12  C   UNL     1      -8.275  15.233  67.034  1.00  0.00    -0.233 C  
HETATM   13  O   UNL     1      -7.080  14.959  67.078  1.00  0.00    -0.167 OA 
BRANCH  12  14
HETATM   14  C   UNL     1      -8.721  16.647  66.846  1.00  0.00    -0.241 A  
HETATM   15  C   UNL     1     -10.024  16.943  67.304  1.00  0.00    -0.277 A  
HETATM   16  C   UNL     1     -10.574  18.221  67.176  1.00  0.00    -0.392 A  
HETATM   17  C   UNL     1      -9.832  19.234  66.583  1.00  0.00    -0.442 A  
HETATM   18  C   UNL     1      -8.541  18.969  66.128  1.00  0.00    -0.208 A  
HETATM   19  C   UNL     1      -7.983  17.684  66.264  1.00  0.00    -0.257 A  
HETATM   20  O   UNL     1      -6.708  17.485  65.814  1.00  0.00    -0.199 OA 
HETATM   21  H   UNL     1      -6.207  18.189  65.419  1.00  0.00     0.000 HD 
ENDBRANCH  12  14
ENDBRANCH  11  12
ENDBRANCH  10  11
TORSDOF 3
ENDMDL
MODEL      120
REMARK 921   NORMALIZED FREE ENERGY PREDICTED BY IDOCK:   -4.35 KCAL/MOL
REMARK 922        TOTAL FREE ENERGY PREDICTED BY IDOCK:   -6.06 KCAL/MOL
REMARK 923 INTER-LIGAND FREE ENERGY PREDICTED BY IDOCK:   -5.25 KCAL/MOL
REMARK 924 INTRA-LIGAND FREE ENERGY PREDICTED BY IDOCK:   -0.81 KCAL/MOL
REMARK 927      BINDING AFFINITY PREDICTED BY RF-SCORE:    0.00 PKD
ROOT
HETATM    1  C   UNL     1     -12.300  16.259  69.320  1.00  0.00     0.619 C  
HETATM    2  C   UNL     1     -12.205  14.901  70.018  1.00  0.00    -0.381 C  
HETATM    3  C   UNL     1     -11.791  13.734  69.069  1.00  0.00    -0.397 C  
HETATM    4  C   UNL     1     -11.353  15.038  71.283  1.00  0.00    -0.315 C  
HETATM    5  C   UNL     1     -11.838  12.390  69.839  1.00  0.00    -0.376 C  
HETATM    6  C   UNL     1     -11.623  11.183  68.932  1.00  0.00    -0.385 C  
HETATM    7  C   UNL     1     -10.324  11.300  68.130  1.00  0.00    -0.205 C  
HETATM    8  C   UNL     1     -10.183  10.114  67.177  1.00  0.00    -0.278 C  
HETATM    9  C   UNL     1     -10.272  12.637  67.380  1.00  0.00    -0.219 C  
HETATM   10  C   UNL     1     -10.422  13.838  68.343  1.00  0.00    -0.252 C  
ENDROOT
BRANCH  10  11
HETATM   11  O   UNL     1     -10.294  15.058  67.575  1.00  0.00    -0.238 OA 
BRANCH  11  12
HETATM   12  C   UNL     1      -9.153  15.766  67.812  1.00  0.00    -0.188 C  
HETATM   13  O   UNL     1      -8.098  15.256  68.175  1.00  0.00    -0.131 OA 
BRANCH  12  14
HETATM   14  C   UNL     1      -9.252  17.246  67.625  1.00  0.00    -0.229 A  
HETATM   15  C   UNL     1     -10.338  17.690  66.839  1.00  0.00    -0.329 A  
HETATM   16  C   UNL     1     -10.542  19.047  66.569  1.00  0.00    -0.495 A  
HETATM   17  C   UNL     1      -9.660  19.990  67.079  1.00  0.00    -0.542 A  
HETATM   18  C   UNL     1      -8.583  19.578  67.862  1.00  0.00    -0.357 A  
HETATM   19  C   UNL     1      -8.382  18.213  68.142  1.00  0.00    -0.277 A  
HETATM   20  O   UNL     1      -7.319  17.867  68.927  1.00  0.00    -0.276 OA 
HETATM   21  H   UNL     1      -6.729  18.523  69.278  1.00  0.00     0.000 HD 
ENDBRANCH  12  14
ENDBRANCH  11  12
ENDBRANCH  10  11
TORSDOF 3
ENDMDL
MODEL      121
REMARK 921   NORMALIZED FREE ENERGY PREDICTED BY IDOCK:   -4.35 KCAL/MOL
REMARK 922        TOTAL FREE ENERGY PREDICTED BY IDOCK:   -6.06 KCAL/MOL
REMARK 923 INTER-LIGAND FREE ENERGY PREDICTED BY IDOCK:   -5.28 KCAL/MOL
REMARK 924 INTRA-LIGAND FREE ENERGY PREDICTED BY IDOCK:   -0.78 KCAL/MOL
REMARK 927      BINDING AFFINITY PREDICTED BY RF-SCORE:    0.00 PKD
ROOT
HETATM    1  C   UNL     1     -12.441  11.676  64.219  1.00  0.00     0.005 C  
HETATM    2  C   UNL     1     -11.685  12.999  64.353  1.00  0.00    -0.426 C  
HETATM    3  C   UNL     1     -11.632  13.548  65.812  1.00  0.00    -0.351 C  
HETATM    4  C   UNL     1     -10.327  12.881  63.657  1.00  0.00     0.002 C  
HETATM    5  C   UNL     1     -10.953  14.941  65.825  1.00  0.00    -0.345 C  
HETATM    6  C   UNL     1     -11.027  15.621  67.187  1.00  0.00    -0.270 C  
HETATM    7  C   UNL     1     -10.457  14.733  68.296  1.00  0.00    -0.241 C  
HETATM    8  C   UNL     1     -10.621  15.414  69.655  1.00  0.00    -0.285 C  
HETATM    9  C   UNL     1     -11.119  13.350  68.274  1.00  0.00    -0.289 C  
HETATM   10  C   UNL     1     -10.960  12.662  66.897  1.00  0.00    -0.262 C  
ENDROOT
BRANCH  10  11
HETATM   11  O   UNL     1     -11.547  11.341  66.976  1.00  0.00    -0.496 OA 
BRANCH  11  12
HETATM   12  C   UNL     1     -10.665  10.314  66.815  1.00  0.00    -0.146 C  
HETATM   13  O   UNL     1      -9.920  10.201  65.846  1.00  0.00    -0.240 OA 
BRANCH  12  14
HETATM   14  C   UNL     1     -10.658   9.284  67.898  1.00  0.00    -0.288 A  
HETATM   15  C   UNL     1     -10.838   9.776  69.209  1.00  0.00    -0.240 A  
HETATM   16  C   UNL     1     -10.837   8.925  70.318  1.00  0.00    -0.265 A  
HETATM   17  C   UNL     1     -10.652   7.561  70.140  1.00  0.00    -0.241 A  
HETATM   18  C   UNL     1     -10.478   7.050  68.855  1.00  0.00    -0.217 A  
HETATM   19  C   UNL     1     -10.487   7.904  67.736  1.00  0.00    -0.212 A  
HETATM   20  O   UNL     1     -10.327   7.347  66.499  1.00  0.00    -0.471 OA 
HETATM   21  H   UNL     1     -10.212   6.410  66.390  1.00  0.00     0.000 HD 
ENDBRANCH  12  14
ENDBRANCH  11  12
ENDBRANCH  10  11
TORSDOF 3
ENDMDL
MODEL      122
REMARK 921   NORMALIZED FREE ENERGY PREDICTED BY IDOCK:   -4.33 KCAL/MOL
REMARK 922        TOTAL FREE ENERGY PREDICTED BY IDOCK:   -6.03 KCAL/MOL
REMARK 923 INTER-LIGAND FREE ENERGY PREDICTED BY IDOCK:   -4.88 KCAL/MOL
REMARK 924 INTRA-LIGAND FREE ENERGY PREDICTED BY IDOCK:   -1.16 KCAL/MOL
REMARK 927      BINDING AFFINITY PREDICTED BY RF-SCORE:    0.00 PKD
ROOT
HETATM    1  C   UNL     1      -7.931   6.470  70.661  1.00  0.00    -0.111 C  
HETATM    2  C   UNL     1      -9.340   6.311  71.234  1.00  0.00    -0.164 C  
HETATM    3  C   UNL     1     -10.109   7.658  71.393  1.00  0.00    -0.204 C  
HETATM    4  C   UNL     1     -10.088   5.229  70.451  1.00  0.00    -0.324 C  
HETATM    5  C   UNL     1     -11.472   7.406  72.087  1.00  0.00    -0.322 C  
HETATM    6  C   UNL     1     -12.202   8.697  72.442  1.00  0.00    -0.419 C  
HETATM    7  C   UNL     1     -12.378   9.603  71.221  1.00  0.00    -0.449 C  
HETATM    8  C   UNL     1     -13.041  10.918  71.630  1.00  0.00    -0.538 C  
HETATM    9  C   UNL     1     -11.032   9.841  70.526  1.00  0.00    -0.384 C  
HETATM   10  C   UNL     1     -10.357   8.510  70.118  1.00  0.00    -0.207 C  
ENDROOT
BRANCH  10  11
HETATM   11  O   UNL     1      -9.131   8.817  69.411  1.00  0.00    -0.143 OA 
BRANCH  11  12
HETATM   12  C   UNL     1      -9.228   8.765  68.052  1.00  0.00    -0.139 C  
HETATM   13  O   UNL     1      -9.269   9.758  67.333  1.00  0.00    -0.133 OA 
BRANCH  12  14
HETATM   14  C   UNL     1      -9.305   7.396  67.455  1.00  0.00    -0.147 A  
HETATM   15  C   UNL     1     -10.607   6.915  67.199  1.00  0.00    -0.408 A  
HETATM   16  C   UNL     1     -10.826   5.645  66.658  1.00  0.00    -0.280 A  
HETATM   17  C   UNL     1      -9.745   4.826  66.364  1.00  0.00    -0.206 A  
HETATM   18  C   UNL     1      -8.449   5.280  66.602  1.00  0.00    -0.107 A  
HETATM   19  C   UNL     1      -8.226   6.562  67.139  1.00  0.00    -0.113 A  
HETATM   20  O   UNL     1      -6.935   6.961  67.339  1.00  0.00    -0.073 OA 
HETATM   21  H   UNL     1      -6.203   6.395  67.124  1.00  0.00     0.000 HD 
ENDBRANCH  12  14
ENDBRANCH  11  12
ENDBRANCH  10  11
TORSDOF 3
ENDMDL
MODEL      123
REMARK 921   NORMALIZED FREE ENERGY PREDICTED BY IDOCK:   -4.33 KCAL/MOL
REMARK 922        TOTAL FREE ENERGY PREDICTED BY IDOCK:   -6.03 KCAL/MOL
REMARK 923 INTER-LIGAND FREE ENERGY PREDICTED BY IDOCK:   -5.39 KCAL/MOL
REMARK 924 INTRA-LIGAND FREE ENERGY PREDICTED BY IDOCK:   -0.64 KCAL/MOL
REMARK 927      BINDING AFFINITY PREDICTED BY RF-SCORE:    0.00 PKD
ROOT
HETATM    1  C   UNL     1      -8.525   5.995  70.462  1.00  0.00    -0.132 C  
HETATM    2  C   UNL     1     -10.049   5.963  70.586  1.00  0.00    -0.252 C  
HETATM    3  C   UNL     1     -10.671   7.317  71.050  1.00  0.00    -0.247 C  
HETATM    4  C   UNL     1     -10.652   5.382  69.305  1.00  0.00    -0.271 C  
HETATM    5  C   UNL     1     -12.198   7.150  71.258  1.00  0.00    -0.403 C  
HETATM    6  C   UNL     1     -12.846   8.379  71.886  1.00  0.00    -0.384 C  
HETATM    7  C   UNL     1     -12.547   9.649  71.085  1.00  0.00    -0.411 C  
HETATM    8  C   UNL     1     -13.144  10.869  71.786  1.00  0.00    -0.564 C  
HETATM    9  C   UNL     1     -11.037   9.806  70.866  1.00  0.00    -0.428 C  
HETATM   10  C   UNL     1     -10.429   8.569  70.163  1.00  0.00    -0.220 C  
ENDROOT
BRANCH  10  11
HETATM   11  O   UNL     1      -9.023   8.821  69.931  1.00  0.00    -0.143 OA 
BRANCH  11  12
HETATM   12  C   UNL     1      -8.657   8.850  68.618  1.00  0.00    -0.133 C  
HETATM   13  O   UNL     1      -7.896   8.036  68.104  1.00  0.00    -0.121 OA 
BRANCH  12  14
HETATM   14  C   UNL     1      -9.228   9.968  67.806  1.00  0.00    -0.143 A  
HETATM   15  C   UNL     1      -8.986  11.268  68.303  1.00  0.00    -0.172 A  
HETATM   16  C   UNL     1      -9.476  12.404  67.653  1.00  0.00    -0.190 A  
HETATM   17  C   UNL     1     -10.222  12.264  66.490  1.00  0.00    -0.235 A  
HETATM   18  C   UNL     1     -10.469  10.993  65.976  1.00  0.00    -0.304 A  
HETATM   19  C   UNL     1      -9.970   9.848  66.625  1.00  0.00    -0.217 A  
HETATM   20  O   UNL     1     -10.230   8.628  66.069  1.00  0.00    -0.422 OA 
HETATM   21  H   UNL     1     -10.734   8.546  65.268  1.00  0.00     0.000 HD 
ENDBRANCH  12  14
ENDBRANCH  11  12
ENDBRANCH  10  11
TORSDOF 3
ENDMDL
MODEL      124
REMARK 921   NORMALIZED FREE ENERGY PREDICTED BY IDOCK:   -4.33 KCAL/MOL
REMARK 922        TOTAL FREE ENERGY PREDICTED BY IDOCK:   -6.03 KCAL/MOL
REMARK 923 INTER-LIGAND FREE ENERGY PREDICTED BY IDOCK:   -5.29 KCAL/MOL
REMARK 924 INTRA-LIGAND FREE ENERGY PREDICTED BY IDOCK:   -0.74 KCAL/MOL
REMARK 927      BINDING AFFINITY PREDICTED BY RF-SCORE:    0.00 PKD
ROOT
HETATM    1  C   UNL     1     -10.655   8.154  67.208  1.00  0.00    -0.344 C  
HETATM    2  C   UNL     1      -9.155   8.439  67.291  1.00  0.00    -0.156 C  
HETATM    3  C   UNL     1      -8.798   9.956  67.240  1.00  0.00    -0.138 C  
HETATM    4  C   UNL     1      -8.556   7.675  68.475  1.00  0.00    -0.129 C  
HETATM    5  C   UNL     1      -7.259  10.135  67.210  1.00  0.00    -0.089 C  
HETATM    6  C   UNL     1      -6.836  11.580  66.976  1.00  0.00    -0.147 C  
HETATM    7  C   UNL     1      -7.469  12.529  67.998  1.00  0.00    -0.117 C  
HETATM    8  C   UNL     1      -7.087  13.975  67.684  1.00  0.00    -0.193 C  
HETATM    9  C   UNL     1      -8.991  12.342  68.037  1.00  0.00    -0.194 C  
HETATM   10  C   UNL     1      -9.379  10.878  68.348  1.00  0.00    -0.172 C  
ENDROOT
BRANCH  10  11
HETATM   11  O   UNL     1     -10.822  10.796  68.436  1.00  0.00    -0.198 OA 
BRANCH  11  12
HETATM   12  C   UNL     1     -11.336  11.077  69.667  1.00  0.00    -0.292 C  
HETATM   13  O   UNL     1     -11.811  12.165  69.975  1.00  0.00    -0.328 OA 
BRANCH  12  14
HETATM   14  C   UNL     1     -11.274   9.968  70.668  1.00  0.00    -0.425 A  
HETATM   15  C   UNL     1      -9.977   9.572  71.062  1.00  0.00    -0.269 A  
HETATM   16  C   UNL     1      -9.773   8.537  71.979  1.00  0.00    -0.377 A  
HETATM   17  C   UNL     1     -10.864   7.872  72.521  1.00  0.00    -0.403 A  
HETATM   18  C   UNL     1     -12.155   8.247  72.153  1.00  0.00    -0.425 A  
HETATM   19  C   UNL     1     -12.362   9.295  71.236  1.00  0.00    -0.328 A  
HETATM   20  O   UNL     1     -13.649   9.631  70.923  1.00  0.00    -0.570 OA 
HETATM   21  H   UNL     1     -14.387   9.174  71.309  1.00  0.00     0.000 HD 
ENDBRANCH  12  14
ENDBRANCH  11  12
ENDBRANCH  10  11
TORSDOF 3
ENDMDL
MODEL      125
REMARK 921   NORMALIZED FREE ENERGY PREDICTED BY IDOCK:   -4.33 KCAL/MOL
REMARK 922        TOTAL FREE ENERGY PREDICTED BY IDOCK:   -6.02 KCAL/MOL
REMARK 923 INTER-LIGAND FREE ENERGY PREDICTED BY IDOCK:   -5.25 KCAL/MOL
REMARK 924 INTRA-LIGAND FREE ENERGY PREDICTED BY IDOCK:   -0.78 KCAL/MOL
REMARK 927      BINDING AFFINITY PREDICTED BY RF-SCORE:    0.00 PKD
ROOT
HETATM    1  C   UNL     1     -10.731  11.436  68.184  1.00  0.00    -0.241 C  
HETATM    2  C   UNL     1      -9.286  11.087  68.540  1.00  0.00    -0.177 C  
HETATM    3  C   UNL     1      -8.755   9.801  67.834  1.00  0.00    -0.125 C  
HETATM    4  C   UNL     1      -8.405  12.328  68.368  1.00  0.00    -0.144 C  
HETATM    5  C   UNL     1      -7.332   9.468  68.349  1.00  0.00    -0.076 C  
HETATM    6  C   UNL     1      -6.820   8.125  67.841  1.00  0.00    -0.073 C  
HETATM    7  C   UNL     1      -6.876   8.037  66.313  1.00  0.00    -0.058 C  
HETATM    8  C   UNL     1      -6.431   6.652  65.847  1.00  0.00    -0.046 C  
HETATM    9  C   UNL     1      -8.280   8.382  65.804  1.00  0.00    -0.131 C  
HETATM   10  C   UNL     1      -8.735   9.781  66.281  1.00  0.00    -0.139 C  
ENDROOT
BRANCH  10  11
HETATM   11  O   UNL     1     -10.033  10.061  65.706  1.00  0.00    -0.258 OA 
BRANCH  11  12
HETATM   12  C   UNL     1      -9.999  10.683  64.493  1.00  0.00    -0.345 C  
HETATM   13  O   UNL     1      -9.449  10.213  63.502  1.00  0.00    -0.283 OA 
BRANCH  12  14
HETATM   14  C   UNL     1     -10.666  12.019  64.426  1.00  0.00    -0.369 A  
HETATM   15  C   UNL     1     -10.119  13.017  65.263  1.00  0.00    -0.247 A  
HETATM   16  C   UNL     1     -10.655  14.307  65.312  1.00  0.00    -0.396 A  
HETATM   17  C   UNL     1     -11.753  14.627  64.526  1.00  0.00    -0.410 A  
HETATM   18  C   UNL     1     -12.307  13.662  63.687  1.00  0.00    -0.328 A  
HETATM   19  C   UNL     1     -11.764  12.365  63.630  1.00  0.00    -0.514 A  
HETATM   20  O   UNL     1     -12.338  11.464  62.779  1.00  0.00    -0.888 OA 
HETATM   21  H   UNL     1     -13.083  11.698  62.238  1.00  0.00     0.000 HD 
ENDBRANCH  12  14
ENDBRANCH  11  12
ENDBRANCH  10  11
TORSDOF 3
ENDMDL
MODEL      126
REMARK 921   NORMALIZED FREE ENERGY PREDICTED BY IDOCK:   -4.32 KCAL/MOL
REMARK 922        TOTAL FREE ENERGY PREDICTED BY IDOCK:   -6.01 KCAL/MOL
REMARK 923 INTER-LIGAND FREE ENERGY PREDICTED BY IDOCK:   -5.83 KCAL/MOL
REMARK 924 INTRA-LIGAND FREE ENERGY PREDICTED BY IDOCK:   -0.18 KCAL/MOL
REMARK 927      BINDING AFFINITY PREDICTED BY RF-SCORE:    0.00 PKD
ROOT
HETATM    1  C   UNL     1     -11.110   6.445  66.880  1.00  0.00    -0.346 C  
HETATM    2  C   UNL     1     -10.301   6.505  68.176  1.00  0.00    -0.223 C  
HETATM    3  C   UNL     1      -9.340   7.730  68.262  1.00  0.00    -0.143 C  
HETATM    4  C   UNL     1     -11.242   6.338  69.372  1.00  0.00    -0.489 C  
HETATM    5  C   UNL     1      -8.483   7.638  69.550  1.00  0.00    -0.132 C  
HETATM    6  C   UNL     1      -7.393   8.702  69.612  1.00  0.00    -0.056 C  
HETATM    7  C   UNL     1      -7.967  10.112  69.447  1.00  0.00    -0.155 C  
HETATM    8  C   UNL     1      -6.839  11.143  69.435  1.00  0.00    -0.125 C  
HETATM    9  C   UNL     1      -8.826  10.199  68.180  1.00  0.00    -0.126 C  
HETATM   10  C   UNL     1      -9.964   9.151  68.187  1.00  0.00    -0.176 C  
ENDROOT
BRANCH  10  11
HETATM   11  O   UNL     1     -10.768   9.341  66.998  1.00  0.00    -0.232 OA 
BRANCH  11  12
HETATM   12  C   UNL     1     -10.107   9.900  65.945  1.00  0.00    -0.245 C  
HETATM   13  O   UNL     1      -9.050   9.468  65.496  1.00  0.00    -0.180 OA 
BRANCH  12  14
HETATM   14  C   UNL     1     -10.738  11.119  65.352  1.00  0.00    -0.259 A  
HETATM   15  C   UNL     1     -11.295  12.029  66.277  1.00  0.00    -0.415 A  
HETATM   16  C   UNL     1     -11.931  13.202  65.860  1.00  0.00    -0.479 A  
HETATM   17  C   UNL     1     -12.026  13.489  64.505  1.00  0.00    -0.451 A  
HETATM   18  C   UNL     1     -11.479  12.610  63.572  1.00  0.00    -0.557 A  
HETATM   19  C   UNL     1     -10.832  11.432  63.991  1.00  0.00    -0.383 A  
HETATM   20  O   UNL     1     -10.301  10.614  63.034  1.00  0.00    -0.660 OA 
HETATM   21  H   UNL     1     -10.365  10.827  62.111  1.00  0.00     0.000 HD 
ENDBRANCH  12  14
ENDBRANCH  11  12
ENDBRANCH  10  11
TORSDOF 3
ENDMDL
MODEL      127
REMARK 921   NORMALIZED FREE ENERGY PREDICTED BY IDOCK:   -4.31 KCAL/MOL
REMARK 922        TOTAL FREE ENERGY PREDICTED BY IDOCK:   -6.00 KCAL/MOL
REMARK 923 INTER-LIGAND FREE ENERGY PREDICTED BY IDOCK:   -5.19 KCAL/MOL
REMARK 924 INTRA-LIGAND FREE ENERGY PREDICTED BY IDOCK:   -0.81 KCAL/MOL
REMARK 927      BINDING AFFINITY PREDICTED BY RF-SCORE:    0.00 PKD
ROOT
HETATM    1  C   UNL     1      -7.733   7.088  69.698  1.00  0.00    -0.110 C  
HETATM    2  C   UNL     1      -8.942   6.614  70.506  1.00  0.00    -0.152 C  
HETATM    3  C   UNL     1      -9.913   7.763  70.918  1.00  0.00    -0.190 C  
HETATM    4  C   UNL     1      -9.604   5.436  69.788  1.00  0.00    -0.225 C  
HETATM    5  C   UNL     1     -11.035   7.203  71.828  1.00  0.00    -0.258 C  
HETATM    6  C   UNL     1     -11.917   8.296  72.419  1.00  0.00    -0.447 C  
HETATM    7  C   UNL     1     -12.506   9.199  71.332  1.00  0.00    -0.396 C  
HETATM    8  C   UNL     1     -13.319  10.328  71.965  1.00  0.00    -0.466 C  
HETATM    9  C   UNL     1     -11.397   9.742  70.423  1.00  0.00    -0.362 C  
HETATM   10  C   UNL     1     -10.569   8.601  69.786  1.00  0.00    -0.224 C  
ENDROOT
BRANCH  10  11
HETATM   11  O   UNL     1      -9.593   9.187  68.893  1.00  0.00    -0.149 OA 
BRANCH  11  12
HETATM   12  C   UNL     1     -10.062   9.479  67.647  1.00  0.00    -0.205 C  
HETATM   13  O   UNL     1     -10.366   8.628  66.816  1.00  0.00    -0.286 OA 
BRANCH  12  14
HETATM   14  C   UNL     1     -10.174  10.933  67.316  1.00  0.00    -0.242 A  
HETATM   15  C   UNL     1     -11.439  11.358  66.854  1.00  0.00    -0.198 A  
HETATM   16  C   UNL     1     -11.679  12.687  66.493  1.00  0.00    -0.463 A  
HETATM   17  C   UNL     1     -10.656  13.621  66.584  1.00  0.00    -0.277 A  
HETATM   18  C   UNL     1      -9.400  13.227  67.042  1.00  0.00    -0.242 A  
HETATM   19  C   UNL     1      -9.158  11.891  67.413  1.00  0.00    -0.178 A  
HETATM   20  O   UNL     1      -7.913  11.565  67.870  1.00  0.00    -0.115 OA 
HETATM   21  H   UNL     1      -7.224  12.216  67.936  1.00  0.00     0.000 HD 
ENDBRANCH  12  14
ENDBRANCH  11  12
ENDBRANCH  10  11
TORSDOF 3
ENDMDL
MODEL      128
REMARK 921   NORMALIZED FREE ENERGY PREDICTED BY IDOCK:   -4.30 KCAL/MOL
REMARK 922        TOTAL FREE ENERGY PREDICTED BY IDOCK:   -5.99 KCAL/MOL
REMARK 923 INTER-LIGAND FREE ENERGY PREDICTED BY IDOCK:   -4.82 KCAL/MOL
REMARK 924 INTRA-LIGAND FREE ENERGY PREDICTED BY IDOCK:   -1.18 KCAL/MOL
REMARK 927      BINDING AFFINITY PREDICTED BY RF-SCORE:    0.00 PKD
ROOT
HETATM    1  C   UNL     1      -9.885   5.553  68.821  1.00  0.00    -0.206 C  
HETATM    2  C   UNL     1      -9.529   7.031  68.979  1.00  0.00    -0.138 C  
HETATM    3  C   UNL     1     -10.657   7.883  69.640  1.00  0.00    -0.234 C  
HETATM    4  C   UNL     1      -8.154   7.157  69.640  1.00  0.00    -0.129 C  
HETATM    5  C   UNL     1     -10.250   9.378  69.647  1.00  0.00    -0.225 C  
HETATM    6  C   UNL     1     -11.377  10.294  70.111  1.00  0.00    -0.388 C  
HETATM    7  C   UNL     1     -11.920   9.877  71.481  1.00  0.00    -0.473 C  
HETATM    8  C   UNL     1     -13.098  10.767  71.876  1.00  0.00    -0.557 C  
HETATM    9  C   UNL     1     -12.308   8.394  71.477  1.00  0.00    -0.343 C  
HETATM   10  C   UNL     1     -11.119   7.492  71.071  1.00  0.00    -0.257 C  
ENDROOT
BRANCH  10  11
HETATM   11  O   UNL     1     -11.542   6.110  71.158  1.00  0.00    -0.300 OA 
BRANCH  11  12
HETATM   12  C   UNL     1     -11.246   5.496  72.338  1.00  0.00    -0.247 C  
HETATM   13  O   UNL     1     -12.088   4.983  73.069  1.00  0.00    -0.171 OA 
BRANCH  12  14
HETATM   14  C   UNL     1      -9.802   5.492  72.728  1.00  0.00    -0.185 A  
HETATM   15  C   UNL     1      -8.997   4.534  72.075  1.00  0.00    -0.149 A  
HETATM   16  C   UNL     1      -7.633   4.409  72.356  1.00  0.00    -0.079 A  
HETATM   17  C   UNL     1      -7.045   5.240  73.299  1.00  0.00    -0.081 A  
HETATM   18  C   UNL     1      -7.818   6.198  73.953  1.00  0.00    -0.096 A  
HETATM   19  C   UNL     1      -9.189   6.330  73.666  1.00  0.00    -0.129 A  
HETATM   20  O   UNL     1      -9.895   7.296  74.326  1.00  0.00    -0.430 OA 
HETATM   21  H   UNL     1      -9.478   7.865  74.963  1.00  0.00     0.000 HD 
ENDBRANCH  12  14
ENDBRANCH  11  12
ENDBRANCH  10  11
TORSDOF 3
ENDMDL
MODEL      129
REMARK 921   NORMALIZED FREE ENERGY PREDICTED BY IDOCK:   -4.29 KCAL/MOL
REMARK 922        TOTAL FREE ENERGY PREDICTED BY IDOCK:   -5.99 KCAL/MOL
REMARK 923 INTER-LIGAND FREE ENERGY PREDICTED BY IDOCK:   -5.96 KCAL/MOL
REMARK 924 INTRA-LIGAND FREE ENERGY PREDICTED BY IDOCK:   -0.03 KCAL/MOL
REMARK 927      BINDING AFFINITY PREDICTED BY RF-SCORE:    0.00 PKD
ROOT
HETATM    1  C   UNL     1      -9.898  13.341  66.947  1.00  0.00    -0.247 C  
HETATM    2  C   UNL     1      -9.855  12.295  65.832  1.00  0.00    -0.266 C  
HETATM    3  C   UNL     1      -9.582  10.845  66.339  1.00  0.00    -0.229 C  
HETATM    4  C   UNL     1     -11.093  12.446  64.944  1.00  0.00    -0.344 C  
HETATM    5  C   UNL     1      -9.439   9.884  65.131  1.00  0.00    -0.338 C  
HETATM    6  C   UNL     1      -8.991   8.486  65.539  1.00  0.00    -0.182 C  
HETATM    7  C   UNL     1      -9.913   7.882  66.603  1.00  0.00    -0.316 C  
HETATM    8  C   UNL     1      -9.389   6.516  67.043  1.00  0.00    -0.155 C  
HETATM    9  C   UNL     1     -10.066   8.840  67.791  1.00  0.00    -0.261 C  
HETATM   10  C   UNL     1     -10.590  10.225  67.345  1.00  0.00    -0.270 C  
ENDROOT
BRANCH  10  11
HETATM   11  O   UNL     1     -10.772  11.046  68.523  1.00  0.00    -0.178 OA 
BRANCH  11  12
HETATM   12  C   UNL     1     -10.420  10.447  69.697  1.00  0.00    -0.243 C  
HETATM   13  O   UNL     1      -9.263  10.176  70.003  1.00  0.00    -0.166 OA 
BRANCH  12  14
HETATM   14  C   UNL     1     -11.547  10.103  70.618  1.00  0.00    -0.429 A  
HETATM   15  C   UNL     1     -11.630   8.746  70.999  1.00  0.00    -0.337 A  
HETATM   16  C   UNL     1     -12.644   8.283  71.843  1.00  0.00    -0.379 A  
HETATM   17  C   UNL     1     -13.599   9.169  72.322  1.00  0.00    -0.548 A  
HETATM   18  C   UNL     1     -13.535  10.514  71.965  1.00  0.00    -0.330 A  
HETATM   19  C   UNL     1     -12.511  10.984  71.122  1.00  0.00    -0.397 A  
HETATM   20  O   UNL     1     -12.488  12.315  70.817  1.00  0.00    -0.346 OA 
HETATM   21  H   UNL     1     -13.142  12.913  71.159  1.00  0.00     0.000 HD 
ENDBRANCH  12  14
ENDBRANCH  11  12
ENDBRANCH  10  11
TORSDOF 3
ENDMDL
MODEL      130
REMARK 921   NORMALIZED FREE ENERGY PREDICTED BY IDOCK:   -4.29 KCAL/MOL
REMARK 922        TOTAL FREE ENERGY PREDICTED BY IDOCK:   -5.98 KCAL/MOL
REMARK 923 INTER-LIGAND FREE ENERGY PREDICTED BY IDOCK:   -4.90 KCAL/MOL
REMARK 924 INTRA-LIGAND FREE ENERGY PREDICTED BY IDOCK:   -1.08 KCAL/MOL
REMARK 927      BINDING AFFINITY PREDICTED BY RF-SCORE:    0.00 PKD
ROOT
HETATM    1  C   UNL     1     -10.257   8.461  66.723  1.00  0.00    -0.376 C  
HETATM    2  C   UNL     1      -9.719   9.286  65.554  1.00  0.00    -0.247 C  
HETATM    3  C   UNL     1     -10.604  10.520  65.194  1.00  0.00    -0.121 C  
HETATM    4  C   UNL     1      -8.240   9.601  65.792  1.00  0.00    -0.120 C  
HETATM    5  C   UNL     1     -10.042  11.219  63.930  1.00  0.00    -0.392 C  
HETATM    6  C   UNL     1     -10.956  12.323  63.411  1.00  0.00    -0.467 C  
HETATM    7  C   UNL     1     -11.278  13.352  64.499  1.00  0.00    -0.393 C  
HETATM    8  C   UNL     1     -12.257  14.396  63.965  1.00  0.00    -0.300 C  
HETATM    9  C   UNL     1     -11.820  12.658  65.754  1.00  0.00    -0.497 C  
HETATM   10  C   UNL     1     -10.833  11.595  66.291  1.00  0.00    -0.286 C  
ENDROOT
BRANCH  10  11
HETATM   11  O   UNL     1     -11.380  11.037  67.509  1.00  0.00    -0.375 OA 
BRANCH  11  12
HETATM   12  C   UNL     1     -10.891  11.583  68.659  1.00  0.00    -0.212 C  
HETATM   13  O   UNL     1     -11.598  12.009  69.566  1.00  0.00    -0.293 OA 
BRANCH  12  14
HETATM   14  C   UNL     1      -9.401  11.661  68.761  1.00  0.00    -0.056 A  
HETATM   15  C   UNL     1      -8.761  10.499  69.244  1.00  0.00    -0.135 A  
HETATM   16  C   UNL     1      -7.374  10.439  69.406  1.00  0.00    -0.123 A  
HETATM   17  C   UNL     1      -6.596  11.544  69.090  1.00  0.00    -0.102 A  
HETATM   18  C   UNL     1      -7.203  12.702  68.605  1.00  0.00    -0.108 A  
HETATM   19  C   UNL     1      -8.599  12.760  68.434  1.00  0.00    -0.123 A  
HETATM   20  O   UNL     1      -9.139  13.914  67.942  1.00  0.00    -0.178 OA 
HETATM   21  H   UNL     1      -8.595  14.660  67.720  1.00  0.00     0.000 HD 
ENDBRANCH  12  14
ENDBRANCH  11  12
ENDBRANCH  10  11
TORSDOF 3
ENDMDL
MODEL      131
REMARK 921   NORMALIZED FREE ENERGY PREDICTED BY IDOCK:   -4.28 KCAL/MOL
REMARK 922        TOTAL FREE ENERGY PREDICTED BY IDOCK:   -5.97 KCAL/MOL
REMARK 923 INTER-LIGAND FREE ENERGY PREDICTED BY IDOCK:   -5.07 KCAL/MOL
REMARK 924 INTRA-LIGAND FREE ENERGY PREDICTED BY IDOCK:   -0.90 KCAL/MOL
REMARK 927      BINDING AFFINITY PREDICTED BY RF-SCORE:    0.00 PKD
ROOT
HETATM    1  C   UNL     1      -8.897   7.744  67.337  1.00  0.00    -0.128 C  
HETATM    2  C   UNL     1      -9.640   6.513  67.858  1.00  0.00    -0.119 C  
HETATM    3  C   UNL     1      -9.677   6.413  69.415  1.00  0.00    -0.160 C  
HETATM    4  C   UNL     1     -11.005   6.414  67.173  1.00  0.00    -0.476 C  
HETATM    5  C   UNL     1     -10.344   5.080  69.840  1.00  0.00    -0.298 C  
HETATM    6  C   UNL     1     -10.252   4.826  71.340  1.00  0.00    -0.237 C  
HETATM    7  C   UNL     1     -10.821   5.995  72.149  1.00  0.00    -0.297 C  
HETATM    8  C   UNL     1     -10.641   5.741  73.645  1.00  0.00    -0.302 C  
HETATM    9  C   UNL     1     -10.172   7.316  71.718  1.00  0.00    -0.211 C  
HETATM   10  C   UNL     1     -10.347   7.572  70.202  1.00  0.00    -0.216 C  
ENDROOT
BRANCH  10  11
HETATM   11  O   UNL     1      -9.772   8.862  69.887  1.00  0.00    -0.169 OA 
BRANCH  11  12
HETATM   12  C   UNL     1     -10.679   9.867  69.725  1.00  0.00    -0.267 C  
HETATM   13  O   UNL     1     -11.669  10.013  70.434  1.00  0.00    -0.266 OA 
BRANCH  12  14
HETATM   14  C   UNL     1     -10.415  10.807  68.592  1.00  0.00    -0.213 A  
HETATM   15  C   UNL     1     -11.497  11.014  67.708  1.00  0.00    -0.339 A  
HETATM   16  C   UNL     1     -11.384  11.855  66.597  1.00  0.00    -0.400 A  
HETATM   17  C   UNL     1     -10.184  12.506  66.344  1.00  0.00    -0.260 A  
HETATM   18  C   UNL     1      -9.104  12.322  67.205  1.00  0.00    -0.184 A  
HETATM   19  C   UNL     1      -9.218  11.483  68.329  1.00  0.00    -0.186 A  
HETATM   20  O   UNL     1      -8.132  11.351  69.148  1.00  0.00    -0.344 OA 
HETATM   21  H   UNL     1      -7.320  11.810  68.969  1.00  0.00     0.000 HD 
ENDBRANCH  12  14
ENDBRANCH  11  12
ENDBRANCH  10  11
TORSDOF 3
ENDMDL
MODEL      132
REMARK 921   NORMALIZED FREE ENERGY PREDICTED BY IDOCK:   -4.27 KCAL/MOL
REMARK 922        TOTAL FREE ENERGY PREDICTED BY IDOCK:   -5.96 KCAL/MOL
REMARK 923 INTER-LIGAND FREE ENERGY PREDICTED BY IDOCK:   -5.25 KCAL/MOL
REMARK 924 INTRA-LIGAND FREE ENERGY PREDICTED BY IDOCK:   -0.71 KCAL/MOL
REMARK 927      BINDING AFFINITY PREDICTED BY RF-SCORE:    0.00 PKD
ROOT
HETATM    1  C   UNL     1     -12.360  14.693  69.149  1.00  0.00    -0.130 C  
HETATM    2  C   UNL     1     -11.424  14.969  67.971  1.00  0.00    -0.357 C  
HETATM    3  C   UNL     1     -10.028  14.287  68.103  1.00  0.00    -0.230 C  
HETATM    4  C   UNL     1     -12.160  14.686  66.659  1.00  0.00    -0.229 C  
HETATM    5  C   UNL     1      -9.117  14.721  66.927  1.00  0.00    -0.268 C  
HETATM    6  C   UNL     1      -7.679  14.240  67.085  1.00  0.00    -0.046 C  
HETATM    7  C   UNL     1      -7.607  12.724  67.291  1.00  0.00    -0.116 C  
HETATM    8  C   UNL     1      -6.161  12.291  67.523  1.00  0.00    -0.140 C  
HETATM    9  C   UNL     1      -8.520  12.293  68.445  1.00  0.00    -0.138 C  
HETATM   10  C   UNL     1      -9.983  12.738  68.214  1.00  0.00    -0.230 C  
ENDROOT
BRANCH  10  11
HETATM   11  O   UNL     1     -10.791  12.237  69.306  1.00  0.00    -0.154 OA 
BRANCH  11  12
HETATM   12  C   UNL     1     -11.424  11.056  69.053  1.00  0.00    -0.299 C  
HETATM   13  O   UNL     1     -11.925  10.770  67.970  1.00  0.00    -0.537 OA 
BRANCH  12  14
HETATM   14  C   UNL     1     -11.503  10.100  70.200  1.00  0.00    -0.368 A  
HETATM   15  C   UNL     1     -10.695   8.947  70.090  1.00  0.00    -0.245 A  
HETATM   16  C   UNL     1     -10.683   7.962  71.081  1.00  0.00    -0.251 A  
HETATM   17  C   UNL     1     -11.484   8.108  72.205  1.00  0.00    -0.435 A  
HETATM   18  C   UNL     1     -12.287   9.239  72.341  1.00  0.00    -0.260 A  
HETATM   19  C   UNL     1     -12.293  10.236  71.347  1.00  0.00    -0.401 A  
HETATM   20  O   UNL     1     -13.088  11.330  71.538  1.00  0.00    -0.417 OA 
HETATM   21  H   UNL     1     -13.624  11.423  72.317  1.00  0.00     0.000 HD 
ENDBRANCH  12  14
ENDBRANCH  11  12
ENDBRANCH  10  11
TORSDOF 3
ENDMDL
MODEL      133
REMARK 921   NORMALIZED FREE ENERGY PREDICTED BY IDOCK:   -4.26 KCAL/MOL
REMARK 922        TOTAL FREE ENERGY PREDICTED BY IDOCK:   -5.94 KCAL/MOL
REMARK 923 INTER-LIGAND FREE ENERGY PREDICTED BY IDOCK:   -5.12 KCAL/MOL
REMARK 924 INTRA-LIGAND FREE ENERGY PREDICTED BY IDOCK:   -0.82 KCAL/MOL
REMARK 927      BINDING AFFINITY PREDICTED BY RF-SCORE:    0.00 PKD
ROOT
HETATM    1  C   UNL     1      -8.836   7.046  70.053  1.00  0.00    -0.142 C  
HETATM    2  C   UNL     1     -10.225   7.005  70.691  1.00  0.00    -0.205 C  
HETATM    3  C   UNL     1     -10.807   8.413  71.024  1.00  0.00    -0.280 C  
HETATM    4  C   UNL     1     -11.144   6.109  69.856  1.00  0.00    -0.481 C  
HETATM    5  C   UNL     1     -12.156   8.262  71.771  1.00  0.00    -0.364 C  
HETATM    6  C   UNL     1     -12.696   9.590  72.291  1.00  0.00    -0.388 C  
HETATM    7  C   UNL     1     -12.812  10.631  71.174  1.00  0.00    -0.518 C  
HETATM    8  C   UNL     1     -13.280  11.969  71.745  1.00  0.00    -0.421 C  
HETATM    9  C   UNL     1     -11.481  10.769  70.425  1.00  0.00    -0.397 C  
HETATM   10  C   UNL     1     -11.003   9.415  69.853  1.00  0.00    -0.229 C  
ENDROOT
BRANCH  10  11
HETATM   11  O   UNL     1      -9.783   9.638  69.106  1.00  0.00    -0.165 OA 
BRANCH  11  12
HETATM   12  C   UNL     1      -9.850   9.299  67.787  1.00  0.00    -0.171 C  
HETATM   13  O   UNL     1     -10.799   8.706  67.284  1.00  0.00    -0.217 OA 
BRANCH  12  14
HETATM   14  C   UNL     1      -8.665   9.674  66.956  1.00  0.00    -0.135 A  
HETATM   15  C   UNL     1      -7.478   9.942  67.671  1.00  0.00    -0.090 A  
HETATM   16  C   UNL     1      -6.300  10.320  67.021  1.00  0.00    -0.071 A  
HETATM   17  C   UNL     1      -6.284  10.440  65.638  1.00  0.00    -0.126 A  
HETATM   18  C   UNL     1      -7.442  10.175  64.909  1.00  0.00    -0.137 A  
HETATM   19  C   UNL     1      -8.627   9.787  65.561  1.00  0.00    -0.145 A  
HETATM   20  O   UNL     1      -9.727   9.525  64.795  1.00  0.00    -0.441 OA 
HETATM   21  H   UNL     1      -9.701   9.601  63.849  1.00  0.00     0.000 HD 
ENDBRANCH  12  14
ENDBRANCH  11  12
ENDBRANCH  10  11
TORSDOF 3
ENDMDL
MODEL      134
REMARK 921   NORMALIZED FREE ENERGY PREDICTED BY IDOCK:   -4.25 KCAL/MOL
REMARK 922        TOTAL FREE ENERGY PREDICTED BY IDOCK:   -5.94 KCAL/MOL
REMARK 923 INTER-LIGAND FREE ENERGY PREDICTED BY IDOCK:   -5.09 KCAL/MOL
REMARK 924 INTRA-LIGAND FREE ENERGY PREDICTED BY IDOCK:   -0.85 KCAL/MOL
REMARK 927      BINDING AFFINITY PREDICTED BY RF-SCORE:    0.00 PKD
ROOT
HETATM    1  C   UNL     1      -9.672   8.864  71.881  1.00  0.00    -0.349 C  
HETATM    2  C   UNL     1      -8.675   8.149  70.968  1.00  0.00    -0.156 C  
HETATM    3  C   UNL     1      -9.347   7.325  69.826  1.00  0.00    -0.150 C  
HETATM    4  C   UNL     1      -7.606   9.141  70.504  1.00  0.00    -0.130 C  
HETATM    5  C   UNL     1      -8.267   6.547  69.034  1.00  0.00    -0.116 C  
HETATM    6  C   UNL     1      -8.863   5.578  68.019  1.00  0.00    -0.105 C  
HETATM    7  C   UNL     1      -9.830   6.282  67.063  1.00  0.00    -0.185 C  
HETATM    8  C   UNL     1     -10.467   5.267  66.113  1.00  0.00    -0.259 C  
HETATM    9  C   UNL     1     -10.890   7.064  67.848  1.00  0.00    -0.252 C  
HETATM   10  C   UNL     1     -10.248   8.086  68.814  1.00  0.00    -0.206 C  
ENDROOT
BRANCH  10  11
HETATM   11  O   UNL     1     -11.306   8.829  69.464  1.00  0.00     0.031 OA 
BRANCH  11  12
HETATM   12  C   UNL     1     -11.484  10.098  68.997  1.00  0.00    -0.078 C  
HETATM   13  O   UNL     1     -11.188  10.453  67.861  1.00  0.00    -0.305 OA 
BRANCH  12  14
HETATM   14  C   UNL     1     -12.055  11.078  69.972  1.00  0.00    -0.441 A  
HETATM   15  C   UNL     1     -11.748  12.434  69.724  1.00  0.00    -0.361 A  
HETATM   16  C   UNL     1     -12.203  13.454  70.564  1.00  0.00    -0.425 A  
HETATM   17  C   UNL     1     -12.975  13.138  71.674  1.00  0.00    -0.429 A  
HETATM   18  C   UNL     1     -13.296  11.808  71.938  1.00  0.00    -0.401 A  
HETATM   19  C   UNL     1     -12.846  10.780  71.088  1.00  0.00    -0.414 A  
HETATM   20  O   UNL     1     -13.203   9.496  71.385  1.00  0.00    -0.360 OA 
HETATM   21  H   UNL     1     -13.740   9.294  72.142  1.00  0.00     0.000 HD 
ENDBRANCH  12  14
ENDBRANCH  11  12
ENDBRANCH  10  11
TORSDOF 3
ENDMDL
MODEL      135
REMARK 921   NORMALIZED FREE ENERGY PREDICTED BY IDOCK:   -4.24 KCAL/MOL
REMARK 922        TOTAL FREE ENERGY PREDICTED BY IDOCK:   -5.93 KCAL/MOL
REMARK 923 INTER-LIGAND FREE ENERGY PREDICTED BY IDOCK:   -5.27 KCAL/MOL
REMARK 924 INTRA-LIGAND FREE ENERGY PREDICTED BY IDOCK:   -0.66 KCAL/MOL
REMARK 927      BINDING AFFINITY PREDICTED BY RF-SCORE:    0.00 PKD
ROOT
HETATM    1  C   UNL     1     -12.072   8.784  72.143  1.00  0.00    -0.441 C  
HETATM    2  C   UNL     1     -11.237   7.558  72.517  1.00  0.00    -0.381 C  
HETATM    3  C   UNL     1     -10.995   6.577  71.329  1.00  0.00    -0.309 C  
HETATM    4  C   UNL     1      -9.971   8.009  73.250  1.00  0.00    -0.251 C  
HETATM    5  C   UNL     1     -10.245   5.317  71.832  1.00  0.00    -0.264 C  
HETATM    6  C   UNL     1     -10.134   4.232  70.768  1.00  0.00    -0.154 C  
HETATM    7  C   UNL     1      -9.493   4.762  69.482  1.00  0.00    -0.227 C  
HETATM    8  C   UNL     1      -9.470   3.669  68.413  1.00  0.00    -0.214 C  
HETATM    9  C   UNL     1     -10.226   6.017  68.992  1.00  0.00    -0.245 C  
HETATM   10  C   UNL     1     -10.256   7.121  70.075  1.00  0.00    -0.196 C  
ENDROOT
BRANCH  10  11
HETATM   11  O   UNL     1     -10.899   8.291  69.517  1.00  0.00    -0.210 OA 
BRANCH  11  12
HETATM   12  C   UNL     1     -10.082   9.370  69.356  1.00  0.00    -0.198 C  
HETATM   13  O   UNL     1      -9.504   9.931  70.281  1.00  0.00    -0.232 OA 
BRANCH  12  14
HETATM   14  C   UNL     1      -9.931   9.871  67.955  1.00  0.00    -0.190 A  
HETATM   15  C   UNL     1      -8.801   9.395  67.255  1.00  0.00    -0.136 A  
HETATM   16  C   UNL     1      -8.528   9.795  65.944  1.00  0.00    -0.136 A  
HETATM   17  C   UNL     1      -9.381  10.683  65.304  1.00  0.00    -0.256 A  
HETATM   18  C   UNL     1     -10.507  11.163  65.971  1.00  0.00    -0.312 A  
HETATM   19  C   UNL     1     -10.787  10.755  67.288  1.00  0.00    -0.288 A  
HETATM   20  O   UNL     1     -11.912  11.245  67.888  1.00  0.00    -0.630 OA 
HETATM   21  H   UNL     1     -12.493  11.845  67.436  1.00  0.00     0.000 HD 
ENDBRANCH  12  14
ENDBRANCH  11  12
ENDBRANCH  10  11
TORSDOF 3
ENDMDL
MODEL      136
REMARK 921   NORMALIZED FREE ENERGY PREDICTED BY IDOCK:   -4.23 KCAL/MOL
REMARK 922        TOTAL FREE ENERGY PREDICTED BY IDOCK:   -5.92 KCAL/MOL
REMARK 923 INTER-LIGAND FREE ENERGY PREDICTED BY IDOCK:   -5.51 KCAL/MOL
REMARK 924 INTRA-LIGAND FREE ENERGY PREDICTED BY IDOCK:   -0.41 KCAL/MOL
REMARK 927      BINDING AFFINITY PREDICTED BY RF-SCORE:    0.00 PKD
ROOT
HETATM    1  C   UNL     1      -8.926  17.620  68.119  1.00  0.00    -0.269 C  
HETATM    2  C   UNL     1      -9.641  17.686  66.769  1.00  0.00    -0.297 C  
HETATM    3  C   UNL     1     -10.186  16.309  66.277  1.00  0.00    -0.339 C  
HETATM    4  C   UNL     1     -10.672  18.817  66.793  1.00  0.00    -0.381 C  
HETATM    5  C   UNL     1     -10.784  16.458  64.855  1.00  0.00    -0.213 C  
HETATM    6  C   UNL     1     -11.172  15.121  64.235  1.00  0.00    -0.027 C  
HETATM    7  C   UNL     1     -12.121  14.330  65.139  1.00  0.00    -0.410 C  
HETATM    8  C   UNL     1     -12.424  12.965  64.522  1.00  0.00    -0.468 C  
HETATM    9  C   UNL     1     -11.536  14.196  66.550  1.00  0.00    -0.368 C  
HETATM   10  C   UNL     1     -11.222  15.576  67.173  1.00  0.00    -0.204 C  
ENDROOT
BRANCH  10  11
HETATM   11  O   UNL     1     -10.740  15.370  68.522  1.00  0.00    -0.242 OA 
BRANCH  11  12
HETATM   12  C   UNL     1     -10.031  14.220  68.707  1.00  0.00    -0.205 C  
HETATM   13  O   UNL     1      -8.851  14.091  68.399  1.00  0.00    -0.179 OA 
BRANCH  12  14
HETATM   14  C   UNL     1     -10.787  13.076  69.302  1.00  0.00    -0.048 A  
HETATM   15  C   UNL     1     -11.820  13.427  70.198  1.00  0.00    -0.342 A  
HETATM   16  C   UNL     1     -12.596  12.458  70.839  1.00  0.00    -0.337 A  
HETATM   17  C   UNL     1     -12.353  11.112  70.599  1.00  0.00    -0.482 A  
HETATM   18  C   UNL     1     -11.343  10.739  69.714  1.00  0.00    -0.372 A  
HETATM   19  C   UNL     1     -10.566  11.715  69.062  1.00  0.00    -0.153 A  
HETATM   20  O   UNL     1      -9.600  11.293  68.193  1.00  0.00    -0.173 OA 
HETATM   21  H   UNL     1      -9.450  10.369  68.030  1.00  0.00     0.000 HD 
ENDBRANCH  12  14
ENDBRANCH  11  12
ENDBRANCH  10  11
TORSDOF 3
ENDMDL
MODEL      137
REMARK 921   NORMALIZED FREE ENERGY PREDICTED BY IDOCK:   -4.21 KCAL/MOL
REMARK 922        TOTAL FREE ENERGY PREDICTED BY IDOCK:   -5.89 KCAL/MOL
REMARK 923 INTER-LIGAND FREE ENERGY PREDICTED BY IDOCK:   -5.31 KCAL/MOL
REMARK 924 INTRA-LIGAND FREE ENERGY PREDICTED BY IDOCK:   -0.59 KCAL/MOL
REMARK 927      BINDING AFFINITY PREDICTED BY RF-SCORE:    0.00 PKD
ROOT
HETATM    1  C   UNL     1     -11.390  16.243  68.542  1.00  0.00    -0.330 C  
HETATM    2  C   UNL     1     -10.035  16.514  67.888  1.00  0.00    -0.245 C  
HETATM    3  C   UNL     1      -8.965  15.417  68.180  1.00  0.00    -0.176 C  
HETATM    4  C   UNL     1     -10.240  16.835  66.405  1.00  0.00    -0.329 C  
HETATM    5  C   UNL     1      -7.601  15.839  67.577  1.00  0.00    -0.194 C  
HETATM    6  C   UNL     1      -6.464  14.906  67.978  1.00  0.00    -0.161 C  
HETATM    7  C   UNL     1      -6.778  13.447  67.632  1.00  0.00    -0.174 C  
HETATM    8  C   UNL     1      -5.653  12.535  68.119  1.00  0.00    -0.068 C  
HETATM    9  C   UNL     1      -8.135  13.035  68.217  1.00  0.00    -0.151 C  
HETATM   10  C   UNL     1      -9.273  13.962  67.731  1.00  0.00    -0.197 C  
ENDROOT
BRANCH  10  11
HETATM   11  O   UNL     1     -10.524  13.470  68.267  1.00  0.00    -0.239 OA 
BRANCH  11  12
HETATM   12  C   UNL     1     -11.296  12.783  67.378  1.00  0.00    -0.313 C  
HETATM   13  O   UNL     1     -12.332  13.226  66.891  1.00  0.00    -0.311 OA 
BRANCH  12  14
HETATM   14  C   UNL     1     -10.821  11.411  67.024  1.00  0.00    -0.331 A  
HETATM   15  C   UNL     1     -10.176  11.291  65.774  1.00  0.00    -0.301 A  
HETATM   16  C   UNL     1      -9.696  10.063  65.310  1.00  0.00    -0.373 A  
HETATM   17  C   UNL     1      -9.853   8.925  66.088  1.00  0.00    -0.326 A  
HETATM   18  C   UNL     1     -10.481   9.017  67.329  1.00  0.00    -0.343 A  
HETATM   19  C   UNL     1     -10.958  10.254  67.801  1.00  0.00    -0.300 A  
HETATM   20  O   UNL     1     -11.552  10.289  69.030  1.00  0.00    -0.444 OA 
HETATM   21  H   UNL     1     -11.645   9.504  69.557  1.00  0.00     0.000 HD 
ENDBRANCH  12  14
ENDBRANCH  11  12
ENDBRANCH  10  11
TORSDOF 3
ENDMDL
MODEL      138
REMARK 921   NORMALIZED FREE ENERGY PREDICTED BY IDOCK:   -4.20 KCAL/MOL
REMARK 922        TOTAL FREE ENERGY PREDICTED BY IDOCK:   -5.87 KCAL/MOL
REMARK 923 INTER-LIGAND FREE ENERGY PREDICTED BY IDOCK:   -4.90 KCAL/MOL
REMARK 924 INTRA-LIGAND FREE ENERGY PREDICTED BY IDOCK:   -0.98 KCAL/MOL
REMARK 927      BINDING AFFINITY PREDICTED BY RF-SCORE:    0.00 PKD
ROOT
HETATM    1  C   UNL     1     -12.629   7.162  70.981  1.00  0.00    -0.335 C  
HETATM    2  C   UNL     1     -11.850   6.974  72.284  1.00  0.00    -0.272 C  
HETATM    3  C   UNL     1     -11.164   5.579  72.411  1.00  0.00    -0.305 C  
HETATM    4  C   UNL     1     -10.922   8.171  72.500  1.00  0.00    -0.439 C  
HETATM    5  C   UNL     1     -10.505   5.442  73.807  1.00  0.00    -0.305 C  
HETATM    6  C   UNL     1      -9.972   4.039  74.073  1.00  0.00    -0.176 C  
HETATM    7  C   UNL     1      -9.009   3.580  72.975  1.00  0.00    -0.106 C  
HETATM    8  C   UNL     1      -8.558   2.143  73.234  1.00  0.00    -0.066 C  
HETATM    9  C   UNL     1      -9.656   3.729  71.593  1.00  0.00    -0.227 C  
HETATM   10  C   UNL     1     -10.119   5.181  71.332  1.00  0.00    -0.200 C  
ENDROOT
BRANCH  10  11
HETATM   11  O   UNL     1     -10.653   5.257  69.989  1.00  0.00    -0.302 OA 
BRANCH  11  12
HETATM   12  C   UNL     1      -9.742   5.586  69.029  1.00  0.00    -0.144 C  
HETATM   13  O   UNL     1      -8.943   4.789  68.547  1.00  0.00    -0.104 OA 
BRANCH  12  14
HETATM   14  C   UNL     1      -9.745   7.015  68.589  1.00  0.00    -0.139 A  
HETATM   15  C   UNL     1      -8.871   7.872  69.294  1.00  0.00    -0.142 A  
HETATM   16  C   UNL     1      -8.784   9.235  68.999  1.00  0.00    -0.135 A  
HETATM   17  C   UNL     1      -9.573   9.772  67.991  1.00  0.00    -0.160 A  
HETATM   18  C   UNL     1     -10.439   8.947  67.276  1.00  0.00    -0.348 A  
HETATM   19  C   UNL     1     -10.522   7.572  67.567  1.00  0.00    -0.271 A  
HETATM   20  O   UNL     1     -11.377   6.807  66.826  1.00  0.00    -0.721 OA 
HETATM   21  H   UNL     1     -11.904   7.185  66.132  1.00  0.00     0.000 HD 
ENDBRANCH  12  14
ENDBRANCH  11  12
ENDBRANCH  10  11
TORSDOF 3
ENDMDL
MODEL      139
REMARK 921   NORMALIZED FREE ENERGY PREDICTED BY IDOCK:   -4.19 KCAL/MOL
REMARK 922        TOTAL FREE ENERGY PREDICTED BY IDOCK:   -5.86 KCAL/MOL
REMARK 923 INTER-LIGAND FREE ENERGY PREDICTED BY IDOCK:   -5.13 KCAL/MOL
REMARK 924 INTRA-LIGAND FREE ENERGY PREDICTED BY IDOCK:   -0.73 KCAL/MOL
REMARK 927      BINDING AFFINITY PREDICTED BY RF-SCORE:    0.00 PKD
ROOT
HETATM    1  C   UNL     1      -8.042   8.651  67.373  1.00  0.00    -0.102 C  
HETATM    2  C   UNL     1      -7.704  10.125  67.147  1.00  0.00    -0.092 C  
HETATM    3  C   UNL     1      -8.956  11.054  67.083  1.00  0.00    -0.145 C  
HETATM    4  C   UNL     1      -6.628  10.560  68.145  1.00  0.00    -0.063 C  
HETATM    5  C   UNL     1      -8.520  12.500  66.735  1.00  0.00    -0.073 C  
HETATM    6  C   UNL     1      -9.702  13.427  66.475  1.00  0.00    -0.284 C  
HETATM    7  C   UNL     1     -10.689  13.429  67.646  1.00  0.00    -0.257 C  
HETATM    8  C   UNL     1     -11.897  14.305  67.317  1.00  0.00    -0.444 C  
HETATM    9  C   UNL     1     -11.109  11.997  67.999  1.00  0.00    -0.292 C  
HETATM   10  C   UNL     1      -9.887  11.106  68.325  1.00  0.00    -0.189 C  
ENDROOT
BRANCH  10  11
HETATM   11  O   UNL     1     -10.366   9.797  68.715  1.00  0.00    -0.192 OA 
BRANCH  11  12
HETATM   12  C   UNL     1     -10.276   9.529  70.048  1.00  0.00    -0.244 C  
HETATM   13  O   UNL     1      -9.243   9.649  70.700  1.00  0.00    -0.229 OA 
BRANCH  12  14
HETATM   14  C   UNL     1     -11.531   9.046  70.702  1.00  0.00    -0.291 A  
HETATM   15  C   UNL     1     -11.748   7.651  70.651  1.00  0.00    -0.214 A  
HETATM   16  C   UNL     1     -12.888   7.065  71.208  1.00  0.00    -0.376 A  
HETATM   17  C   UNL     1     -13.839   7.864  71.828  1.00  0.00    -0.449 A  
HETATM   18  C   UNL     1     -13.646   9.242  71.897  1.00  0.00    -0.494 A  
HETATM   19  C   UNL     1     -12.494   9.833  71.343  1.00  0.00    -0.387 A  
HETATM   20  O   UNL     1     -12.349  11.187  71.453  1.00  0.00    -0.314 OA 
HETATM   21  H   UNL     1     -13.003  11.721  71.888  1.00  0.00     0.000 HD 
ENDBRANCH  12  14
ENDBRANCH  11  12
ENDBRANCH  10  11
TORSDOF 3
ENDMDL
MODEL      140
REMARK 921   NORMALIZED FREE ENERGY PREDICTED BY IDOCK:   -4.18 KCAL/MOL
REMARK 922        TOTAL FREE ENERGY PREDICTED BY IDOCK:   -5.85 KCAL/MOL
REMARK 923 INTER-LIGAND FREE ENERGY PREDICTED BY IDOCK:   -5.49 KCAL/MOL
REMARK 924 INTRA-LIGAND FREE ENERGY PREDICTED BY IDOCK:   -0.36 KCAL/MOL
REMARK 927      BINDING AFFINITY PREDICTED BY RF-SCORE:    0.00 PKD
ROOT
HETATM    1  C   UNL     1      -9.382   7.572  66.425  1.00  0.00    -0.211 C  
HETATM    2  C   UNL     1      -9.754   9.044  66.607  1.00  0.00    -0.295 C  
HETATM    3  C   UNL     1     -10.628   9.321  67.868  1.00  0.00    -0.288 C  
HETATM    4  C   UNL     1      -8.493   9.905  66.493  1.00  0.00    -0.127 C  
HETATM    5  C   UNL     1     -11.049  10.812  67.899  1.00  0.00    -0.369 C  
HETATM    6  C   UNL     1     -12.055  11.119  69.002  1.00  0.00    -0.315 C  
HETATM    7  C   UNL     1     -11.544  10.675  70.376  1.00  0.00    -0.441 C  
HETATM    8  C   UNL     1     -12.608  10.926  71.443  1.00  0.00    -0.508 C  
HETATM    9  C   UNL     1     -11.114   9.204  70.341  1.00  0.00    -0.293 C  
HETATM   10  C   UNL     1     -10.041   8.947  69.257  1.00  0.00    -0.203 C  
ENDROOT
BRANCH  10  11
HETATM   11  O   UNL     1      -9.638   7.558  69.332  1.00  0.00    -0.156 OA 
BRANCH  11  12
HETATM   12  C   UNL     1     -10.514   6.744  69.986  1.00  0.00    -0.210 C  
HETATM   13  O   UNL     1     -11.557   6.328  69.492  1.00  0.00    -0.423 OA 
BRANCH  12  14
HETATM   14  C   UNL     1     -10.145   6.384  71.390  1.00  0.00    -0.214 A  
HETATM   15  C   UNL     1      -8.762   6.274  71.649  1.00  0.00    -0.134 A  
HETATM   16  C   UNL     1      -8.277   5.927  72.913  1.00  0.00    -0.118 A  
HETATM   17  C   UNL     1      -9.169   5.680  73.948  1.00  0.00    -0.126 A  
HETATM   18  C   UNL     1     -10.540   5.788  73.720  1.00  0.00    -0.285 A  
HETATM   19  C   UNL     1     -11.029   6.144  72.449  1.00  0.00    -0.259 A  
HETATM   20  O   UNL     1     -12.381   6.250  72.286  1.00  0.00    -0.512 OA 
HETATM   21  H   UNL     1     -12.980   6.088  73.005  1.00  0.00     0.000 HD 
ENDBRANCH  12  14
ENDBRANCH  11  12
ENDBRANCH  10  11
TORSDOF 3
ENDMDL
MODEL      141
REMARK 921   NORMALIZED FREE ENERGY PREDICTED BY IDOCK:   -4.16 KCAL/MOL
REMARK 922        TOTAL FREE ENERGY PREDICTED BY IDOCK:   -5.83 KCAL/MOL
REMARK 923 INTER-LIGAND FREE ENERGY PREDICTED BY IDOCK:   -5.02 KCAL/MOL
REMARK 924 INTRA-LIGAND FREE ENERGY PREDICTED BY IDOCK:   -0.80 KCAL/MOL
REMARK 927      BINDING AFFINITY PREDICTED BY RF-SCORE:    0.00 PKD
ROOT
HETATM    1  C   UNL     1     -11.897   7.178  70.583  1.00  0.00    -0.334 C  
HETATM    2  C   UNL     1     -10.982   5.965  70.404  1.00  0.00    -0.376 C  
HETATM    3  C   UNL     1     -10.611   5.672  68.917  1.00  0.00    -0.303 C  
HETATM    4  C   UNL     1      -9.789   6.082  71.356  1.00  0.00    -0.204 C  
HETATM    5  C   UNL     1      -9.784   4.363  68.831  1.00  0.00    -0.211 C  
HETATM    6  C   UNL     1      -9.540   3.913  67.395  1.00  0.00    -0.218 C  
HETATM    7  C   UNL     1      -8.890   5.018  66.557  1.00  0.00    -0.112 C  
HETATM    8  C   UNL     1      -8.733   4.560  65.108  1.00  0.00    -0.135 C  
HETATM    9  C   UNL     1      -9.700   6.317  66.655  1.00  0.00    -0.195 C  
HETATM   10  C   UNL     1      -9.865   6.778  68.122  1.00  0.00    -0.137 C  
ENDROOT
BRANCH  10  11
HETATM   11  O   UNL     1     -10.577   8.039  68.127  1.00  0.00    -0.193 OA 
BRANCH  11  12
HETATM   12  C   UNL     1      -9.802   9.131  68.382  1.00  0.00    -0.164 C  
HETATM   13  O   UNL     1      -8.817   9.112  69.114  1.00  0.00    -0.140 OA 
BRANCH  12  14
HETATM   14  C   UNL     1     -10.231  10.404  67.725  1.00  0.00    -0.229 A  
HETATM   15  C   UNL     1      -9.275  11.005  66.877  1.00  0.00    -0.168 A  
HETATM   16  C   UNL     1      -9.537  12.206  66.212  1.00  0.00    -0.246 A  
HETATM   17  C   UNL     1     -10.764  12.834  66.383  1.00  0.00    -0.282 A  
HETATM   18  C   UNL     1     -11.726  12.258  67.209  1.00  0.00    -0.394 A  
HETATM   19  C   UNL     1     -11.467  11.044  67.874  1.00  0.00    -0.282 A  
HETATM   20  O   UNL     1     -12.452  10.517  68.659  1.00  0.00    -0.699 OA 
HETATM   21  H   UNL     1     -13.290  10.951  68.760  1.00  0.00     0.000 HD 
ENDBRANCH  12  14
ENDBRANCH  11  12
ENDBRANCH  10  11
TORSDOF 3
ENDMDL
MODEL      142
REMARK 921   NORMALIZED FREE ENERGY PREDICTED BY IDOCK:   -4.15 KCAL/MOL
REMARK 922        TOTAL FREE ENERGY PREDICTED BY IDOCK:   -5.82 KCAL/MOL
REMARK 923 INTER-LIGAND FREE ENERGY PREDICTED BY IDOCK:   -4.93 KCAL/MOL
REMARK 924 INTRA-LIGAND FREE ENERGY PREDICTED BY IDOCK:   -0.89 KCAL/MOL
REMARK 927      BINDING AFFINITY PREDICTED BY RF-SCORE:    0.00 PKD
ROOT
HETATM    1  C   UNL     1     -12.178  14.163  66.815  1.00  0.00    -0.429 C  
HETATM    2  C   UNL     1     -11.060  14.994  66.184  1.00  0.00    -0.329 C  
HETATM    3  C   UNL     1      -9.765  15.068  67.051  1.00  0.00    -0.241 C  
HETATM    4  C   UNL     1     -10.844  14.541  64.738  1.00  0.00    -0.410 C  
HETATM    5  C   UNL     1      -8.742  16.023  66.386  1.00  0.00    -0.362 C  
HETATM    6  C   UNL     1      -7.525  16.289  67.265  1.00  0.00    -0.212 C  
HETATM    7  C   UNL     1      -6.845  14.988  67.700  1.00  0.00    -0.203 C  
HETATM    8  C   UNL     1      -5.680  15.290  68.642  1.00  0.00    -0.089 C  
HETATM    9  C   UNL     1      -7.861  14.037  68.344  1.00  0.00    -0.144 C  
HETATM   10  C   UNL     1      -9.044  13.736  67.395  1.00  0.00    -0.221 C  
ENDROOT
BRANCH  10  11
HETATM   11  O   UNL     1      -9.920  12.783  68.043  1.00  0.00    -0.212 OA 
BRANCH  11  12
HETATM   12  C   UNL     1      -9.610  11.475  67.815  1.00  0.00    -0.175 C  
HETATM   13  O   UNL     1      -9.430  10.652  68.707  1.00  0.00    -0.168 OA 
BRANCH  12  14
HETATM   14  C   UNL     1      -9.473  11.078  66.380  1.00  0.00    -0.218 A  
HETATM   15  C   UNL     1     -10.581  11.373  65.556  1.00  0.00    -0.328 A  
HETATM   16  C   UNL     1     -10.594  11.042  64.199  1.00  0.00    -0.412 A  
HETATM   17  C   UNL     1      -9.498  10.405  63.635  1.00  0.00    -0.353 A  
HETATM   18  C   UNL     1      -8.389  10.107  64.425  1.00  0.00    -0.171 A  
HETATM   19  C   UNL     1      -8.371  10.447  65.791  1.00  0.00    -0.158 A  
HETATM   20  O   UNL     1      -7.252  10.145  66.514  1.00  0.00    -0.097 OA 
HETATM   21  H   UNL     1      -6.505   9.717  66.114  1.00  0.00     0.000 HD 
ENDBRANCH  12  14
ENDBRANCH  11  12
ENDBRANCH  10  11
TORSDOF 3
ENDMDL
MODEL      143
REMARK 921   NORMALIZED FREE ENERGY PREDICTED BY IDOCK:   -4.15 KCAL/MOL
REMARK 922        TOTAL FREE ENERGY PREDICTED BY IDOCK:   -5.81 KCAL/MOL
REMARK 923 INTER-LIGAND FREE ENERGY PREDICTED BY IDOCK:   -4.91 KCAL/MOL
REMARK 924 INTRA-LIGAND FREE ENERGY PREDICTED BY IDOCK:   -0.90 KCAL/MOL
REMARK 927      BINDING AFFINITY PREDICTED BY RF-SCORE:    0.00 PKD
ROOT
HETATM    1  C   UNL     1      -6.548   9.804  70.070  1.00  0.00    -0.081 C  
HETATM    2  C   UNL     1      -6.456   9.231  68.656  1.00  0.00    -0.053 C  
HETATM    3  C   UNL     1      -7.545   8.161  68.338  1.00  0.00    -0.105 C  
HETATM    4  C   UNL     1      -6.364  10.378  67.646  1.00  0.00    -0.057 C  
HETATM    5  C   UNL     1      -7.296   7.558  66.932  1.00  0.00    -0.093 C  
HETATM    6  C   UNL     1      -8.210   6.377  66.625  1.00  0.00    -0.111 C  
HETATM    7  C   UNL     1      -9.687   6.743  66.801  1.00  0.00    -0.222 C  
HETATM    8  C   UNL     1     -10.567   5.516  66.562  1.00  0.00    -0.343 C  
HETATM    9  C   UNL     1      -9.930   7.353  68.186  1.00  0.00    -0.190 C  
HETATM   10  C   UNL     1      -9.035   8.590  68.432  1.00  0.00    -0.139 C  
ENDROOT
BRANCH  10  11
HETATM   11  O   UNL     1      -9.371   9.148  69.725  1.00  0.00    -0.164 OA 
BRANCH  11  12
HETATM   12  C   UNL     1     -10.254  10.186  69.687  1.00  0.00    -0.242 C  
HETATM   13  O   UNL     1     -10.121  11.168  68.964  1.00  0.00    -0.204 OA 
BRANCH  12  14
HETATM   14  C   UNL     1     -11.423  10.082  70.614  1.00  0.00    -0.425 A  
HETATM   15  C   UNL     1     -11.704   8.786  71.099  1.00  0.00    -0.344 A  
HETATM   16  C   UNL     1     -12.777   8.541  71.960  1.00  0.00    -0.421 A  
HETATM   17  C   UNL     1     -13.596   9.591  72.354  1.00  0.00    -0.459 A  
HETATM   18  C   UNL     1     -13.336  10.880  71.894  1.00  0.00    -0.429 A  
HETATM   19  C   UNL     1     -12.251  11.129  71.034  1.00  0.00    -0.333 A  
HETATM   20  O   UNL     1     -12.034  12.415  70.627  1.00  0.00    -0.498 OA 
HETATM   21  H   UNL     1     -12.596  13.126  70.911  1.00  0.00     0.000 HD 
ENDBRANCH  12  14
ENDBRANCH  11  12
ENDBRANCH  10  11
TORSDOF 3
ENDMDL
MODEL      144
REMARK 921   NORMALIZED FREE ENERGY PREDICTED BY IDOCK:   -4.08 KCAL/MOL
REMARK 922        TOTAL FREE ENERGY PREDICTED BY IDOCK:   -5.73 KCAL/MOL
REMARK 923 INTER-LIGAND FREE ENERGY PREDICTED BY IDOCK:   -4.82 KCAL/MOL
REMARK 924 INTRA-LIGAND FREE ENERGY PREDICTED BY IDOCK:   -0.92 KCAL/MOL
REMARK 927      BINDING AFFINITY PREDICTED BY RF-SCORE:    0.00 PKD
ROOT
HETATM    1  C   UNL     1      -9.317   8.157  71.401  1.00  0.00    -0.200 C  
HETATM    2  C   UNL     1     -10.544   9.069  71.438  1.00  0.00    -0.393 C  
HETATM    3  C   UNL     1     -10.626  10.063  70.238  1.00  0.00    -0.354 C  
HETATM    4  C   UNL     1     -11.801   8.225  71.664  1.00  0.00    -0.345 C  
HETATM    5  C   UNL     1     -11.831  11.018  70.428  1.00  0.00    -0.460 C  
HETATM    6  C   UNL     1     -11.869  12.134  69.390  1.00  0.00    -0.370 C  
HETATM    7  C   UNL     1     -11.839  11.581  67.962  1.00  0.00    -0.287 C  
HETATM    8  C   UNL     1     -11.798  12.728  66.952  1.00  0.00    -0.440 C  
HETATM    9  C   UNL     1     -10.655  10.624  67.779  1.00  0.00    -0.275 C  
HETATM   10  C   UNL     1     -10.690   9.467  68.805  1.00  0.00    -0.190 C  
ENDROOT
BRANCH  10  11
HETATM   11  O   UNL     1      -9.586   8.574  68.525  1.00  0.00    -0.148 OA 
BRANCH  11  12
HETATM   12  C   UNL     1      -9.939   7.396  67.937  1.00  0.00    -0.165 C  
HETATM   13  O   UNL     1     -10.791   7.301  67.059  1.00  0.00    -0.357 OA 
BRANCH  12  14
HETATM   14  C   UNL     1      -9.234   6.178  68.441  1.00  0.00    -0.111 A  
HETATM   15  C   UNL     1     -10.062   5.076  68.748  1.00  0.00    -0.200 A  
HETATM   16  C   UNL     1      -9.536   3.879  69.244  1.00  0.00    -0.232 A  
HETATM   17  C   UNL     1      -8.168   3.759  69.446  1.00  0.00    -0.066 A  
HETATM   18  C   UNL     1      -7.329   4.830  69.144  1.00  0.00    -0.053 A  
HETATM   19  C   UNL     1      -7.855   6.033  68.638  1.00  0.00    -0.100 A  
HETATM   20  O   UNL     1      -6.985   7.045  68.346  1.00  0.00    -0.071 OA 
HETATM   21  H   UNL     1      -6.049   6.946  68.479  1.00  0.00     0.000 HD 
ENDBRANCH  12  14
ENDBRANCH  11  12
ENDBRANCH  10  11
TORSDOF 3
ENDMDL
MODEL      145
REMARK 921   NORMALIZED FREE ENERGY PREDICTED BY IDOCK:   -4.07 KCAL/MOL
REMARK 922        TOTAL FREE ENERGY PREDICTED BY IDOCK:   -5.73 KCAL/MOL
REMARK 923 INTER-LIGAND FREE ENERGY PREDICTED BY IDOCK:   -4.90 KCAL/MOL
REMARK 924 INTRA-LIGAND FREE ENERGY PREDICTED BY IDOCK:   -0.83 KCAL/MOL
REMARK 927      BINDING AFFINITY PREDICTED BY RF-SCORE:    0.00 PKD
ROOT
HETATM    1  C   UNL     1     -10.658   7.895  67.305  1.00  0.00    -0.365 C  
HETATM    2  C   UNL     1     -10.335   9.369  67.058  1.00  0.00    -0.322 C  
HETATM    3  C   UNL     1     -11.130  10.349  67.976  1.00  0.00    -0.359 C  
HETATM    4  C   UNL     1      -8.817   9.567  67.065  1.00  0.00    -0.139 C  
HETATM    5  C   UNL     1     -10.824  11.813  67.571  1.00  0.00    -0.286 C  
HETATM    6  C   UNL     1     -11.702  12.824  68.300  1.00  0.00    -0.388 C  
HETATM    7  C   UNL     1     -11.617  12.656  69.820  1.00  0.00    -0.285 C  
HETATM    8  C   UNL     1     -12.568  13.630  70.514  1.00  0.00    -0.337 C  
HETATM    9  C   UNL     1     -11.905  11.204  70.219  1.00  0.00    -0.455 C  
HETATM   10  C   UNL     1     -10.948  10.215  69.513  1.00  0.00    -0.256 C  
ENDROOT
BRANCH  10  11
HETATM   11  O   UNL     1     -11.235   8.880  69.991  1.00  0.00    -0.213 OA 
BRANCH  11  12
HETATM   12  C   UNL     1     -10.797   8.619  71.255  1.00  0.00    -0.260 C  
HETATM   13  O   UNL     1     -11.489   8.762  72.258  1.00  0.00    -0.362 OA 
BRANCH  12  14
HETATM   14  C   UNL     1      -9.381   8.155  71.373  1.00  0.00    -0.200 A  
HETATM   15  C   UNL     1      -8.796   7.672  70.182  1.00  0.00    -0.146 A  
HETATM   16  C   UNL     1      -7.484   7.191  70.152  1.00  0.00    -0.089 A  
HETATM   17  C   UNL     1      -6.727   7.181  71.316  1.00  0.00    -0.051 A  
HETATM   18  C   UNL     1      -7.280   7.658  72.503  1.00  0.00    -0.085 A  
HETATM   19  C   UNL     1      -8.598   8.150  72.533  1.00  0.00    -0.194 A  
HETATM   20  O   UNL     1      -9.083   8.619  73.721  1.00  0.00    -0.108 OA 
HETATM   21  H   UNL     1      -8.552   8.616  74.509  1.00  0.00     0.000 HD 
ENDBRANCH  12  14
ENDBRANCH  11  12
ENDBRANCH  10  11
TORSDOF 3
ENDMDL
MODEL      146
REMARK 921   NORMALIZED FREE ENERGY PREDICTED BY IDOCK:   -4.06 KCAL/MOL
REMARK 922        TOTAL FREE ENERGY PREDICTED BY IDOCK:   -5.71 KCAL/MOL
REMARK 923 INTER-LIGAND FREE ENERGY PREDICTED BY IDOCK:   -5.93 KCAL/MOL
REMARK 924 INTRA-LIGAND FREE ENERGY PREDICTED BY IDOCK:    0.21 KCAL/MOL
REMARK 927      BINDING AFFINITY PREDICTED BY RF-SCORE:    0.00 PKD
ROOT
HETATM    1  C   UNL     1      -7.727  14.165  67.217  1.00  0.00    -0.132 C  
HETATM    2  C   UNL     1      -9.252  14.155  67.097  1.00  0.00    -0.237 C  
HETATM    3  C   UNL     1      -9.991  14.406  68.448  1.00  0.00    -0.241 C  
HETATM    4  C   UNL     1      -9.678  15.072  65.948  1.00  0.00    -0.376 C  
HETATM    5  C   UNL     1     -11.520  14.259  68.245  1.00  0.00    -0.334 C  
HETATM    6  C   UNL     1     -12.297  14.311  69.556  1.00  0.00    -0.272 C  
HETATM    7  C   UNL     1     -11.978  15.577  70.356  1.00  0.00    -0.398 C  
HETATM    8  C   UNL     1     -12.712  15.556  71.695  1.00  0.00    -0.502 C  
HETATM    9  C   UNL     1     -10.464  15.730  70.543  1.00  0.00    -0.071 C  
HETATM   10  C   UNL     1      -9.718  15.745  69.188  1.00  0.00    -0.250 C  
ENDROOT
BRANCH  10  11
HETATM   11  O   UNL     1      -8.310  15.960  69.443  1.00  0.00    -0.244 OA 
BRANCH  11  12
HETATM   12  C   UNL     1      -7.751  16.983  68.736  1.00  0.00    -0.249 C  
HETATM   13  O   UNL     1      -6.550  17.233  68.733  1.00  0.00    -0.177 OA 
BRANCH  12  14
HETATM   14  C   UNL     1      -8.702  17.831  67.954  1.00  0.00    -0.251 A  
HETATM   15  C   UNL     1      -9.778  18.377  68.687  1.00  0.00    -0.387 A  
HETATM   16  C   UNL     1     -10.750  19.175  68.079  1.00  0.00    -0.318 A  
HETATM   17  C   UNL     1     -10.669  19.443  66.719  1.00  0.00    -0.550 A  
HETATM   18  C   UNL     1      -9.613  18.921  65.974  1.00  0.00    -0.140 A  
HETATM   19  C   UNL     1      -8.629  18.124  66.587  1.00  0.00    -0.267 A  
HETATM   20  O   UNL     1      -7.608  17.651  65.812  1.00  0.00    -0.530 OA 
HETATM   21  H   UNL     1      -7.558  17.850  64.884  1.00  0.00     0.000 HD 
ENDBRANCH  12  14
ENDBRANCH  11  12
ENDBRANCH  10  11
TORSDOF 3
ENDMDL
MODEL      147
REMARK 921   NORMALIZED FREE ENERGY PREDICTED BY IDOCK:   -4.06 KCAL/MOL
REMARK 922        TOTAL FREE ENERGY PREDICTED BY IDOCK:   -5.71 KCAL/MOL
REMARK 923 INTER-LIGAND FREE ENERGY PREDICTED BY IDOCK:   -5.00 KCAL/MOL
REMARK 924 INTRA-LIGAND FREE ENERGY PREDICTED BY IDOCK:   -0.72 KCAL/MOL
REMARK 927      BINDING AFFINITY PREDICTED BY RF-SCORE:    0.00 PKD
ROOT
HETATM    1  C   UNL     1      -8.635   5.354  69.791  1.00  0.00    -0.100 C  
HETATM    2  C   UNL     1      -7.812   5.682  68.545  1.00  0.00    -0.096 C  
HETATM    3  C   UNL     1      -8.488   6.724  67.601  1.00  0.00    -0.122 C  
HETATM    4  C   UNL     1      -6.377   6.021  68.957  1.00  0.00    -0.041 C  
HETATM    5  C   UNL     1      -7.638   6.900  66.317  1.00  0.00    -0.088 C  
HETATM    6  C   UNL     1      -8.326   7.764  65.267  1.00  0.00    -0.128 C  
HETATM    7  C   UNL     1      -8.735   9.127  65.833  1.00  0.00    -0.184 C  
HETATM    8  C   UNL     1      -9.491   9.933  64.777  1.00  0.00    -0.356 C  
HETATM    9  C   UNL     1      -9.564   8.953  67.112  1.00  0.00    -0.225 C  
HETATM   10  C   UNL     1      -8.804   8.131  68.179  1.00  0.00    -0.132 C  
ENDROOT
BRANCH  10  11
HETATM   11  O   UNL     1      -9.617   8.070  69.375  1.00  0.00    -0.160 OA 
BRANCH  11  12
HETATM   12  C   UNL     1      -9.693   9.237  70.075  1.00  0.00    -0.207 C  
HETATM   13  O   UNL     1      -8.765  10.034  70.173  1.00  0.00    -0.159 OA 
BRANCH  12  14
HETATM   14  C   UNL     1     -10.995   9.503  70.761  1.00  0.00    -0.389 A  
HETATM   15  C   UNL     1     -11.528   8.423  71.498  1.00  0.00    -0.335 A  
HETATM   16  C   UNL     1     -12.746   8.528  72.175  1.00  0.00    -0.423 A  
HETATM   17  C   UNL     1     -13.460   9.717  72.127  1.00  0.00    -0.491 A  
HETATM   18  C   UNL     1     -12.953  10.800  71.411  1.00  0.00    -0.535 A  
HETATM   19  C   UNL     1     -11.722  10.699  70.736  1.00  0.00    -0.335 A  
HETATM   20  O   UNL     1     -11.265  11.796  70.063  1.00  0.00    -0.489 OA 
HETATM   21  H   UNL     1     -11.758  12.607  70.046  1.00  0.00     0.000 HD 
ENDBRANCH  12  14
ENDBRANCH  11  12
ENDBRANCH  10  11
TORSDOF 3
ENDMDL
MODEL      148
REMARK 921   NORMALIZED FREE ENERGY PREDICTED BY IDOCK:   -4.06 KCAL/MOL
REMARK 922        TOTAL FREE ENERGY PREDICTED BY IDOCK:   -5.71 KCAL/MOL
REMARK 923 INTER-LIGAND FREE ENERGY PREDICTED BY IDOCK:   -5.09 KCAL/MOL
REMARK 924 INTRA-LIGAND FREE ENERGY PREDICTED BY IDOCK:   -0.62 KCAL/MOL
REMARK 927      BINDING AFFINITY PREDICTED BY RF-SCORE:    0.00 PKD
ROOT
HETATM    1  C   UNL     1     -10.730  11.100  64.617  1.00  0.00    -0.350 C  
HETATM    2  C   UNL     1      -9.550  10.488  65.373  1.00  0.00    -0.291 C  
HETATM    3  C   UNL     1      -8.735  11.521  66.211  1.00  0.00    -0.159 C  
HETATM    4  C   UNL     1     -10.025   9.258  66.150  1.00  0.00    -0.348 C  
HETATM    5  C   UNL     1      -7.499  10.830  66.839  1.00  0.00    -0.120 C  
HETATM    6  C   UNL     1      -6.556  11.814  67.522  1.00  0.00    -0.097 C  
HETATM    7  C   UNL     1      -7.284  12.668  68.564  1.00  0.00    -0.113 C  
HETATM    8  C   UNL     1      -6.327  13.694  69.169  1.00  0.00    -0.103 C  
HETATM    9  C   UNL     1      -8.516  13.340  67.945  1.00  0.00    -0.177 C  
HETATM   10  C   UNL     1      -9.483  12.303  67.326  1.00  0.00    -0.186 C  
ENDROOT
BRANCH  10  11
HETATM   11  O   UNL     1     -10.647  13.003  66.827  1.00  0.00    -0.259 OA 
BRANCH  11  12
HETATM   12  C   UNL     1     -11.225  13.857  67.718  1.00  0.00    -0.293 C  
HETATM   13  O   UNL     1     -11.919  13.490  68.661  1.00  0.00    -0.345 OA 
BRANCH  12  14
HETATM   14  C   UNL     1     -10.987  15.313  67.477  1.00  0.00    -0.315 A  
HETATM   15  C   UNL     1     -10.659  15.666  66.150  1.00  0.00    -0.325 A  
HETATM   16  C   UNL     1     -10.394  16.989  65.786  1.00  0.00    -0.275 A  
HETATM   17  C   UNL     1     -10.450  17.991  66.746  1.00  0.00    -0.335 A  
HETATM   18  C   UNL     1     -10.777  17.670  68.062  1.00  0.00    -0.333 A  
HETATM   19  C   UNL     1     -11.051  16.338  68.428  1.00  0.00    -0.362 A  
HETATM   20  O   UNL     1     -11.382  16.083  69.728  1.00  0.00    -0.306 OA 
HETATM   21  H   UNL     1     -11.426  16.779  70.373  1.00  0.00     0.000 HD 
ENDBRANCH  12  14
ENDBRANCH  11  12
ENDBRANCH  10  11
TORSDOF 3
ENDMDL
MODEL      149
REMARK 921   NORMALIZED FREE ENERGY PREDICTED BY IDOCK:   -4.05 KCAL/MOL
REMARK 922        TOTAL FREE ENERGY PREDICTED BY IDOCK:   -5.70 KCAL/MOL
REMARK 923 INTER-LIGAND FREE ENERGY PREDICTED BY IDOCK:   -4.91 KCAL/MOL
REMARK 924 INTRA-LIGAND FREE ENERGY PREDICTED BY IDOCK:   -0.78 KCAL/MOL
REMARK 927      BINDING AFFINITY PREDICTED BY RF-SCORE:    0.00 PKD
ROOT
HETATM    1  C   UNL     1      -9.971   5.873  69.619  1.00  0.00    -0.234 C  
HETATM    2  C   UNL     1      -9.789   7.370  69.362  1.00  0.00    -0.168 C  
HETATM    3  C   UNL     1     -10.909   8.257  69.988  1.00  0.00    -0.232 C  
HETATM    4  C   UNL     1      -8.361   7.780  69.730  1.00  0.00    -0.131 C  
HETATM    5  C   UNL     1     -10.702   9.736  69.575  1.00  0.00    -0.255 C  
HETATM    6  C   UNL     1     -11.858  10.635  69.997  1.00  0.00    -0.403 C  
HETATM    7  C   UNL     1     -12.140  10.530  71.499  1.00  0.00    -0.316 C  
HETATM    8  C   UNL     1     -13.353  11.382  71.870  1.00  0.00    -0.409 C  
HETATM    9  C   UNL     1     -12.330   9.065  71.910  1.00  0.00    -0.455 C  
HETATM   10  C   UNL     1     -11.106   8.199  71.528  1.00  0.00    -0.252 C  
ENDROOT
BRANCH  10  11
HETATM   11  O   UNL     1     -11.331   6.852  72.008  1.00  0.00    -0.248 OA 
BRANCH  11  12
HETATM   12  C   UNL     1     -10.621   6.517  73.123  1.00  0.00    -0.265 C  
HETATM   13  O   UNL     1     -10.260   7.328  73.970  1.00  0.00    -0.311 OA 
BRANCH  12  14
HETATM   14  C   UNL     1     -10.270   5.071  73.263  1.00  0.00    -0.209 A  
HETATM   15  C   UNL     1     -11.364   4.181  73.331  1.00  0.00    -0.294 A  
HETATM   16  C   UNL     1     -11.181   2.803  73.478  1.00  0.00    -0.300 A  
HETATM   17  C   UNL     1      -9.897   2.285  73.563  1.00  0.00    -0.146 A  
HETATM   18  C   UNL     1      -8.799   3.141  73.493  1.00  0.00    -0.080 A  
HETATM   19  C   UNL     1      -8.982   4.528  73.336  1.00  0.00    -0.104 A  
HETATM   20  O   UNL     1      -7.871   5.319  73.258  1.00  0.00    -0.102 OA 
HETATM   21  H   UNL     1      -6.997   4.950  73.307  1.00  0.00     0.000 HD 
ENDBRANCH  12  14
ENDBRANCH  11  12
ENDBRANCH  10  11
TORSDOF 3
ENDMDL
MODEL      150
REMARK 921   NORMALIZED FREE ENERGY PREDICTED BY IDOCK:   -3.98 KCAL/MOL
REMARK 922        TOTAL FREE ENERGY PREDICTED BY IDOCK:   -5.62 KCAL/MOL
REMARK 923 INTER-LIGAND FREE ENERGY PREDICTED BY IDOCK:   -4.73 KCAL/MOL
REMARK 924 INTRA-LIGAND FREE ENERGY PREDICTED BY IDOCK:   -0.89 KCAL/MOL
REMARK 927      BINDING AFFINITY PREDICTED BY RF-SCORE:    0.00 PKD
ROOT
HETATM    1  C   UNL     1     -12.531   7.724  71.791  1.00  0.00    -0.348 C  
HETATM    2  C   UNL     1     -11.349   6.986  72.421  1.00  0.00    -0.307 C  
HETATM    3  C   UNL     1     -10.901   5.721  71.626  1.00  0.00    -0.316 C  
HETATM    4  C   UNL     1     -10.231   7.985  72.729  1.00  0.00    -0.389 C  
HETATM    5  C   UNL     1      -9.782   4.981  72.402  1.00  0.00    -0.190 C  
HETATM    6  C   UNL     1      -9.420   3.638  71.778  1.00  0.00    -0.210 C  
HETATM    7  C   UNL     1      -9.045   3.782  70.300  1.00  0.00    -0.193 C  
HETATM    8  C   UNL     1      -8.766   2.409  69.690  1.00  0.00    -0.125 C  
HETATM    9  C   UNL     1     -10.146   4.527  69.535  1.00  0.00    -0.139 C  
HETATM   10  C   UNL     1     -10.435   5.914  70.156  1.00  0.00    -0.262 C  
ENDROOT
BRANCH  10  11
HETATM   11  O   UNL     1     -11.429   6.581  69.343  1.00  0.00    -0.355 OA 
BRANCH  11  12
HETATM   12  C   UNL     1     -10.967   7.056  68.151  1.00  0.00    -0.096 C  
HETATM   13  O   UNL     1     -11.160   6.498  67.075  1.00  0.00    -0.399 OA 
BRANCH  12  14
HETATM   14  C   UNL     1     -10.169   8.318  68.216  1.00  0.00    -0.246 A  
HETATM   15  C   UNL     1      -8.850   8.233  67.719  1.00  0.00    -0.137 A  
HETATM   16  C   UNL     1      -7.988   9.333  67.735  1.00  0.00    -0.100 A  
HETATM   17  C   UNL     1      -8.427  10.545  68.250  1.00  0.00    -0.123 A  
HETATM   18  C   UNL     1      -9.727  10.657  68.741  1.00  0.00    -0.193 A  
HETATM   19  C   UNL     1     -10.599   9.552  68.719  1.00  0.00    -0.214 A  
HETATM   20  O   UNL     1     -11.866   9.722  69.199  1.00  0.00    -0.392 OA 
HETATM   21  H   UNL     1     -12.158  10.560  69.541  1.00  0.00     0.000 HD 
ENDBRANCH  12  14
ENDBRANCH  11  12
ENDBRANCH  10  11
TORSDOF 3
ENDMDL
MODEL      151
REMARK 921   NORMALIZED FREE ENERGY PREDICTED BY IDOCK:   -3.98 KCAL/MOL
REMARK 922        TOTAL FREE ENERGY PREDICTED BY IDOCK:   -5.62 KCAL/MOL
REMARK 923 INTER-LIGAND FREE ENERGY PREDICTED BY IDOCK:   -5.50 KCAL/MOL
REMARK 924 INTRA-LIGAND FREE ENERGY PREDICTED BY IDOCK:   -0.12 KCAL/MOL
REMARK 927      BINDING AFFINITY PREDICTED BY RF-SCORE:    0.00 PKD
ROOT
HETATM    1  C   UNL     1     -12.473  10.045  71.738  1.00  0.00    -0.475 C  
HETATM    2  C   UNL     1     -11.962   8.652  71.365  1.00  0.00    -0.355 C  
HETATM    3  C   UNL     1     -11.391   8.558  69.917  1.00  0.00     0.051 C  
HETATM    4  C   UNL     1     -11.025   8.143  72.463  1.00  0.00    -0.439 C  
HETATM    5  C   UNL     1     -11.012   7.090  69.595  1.00  0.00    -0.268 C  
HETATM    6  C   UNL     1     -10.617   6.888  68.137  1.00  0.00    -0.262 C  
HETATM    7  C   UNL     1      -9.493   7.840  67.716  1.00  0.00    -0.163 C  
HETATM    8  C   UNL     1      -9.179   7.663  66.231  1.00  0.00    -0.204 C  
HETATM    9  C   UNL     1      -9.863   9.290  68.048  1.00  0.00    -0.191 C  
HETATM   10  C   UNL     1     -10.187   9.469  69.550  1.00  0.00    -0.213 C  
ENDROOT
BRANCH  10  11
HETATM   11  O   UNL     1     -10.457  10.870  69.796  1.00  0.00    -0.160 OA 
BRANCH  11  12
HETATM   12  C   UNL     1     -11.207  11.484  68.837  1.00  0.00    -0.247 C  
HETATM   13  O   UNL     1     -12.183  10.970  68.301  1.00  0.00    -0.582 OA 
BRANCH  12  14
HETATM   14  C   UNL     1     -10.758  12.853  68.436  1.00  0.00    -0.273 A  
HETATM   15  C   UNL     1     -11.790  13.772  68.143  1.00  0.00    -0.411 A  
HETATM   16  C   UNL     1     -11.513  15.081  67.740  1.00  0.00    -0.347 A  
HETATM   17  C   UNL     1     -10.196  15.500  67.618  1.00  0.00    -0.255 A  
HETATM   18  C   UNL     1      -9.159  14.614  67.906  1.00  0.00    -0.189 A  
HETATM   19  C   UNL     1      -9.436  13.298  68.321  1.00  0.00    -0.209 A  
HETATM   20  O   UNL     1      -8.382  12.477  68.605  1.00  0.00    -0.311 OA 
HETATM   21  H   UNL     1      -7.484  12.779  68.527  1.00  0.00     0.000 HD 
ENDBRANCH  12  14
ENDBRANCH  11  12
ENDBRANCH  10  11
TORSDOF 3
ENDMDL
MODEL      152
REMARK 921   NORMALIZED FREE ENERGY PREDICTED BY IDOCK:   -3.97 KCAL/MOL
REMARK 922        TOTAL FREE ENERGY PREDICTED BY IDOCK:   -5.61 KCAL/MOL
REMARK 923 INTER-LIGAND FREE ENERGY PREDICTED BY IDOCK:   -5.27 KCAL/MOL
REMARK 924 INTRA-LIGAND FREE ENERGY PREDICTED BY IDOCK:   -0.34 KCAL/MOL
REMARK 927      BINDING AFFINITY PREDICTED BY RF-SCORE:    0.00 PKD
ROOT
HETATM    1  C   UNL     1      -9.953   4.838  68.497  1.00  0.00    -0.160 C  
HETATM    2  C   UNL     1      -9.038   4.423  69.649  1.00  0.00    -0.174 C  
HETATM    3  C   UNL     1      -8.810   5.545  70.708  1.00  0.00    -0.143 C  
HETATM    4  C   UNL     1      -9.513   3.084  70.220  1.00  0.00    -0.210 C  
HETATM    5  C   UNL     1      -7.781   5.070  71.765  1.00  0.00    -0.107 C  
HETATM    6  C   UNL     1      -7.369   6.178  72.728  1.00  0.00    -0.089 C  
HETATM    7  C   UNL     1      -8.583   6.818  73.408  1.00  0.00    -0.137 C  
HETATM    8  C   UNL     1      -8.139   7.974  74.304  1.00  0.00    -0.312 C  
HETATM    9  C   UNL     1      -9.608   7.275  72.362  1.00  0.00    -0.180 C  
HETATM   10  C   UNL     1     -10.053   6.108  71.450  1.00  0.00    -0.194 C  
ENDROOT
BRANCH  10  11
HETATM   11  O   UNL     1     -11.066   6.599  70.541  1.00  0.00    -0.263 OA 
BRANCH  11  12
HETATM   12  C   UNL     1     -10.878   7.881  70.115  1.00  0.00    -0.243 C  
HETATM   13  O   UNL     1     -10.027   8.208  69.294  1.00  0.00    -0.179 OA 
BRANCH  12  14
HETATM   14  C   UNL     1     -11.772   8.910  70.729  1.00  0.00    -0.269 A  
HETATM   15  C   UNL     1     -11.470  10.251  70.407  1.00  0.00    -0.415 A  
HETATM   16  C   UNL     1     -12.214  11.315  70.924  1.00  0.00    -0.460 A  
HETATM   17  C   UNL     1     -13.277  11.060  71.780  1.00  0.00    -0.505 A  
HETATM   18  C   UNL     1     -13.599   9.745  72.109  1.00  0.00    -0.432 A  
HETATM   19  C   UNL     1     -12.856   8.672  71.582  1.00  0.00    -0.345 A  
HETATM   20  O   UNL     1     -13.226   7.403  71.926  1.00  0.00    -0.451 OA 
HETATM   21  H   UNL     1     -13.962   7.241  72.504  1.00  0.00     0.000 HD 
ENDBRANCH  12  14
ENDBRANCH  11  12
ENDBRANCH  10  11
TORSDOF 3
ENDMDL
MODEL      153
REMARK 921   NORMALIZED FREE ENERGY PREDICTED BY IDOCK:   -3.97 KCAL/MOL
REMARK 922        TOTAL FREE ENERGY PREDICTED BY IDOCK:   -5.61 KCAL/MOL
REMARK 923 INTER-LIGAND FREE ENERGY PREDICTED BY IDOCK:   -4.87 KCAL/MOL
REMARK 924 INTRA-LIGAND FREE ENERGY PREDICTED BY IDOCK:   -0.74 KCAL/MOL
REMARK 927      BINDING AFFINITY PREDICTED BY RF-SCORE:    0.00 PKD
ROOT
HETATM    1  C   UNL     1      -8.124   7.174  73.213  1.00  0.00    -0.119 C  
HETATM    2  C   UNL     1      -7.192   6.341  72.332  1.00  0.00    -0.084 C  
HETATM    3  C   UNL     1      -7.938   5.351  71.385  1.00  0.00    -0.115 C  
HETATM    4  C   UNL     1      -6.188   7.265  71.637  1.00  0.00    -0.037 C  
HETATM    5  C   UNL     1      -6.910   4.475  70.625  1.00  0.00    -0.037 C  
HETATM    6  C   UNL     1      -7.566   3.361  69.818  1.00  0.00    -0.044 C  
HETATM    7  C   UNL     1      -8.627   3.905  68.856  1.00  0.00    -0.115 C  
HETATM    8  C   UNL     1      -9.317   2.755  68.124  1.00  0.00    -0.258 C  
HETATM    9  C   UNL     1      -9.635   4.784  69.607  1.00  0.00    -0.253 C  
HETATM   10  C   UNL     1      -8.937   5.944  70.354  1.00  0.00    -0.147 C  
ENDROOT
BRANCH  10  11
HETATM   11  O   UNL     1      -9.955   6.764  70.977  1.00  0.00    -0.182 OA 
BRANCH  11  12
HETATM   12  C   UNL     1     -10.100   8.006  70.434  1.00  0.00    -0.194 C  
HETATM   13  O   UNL     1      -9.355   8.465  69.574  1.00  0.00    -0.157 OA 
BRANCH  12  14
HETATM   14  C   UNL     1     -11.235   8.822  70.964  1.00  0.00    -0.329 A  
HETATM   15  C   UNL     1     -11.318  10.143  70.474  1.00  0.00    -0.416 A  
HETATM   16  C   UNL     1     -12.320  11.021  70.898  1.00  0.00    -0.503 A  
HETATM   17  C   UNL     1     -13.260  10.596  71.826  1.00  0.00    -0.526 A  
HETATM   18  C   UNL     1     -13.203   9.295  72.321  1.00  0.00    -0.535 A  
HETATM   19  C   UNL     1     -12.200   8.407  71.889  1.00  0.00    -0.343 A  
HETATM   20  O   UNL     1     -12.201   7.138  72.396  1.00  0.00    -0.481 OA 
HETATM   21  H   UNL     1     -12.857   6.857  73.023  1.00  0.00     0.000 HD 
ENDBRANCH  12  14
ENDBRANCH  11  12
ENDBRANCH  10  11
TORSDOF 3
ENDMDL
MODEL      154
REMARK 921   NORMALIZED FREE ENERGY PREDICTED BY IDOCK:   -3.97 KCAL/MOL
REMARK 922        TOTAL FREE ENERGY PREDICTED BY IDOCK:   -5.61 KCAL/MOL
REMARK 923 INTER-LIGAND FREE ENERGY PREDICTED BY IDOCK:   -4.73 KCAL/MOL
REMARK 924 INTRA-LIGAND FREE ENERGY PREDICTED BY IDOCK:   -0.88 KCAL/MOL
REMARK 927      BINDING AFFINITY PREDICTED BY RF-SCORE:    0.00 PKD
ROOT
HETATM    1  C   UNL     1     -11.099   6.444  68.168  1.00  0.00    -0.358 C  
HETATM    2  C   UNL     1      -9.577   6.306  68.095  1.00  0.00    -0.115 C  
HETATM    3  C   UNL     1      -8.869   7.511  67.402  1.00  0.00    -0.127 C  
HETATM    4  C   UNL     1      -9.032   5.946  69.479  1.00  0.00    -0.131 C  
HETATM    5  C   UNL     1      -7.352   7.225  67.272  1.00  0.00    -0.098 C  
HETATM    6  C   UNL     1      -6.622   8.275  66.442  1.00  0.00    -0.055 C  
HETATM    7  C   UNL     1      -6.859   9.689  66.981  1.00  0.00    -0.084 C  
HETATM    8  C   UNL     1      -6.178  10.719  66.080  1.00  0.00    -0.134 C  
HETATM    9  C   UNL     1      -8.360   9.966  67.124  1.00  0.00    -0.121 C  
HETATM   10  C   UNL     1      -9.052   8.921  68.030  1.00  0.00    -0.139 C  
ENDROOT
BRANCH  10  11
HETATM   11  O   UNL     1     -10.444   9.288  68.171  1.00  0.00    -0.207 OA 
BRANCH  11  12
HETATM   12  C   UNL     1     -10.727  10.046  69.269  1.00  0.00    -0.224 C  
HETATM   13  O   UNL     1     -10.817  11.269  69.247  1.00  0.00    -0.225 OA 
BRANCH  12  14
HETATM   14  C   UNL     1     -10.907   9.297  70.551  1.00  0.00    -0.318 A  
HETATM   15  C   UNL     1      -9.717   8.875  71.183  1.00  0.00    -0.344 A  
HETATM   16  C   UNL     1      -9.739   8.151  72.379  1.00  0.00    -0.338 A  
HETATM   17  C   UNL     1     -10.955   7.830  72.967  1.00  0.00    -0.442 A  
HETATM   18  C   UNL     1     -12.144   8.240  72.365  1.00  0.00    -0.430 A  
HETATM   19  C   UNL     1     -12.123   8.976  71.166  1.00  0.00    -0.287 A  
HETATM   20  O   UNL     1     -13.317   9.365  70.628  1.00  0.00    -0.549 OA 
HETATM   21  H   UNL     1     -14.142   9.148  71.046  1.00  0.00     0.000 HD 
ENDBRANCH  12  14
ENDBRANCH  11  12
ENDBRANCH  10  11
TORSDOF 3
ENDMDL
MODEL      155
REMARK 921   NORMALIZED FREE ENERGY PREDICTED BY IDOCK:   -3.96 KCAL/MOL
REMARK 922        TOTAL FREE ENERGY PREDICTED BY IDOCK:   -5.60 KCAL/MOL
REMARK 923 INTER-LIGAND FREE ENERGY PREDICTED BY IDOCK:   -4.92 KCAL/MOL
REMARK 924 INTRA-LIGAND FREE ENERGY PREDICTED BY IDOCK:   -0.68 KCAL/MOL
REMARK 927      BINDING AFFINITY PREDICTED BY RF-SCORE:    0.00 PKD
ROOT
HETATM    1  C   UNL     1      -8.897  15.051  69.154  1.00  0.00    -0.184 C  
HETATM    2  C   UNL     1     -10.289  15.150  68.529  1.00  0.00    -0.230 C  
HETATM    3  C   UNL     1     -10.420  14.406  67.164  1.00  0.00    -0.263 C  
HETATM    4  C   UNL     1     -11.344  14.774  69.572  1.00  0.00    -0.312 C  
HETATM    5  C   UNL     1     -11.823  14.663  66.558  1.00  0.00    -0.317 C  
HETATM    6  C   UNL     1     -11.963  14.119  65.140  1.00  0.00    -0.390 C  
HETATM    7  C   UNL     1     -11.607  12.631  65.066  1.00  0.00    -0.384 C  
HETATM    8  C   UNL     1     -11.682  12.142  63.620  1.00  0.00    -0.588 C  
HETATM    9  C   UNL     1     -10.225  12.375  65.679  1.00  0.00    -0.285 C  
HETATM   10  C   UNL     1     -10.146  12.877  67.140  1.00  0.00    -0.243 C  
ENDROOT
BRANCH  10  11
HETATM   11  O   UNL     1      -8.842  12.539  67.670  1.00  0.00    -0.161 OA 
BRANCH  11  12
HETATM   12  C   UNL     1      -8.480  11.235  67.508  1.00  0.00    -0.131 C  
HETATM   13  O   UNL     1      -7.547  10.869  66.800  1.00  0.00    -0.121 OA 
BRANCH  12  14
HETATM   14  C   UNL     1      -9.312  10.231  68.241  1.00  0.00    -0.140 A  
HETATM   15  C   UNL     1      -9.702  10.599  69.547  1.00  0.00    -0.085 A  
HETATM   16  C   UNL     1     -10.467   9.750  70.351  1.00  0.00    -0.358 A  
HETATM   17  C   UNL     1     -10.858   8.509  69.865  1.00  0.00    -0.205 A  
HETATM   18  C   UNL     1     -10.490   8.125  68.577  1.00  0.00    -0.199 A  
HETATM   19  C   UNL     1      -9.727   8.983  67.763  1.00  0.00    -0.156 A  
HETATM   20  O   UNL     1      -9.408   8.561  66.504  1.00  0.00    -0.172 OA 
HETATM   21  H   UNL     1      -9.690   7.714  66.180  1.00  0.00     0.000 HD 
ENDBRANCH  12  14
ENDBRANCH  11  12
ENDBRANCH  10  11
TORSDOF 3
ENDMDL
MODEL      156
REMARK 921   NORMALIZED FREE ENERGY PREDICTED BY IDOCK:   -3.93 KCAL/MOL
REMARK 922        TOTAL FREE ENERGY PREDICTED BY IDOCK:   -5.56 KCAL/MOL
REMARK 923 INTER-LIGAND FREE ENERGY PREDICTED BY IDOCK:   -4.75 KCAL/MOL
REMARK 924 INTRA-LIGAND FREE ENERGY PREDICTED BY IDOCK:   -0.81 KCAL/MOL
REMARK 927      BINDING AFFINITY PREDICTED BY RF-SCORE:    0.00 PKD
ROOT
HETATM    1  C   UNL     1     -10.282   7.509  67.950  1.00  0.00    -0.245 C  
HETATM    2  C   UNL     1      -8.824   7.078  67.785  1.00  0.00    -0.123 C  
HETATM    3  C   UNL     1      -8.276   7.256  66.335  1.00  0.00    -0.120 C  
HETATM    4  C   UNL     1      -7.974   7.726  68.881  1.00  0.00    -0.124 C  
HETATM    5  C   UNL     1      -6.839   6.684  66.243  1.00  0.00    -0.061 C  
HETATM    6  C   UNL     1      -6.305   6.656  64.816  1.00  0.00    -0.038 C  
HETATM    7  C   UNL     1      -6.379   8.036  64.155  1.00  0.00    -0.062 C  
HETATM    8  C   UNL     1      -5.911   7.953  62.703  1.00  0.00    -0.069 C  
HETATM    9  C   UNL     1      -7.798   8.608  64.260  1.00  0.00    -0.140 C  
HETATM   10  C   UNL     1      -8.277   8.686  65.728  1.00  0.00    -0.126 C  
ENDROOT
BRANCH  10  11
HETATM   11  O   UNL     1      -9.589   9.297  65.750  1.00  0.00    -0.254 OA 
BRANCH  11  12
HETATM   12  C   UNL     1      -9.608  10.595  66.166  1.00  0.00    -0.188 C  
HETATM   13  O   UNL     1      -8.923  11.025  67.088  1.00  0.00    -0.141 OA 
BRANCH  12  14
HETATM   14  C   UNL     1     -10.550  11.500  65.437  1.00  0.00    -0.336 A  
HETATM   15  C   UNL     1     -11.175  12.491  66.223  1.00  0.00    -0.359 A  
HETATM   16  C   UNL     1     -12.091  13.394  65.674  1.00  0.00    -0.476 A  
HETATM   17  C   UNL     1     -12.402  13.322  64.324  1.00  0.00    -0.406 A  
HETATM   18  C   UNL     1     -11.794  12.356  63.524  1.00  0.00    -0.605 A  
HETATM   19  C   UNL     1     -10.866  11.451  64.074  1.00  0.00    -0.383 A  
HETATM   20  O   UNL     1     -10.289  10.535  63.241  1.00  0.00    -0.491 OA 
HETATM   21  H   UNL     1     -10.503  10.503  62.317  1.00  0.00     0.000 HD 
ENDBRANCH  12  14
ENDBRANCH  11  12
ENDBRANCH  10  11
TORSDOF 3
ENDMDL
MODEL      157
REMARK 921   NORMALIZED FREE ENERGY PREDICTED BY IDOCK:   -3.93 KCAL/MOL
REMARK 922        TOTAL FREE ENERGY PREDICTED BY IDOCK:   -5.56 KCAL/MOL
REMARK 923 INTER-LIGAND FREE ENERGY PREDICTED BY IDOCK:   -4.72 KCAL/MOL
REMARK 924 INTRA-LIGAND FREE ENERGY PREDICTED BY IDOCK:   -0.83 KCAL/MOL
REMARK 927      BINDING AFFINITY PREDICTED BY RF-SCORE:    0.00 PKD
ROOT
HETATM    1  C   UNL     1     -10.111   5.118  69.064  1.00  0.00    -0.257 C  
HETATM    2  C   UNL     1      -9.055   5.688  68.117  1.00  0.00    -0.111 C  
HETATM    3  C   UNL     1      -9.523   6.959  67.344  1.00  0.00    -0.151 C  
HETATM    4  C   UNL     1      -7.728   5.840  68.866  1.00  0.00    -0.090 C  
HETATM    5  C   UNL     1      -8.433   7.388  66.328  1.00  0.00    -0.138 C  
HETATM    6  C   UNL     1      -8.893   8.512  65.408  1.00  0.00    -0.173 C  
HETATM    7  C   UNL     1      -9.399   9.722  66.200  1.00  0.00    -0.243 C  
HETATM    8  C   UNL     1      -9.924  10.795  65.247  1.00  0.00    -0.342 C  
HETATM    9  C   UNL     1     -10.466   9.295  67.214  1.00  0.00    -0.334 C  
HETATM   10  C   UNL     1      -9.938   8.204  68.175  1.00  0.00    -0.186 C  
ENDROOT
BRANCH  10  11
HETATM   11  O   UNL     1     -10.974   7.904  69.141  1.00  0.00    -0.097 OA 
BRANCH  11  12
HETATM   12  C   UNL     1     -10.985   8.715  70.237  1.00  0.00    -0.236 C  
HETATM   13  O   UNL     1     -11.410   9.866  70.229  1.00  0.00    -0.257 OA 
BRANCH  12  14
HETATM   14  C   UNL     1     -10.415   8.127  71.489  1.00  0.00    -0.276 A  
HETATM   15  C   UNL     1      -9.013   7.961  71.502  1.00  0.00    -0.167 A  
HETATM   16  C   UNL     1      -8.351   7.408  72.601  1.00  0.00    -0.131 A  
HETATM   17  C   UNL     1      -9.079   7.006  73.713  1.00  0.00    -0.217 A  
HETATM   18  C   UNL     1     -10.463   7.165  73.727  1.00  0.00    -0.371 A  
HETATM   19  C   UNL     1     -11.131   7.729  72.624  1.00  0.00    -0.376 A  
HETATM   20  O   UNL     1     -12.487   7.875  72.698  1.00  0.00    -0.569 OA 
HETATM   21  H   UNL     1     -12.973   7.605  73.468  1.00  0.00     0.000 HD 
ENDBRANCH  12  14
ENDBRANCH  11  12
ENDBRANCH  10  11
TORSDOF 3
ENDMDL
MODEL      158
REMARK 921   NORMALIZED FREE ENERGY PREDICTED BY IDOCK:   -3.88 KCAL/MOL
REMARK 922        TOTAL FREE ENERGY PREDICTED BY IDOCK:   -5.50 KCAL/MOL
REMARK 923 INTER-LIGAND FREE ENERGY PREDICTED BY IDOCK:   -4.82 KCAL/MOL
REMARK 924 INTRA-LIGAND FREE ENERGY PREDICTED BY IDOCK:   -0.68 KCAL/MOL
REMARK 927      BINDING AFFINITY PREDICTED BY RF-SCORE:    0.00 PKD
ROOT
HETATM    1  C   UNL     1      -9.156   8.231  66.014  1.00  0.00    -0.228 C  
HETATM    2  C   UNL     1      -9.398   7.248  67.159  1.00  0.00    -0.170 C  
HETATM    3  C   UNL     1      -8.860   7.742  68.538  1.00  0.00    -0.130 C  
HETATM    4  C   UNL     1     -10.867   6.815  67.157  1.00  0.00    -0.462 C  
HETATM    5  C   UNL     1      -9.046   6.633  69.603  1.00  0.00    -0.142 C  
HETATM    6  C   UNL     1      -8.380   6.972  70.932  1.00  0.00    -0.129 C  
HETATM    7  C   UNL     1      -8.851   8.325  71.474  1.00  0.00    -0.216 C  
HETATM    8  C   UNL     1      -8.105   8.667  72.762  1.00  0.00    -0.007 C  
HETATM    9  C   UNL     1      -8.681   9.420  70.414  1.00  0.00    -0.278 C  
HETATM   10  C   UNL     1      -9.430   9.071  69.106  1.00  0.00    -0.153 C  
ENDROOT
BRANCH  10  11
HETATM   11  O   UNL     1      -9.280  10.177  68.184  1.00  0.00    -0.134 OA 
BRANCH  11  12
HETATM   12  C   UNL     1     -10.331  11.046  68.159  1.00  0.00    -0.182 C  
HETATM   13  O   UNL     1     -11.053  11.271  69.125  1.00  0.00    -0.220 OA 
BRANCH  12  14
HETATM   14  C   UNL     1     -10.587  11.722  66.850  1.00  0.00    -0.270 A  
HETATM   15  C   UNL     1     -11.889  12.240  66.675  1.00  0.00    -0.362 A  
HETATM   16  C   UNL     1     -12.271  12.881  65.494  1.00  0.00    -0.527 A  
HETATM   17  C   UNL     1     -11.357  13.017  64.458  1.00  0.00    -0.377 A  
HETATM   18  C   UNL     1     -10.063  12.520  64.608  1.00  0.00    -0.258 A  
HETATM   19  C   UNL     1      -9.675  11.881  65.800  1.00  0.00    -0.237 A  
HETATM   20  O   UNL     1      -8.391  11.426  65.898  1.00  0.00    -0.341 OA 
HETATM   21  H   UNL     1      -7.772  11.534  65.186  1.00  0.00     0.000 HD 
ENDBRANCH  12  14
ENDBRANCH  11  12
ENDBRANCH  10  11
TORSDOF 3
ENDMDL
MODEL      159
REMARK 921   NORMALIZED FREE ENERGY PREDICTED BY IDOCK:   -3.87 KCAL/MOL
REMARK 922        TOTAL FREE ENERGY PREDICTED BY IDOCK:   -5.49 KCAL/MOL
REMARK 923 INTER-LIGAND FREE ENERGY PREDICTED BY IDOCK:   -5.16 KCAL/MOL
REMARK 924 INTRA-LIGAND FREE ENERGY PREDICTED BY IDOCK:   -0.33 KCAL/MOL
REMARK 927      BINDING AFFINITY PREDICTED BY RF-SCORE:    0.00 PKD
ROOT
HETATM    1  C   UNL     1      -6.499  11.006  69.295  1.00  0.00    -0.079 C  
HETATM    2  C   UNL     1      -6.665  10.340  67.928  1.00  0.00    -0.066 C  
HETATM    3  C   UNL     1      -7.775   9.244  67.894  1.00  0.00    -0.088 C  
HETATM    4  C   UNL     1      -6.790  11.418  66.848  1.00  0.00    -0.142 C  
HETATM    5  C   UNL     1      -7.785   8.550  66.508  1.00  0.00    -0.092 C  
HETATM    6  C   UNL     1      -8.718   7.345  66.458  1.00  0.00    -0.149 C  
HETATM    7  C   UNL     1     -10.142   7.712  66.888  1.00  0.00    -0.348 C  
HETATM    8  C   UNL     1     -11.027   6.466  66.901  1.00  0.00    -0.413 C  
HETATM    9  C   UNL     1     -10.129   8.411  68.253  1.00  0.00    -0.232 C  
HETATM   10  C   UNL     1      -9.228   9.668  68.243  1.00  0.00    -0.129 C  
ENDROOT
BRANCH  10  11
HETATM   11  O   UNL     1      -9.322  10.309  69.538  1.00  0.00    -0.213 OA 
BRANCH  11  12
HETATM   12  C   UNL     1      -9.464   9.453  70.589  1.00  0.00    -0.262 C  
HETATM   13  O   UNL     1      -8.548   8.775  71.044  1.00  0.00    -0.157 OA 
BRANCH  12  14
HETATM   14  C   UNL     1     -10.838   9.357  71.172  1.00  0.00    -0.427 A  
HETATM   15  C   UNL     1     -11.746  10.356  70.759  1.00  0.00    -0.464 A  
HETATM   16  C   UNL     1     -13.059  10.397  71.238  1.00  0.00    -0.494 A  
HETATM   17  C   UNL     1     -13.491   9.438  72.144  1.00  0.00    -0.543 A  
HETATM   18  C   UNL     1     -12.615   8.438  72.563  1.00  0.00    -0.311 A  
HETATM   19  C   UNL     1     -11.295   8.391  72.075  1.00  0.00    -0.342 A  
HETATM   20  O   UNL     1     -10.485   7.380  72.508  1.00  0.00    -0.206 OA 
HETATM   21  H   UNL     1     -10.796   6.725  73.121  1.00  0.00     0.000 HD 
ENDBRANCH  12  14
ENDBRANCH  11  12
ENDBRANCH  10  11
TORSDOF 3
ENDMDL
MODEL      160
REMARK 921   NORMALIZED FREE ENERGY PREDICTED BY IDOCK:   -3.86 KCAL/MOL
REMARK 922        TOTAL FREE ENERGY PREDICTED BY IDOCK:   -5.48 KCAL/MOL
REMARK 923 INTER-LIGAND FREE ENERGY PREDICTED BY IDOCK:   -5.26 KCAL/MOL
REMARK 924 INTRA-LIGAND FREE ENERGY PREDICTED BY IDOCK:   -0.22 KCAL/MOL
REMARK 927      BINDING AFFINITY PREDICTED BY RF-SCORE:    0.00 PKD
ROOT
HETATM    1  C   UNL     1     -11.294  14.614  66.216  1.00  0.00    -0.347 C  
HETATM    2  C   UNL     1     -11.072  13.878  64.894  1.00  0.00    -0.370 C  
HETATM    3  C   UNL     1     -10.295  12.534  65.045  1.00  0.00    -0.323 C  
HETATM    4  C   UNL     1     -12.400  13.774  64.140  1.00  0.00    -0.382 C  
HETATM    5  C   UNL     1     -10.018  11.926  63.647  1.00  0.00    -0.404 C  
HETATM    6  C   UNL     1      -9.104  10.707  63.703  1.00  0.00    -0.248 C  
HETATM    7  C   UNL     1      -9.644   9.638  64.658  1.00  0.00    -0.147 C  
HETATM    8  C   UNL     1      -8.664   8.468  64.749  1.00  0.00    -0.055 C  
HETATM    9  C   UNL     1      -9.931  10.243  66.038  1.00  0.00    -0.308 C  
HETATM   10  C   UNL     1     -10.917  11.432  65.947  1.00  0.00    -0.207 C  
ENDROOT
BRANCH  10  11
HETATM   11  O   UNL     1     -11.191  11.902  67.288  1.00  0.00    -0.277 OA 
BRANCH  11  12
HETATM   12  C   UNL     1     -10.095  12.008  68.091  1.00  0.00    -0.200 C  
HETATM   13  O   UNL     1      -9.286  12.928  68.023  1.00  0.00    -0.199 OA 
BRANCH  12  14
HETATM   14  C   UNL     1      -9.903  10.904  69.082  1.00  0.00    -0.164 A  
HETATM   15  C   UNL     1      -8.562  10.594  69.397  1.00  0.00    -0.046 A  
HETATM   16  C   UNL     1      -8.238   9.573  70.295  1.00  0.00    -0.209 A  
HETATM   17  C   UNL     1      -9.250   8.837  70.896  1.00  0.00    -0.261 A  
HETATM   18  C   UNL     1     -10.581   9.128  70.606  1.00  0.00    -0.305 A  
HETATM   19  C   UNL     1     -10.910  10.161  69.708  1.00  0.00    -0.279 A  
HETATM   20  O   UNL     1     -12.232  10.413  69.473  1.00  0.00    -0.525 OA 
HETATM   21  H   UNL     1     -12.915   9.908  69.898  1.00  0.00     0.000 HD 
ENDBRANCH  12  14
ENDBRANCH  11  12
ENDBRANCH  10  11
TORSDOF 3
ENDMDL
MODEL      161
REMARK 921   NORMALIZED FREE ENERGY PREDICTED BY IDOCK:   -3.86 KCAL/MOL
REMARK 922        TOTAL FREE ENERGY PREDICTED BY IDOCK:   -5.47 KCAL/MOL
REMARK 923 INTER-LIGAND FREE ENERGY PREDICTED BY IDOCK:   -4.94 KCAL/MOL
REMARK 924 INTRA-LIGAND FREE ENERGY PREDICTED BY IDOCK:   -0.53 KCAL/MOL
REMARK 927      BINDING AFFINITY PREDICTED BY RF-SCORE:    0.00 PKD
ROOT
HETATM    1  C   UNL     1      -7.337  11.806  68.792  1.00  0.00    -0.114 C  
HETATM    2  C   UNL     1      -7.056  10.653  67.828  1.00  0.00    -0.083 C  
HETATM    3  C   UNL     1      -8.167   9.558  67.816  1.00  0.00    -0.114 C  
HETATM    4  C   UNL     1      -6.690  11.216  66.452  1.00  0.00    -0.102 C  
HETATM    5  C   UNL     1      -7.736   8.382  66.903  1.00  0.00    -0.092 C  
HETATM    6  C   UNL     1      -8.687   7.193  66.984  1.00  0.00    -0.123 C  
HETATM    7  C   UNL     1     -10.133   7.602  66.688  1.00  0.00    -0.278 C  
HETATM    8  C   UNL     1     -11.066   6.403  66.856  1.00  0.00    -0.346 C  
HETATM    9  C   UNL     1     -10.554   8.775  67.581  1.00  0.00    -0.281 C  
HETATM   10  C   UNL     1      -9.606   9.987  67.418  1.00  0.00    -0.154 C  
ENDROOT
BRANCH  10  11
HETATM   11  O   UNL     1     -10.106  11.072  68.236  1.00  0.00    -0.166 OA 
BRANCH  11  12
HETATM   12  C   UNL     1     -11.028  11.870  67.624  1.00  0.00    -0.235 C  
HETATM   13  O   UNL     1     -11.591  11.579  66.574  1.00  0.00    -0.444 OA 
BRANCH  12  14
HETATM   14  C   UNL     1     -11.316  13.171  68.302  1.00  0.00    -0.333 A  
HETATM   15  C   UNL     1     -11.015  14.329  67.553  1.00  0.00    -0.297 A  
HETATM   16  C   UNL     1     -11.219  15.611  68.071  1.00  0.00    -0.339 A  
HETATM   17  C   UNL     1     -11.728  15.763  69.353  1.00  0.00    -0.379 A  
HETATM   18  C   UNL     1     -12.039  14.635  70.111  1.00  0.00    -0.385 A  
HETATM   19  C   UNL     1     -11.841  13.344  69.588  1.00  0.00    -0.331 A  
HETATM   20  O   UNL     1     -12.178  12.274  70.369  1.00  0.00    -0.342 OA 
HETATM   21  H   UNL     1     -12.534  12.392  71.242  1.00  0.00     0.000 HD 
ENDBRANCH  12  14
ENDBRANCH  11  12
ENDBRANCH  10  11
TORSDOF 3
ENDMDL
MODEL      162
REMARK 921   NORMALIZED FREE ENERGY PREDICTED BY IDOCK:   -3.86 KCAL/MOL
REMARK 922        TOTAL FREE ENERGY PREDICTED BY IDOCK:   -5.47 KCAL/MOL
REMARK 923 INTER-LIGAND FREE ENERGY PREDICTED BY IDOCK:   -4.68 KCAL/MOL
REMARK 924 INTRA-LIGAND FREE ENERGY PREDICTED BY IDOCK:   -0.79 KCAL/MOL
REMARK 927      BINDING AFFINITY PREDICTED BY RF-SCORE:    0.00 PKD
ROOT
HETATM    1  C   UNL     1      -9.358  10.023  69.646  1.00  0.00    -0.242 C  
HETATM    2  C   UNL     1     -10.596  10.897  69.445  1.00  0.00    -0.233 C  
HETATM    3  C   UNL     1     -10.685  11.546  68.029  1.00  0.00    -0.241 C  
HETATM    4  C   UNL     1     -11.843  10.122  69.879  1.00  0.00    -0.206 C  
HETATM    5  C   UNL     1     -11.903  12.502  67.965  1.00  0.00    -0.382 C  
HETATM    6  C   UNL     1     -11.950  13.311  66.674  1.00  0.00    -0.446 C  
HETATM    7  C   UNL     1     -11.906  12.410  65.437  1.00  0.00    -0.460 C  
HETATM    8  C   UNL     1     -11.875  13.258  64.166  1.00  0.00    -0.497 C  
HETATM    9  C   UNL     1     -10.709  11.455  65.508  1.00  0.00    -0.313 C  
HETATM   10  C   UNL     1     -10.735  10.601  66.798  1.00  0.00    -0.210 C  
ENDROOT
BRANCH  10  11
HETATM   11  O   UNL     1      -9.618   9.681  66.760  1.00  0.00    -0.156 OA 
BRANCH  11  12
HETATM   12  C   UNL     1      -9.964   8.362  66.752  1.00  0.00    -0.284 C  
HETATM   13  O   UNL     1     -10.982   7.922  67.275  1.00  0.00    -0.199 OA 
BRANCH  12  14
HETATM   14  C   UNL     1      -9.003   7.440  66.072  1.00  0.00    -0.156 A  
HETATM   15  C   UNL     1      -7.977   8.065  65.331  1.00  0.00    -0.121 A  
HETATM   16  C   UNL     1      -7.020   7.324  64.632  1.00  0.00    -0.051 A  
HETATM   17  C   UNL     1      -7.071   5.937  64.657  1.00  0.00    -0.060 A  
HETATM   18  C   UNL     1      -8.071   5.295  65.386  1.00  0.00    -0.121 A  
HETATM   19  C   UNL     1      -9.030   6.040  66.097  1.00  0.00    -0.152 A  
HETATM   20  O   UNL     1      -9.977   5.359  66.807  1.00  0.00    -0.154 OA 
HETATM   21  H   UNL     1      -9.995   4.410  66.825  1.00  0.00     0.000 HD 
ENDBRANCH  12  14
ENDBRANCH  11  12
ENDBRANCH  10  11
TORSDOF 3
ENDMDL
MODEL      163
REMARK 921   NORMALIZED FREE ENERGY PREDICTED BY IDOCK:   -3.85 KCAL/MOL
REMARK 922        TOTAL FREE ENERGY PREDICTED BY IDOCK:   -5.47 KCAL/MOL
REMARK 923 INTER-LIGAND FREE ENERGY PREDICTED BY IDOCK:   -4.36 KCAL/MOL
REMARK 924 INTRA-LIGAND FREE ENERGY PREDICTED BY IDOCK:   -1.11 KCAL/MOL
REMARK 927      BINDING AFFINITY PREDICTED BY RF-SCORE:    0.00 PKD
ROOT
HETATM    1  C   UNL     1     -10.069   5.467  68.520  1.00  0.00    -0.242 C  
HETATM    2  C   UNL     1      -9.629   6.930  68.579  1.00  0.00    -0.131 C  
HETATM    3  C   UNL     1     -10.644   7.864  69.309  1.00  0.00    -0.195 C  
HETATM    4  C   UNL     1      -8.191   7.010  69.097  1.00  0.00    -0.122 C  
HETATM    5  C   UNL     1     -10.168   9.335  69.212  1.00  0.00    -0.211 C  
HETATM    6  C   UNL     1     -11.199  10.325  69.743  1.00  0.00    -0.339 C  
HETATM    7  C   UNL     1     -11.622   9.989  71.176  1.00  0.00    -0.460 C  
HETATM    8  C   UNL     1     -12.711  10.953  71.645  1.00  0.00    -0.498 C  
HETATM    9  C   UNL     1     -12.078   8.528  71.275  1.00  0.00    -0.323 C  
HETATM   10  C   UNL     1     -10.980   7.552  70.793  1.00  0.00    -0.252 C  
ENDROOT
BRANCH  10  11
HETATM   11  O   UNL     1     -11.457   6.198  70.981  1.00  0.00    -0.309 OA 
BRANCH  11  12
HETATM   12  C   UNL     1     -10.986   5.576  72.099  1.00  0.00    -0.231 C  
HETATM   13  O   UNL     1     -11.704   5.169  73.006  1.00  0.00    -0.303 OA 
BRANCH  12  14
HETATM   14  C   UNL     1      -9.501   5.426  72.186  1.00  0.00    -0.164 A  
HETATM   15  C   UNL     1      -8.812   6.502  72.788  1.00  0.00    -0.127 A  
HETATM   16  C   UNL     1      -7.421   6.500  72.918  1.00  0.00    -0.093 A  
HETATM   17  C   UNL     1      -6.686   5.421  72.447  1.00  0.00    -0.070 A  
HETATM   18  C   UNL     1      -7.342   4.344  71.854  1.00  0.00    -0.069 A  
HETATM   19  C   UNL     1      -8.744   4.341  71.728  1.00  0.00    -0.110 A  
HETATM   20  O   UNL     1      -9.336   3.252  71.153  1.00  0.00    -0.114 OA 
HETATM   21  H   UNL     1      -8.822   2.516  70.843  1.00  0.00     0.000 HD 
ENDBRANCH  12  14
ENDBRANCH  11  12
ENDBRANCH  10  11
TORSDOF 3
ENDMDL
MODEL      164
REMARK 921   NORMALIZED FREE ENERGY PREDICTED BY IDOCK:   -3.85 KCAL/MOL
REMARK 922        TOTAL FREE ENERGY PREDICTED BY IDOCK:   -5.46 KCAL/MOL
REMARK 923 INTER-LIGAND FREE ENERGY PREDICTED BY IDOCK:   -5.33 KCAL/MOL
REMARK 924 INTRA-LIGAND FREE ENERGY PREDICTED BY IDOCK:   -0.13 KCAL/MOL
REMARK 927      BINDING AFFINITY PREDICTED BY RF-SCORE:    0.00 PKD
ROOT
HETATM    1  C   UNL     1      -9.023  19.262  68.502  1.00  0.00    -0.414 C  
HETATM    2  C   UNL     1      -7.728  18.859  67.795  1.00  0.00    -0.265 C  
HETATM    3  C   UNL     1      -7.279  17.395  68.091  1.00  0.00    -0.199 C  
HETATM    4  C   UNL     1      -7.825  19.217  66.310  1.00  0.00    -0.307 C  
HETATM    5  C   UNL     1      -5.904  17.123  67.430  1.00  0.00    -0.170 C  
HETATM    6  C   UNL     1      -5.314  15.774  67.825  1.00  0.00    -0.141 C  
HETATM    7  C   UNL     1      -6.286  14.625  67.541  1.00  0.00    -0.005 C  
HETATM    8  C   UNL     1      -5.694  13.301  68.022  1.00  0.00    -0.119 C  
HETATM    9  C   UNL     1      -7.650  14.901  68.183  1.00  0.00    -0.115 C  
HETATM   10  C   UNL     1      -8.248  16.245  67.702  1.00  0.00    -0.153 C  
ENDROOT
BRANCH  10  11
HETATM   11  O   UNL     1      -9.559  16.401  68.294  1.00  0.00    -0.213 OA 
BRANCH  11  12
HETATM   12  C   UNL     1     -10.296  15.256  68.359  1.00  0.00    -0.227 C  
HETATM   13  O   UNL     1     -10.415  14.578  69.375  1.00  0.00    -0.212 OA 
BRANCH  12  14
HETATM   14  C   UNL     1     -10.961  14.835  67.088  1.00  0.00    -0.320 A  
HETATM   15  C   UNL     1     -10.687  15.639  65.960  1.00  0.00    -0.322 A  
HETATM   16  C   UNL     1     -11.255  15.370  64.712  1.00  0.00    -0.404 A  
HETATM   17  C   UNL     1     -12.113  14.289  64.564  1.00  0.00    -0.499 A  
HETATM   18  C   UNL     1     -12.396  13.476  65.661  1.00  0.00    -0.522 A  
HETATM   19  C   UNL     1     -11.818  13.741  66.917  1.00  0.00    -0.413 A  
HETATM   20  O   UNL     1     -12.118  12.903  67.953  1.00  0.00    -0.312 OA 
HETATM   21  H   UNL     1     -12.699  12.161  67.836  1.00  0.00     0.000 HD 
ENDBRANCH  12  14
ENDBRANCH  11  12
ENDBRANCH  10  11
TORSDOF 3
ENDMDL
MODEL      165
REMARK 921   NORMALIZED FREE ENERGY PREDICTED BY IDOCK:   -3.84 KCAL/MOL
REMARK 922        TOTAL FREE ENERGY PREDICTED BY IDOCK:   -5.45 KCAL/MOL
REMARK 923 INTER-LIGAND FREE ENERGY PREDICTED BY IDOCK:   -5.07 KCAL/MOL
REMARK 924 INTRA-LIGAND FREE ENERGY PREDICTED BY IDOCK:   -0.38 KCAL/MOL
REMARK 927      BINDING AFFINITY PREDICTED BY RF-SCORE:    0.00 PKD
ROOT
HETATM    1  C   UNL     1     -10.770   6.864  67.974  1.00  0.00    -0.276 C  
HETATM    2  C   UNL     1      -9.346   7.177  68.435  1.00  0.00    -0.135 C  
HETATM    3  C   UNL     1      -8.900   8.644  68.149  1.00  0.00    -0.142 C  
HETATM    4  C   UNL     1      -9.168   6.719  69.885  1.00  0.00    -0.147 C  
HETATM    5  C   UNL     1      -7.412   8.827  68.542  1.00  0.00    -0.089 C  
HETATM    6  C   UNL     1      -6.853  10.182  68.123  1.00  0.00    -0.066 C  
HETATM    7  C   UNL     1      -7.699  11.337  68.666  1.00  0.00    -0.136 C  
HETATM    8  C   UNL     1      -7.156  12.673  68.161  1.00  0.00    -0.102 C  
HETATM    9  C   UNL     1      -9.174  11.148  68.290  1.00  0.00    -0.169 C  
HETATM   10  C   UNL     1      -9.724   9.793  68.794  1.00  0.00    -0.161 C  
ENDROOT
BRANCH  10  11
HETATM   11  O   UNL     1     -11.131   9.718  68.463  1.00  0.00    -0.184 OA 
BRANCH  11  12
HETATM   12  C   UNL     1     -11.748  10.925  68.317  1.00  0.00    -0.184 C  
HETATM   13  O   UNL     1     -11.899  11.487  67.237  1.00  0.00    -0.609 OA 
BRANCH  12  14
HETATM   14  C   UNL     1     -12.232  11.567  69.578  1.00  0.00    -0.287 A  
HETATM   15  C   UNL     1     -12.075  12.969  69.648  1.00  0.00    -0.304 A  
HETATM   16  C   UNL     1     -12.469  13.696  70.775  1.00  0.00    -0.432 A  
HETATM   17  C   UNL     1     -13.027  13.034  71.860  1.00  0.00    -0.414 A  
HETATM   18  C   UNL     1     -13.198  11.651  71.814  1.00  0.00    -0.438 A  
HETATM   19  C   UNL     1     -12.809  10.919  70.676  1.00  0.00    -0.255 A  
HETATM   20  O   UNL     1     -13.014   9.569  70.679  1.00  0.00    -0.537 OA 
HETATM   21  H   UNL     1     -13.406   9.129  71.424  1.00  0.00     0.000 HD 
ENDBRANCH  12  14
ENDBRANCH  11  12
ENDBRANCH  10  11
TORSDOF 3
ENDMDL
MODEL      166
REMARK 921   NORMALIZED FREE ENERGY PREDICTED BY IDOCK:   -3.83 KCAL/MOL
REMARK 922        TOTAL FREE ENERGY PREDICTED BY IDOCK:   -5.44 KCAL/MOL
REMARK 923 INTER-LIGAND FREE ENERGY PREDICTED BY IDOCK:   -4.56 KCAL/MOL
REMARK 924 INTRA-LIGAND FREE ENERGY PREDICTED BY IDOCK:   -0.88 KCAL/MOL
REMARK 927      BINDING AFFINITY PREDICTED BY RF-SCORE:    0.00 PKD
ROOT
HETATM    1  C   UNL     1      -6.954  16.444  69.792  1.00  0.00     0.076 C  
HETATM    2  C   UNL     1      -7.185  15.275  68.834  1.00  0.00    -0.137 C  
HETATM    3  C   UNL     1      -8.681  15.066  68.445  1.00  0.00    -0.175 C  
HETATM    4  C   UNL     1      -6.220  15.387  67.651  1.00  0.00    -0.167 C  
HETATM    5  C   UNL     1      -8.825  13.793  67.572  1.00  0.00    -0.197 C  
HETATM    6  C   UNL     1     -10.279  13.422  67.305  1.00  0.00    -0.241 C  
HETATM    7  C   UNL     1     -11.058  14.588  66.689  1.00  0.00    -0.333 C  
HETATM    8  C   UNL     1     -12.526  14.205  66.509  1.00  0.00    -0.306 C  
HETATM    9  C   UNL     1     -10.904  15.851  67.545  1.00  0.00    -0.305 C  
HETATM   10  C   UNL     1      -9.418  16.235  67.735  1.00  0.00    -0.221 C  
ENDROOT
BRANCH  10  11
HETATM   11  O   UNL     1      -9.357  17.469  68.490  1.00  0.00    -0.273 OA 
BRANCH  11  12
HETATM   12  C   UNL     1      -9.415  18.604  67.737  1.00  0.00    -0.300 C  
HETATM   13  O   UNL     1     -10.442  19.020  67.211  1.00  0.00    -0.397 OA 
BRANCH  12  14
HETATM   14  C   UNL     1      -8.123  19.334  67.556  1.00  0.00    -0.307 A  
HETATM   15  C   UNL     1      -7.651  19.419  66.228  1.00  0.00    -0.299 A  
HETATM   16  C   UNL     1      -6.449  20.060  65.917  1.00  0.00    -0.239 A  
HETATM   17  C   UNL     1      -5.688  20.627  66.930  1.00  0.00    -0.228 A  
HETATM   18  C   UNL     1      -6.135  20.561  68.249  1.00  0.00    -0.346 A  
HETATM   19  C   UNL     1      -7.350  19.924  68.563  1.00  0.00    -0.278 A  
HETATM   20  O   UNL     1      -7.746  19.902  69.870  1.00  0.00     0.112 OA 
HETATM   21  H   UNL     1      -7.222  20.302  70.553  1.00  0.00     0.000 HD 
ENDBRANCH  12  14
ENDBRANCH  11  12
ENDBRANCH  10  11
TORSDOF 3
ENDMDL
MODEL      167
REMARK 921   NORMALIZED FREE ENERGY PREDICTED BY IDOCK:   -3.83 KCAL/MOL
REMARK 922        TOTAL FREE ENERGY PREDICTED BY IDOCK:   -5.44 KCAL/MOL
REMARK 923 INTER-LIGAND FREE ENERGY PREDICTED BY IDOCK:   -5.10 KCAL/MOL
REMARK 924 INTRA-LIGAND FREE ENERGY PREDICTED BY IDOCK:   -0.34 KCAL/MOL
REMARK 927      BINDING AFFINITY PREDICTED BY RF-SCORE:    0.00 PKD
ROOT
HETATM    1  C   UNL     1     -11.249   6.450  68.880  1.00  0.00    -0.385 C  
HETATM    2  C   UNL     1     -10.107   6.651  67.883  1.00  0.00    -0.177 C  
HETATM    3  C   UNL     1      -9.024   7.667  68.363  1.00  0.00    -0.128 C  
HETATM    4  C   UNL     1      -9.565   5.288  67.447  1.00  0.00    -0.146 C  
HETATM    5  C   UNL     1      -7.980   7.891  67.240  1.00  0.00    -0.118 C  
HETATM    6  C   UNL     1      -6.993   9.006  67.565  1.00  0.00    -0.078 C  
HETATM    7  C   UNL     1      -6.298   8.774  68.910  1.00  0.00    -0.045 C  
HETATM    8  C   UNL     1      -5.378   9.949  69.239  1.00  0.00    -0.035 C  
HETATM    9  C   UNL     1      -7.332   8.538  70.018  1.00  0.00    -0.055 C  
HETATM   10  C   UNL     1      -8.268   7.354  69.683  1.00  0.00    -0.130 C  
ENDROOT
BRANCH  10  11
HETATM   11  O   UNL     1      -9.166   7.150  70.800  1.00  0.00    -0.156 OA 
BRANCH  11  12
HETATM   12  C   UNL     1      -9.313   8.231  71.619  1.00  0.00    -0.192 C  
HETATM   13  O   UNL     1      -8.469   8.587  72.435  1.00  0.00    -0.263 OA 
BRANCH  12  14
HETATM   14  C   UNL     1     -10.602   8.977  71.490  1.00  0.00    -0.415 A  
HETATM   15  C   UNL     1     -10.606  10.031  70.551  1.00  0.00    -0.313 A  
HETATM   16  C   UNL     1     -11.739  10.822  70.340  1.00  0.00    -0.445 A  
HETATM   17  C   UNL     1     -12.895  10.575  71.068  1.00  0.00    -0.502 A  
HETATM   18  C   UNL     1     -12.919   9.537  71.996  1.00  0.00    -0.514 A  
HETATM   19  C   UNL     1     -11.782   8.734  72.204  1.00  0.00    -0.363 A  
HETATM   20  O   UNL     1     -11.866   7.721  73.115  1.00  0.00    -0.645 OA 
HETATM   21  H   UNL     1     -12.667   7.556  73.600  1.00  0.00     0.000 HD 
ENDBRANCH  12  14
ENDBRANCH  11  12
ENDBRANCH  10  11
TORSDOF 3
ENDMDL
MODEL      168
REMARK 921   NORMALIZED FREE ENERGY PREDICTED BY IDOCK:   -3.80 KCAL/MOL
REMARK 922        TOTAL FREE ENERGY PREDICTED BY IDOCK:   -5.41 KCAL/MOL
REMARK 923 INTER-LIGAND FREE ENERGY PREDICTED BY IDOCK:   -4.57 KCAL/MOL
REMARK 924 INTRA-LIGAND FREE ENERGY PREDICTED BY IDOCK:   -0.84 KCAL/MOL
REMARK 927      BINDING AFFINITY PREDICTED BY RF-SCORE:    0.00 PKD
ROOT
HETATM    1  C   UNL     1     -12.090  12.720  67.376  1.00  0.00    -0.222 C  
HETATM    2  C   UNL     1     -11.649  11.329  67.832  1.00  0.00    -0.330 C  
HETATM    3  C   UNL     1     -10.542  10.695  66.934  1.00  0.00    -0.311 C  
HETATM    4  C   UNL     1     -11.327  11.360  69.328  1.00  0.00    -0.355 C  
HETATM    5  C   UNL     1     -10.250   9.247  67.404  1.00  0.00    -0.304 C  
HETATM    6  C   UNL     1      -9.311   8.499  66.464  1.00  0.00    -0.260 C  
HETATM    7  C   UNL     1      -8.005   9.267  66.238  1.00  0.00    -0.107 C  
HETATM    8  C   UNL     1      -7.125   8.527  65.231  1.00  0.00    -0.082 C  
HETATM    9  C   UNL     1      -8.295  10.703  65.787  1.00  0.00    -0.162 C  
HETATM   10  C   UNL     1      -9.192  11.451  66.802  1.00  0.00    -0.177 C  
ENDROOT
BRANCH  10  11
HETATM   11  O   UNL     1      -9.362  12.814  66.344  1.00  0.00    -0.241 OA 
BRANCH  11  12
HETATM   12  C   UNL     1      -8.573  13.731  66.973  1.00  0.00    -0.166 C  
HETATM   13  O   UNL     1      -7.664  13.434  67.741  1.00  0.00    -0.130 OA 
BRANCH  12  14
HETATM   14  C   UNL     1      -8.889  15.165  66.692  1.00  0.00    -0.321 A  
HETATM   15  C   UNL     1     -10.149  15.408  66.104  1.00  0.00    -0.325 A  
HETATM   16  C   UNL     1     -10.567  16.701  65.774  1.00  0.00    -0.278 A  
HETATM   17  C   UNL     1      -9.730  17.779  66.022  1.00  0.00    -0.145 A  
HETATM   18  C   UNL     1      -8.483  17.566  66.607  1.00  0.00    -0.288 A  
HETATM   19  C   UNL     1      -8.064  16.266  66.948  1.00  0.00    -0.235 A  
HETATM   20  O   UNL     1      -6.839  16.117  67.533  1.00  0.00    -0.133 OA 
HETATM   21  H   UNL     1      -6.279  16.865  67.707  1.00  0.00     0.000 HD 
ENDBRANCH  12  14
ENDBRANCH  11  12
ENDBRANCH  10  11
TORSDOF 3
ENDMDL
MODEL      169
REMARK 921   NORMALIZED FREE ENERGY PREDICTED BY IDOCK:   -3.80 KCAL/MOL
REMARK 922        TOTAL FREE ENERGY PREDICTED BY IDOCK:   -5.41 KCAL/MOL
REMARK 923 INTER-LIGAND FREE ENERGY PREDICTED BY IDOCK:   -4.62 KCAL/MOL
REMARK 924 INTRA-LIGAND FREE ENERGY PREDICTED BY IDOCK:   -0.79 KCAL/MOL
REMARK 927      BINDING AFFINITY PREDICTED BY RF-SCORE:    0.00 PKD
ROOT
HETATM    1  C   UNL     1      -9.787  10.037  69.801  1.00  0.00    -0.270 C  
HETATM    2  C   UNL     1     -10.479  11.058  68.896  1.00  0.00    -0.229 C  
HETATM    3  C   UNL     1     -10.033  10.979  67.403  1.00  0.00    -0.209 C  
HETATM    4  C   UNL     1     -11.992  10.995  69.122  1.00  0.00    -0.394 C  
HETATM    5  C   UNL     1     -10.697  12.123  66.596  1.00  0.00    -0.281 C  
HETATM    6  C   UNL     1     -10.168  12.223  65.169  1.00  0.00    -0.305 C  
HETATM    7  C   UNL     1     -10.295  10.891  64.423  1.00  0.00    -0.430 C  
HETATM    8  C   UNL     1      -9.684  11.008  63.027  1.00  0.00    -0.381 C  
HETATM    9  C   UNL     1      -9.651   9.758  65.229  1.00  0.00    -0.368 C  
HETATM   10  C   UNL     1     -10.264   9.643  66.645  1.00  0.00    -0.232 C  
ENDROOT
BRANCH  10  11
HETATM   11  O   UNL     1      -9.657   8.513  67.316  1.00  0.00    -0.155 OA 
BRANCH  11  12
HETATM   12  C   UNL     1     -10.185   7.301  66.986  1.00  0.00    -0.278 C  
HETATM   13  O   UNL     1     -11.357   6.993  67.179  1.00  0.00    -0.240 OA 
BRANCH  12  14
HETATM   14  C   UNL     1      -9.236   6.319  66.376  1.00  0.00    -0.173 A  
HETATM   15  C   UNL     1      -9.803   5.088  65.979  1.00  0.00    -0.206 A  
HETATM   16  C   UNL     1      -9.028   4.074  65.410  1.00  0.00    -0.132 A  
HETATM   17  C   UNL     1      -7.666   4.268  65.227  1.00  0.00    -0.085 A  
HETATM   18  C   UNL     1      -7.084   5.477  65.605  1.00  0.00    -0.067 A  
HETATM   19  C   UNL     1      -7.864   6.503  66.171  1.00  0.00    -0.106 A  
HETATM   20  O   UNL     1      -7.244   7.672  66.508  1.00  0.00    -0.078 OA 
HETATM   21  H   UNL     1      -6.312   7.796  66.369  1.00  0.00     0.000 HD 
ENDBRANCH  12  14
ENDBRANCH  11  12
ENDBRANCH  10  11
TORSDOF 3
ENDMDL
MODEL      170
REMARK 921   NORMALIZED FREE ENERGY PREDICTED BY IDOCK:   -3.79 KCAL/MOL
REMARK 922        TOTAL FREE ENERGY PREDICTED BY IDOCK:   -5.39 KCAL/MOL
REMARK 923 INTER-LIGAND FREE ENERGY PREDICTED BY IDOCK:   -4.71 KCAL/MOL
REMARK 924 INTRA-LIGAND FREE ENERGY PREDICTED BY IDOCK:   -0.68 KCAL/MOL
REMARK 927      BINDING AFFINITY PREDICTED BY RF-SCORE:    0.00 PKD
ROOT
HETATM    1  C   UNL     1     -10.710   5.859  67.583  1.00  0.00    -0.352 C  
HETATM    2  C   UNL     1     -10.166   6.250  68.958  1.00  0.00    -0.224 C  
HETATM    3  C   UNL     1      -9.166   7.446  68.922  1.00  0.00    -0.142 C  
HETATM    4  C   UNL     1     -11.329   6.411  69.940  1.00  0.00    -0.500 C  
HETATM    5  C   UNL     1      -8.583   7.687  70.338  1.00  0.00    -0.138 C  
HETATM    6  C   UNL     1      -7.462   8.721  70.347  1.00  0.00    -0.072 C  
HETATM    7  C   UNL     1      -7.905  10.043  69.714  1.00  0.00    -0.185 C  
HETATM    8  C   UNL     1      -6.736  11.026  69.670  1.00  0.00    -0.137 C  
HETATM    9  C   UNL     1      -8.495   9.803  68.320  1.00  0.00    -0.114 C  
HETATM   10  C   UNL     1      -9.675   8.803  68.362  1.00  0.00    -0.162 C  
ENDROOT
BRANCH  10  11
HETATM   11  O   UNL     1     -10.220   8.682  67.026  1.00  0.00    -0.239 OA 
BRANCH  11  12
HETATM   12  C   UNL     1     -10.582   9.862  66.448  1.00  0.00    -0.056 C  
HETATM   13  O   UNL     1     -11.339  10.673  66.971  1.00  0.00    -0.308 OA 
BRANCH  12  14
HETATM   14  C   UNL     1     -10.013  10.124  65.090  1.00  0.00    -0.379 A  
HETATM   15  C   UNL     1     -10.324  11.383  64.531  1.00  0.00    -0.369 A  
HETATM   16  C   UNL     1      -9.872  11.754  63.262  1.00  0.00    -0.402 A  
HETATM   17  C   UNL     1      -9.098  10.870  62.521  1.00  0.00    -0.361 A  
HETATM   18  C   UNL     1      -8.772   9.624  63.053  1.00  0.00    -0.229 A  
HETATM   19  C   UNL     1      -9.220   9.252  64.335  1.00  0.00     0.043 A  
HETATM   20  O   UNL     1      -8.858   8.025  64.812  1.00  0.00    -0.387 OA 
HETATM   21  H   UNL     1      -8.320   7.433  64.300  1.00  0.00     0.000 HD 
ENDBRANCH  12  14
ENDBRANCH  11  12
ENDBRANCH  10  11
TORSDOF 3
ENDMDL
MODEL      171
REMARK 921   NORMALIZED FREE ENERGY PREDICTED BY IDOCK:   -3.79 KCAL/MOL
REMARK 922        TOTAL FREE ENERGY PREDICTED BY IDOCK:   -5.39 KCAL/MOL
REMARK 923 INTER-LIGAND FREE ENERGY PREDICTED BY IDOCK:   -4.71 KCAL/MOL
REMARK 924 INTRA-LIGAND FREE ENERGY PREDICTED BY IDOCK:   -0.68 KCAL/MOL
REMARK 927      BINDING AFFINITY PREDICTED BY RF-SCORE:    0.00 PKD
ROOT
HETATM    1  C   UNL     1      -9.244   7.357  71.084  1.00  0.00    -0.155 C  
HETATM    2  C   UNL     1     -10.459   8.205  71.465  1.00  0.00    -0.276 C  
HETATM    3  C   UNL     1     -10.607   9.507  70.619  1.00  0.00    -0.374 C  
HETATM    4  C   UNL     1     -11.706   7.318  71.509  1.00  0.00    -0.320 C  
HETATM    5  C   UNL     1     -11.791  10.351  71.157  1.00  0.00    -0.432 C  
HETATM    6  C   UNL     1     -11.885  11.723  70.499  1.00  0.00    -0.288 C  
HETATM    7  C   UNL     1     -11.948  11.617  68.972  1.00  0.00    -0.368 C  
HETATM    8  C   UNL     1     -11.962  13.010  68.346  1.00  0.00    -0.309 C  
HETATM    9  C   UNL     1     -10.785  10.769  68.442  1.00  0.00    -0.255 C  
HETATM   10  C   UNL     1     -10.766   9.361  69.081  1.00  0.00    -0.197 C  
ENDROOT
BRANCH  10  11
HETATM   11  O   UNL     1      -9.689   8.602  68.482  1.00  0.00    -0.157 OA 
BRANCH  11  12
HETATM   12  C   UNL     1     -10.045   7.867  67.390  1.00  0.00    -0.226 C  
HETATM   13  O   UNL     1     -11.067   7.191  67.328  1.00  0.00    -0.288 OA 
BRANCH  12  14
HETATM   14  C   UNL     1      -9.092   7.906  66.239  1.00  0.00    -0.224 A  
HETATM   15  C   UNL     1      -8.040   6.966  66.285  1.00  0.00    -0.112 A  
HETATM   16  C   UNL     1      -7.069   6.902  65.282  1.00  0.00    -0.067 A  
HETATM   17  C   UNL     1      -7.127   7.782  64.210  1.00  0.00    -0.074 A  
HETATM   18  C   UNL     1      -8.160   8.716  64.138  1.00  0.00    -0.162 A  
HETATM   19  C   UNL     1      -9.143   8.775  65.143  1.00  0.00    -0.043 A  
HETATM   20  O   UNL     1     -10.140   9.700  65.014  1.00  0.00    -0.379 OA 
HETATM   21  H   UNL     1     -10.175  10.290  64.270  1.00  0.00     0.000 HD 
ENDBRANCH  12  14
ENDBRANCH  11  12
ENDBRANCH  10  11
TORSDOF 3
ENDMDL
MODEL      172
REMARK 921   NORMALIZED FREE ENERGY PREDICTED BY IDOCK:   -3.78 KCAL/MOL
REMARK 922        TOTAL FREE ENERGY PREDICTED BY IDOCK:   -5.38 KCAL/MOL
REMARK 923 INTER-LIGAND FREE ENERGY PREDICTED BY IDOCK:   -4.57 KCAL/MOL
REMARK 924 INTRA-LIGAND FREE ENERGY PREDICTED BY IDOCK:   -0.81 KCAL/MOL
REMARK 927      BINDING AFFINITY PREDICTED BY RF-SCORE:    0.00 PKD
ROOT
HETATM    1  C   UNL     1     -13.133  13.734  65.414  1.00  0.00    -0.217 C  
HETATM    2  C   UNL     1     -12.199  14.917  65.667  1.00  0.00     0.053 C  
HETATM    3  C   UNL     1     -11.084  14.625  66.719  1.00  0.00    -0.335 C  
HETATM    4  C   UNL     1     -11.695  15.464  64.329  1.00  0.00    -0.212 C  
HETATM    5  C   UNL     1     -10.268  15.914  66.991  1.00  0.00    -0.283 C  
HETATM    6  C   UNL     1      -9.279  15.755  68.141  1.00  0.00    -0.189 C  
HETATM    7  C   UNL     1      -8.345  14.561  67.925  1.00  0.00    -0.159 C  
HETATM    8  C   UNL     1      -7.423  14.386  69.131  1.00  0.00    -0.094 C  
HETATM    9  C   UNL     1      -9.153  13.289  67.641  1.00  0.00    -0.204 C  
HETATM   10  C   UNL     1     -10.092  13.467  66.424  1.00  0.00    -0.294 C  
ENDROOT
BRANCH  10  11
HETATM   11  O   UNL     1     -10.765  12.210  66.178  1.00  0.00    -0.256 OA 
BRANCH  11  12
HETATM   12  C   UNL     1     -10.067  11.330  65.405  1.00  0.00    -0.264 C  
HETATM   13  O   UNL     1      -9.570  11.619  64.321  1.00  0.00    -0.200 OA 
BRANCH  12  14
HETATM   14  C   UNL     1      -9.946   9.940  65.945  1.00  0.00    -0.347 A  
HETATM   15  C   UNL     1      -8.948   9.139  65.349  1.00  0.00    -0.255 A  
HETATM   16  C   UNL     1      -8.737   7.815  65.746  1.00  0.00    -0.160 A  
HETATM   17  C   UNL     1      -9.523   7.263  66.748  1.00  0.00    -0.218 A  
HETATM   18  C   UNL     1     -10.511   8.035  67.356  1.00  0.00    -0.357 A  
HETATM   19  C   UNL     1     -10.719   9.371  66.963  1.00  0.00    -0.137 A  
HETATM   20  O   UNL     1     -11.691  10.086  67.604  1.00  0.00    -0.445 OA 
HETATM   21  H   UNL     1     -12.216   9.699  68.295  1.00  0.00     0.000 HD 
ENDBRANCH  12  14
ENDBRANCH  11  12
ENDBRANCH  10  11
TORSDOF 3
ENDMDL
MODEL      173
REMARK 921   NORMALIZED FREE ENERGY PREDICTED BY IDOCK:   -3.77 KCAL/MOL
REMARK 922        TOTAL FREE ENERGY PREDICTED BY IDOCK:   -5.37 KCAL/MOL
REMARK 923 INTER-LIGAND FREE ENERGY PREDICTED BY IDOCK:   -4.48 KCAL/MOL
REMARK 924 INTRA-LIGAND FREE ENERGY PREDICTED BY IDOCK:   -0.89 KCAL/MOL
REMARK 927      BINDING AFFINITY PREDICTED BY RF-SCORE:    0.00 PKD
ROOT
HETATM    1  C   UNL     1      -9.534   9.872  69.906  1.00  0.00    -0.256 C  
HETATM    2  C   UNL     1     -10.338  10.812  69.006  1.00  0.00    -0.235 C  
HETATM    3  C   UNL     1      -9.907  10.768  67.508  1.00  0.00    -0.197 C  
HETATM    4  C   UNL     1     -11.833  10.600  69.254  1.00  0.00    -0.309 C  
HETATM    5  C   UNL     1     -10.694  11.835  66.704  1.00  0.00    -0.300 C  
HETATM    6  C   UNL     1     -10.198  11.978  65.270  1.00  0.00    -0.304 C  
HETATM    7  C   UNL     1     -10.201  10.636  64.532  1.00  0.00    -0.399 C  
HETATM    8  C   UNL     1      -9.625  10.804  63.126  1.00  0.00    -0.385 C  
HETATM    9  C   UNL     1      -9.436   9.577  65.334  1.00  0.00    -0.336 C  
HETATM   10  C   UNL     1     -10.014   9.411  66.759  1.00  0.00    -0.239 C  
ENDROOT
BRANCH  10  11
HETATM   11  O   UNL     1      -9.287   8.352  67.427  1.00  0.00    -0.143 OA 
BRANCH  11  12
HETATM   12  C   UNL     1      -9.929   7.150  67.457  1.00  0.00    -0.167 C  
HETATM   13  O   UNL     1     -11.051   6.964  66.996  1.00  0.00    -0.389 OA 
BRANCH  12  14
HETATM   14  C   UNL     1      -9.190   6.031  68.119  1.00  0.00    -0.116 A  
HETATM   15  C   UNL     1      -8.386   6.399  69.221  1.00  0.00    -0.122 A  
HETATM   16  C   UNL     1      -7.628   5.457  69.922  1.00  0.00    -0.073 A  
HETATM   17  C   UNL     1      -7.655   4.125  69.534  1.00  0.00    -0.054 A  
HETATM   18  C   UNL     1      -8.445   3.735  68.454  1.00  0.00    -0.108 A  
HETATM   19  C   UNL     1      -9.215   4.681  67.751  1.00  0.00    -0.126 A  
HETATM   20  O   UNL     1      -9.982   4.241  66.710  1.00  0.00    -0.223 OA 
HETATM   21  H   UNL     1     -10.000   3.325  66.461  1.00  0.00     0.000 HD 
ENDBRANCH  12  14
ENDBRANCH  11  12
ENDBRANCH  10  11
TORSDOF 3
ENDMDL
MODEL      174
REMARK 921   NORMALIZED FREE ENERGY PREDICTED BY IDOCK:   -3.76 KCAL/MOL
REMARK 922        TOTAL FREE ENERGY PREDICTED BY IDOCK:   -5.36 KCAL/MOL
REMARK 923 INTER-LIGAND FREE ENERGY PREDICTED BY IDOCK:   -5.23 KCAL/MOL
REMARK 924 INTRA-LIGAND FREE ENERGY PREDICTED BY IDOCK:   -0.13 KCAL/MOL
REMARK 927      BINDING AFFINITY PREDICTED BY RF-SCORE:    0.00 PKD
ROOT
HETATM    1  C   UNL     1      -8.183  10.364  66.348  1.00  0.00    -0.141 C  
HETATM    2  C   UNL     1      -7.119  11.353  66.825  1.00  0.00    -0.132 C  
HETATM    3  C   UNL     1      -7.674  12.780  67.124  1.00  0.00    -0.072 C  
HETATM    4  C   UNL     1      -6.311  10.723  67.963  1.00  0.00    -0.058 C  
HETATM    5  C   UNL     1      -6.506  13.733  67.483  1.00  0.00    -0.089 C  
HETATM    6  C   UNL     1      -6.949  15.187  67.610  1.00  0.00    -0.206 C  
HETATM    7  C   UNL     1      -8.100  15.344  68.608  1.00  0.00    -0.156 C  
HETATM    8  C   UNL     1      -8.568  16.798  68.649  1.00  0.00    -0.263 C  
HETATM    9  C   UNL     1      -9.249  14.390  68.260  1.00  0.00    -0.201 C  
HETATM   10  C   UNL     1      -8.775  12.918  68.211  1.00  0.00    -0.168 C  
ENDROOT
BRANCH  10  11
HETATM   11  O   UNL     1      -9.923  12.076  67.948  1.00  0.00    -0.187 OA 
BRANCH  11  12
HETATM   12  C   UNL     1     -11.130  12.678  68.146  1.00  0.00    -0.249 C  
HETATM   13  O   UNL     1     -11.642  13.457  67.349  1.00  0.00    -0.314 OA 
BRANCH  12  14
HETATM   14  C   UNL     1     -11.818  12.352  69.433  1.00  0.00    -0.365 A  
HETATM   15  C   UNL     1     -12.264  13.461  70.184  1.00  0.00    -0.385 A  
HETATM   16  C   UNL     1     -12.908  13.303  71.415  1.00  0.00    -0.411 A  
HETATM   17  C   UNL     1     -13.117  12.028  71.923  1.00  0.00    -0.475 A  
HETATM   18  C   UNL     1     -12.691  10.916  71.198  1.00  0.00    -0.530 A  
HETATM   19  C   UNL     1     -12.050  11.074  69.955  1.00  0.00    -0.364 A  
HETATM   20  O   UNL     1     -11.666   9.950  69.281  1.00  0.00    -0.463 OA 
HETATM   21  H   UNL     1     -11.824   9.082  69.635  1.00  0.00     0.000 HD 
ENDBRANCH  12  14
ENDBRANCH  11  12
ENDBRANCH  10  11
TORSDOF 3
ENDMDL
MODEL      175
REMARK 921   NORMALIZED FREE ENERGY PREDICTED BY IDOCK:   -3.76 KCAL/MOL
REMARK 922        TOTAL FREE ENERGY PREDICTED BY IDOCK:   -5.36 KCAL/MOL
REMARK 923 INTER-LIGAND FREE ENERGY PREDICTED BY IDOCK:   -4.26 KCAL/MOL
REMARK 924 INTRA-LIGAND FREE ENERGY PREDICTED BY IDOCK:   -1.10 KCAL/MOL
REMARK 927      BINDING AFFINITY PREDICTED BY RF-SCORE:    0.00 PKD
ROOT
HETATM    1  C   UNL     1      -8.657   6.762  71.303  1.00  0.00    -0.125 C  
HETATM    2  C   UNL     1     -10.174   6.571  71.336  1.00  0.00    -0.221 C  
HETATM    3  C   UNL     1     -10.966   7.881  71.635  1.00  0.00    -0.280 C  
HETATM    4  C   UNL     1     -10.620   5.820  70.079  1.00  0.00    -0.380 C  
HETATM    5  C   UNL     1     -12.477   7.563  71.765  1.00  0.00    -0.360 C  
HETATM    6  C   UNL     1     -13.294   8.761  72.237  1.00  0.00    -0.460 C  
HETATM    7  C   UNL     1     -13.075   9.984  71.343  1.00  0.00    -0.512 C  
HETATM    8  C   UNL     1     -13.846  11.184  71.892  1.00  0.00     0.318 C  
HETATM    9  C   UNL     1     -11.579  10.289  71.203  1.00  0.00    -0.385 C  
HETATM   10  C   UNL     1     -10.796   9.073  70.654  1.00  0.00    -0.243 C  
ENDROOT
BRANCH  10  11
HETATM   11  O   UNL     1      -9.412   9.459  70.486  1.00  0.00    -0.240 OA 
BRANCH  11  12
HETATM   12  C   UNL     1      -9.087   9.892  69.234  1.00  0.00    -0.189 C  
HETATM   13  O   UNL     1      -9.089  11.072  68.899  1.00  0.00    -0.175 OA 
BRANCH  12  14
HETATM   14  C   UNL     1      -8.737   8.825  68.246  1.00  0.00    -0.135 A  
HETATM   15  C   UNL     1      -7.479   8.212  68.430  1.00  0.00    -0.100 A  
HETATM   16  C   UNL     1      -7.017   7.212  67.569  1.00  0.00    -0.079 A  
HETATM   17  C   UNL     1      -7.806   6.804  66.502  1.00  0.00    -0.104 A  
HETATM   18  C   UNL     1      -9.055   7.390  66.302  1.00  0.00    -0.195 A  
HETATM   19  C   UNL     1      -9.524   8.392  67.172  1.00  0.00    -0.163 A  
HETATM   20  O   UNL     1     -10.762   8.920  66.938  1.00  0.00    -0.230 OA 
HETATM   21  H   UNL     1     -11.296   8.625  66.209  1.00  0.00     0.000 HD 
ENDBRANCH  12  14
ENDBRANCH  11  12
ENDBRANCH  10  11
TORSDOF 3
ENDMDL
MODEL      176
REMARK 921   NORMALIZED FREE ENERGY PREDICTED BY IDOCK:   -3.75 KCAL/MOL
REMARK 922        TOTAL FREE ENERGY PREDICTED BY IDOCK:   -5.35 KCAL/MOL
REMARK 923 INTER-LIGAND FREE ENERGY PREDICTED BY IDOCK:   -5.39 KCAL/MOL
REMARK 924 INTRA-LIGAND FREE ENERGY PREDICTED BY IDOCK:    0.05 KCAL/MOL
REMARK 927      BINDING AFFINITY PREDICTED BY RF-SCORE:    0.00 PKD
ROOT
HETATM    1  C   UNL     1     -11.149  19.332  67.816  1.00  0.00    -0.130 C  
HETATM    2  C   UNL     1      -9.633  19.136  67.759  1.00  0.00    -0.378 C  
HETATM    3  C   UNL     1      -9.128  17.900  68.566  1.00  0.00    -0.289 C  
HETATM    4  C   UNL     1      -9.166  19.191  66.302  1.00  0.00    -0.335 C  
HETATM    5  C   UNL     1      -7.579  17.856  68.545  1.00  0.00    -0.290 C  
HETATM    6  C   UNL     1      -7.006  16.782  69.462  1.00  0.00    -0.089 C  
HETATM    7  C   UNL     1      -7.588  15.400  69.151  1.00  0.00    -0.198 C  
HETATM    8  C   UNL     1      -7.052  14.366  70.139  1.00  0.00     0.179 C  
HETATM    9  C   UNL     1      -9.121  15.448  69.157  1.00  0.00    -0.243 C  
HETATM   10  C   UNL     1      -9.665  16.500  68.162  1.00  0.00    -0.234 C  
ENDROOT
BRANCH  10  11
HETATM   11  O   UNL     1     -11.111  16.436  68.174  1.00  0.00    -0.352 OA 
BRANCH  11  12
HETATM   12  C   UNL     1     -11.628  15.264  68.640  1.00  0.00    -0.354 C  
HETATM   13  O   UNL     1     -12.194  15.151  69.723  1.00  0.00    -0.315 OA 
BRANCH  12  14
HETATM   14  C   UNL     1     -11.449  14.074  67.752  1.00  0.00    -0.351 A  
HETATM   15  C   UNL     1     -11.527  12.818  68.393  1.00  0.00    -0.349 A  
HETATM   16  C   UNL     1     -11.362  11.623  67.687  1.00  0.00    -0.362 A  
HETATM   17  C   UNL     1     -11.114  11.659  66.321  1.00  0.00    -0.345 A  
HETATM   18  C   UNL     1     -11.039  12.886  65.664  1.00  0.00    -0.307 A  
HETATM   19  C   UNL     1     -11.212  14.090  66.373  1.00  0.00    -0.319 A  
HETATM   20  O   UNL     1     -11.144  15.263  65.676  1.00  0.00    -0.334 OA 
HETATM   21  H   UNL     1     -10.983  15.273  64.740  1.00  0.00     0.000 HD 
ENDBRANCH  12  14
ENDBRANCH  11  12
ENDBRANCH  10  11
TORSDOF 3
ENDMDL
MODEL      177
REMARK 921   NORMALIZED FREE ENERGY PREDICTED BY IDOCK:   -3.73 KCAL/MOL
REMARK 922        TOTAL FREE ENERGY PREDICTED BY IDOCK:   -5.33 KCAL/MOL
REMARK 923 INTER-LIGAND FREE ENERGY PREDICTED BY IDOCK:   -4.69 KCAL/MOL
REMARK 924 INTRA-LIGAND FREE ENERGY PREDICTED BY IDOCK:   -0.64 KCAL/MOL
REMARK 927      BINDING AFFINITY PREDICTED BY RF-SCORE:    0.00 PKD
ROOT
HETATM    1  C   UNL     1     -12.847  13.213  65.207  1.00  0.00    -0.332 C  
HETATM    2  C   UNL     1     -11.820  14.300  64.886  1.00  0.00    -0.414 C  
HETATM    3  C   UNL     1     -11.564  15.291  66.062  1.00  0.00     0.006 C  
HETATM    4  C   UNL     1     -10.562  13.654  64.300  1.00  0.00    -0.245 C  
HETATM    5  C   UNL     1     -10.604  16.417  65.601  1.00  0.00    -0.337 C  
HETATM    6  C   UNL     1     -10.450  17.524  66.638  1.00  0.00    -0.270 C  
HETATM    7  C   UNL     1     -10.017  16.970  67.999  1.00  0.00    -0.283 C  
HETATM    8  C   UNL     1      -9.950  18.095  69.030  1.00  0.00    -0.294 C  
HETATM    9  C   UNL     1     -10.958  15.846  68.448  1.00  0.00    -0.331 C  
HETATM   10  C   UNL     1     -11.032  14.709  67.401  1.00  0.00    -0.308 C  
ENDROOT
BRANCH  10  11
HETATM   11  O   UNL     1     -11.881  13.660  67.924  1.00  0.00    -0.339 OA 
BRANCH  11  12
HETATM   12  C   UNL     1     -11.222  12.678  68.603  1.00  0.00    -0.282 C  
HETATM   13  O   UNL     1     -11.490  12.347  69.753  1.00  0.00    -0.237 OA 
BRANCH  12  14
HETATM   14  C   UNL     1     -10.105  12.011  67.865  1.00  0.00    -0.199 A  
HETATM   15  C   UNL     1      -8.812  12.228  68.389  1.00  0.00    -0.137 A  
HETATM   16  C   UNL     1      -7.676  11.678  67.789  1.00  0.00    -0.126 A  
HETATM   17  C   UNL     1      -7.808  10.901  66.647  1.00  0.00    -0.145 A  
HETATM   18  C   UNL     1      -9.074  10.667  66.113  1.00  0.00    -0.190 A  
HETATM   19  C   UNL     1     -10.220  11.213  66.721  1.00  0.00    -0.232 A  
HETATM   20  O   UNL     1     -11.437  10.939  66.163  1.00  0.00     0.002 OA 
HETATM   21  H   UNL     1     -11.515  10.397  65.387  1.00  0.00     0.000 HD 
ENDBRANCH  12  14
ENDBRANCH  11  12
ENDBRANCH  10  11
TORSDOF 3
ENDMDL
MODEL      178
REMARK 921   NORMALIZED FREE ENERGY PREDICTED BY IDOCK:   -3.72 KCAL/MOL
REMARK 922        TOTAL FREE ENERGY PREDICTED BY IDOCK:   -5.32 KCAL/MOL
REMARK 923 INTER-LIGAND FREE ENERGY PREDICTED BY IDOCK:   -5.01 KCAL/MOL
REMARK 924 INTRA-LIGAND FREE ENERGY PREDICTED BY IDOCK:   -0.31 KCAL/MOL
REMARK 927      BINDING AFFINITY PREDICTED BY RF-SCORE:    0.00 PKD
ROOT
HETATM    1  C   UNL     1      -8.888   8.556  66.356  1.00  0.00    -0.178 C  
HETATM    2  C   UNL     1      -9.432   9.958  66.633  1.00  0.00    -0.220 C  
HETATM    3  C   UNL     1     -10.445  10.018  67.818  1.00  0.00    -0.282 C  
HETATM    4  C   UNL     1      -8.266  10.946  66.730  1.00  0.00    -0.140 C  
HETATM    5  C   UNL     1     -11.025  11.450  67.942  1.00  0.00    -0.295 C  
HETATM    6  C   UNL     1     -12.156  11.543  68.959  1.00  0.00    -0.303 C  
HETATM    7  C   UNL     1     -11.729  11.014  70.332  1.00  0.00    -0.437 C  
HETATM    8  C   UNL     1     -12.909  11.049  71.302  1.00  0.00    -0.528 C  
HETATM    9  C   UNL     1     -11.142   9.603  70.207  1.00  0.00    -0.327 C  
HETATM   10  C   UNL     1      -9.952   9.564  69.219  1.00  0.00    -0.187 C  
ENDROOT
BRANCH  10  11
HETATM   11  O   UNL     1      -9.410   8.222  69.208  1.00  0.00    -0.154 OA 
BRANCH  11  12
HETATM   12  C   UNL     1     -10.333   7.232  69.380  1.00  0.00    -0.208 C  
HETATM   13  O   UNL     1     -11.089   6.844  68.495  1.00  0.00    -0.168 OA 
BRANCH  12  14
HETATM   14  C   UNL     1     -10.400   6.633  70.748  1.00  0.00    -0.232 A  
HETATM   15  C   UNL     1     -11.699   6.442  71.267  1.00  0.00    -0.359 A  
HETATM   16  C   UNL     1     -11.908   5.906  72.541  1.00  0.00    -0.238 A  
HETATM   17  C   UNL     1     -10.819   5.552  73.326  1.00  0.00    -0.337 A  
HETATM   18  C   UNL     1      -9.526   5.726  72.835  1.00  0.00    -0.160 A  
HETATM   19  C   UNL     1      -9.315   6.257  71.549  1.00  0.00    -0.148 A  
HETATM   20  O   UNL     1      -8.027   6.392  71.112  1.00  0.00    -0.112 OA 
HETATM   21  H   UNL     1      -7.291   6.137  71.655  1.00  0.00     0.000 HD 
ENDBRANCH  12  14
ENDBRANCH  11  12
ENDBRANCH  10  11
TORSDOF 3
ENDMDL
MODEL      179
REMARK 921   NORMALIZED FREE ENERGY PREDICTED BY IDOCK:   -3.72 KCAL/MOL
REMARK 922        TOTAL FREE ENERGY PREDICTED BY IDOCK:   -5.31 KCAL/MOL
REMARK 923 INTER-LIGAND FREE ENERGY PREDICTED BY IDOCK:   -4.52 KCAL/MOL
REMARK 924 INTRA-LIGAND FREE ENERGY PREDICTED BY IDOCK:   -0.79 KCAL/MOL
REMARK 927      BINDING AFFINITY PREDICTED BY RF-SCORE:    0.00 PKD
ROOT
HETATM    1  C   UNL     1      -7.640  10.742  66.978  1.00  0.00    -0.114 C  
HETATM    2  C   UNL     1      -7.170  12.036  67.643  1.00  0.00    -0.117 C  
HETATM    3  C   UNL     1      -8.102  13.257  67.373  1.00  0.00    -0.179 C  
HETATM    4  C   UNL     1      -6.868  11.769  69.120  1.00  0.00    -0.106 C  
HETATM    5  C   UNL     1      -7.482  14.538  67.986  1.00  0.00    -0.142 C  
HETATM    6  C   UNL     1      -8.243  15.803  67.606  1.00  0.00    -0.166 C  
HETATM    7  C   UNL     1      -9.729  15.699  67.963  1.00  0.00    -0.204 C  
HETATM    8  C   UNL     1     -10.472  16.950  67.496  1.00  0.00    -0.328 C  
HETATM    9  C   UNL     1     -10.338  14.424  67.368  1.00  0.00    -0.252 C  
HETATM   10  C   UNL     1      -9.582  13.158  67.833  1.00  0.00    -0.218 C  
ENDROOT
BRANCH  10  11
HETATM   11  O   UNL     1     -10.255  11.998  67.290  1.00  0.00    -0.203 OA 
BRANCH  11  12
HETATM   12  C   UNL     1     -11.064  11.342  68.170  1.00  0.00    -0.259 C  
HETATM   13  O   UNL     1     -11.937  11.892  68.833  1.00  0.00    -0.299 OA 
BRANCH  12  14
HETATM   14  C   UNL     1     -10.819   9.873  68.311  1.00  0.00    -0.275 A  
HETATM   15  C   UNL     1     -10.653   9.163  67.103  1.00  0.00    -0.286 A  
HETATM   16  C   UNL     1     -10.434   7.783  67.087  1.00  0.00    -0.413 A  
HETATM   17  C   UNL     1     -10.378   7.081  68.284  1.00  0.00    -0.223 A  
HETATM   18  C   UNL     1     -10.533   7.760  69.491  1.00  0.00    -0.225 A  
HETATM   19  C   UNL     1     -10.746   9.151  69.508  1.00  0.00    -0.215 A  
HETATM   20  O   UNL     1     -10.876   9.768  70.720  1.00  0.00    -0.297 OA 
HETATM   21  H   UNL     1     -10.827   9.278  71.533  1.00  0.00     0.000 HD 
ENDBRANCH  12  14
ENDBRANCH  11  12
ENDBRANCH  10  11
TORSDOF 3
ENDMDL
MODEL      180
REMARK 921   NORMALIZED FREE ENERGY PREDICTED BY IDOCK:   -3.71 KCAL/MOL
REMARK 922        TOTAL FREE ENERGY PREDICTED BY IDOCK:   -5.30 KCAL/MOL
REMARK 923 INTER-LIGAND FREE ENERGY PREDICTED BY IDOCK:   -4.47 KCAL/MOL
REMARK 924 INTRA-LIGAND FREE ENERGY PREDICTED BY IDOCK:   -0.83 KCAL/MOL
REMARK 927      BINDING AFFINITY PREDICTED BY RF-SCORE:    0.00 PKD
ROOT
HETATM    1  C   UNL     1     -11.065  16.815  69.937  1.00  0.00     0.010 C  
HETATM    2  C   UNL     1     -11.527  15.360  70.024  1.00  0.00    -0.335 C  
HETATM    3  C   UNL     1     -11.125  14.498  68.787  1.00  0.00    -0.267 C  
HETATM    4  C   UNL     1     -11.120  14.775  71.378  1.00  0.00     0.131 C  
HETATM    5  C   UNL     1     -11.737  13.080  68.914  1.00  0.00    -0.371 C  
HETATM    6  C   UNL     1     -11.540  12.238  67.658  1.00  0.00    -0.421 C  
HETATM    7  C   UNL     1     -10.065  12.154  67.257  1.00  0.00    -0.214 C  
HETATM    8  C   UNL     1      -9.915  11.371  65.953  1.00  0.00    -0.274 C  
HETATM    9  C   UNL     1      -9.456  13.557  67.146  1.00  0.00    -0.244 C  
HETATM   10  C   UNL     1      -9.613  14.354  68.463  1.00  0.00    -0.217 C  
ENDROOT
BRANCH  10  11
HETATM   11  O   UNL     1      -8.956  15.634  68.303  1.00  0.00    -0.177 OA 
BRANCH  11  12
HETATM   12  C   UNL     1      -7.701  15.703  68.833  1.00  0.00    -0.181 C  
HETATM   13  O   UNL     1      -6.989  14.723  69.026  1.00  0.00    -0.102 OA 
BRANCH  12  14
HETATM   14  C   UNL     1      -7.222  17.070  69.200  1.00  0.00    -0.209 A  
HETATM   15  C   UNL     1      -7.954  18.143  68.646  1.00  0.00    -0.301 A  
HETATM   16  C   UNL     1      -7.606  19.474  68.894  1.00  0.00    -0.383 A  
HETATM   17  C   UNL     1      -6.513  19.761  69.700  1.00  0.00    -0.389 A  
HETATM   18  C   UNL     1      -5.777  18.720  70.263  1.00  0.00    -0.226 A  
HETATM   19  C   UNL     1      -6.132  17.379  70.022  1.00  0.00    -0.118 A  
HETATM   20  O   UNL     1      -5.384  16.400  70.612  1.00  0.00    -0.185 OA 
HETATM   21  H   UNL     1      -4.645  16.610  71.169  1.00  0.00     0.000 HD 
ENDBRANCH  12  14
ENDBRANCH  11  12
ENDBRANCH  10  11
TORSDOF 3
ENDMDL
MODEL      181
REMARK 921   NORMALIZED FREE ENERGY PREDICTED BY IDOCK:   -3.71 KCAL/MOL
REMARK 922        TOTAL FREE ENERGY PREDICTED BY IDOCK:   -5.30 KCAL/MOL
REMARK 923 INTER-LIGAND FREE ENERGY PREDICTED BY IDOCK:   -4.83 KCAL/MOL
REMARK 924 INTRA-LIGAND FREE ENERGY PREDICTED BY IDOCK:   -0.47 KCAL/MOL
REMARK 927      BINDING AFFINITY PREDICTED BY RF-SCORE:    0.00 PKD
ROOT
HETATM    1  C   UNL     1     -10.538  13.649  67.467  1.00  0.00    -0.243 C  
HETATM    2  C   UNL     1     -10.198  14.642  68.579  1.00  0.00    -0.240 C  
HETATM    3  C   UNL     1     -11.365  14.881  69.587  1.00  0.00    -0.311 C  
HETATM    4  C   UNL     1      -8.863  14.254  69.219  1.00  0.00     0.277 C  
HETATM    5  C   UNL     1     -10.967  15.984  70.600  1.00  0.00    -0.273 C  
HETATM    6  C   UNL     1     -12.123  16.402  71.502  1.00  0.00    -0.092 C  
HETATM    7  C   UNL     1     -12.739  15.201  72.227  1.00  0.00    -0.421 C  
HETATM    8  C   UNL     1     -13.941  15.646  73.059  1.00  0.00    -0.330 C  
HETATM    9  C   UNL     1     -13.118  14.104  71.226  1.00  0.00    -0.420 C  
HETATM   10  C   UNL     1     -11.904  13.657  70.378  1.00  0.00    -0.237 C  
ENDROOT
BRANCH  10  11
HETATM   11  O   UNL     1     -12.324  12.578  69.510  1.00  0.00    -0.116 OA 
BRANCH  11  12
HETATM   12  C   UNL     1     -12.252  11.336  70.068  1.00  0.00    -0.314 C  
HETATM   13  O   UNL     1     -12.885  10.998  71.064  1.00  0.00    -0.359 OA 
BRANCH  12  14
HETATM   14  C   UNL     1     -11.320  10.374  69.404  1.00  0.00    -0.310 A  
HETATM   15  C   UNL     1     -10.996  10.668  68.061  1.00  0.00    -0.336 A  
HETATM   16  C   UNL     1     -10.148   9.845  67.314  1.00  0.00    -0.264 A  
HETATM   17  C   UNL     1      -9.608   8.706  67.895  1.00  0.00    -0.173 A  
HETATM   18  C   UNL     1      -9.908   8.397  69.220  1.00  0.00    -0.186 A  
HETATM   19  C   UNL     1     -10.755   9.229  69.976  1.00  0.00    -0.232 A  
HETATM   20  O   UNL     1     -11.002   8.886  71.275  1.00  0.00    -0.247 OA 
HETATM   21  H   UNL     1     -10.618   8.109  71.663  1.00  0.00     0.000 HD 
ENDBRANCH  12  14
ENDBRANCH  11  12
ENDBRANCH  10  11
TORSDOF 3
ENDMDL
MODEL      182
REMARK 921   NORMALIZED FREE ENERGY PREDICTED BY IDOCK:   -3.70 KCAL/MOL
REMARK 922        TOTAL FREE ENERGY PREDICTED BY IDOCK:   -5.29 KCAL/MOL
REMARK 923 INTER-LIGAND FREE ENERGY PREDICTED BY IDOCK:   -4.64 KCAL/MOL
REMARK 924 INTRA-LIGAND FREE ENERGY PREDICTED BY IDOCK:   -0.65 KCAL/MOL
REMARK 927      BINDING AFFINITY PREDICTED BY RF-SCORE:    0.00 PKD
ROOT
HETATM    1  C   UNL     1     -11.215  14.860  67.500  1.00  0.00    -0.334 C  
HETATM    2  C   UNL     1     -10.607  16.219  67.151  1.00  0.00    -0.291 C  
HETATM    3  C   UNL     1      -9.457  16.659  68.109  1.00  0.00    -0.228 C  
HETATM    4  C   UNL     1     -10.255  16.252  65.662  1.00  0.00    -0.368 C  
HETATM    5  C   UNL     1      -8.991  18.092  67.747  1.00  0.00    -0.266 C  
HETATM    6  C   UNL     1      -7.997  18.662  68.752  1.00  0.00    -0.317 C  
HETATM    7  C   UNL     1      -6.792  17.735  68.946  1.00  0.00    -0.240 C  
HETATM    8  C   UNL     1      -5.859  18.299  70.016  1.00  0.00    -0.211 C  
HETATM    9  C   UNL     1      -7.255  16.314  69.289  1.00  0.00    -0.221 C  
HETATM   10  C   UNL     1      -8.206  15.745  68.210  1.00  0.00    -0.143 C  
ENDROOT
BRANCH  10  11
HETATM   11  O   UNL     1      -8.541  14.384  68.568  1.00  0.00    -0.168 OA 
BRANCH  11  12
HETATM   12  C   UNL     1      -7.844  13.427  67.892  1.00  0.00    -0.152 C  
HETATM   13  O   UNL     1      -6.737  13.612  67.398  1.00  0.00    -0.203 OA 
BRANCH  12  14
HETATM   14  C   UNL     1      -8.521  12.100  67.756  1.00  0.00    -0.160 A  
HETATM   15  C   UNL     1      -9.458  11.999  66.704  1.00  0.00    -0.222 A  
HETATM   16  C   UNL     1     -10.176  10.822  66.472  1.00  0.00    -0.287 A  
HETATM   17  C   UNL     1      -9.973   9.720  67.291  1.00  0.00    -0.242 A  
HETATM   18  C   UNL     1      -9.050   9.792  68.332  1.00  0.00    -0.123 A  
HETATM   19  C   UNL     1      -8.320  10.974  68.562  1.00  0.00    -0.149 A  
HETATM   20  O   UNL     1      -7.417  10.984  69.586  1.00  0.00    -0.320 OA 
HETATM   21  H   UNL     1      -7.281  10.219  70.133  1.00  0.00     0.000 HD 
ENDBRANCH  12  14
ENDBRANCH  11  12
ENDBRANCH  10  11
TORSDOF 3
ENDMDL
MODEL      183
REMARK 921   NORMALIZED FREE ENERGY PREDICTED BY IDOCK:   -3.68 KCAL/MOL
REMARK 922        TOTAL FREE ENERGY PREDICTED BY IDOCK:   -5.27 KCAL/MOL
REMARK 923 INTER-LIGAND FREE ENERGY PREDICTED BY IDOCK:   -4.61 KCAL/MOL
REMARK 924 INTRA-LIGAND FREE ENERGY PREDICTED BY IDOCK:   -0.66 KCAL/MOL
REMARK 927      BINDING AFFINITY PREDICTED BY RF-SCORE:    0.00 PKD
ROOT
HETATM    1  C   UNL     1     -11.923  12.051  69.791  1.00  0.00    -0.370 C  
HETATM    2  C   UNL     1     -11.177  12.823  68.702  1.00  0.00    -0.322 C  
HETATM    3  C   UNL     1      -9.767  12.242  68.373  1.00  0.00    -0.191 C  
HETATM    4  C   UNL     1     -12.095  13.011  67.491  1.00  0.00    -0.279 C  
HETATM    5  C   UNL     1      -9.047  13.157  67.350  1.00  0.00    -0.208 C  
HETATM    6  C   UNL     1      -7.595  12.756  67.118  1.00  0.00    -0.050 C  
HETATM    7  C   UNL     1      -7.472  11.286  66.707  1.00  0.00    -0.146 C  
HETATM    8  C   UNL     1      -6.000  10.900  66.561  1.00  0.00    -0.118 C  
HETATM    9  C   UNL     1      -8.196  10.382  67.712  1.00  0.00    -0.110 C  
HETATM   10  C   UNL     1      -9.684  10.776  67.867  1.00  0.00    -0.167 C  
ENDROOT
BRANCH  10  11
HETATM   11  O   UNL     1     -10.314   9.840  68.774  1.00  0.00    -0.192 OA 
BRANCH  11  12
HETATM   12  C   UNL     1     -10.525   8.597  68.255  1.00  0.00    -0.184 C  
HETATM   13  O   UNL     1     -10.648   8.371  67.056  1.00  0.00    -0.314 OA 
BRANCH  12  14
HETATM   14  C   UNL     1     -10.625   7.484  69.249  1.00  0.00    -0.215 A  
HETATM   15  C   UNL     1      -9.808   6.362  68.992  1.00  0.00    -0.155 A  
HETATM   16  C   UNL     1      -9.813   5.243  69.830  1.00  0.00    -0.282 A  
HETATM   17  C   UNL     1     -10.640   5.222  70.945  1.00  0.00    -0.247 A  
HETATM   18  C   UNL     1     -11.452   6.320  71.224  1.00  0.00    -0.352 A  
HETATM   19  C   UNL     1     -11.442   7.451  70.385  1.00  0.00    -0.225 A  
HETATM   20  O   UNL     1     -12.246   8.504  70.714  1.00  0.00    -0.487 OA 
HETATM   21  H   UNL     1     -12.801   8.481  71.485  1.00  0.00     0.000 HD 
ENDBRANCH  12  14
ENDBRANCH  11  12
ENDBRANCH  10  11
TORSDOF 3
ENDMDL
MODEL      184
REMARK 921   NORMALIZED FREE ENERGY PREDICTED BY IDOCK:   -3.68 KCAL/MOL
REMARK 922        TOTAL FREE ENERGY PREDICTED BY IDOCK:   -5.27 KCAL/MOL
REMARK 923 INTER-LIGAND FREE ENERGY PREDICTED BY IDOCK:   -4.51 KCAL/MOL
REMARK 924 INTRA-LIGAND FREE ENERGY PREDICTED BY IDOCK:   -0.76 KCAL/MOL
REMARK 927      BINDING AFFINITY PREDICTED BY RF-SCORE:    0.00 PKD
ROOT
HETATM    1  C   UNL     1      -8.208   9.477  67.409  1.00  0.00    -0.114 C  
HETATM    2  C   UNL     1      -7.832  10.931  67.699  1.00  0.00    -0.113 C  
HETATM    3  C   UNL     1      -9.055  11.897  67.758  1.00  0.00    -0.180 C  
HETATM    4  C   UNL     1      -6.907  10.984  68.918  1.00  0.00    -0.079 C  
HETATM    5  C   UNL     1      -8.563  13.356  67.937  1.00  0.00    -0.184 C  
HETATM    6  C   UNL     1      -9.689  14.377  67.821  1.00  0.00    -0.221 C  
HETATM    7  C   UNL     1     -10.835  14.071  68.791  1.00  0.00    -0.279 C  
HETATM    8  C   UNL     1     -11.977  15.066  68.590  1.00  0.00    -0.278 C  
HETATM    9  C   UNL     1     -11.311  12.623  68.623  1.00  0.00    -0.331 C  
HETATM   10  C   UNL     1     -10.154  11.615  68.818  1.00  0.00    -0.156 C  
ENDROOT
BRANCH  10  11
HETATM   11  O   UNL     1     -10.693  10.275  68.714  1.00  0.00    -0.197 OA 
BRANCH  11  12
HETATM   12  C   UNL     1     -11.040   9.705  69.903  1.00  0.00    -0.235 C  
HETATM   13  O   UNL     1     -11.447  10.340  70.870  1.00  0.00    -0.338 OA 
BRANCH  12  14
HETATM   14  C   UNL     1     -10.878   8.221  69.987  1.00  0.00    -0.232 A  
HETATM   15  C   UNL     1     -10.890   7.535  68.753  1.00  0.00    -0.047 A  
HETATM   16  C   UNL     1     -10.764   6.144  68.685  1.00  0.00    -0.370 A  
HETATM   17  C   UNL     1     -10.626   5.408  69.854  1.00  0.00    -0.351 A  
HETATM   18  C   UNL     1     -10.605   6.062  71.085  1.00  0.00    -0.303 A  
HETATM   19  C   UNL     1     -10.724   7.463  71.154  1.00  0.00    -0.231 A  
HETATM   20  O   UNL     1     -10.682   8.053  72.385  1.00  0.00    -0.269 OA 
HETATM   21  H   UNL     1     -10.577   7.538  73.177  1.00  0.00     0.000 HD 
ENDBRANCH  12  14
ENDBRANCH  11  12
ENDBRANCH  10  11
TORSDOF 3
ENDMDL
MODEL      185
REMARK 921   NORMALIZED FREE ENERGY PREDICTED BY IDOCK:   -3.68 KCAL/MOL
REMARK 922        TOTAL FREE ENERGY PREDICTED BY IDOCK:   -5.26 KCAL/MOL
REMARK 923 INTER-LIGAND FREE ENERGY PREDICTED BY IDOCK:   -4.31 KCAL/MOL
REMARK 924 INTRA-LIGAND FREE ENERGY PREDICTED BY IDOCK:   -0.96 KCAL/MOL
REMARK 927      BINDING AFFINITY PREDICTED BY RF-SCORE:    0.00 PKD
ROOT
HETATM    1  C   UNL     1     -11.751  15.535  68.379  1.00  0.00    -0.323 C  
HETATM    2  C   UNL     1     -12.163  14.801  69.657  1.00  0.00    -0.310 C  
HETATM    3  C   UNL     1     -11.981  13.254  69.581  1.00  0.00    -0.376 C  
HETATM    4  C   UNL     1     -11.502  15.470  70.864  1.00  0.00    -0.410 C  
HETATM    5  C   UNL     1     -12.534  12.595  70.870  1.00  0.00    -0.368 C  
HETATM    6  C   UNL     1     -12.557  11.073  70.792  1.00  0.00    -0.463 C  
HETATM    7  C   UNL     1     -11.180  10.502  70.443  1.00  0.00    -0.378 C  
HETATM    8  C   UNL     1     -11.260   8.983  70.296  1.00  0.00    -0.232 C  
HETATM    9  C   UNL     1     -10.627  11.164  69.175  1.00  0.00    -0.238 C  
HETATM   10  C   UNL     1     -10.552  12.702  69.320  1.00  0.00     0.158 C  
ENDROOT
BRANCH  10  11
HETATM   11  O   UNL     1      -9.959  13.247  68.116  1.00  0.00    -0.223 OA 
BRANCH  11  12
HETATM   12  C   UNL     1      -8.649  13.603  68.236  1.00  0.00    -0.170 C  
HETATM   13  O   UNL     1      -8.275  14.689  68.669  1.00  0.00    -0.148 OA 
BRANCH  12  14
HETATM   14  C   UNL     1      -7.652  12.586  67.782  1.00  0.00    -0.138 A  
HETATM   15  C   UNL     1      -6.492  12.470  68.578  1.00  0.00    -0.073 A  
HETATM   16  C   UNL     1      -5.470  11.571  68.260  1.00  0.00    -0.042 A  
HETATM   17  C   UNL     1      -5.586  10.767  67.135  1.00  0.00    -0.045 A  
HETATM   18  C   UNL     1      -6.724  10.858  66.335  1.00  0.00    -0.134 A  
HETATM   19  C   UNL     1      -7.757  11.758  66.658  1.00  0.00    -0.023 A  
HETATM   20  O   UNL     1      -8.857  11.794  65.848  1.00  0.00    -0.370 OA 
HETATM   21  H   UNL     1      -8.928  11.232  65.086  1.00  0.00     0.000 HD 
ENDBRANCH  12  14
ENDBRANCH  11  12
ENDBRANCH  10  11
TORSDOF 3
ENDMDL
MODEL      186
REMARK 921   NORMALIZED FREE ENERGY PREDICTED BY IDOCK:   -3.66 KCAL/MOL
REMARK 922        TOTAL FREE ENERGY PREDICTED BY IDOCK:   -5.24 KCAL/MOL
REMARK 923 INTER-LIGAND FREE ENERGY PREDICTED BY IDOCK:   -5.05 KCAL/MOL
REMARK 924 INTRA-LIGAND FREE ENERGY PREDICTED BY IDOCK:   -0.19 KCAL/MOL
REMARK 927      BINDING AFFINITY PREDICTED BY RF-SCORE:    0.00 PKD
ROOT
HETATM    1  C   UNL     1      -8.970  14.686  68.887  1.00  0.00    -0.136 C  
HETATM    2  C   UNL     1     -10.150  15.171  68.043  1.00  0.00    -0.222 C  
HETATM    3  C   UNL     1     -10.472  14.251  66.825  1.00  0.00    -0.273 C  
HETATM    4  C   UNL     1     -11.340  15.473  68.957  1.00  0.00    -0.331 C  
HETATM    5  C   UNL     1     -11.598  14.887  65.970  1.00  0.00    -0.226 C  
HETATM    6  C   UNL     1     -11.842  14.138  64.665  1.00  0.00    -0.443 C  
HETATM    7  C   UNL     1     -12.123  12.652  64.908  1.00  0.00    -0.494 C  
HETATM    8  C   UNL     1     -12.284  11.921  63.575  1.00  0.00    -0.591 C  
HETATM    9  C   UNL     1     -11.016  12.028  65.766  1.00  0.00    -0.351 C  
HETATM   10  C   UNL     1     -10.847  12.771  67.111  1.00  0.00    -0.256 C  
ENDROOT
BRANCH  10  11
HETATM   11  O   UNL     1      -9.839  12.085  67.890  1.00  0.00    -0.185 OA 
BRANCH  11  12
HETATM   12  C   UNL     1      -8.749  11.677  67.180  1.00  0.00    -0.164 C  
HETATM   13  O   UNL     1      -7.810  12.411  66.891  1.00  0.00    -0.121 OA 
BRANCH  12  14
HETATM   14  C   UNL     1      -8.757  10.249  66.735  1.00  0.00    -0.132 A  
HETATM   15  C   UNL     1      -9.471   9.356  67.563  1.00  0.00    -0.154 A  
HETATM   16  C   UNL     1      -9.547   7.990  67.275  1.00  0.00    -0.210 A  
HETATM   17  C   UNL     1      -8.907   7.487  66.151  1.00  0.00    -0.185 A  
HETATM   18  C   UNL     1      -8.200   8.349  65.314  1.00  0.00    -0.151 A  
HETATM   19  C   UNL     1      -8.129   9.726  65.599  1.00  0.00    -0.120 A  
HETATM   20  O   UNL     1      -7.435  10.526  64.736  1.00  0.00    -0.307 OA 
HETATM   21  H   UNL     1      -7.009  10.171  63.965  1.00  0.00     0.000 HD 
ENDBRANCH  12  14
ENDBRANCH  11  12
ENDBRANCH  10  11
TORSDOF 3
ENDMDL
MODEL      187
REMARK 921   NORMALIZED FREE ENERGY PREDICTED BY IDOCK:   -3.64 KCAL/MOL
REMARK 922        TOTAL FREE ENERGY PREDICTED BY IDOCK:   -5.22 KCAL/MOL
REMARK 923 INTER-LIGAND FREE ENERGY PREDICTED BY IDOCK:   -4.73 KCAL/MOL
REMARK 924 INTRA-LIGAND FREE ENERGY PREDICTED BY IDOCK:   -0.49 KCAL/MOL
REMARK 927      BINDING AFFINITY PREDICTED BY RF-SCORE:    0.00 PKD
ROOT
HETATM    1  C   UNL     1     -11.630   8.281  72.553  1.00  0.00    -0.454 C  
HETATM    2  C   UNL     1     -11.413   6.869  72.006  1.00  0.00    -0.310 C  
HETATM    3  C   UNL     1     -10.701   6.835  70.618  1.00  0.00    -0.273 C  
HETATM    4  C   UNL     1     -10.764   5.999  73.085  1.00  0.00    -0.285 C  
HETATM    5  C   UNL     1     -10.635   5.377  70.097  1.00  0.00    -0.344 C  
HETATM    6  C   UNL     1     -10.118   5.284  68.666  1.00  0.00    -0.238 C  
HETATM    7  C   UNL     1      -8.760   5.976  68.507  1.00  0.00    -0.110 C  
HETATM    8  C   UNL     1      -8.312   5.932  67.047  1.00  0.00    -0.105 C  
HETATM    9  C   UNL     1      -8.823   7.414  69.036  1.00  0.00    -0.132 C  
HETATM   10  C   UNL     1      -9.283   7.461  70.512  1.00  0.00    -0.157 C  
ENDROOT
BRANCH  10  11
HETATM   11  O   UNL     1      -9.251   8.838  70.958  1.00  0.00    -0.181 OA 
BRANCH  11  12
HETATM   12  C   UNL     1      -8.605   9.695  70.117  1.00  0.00    -0.214 C  
HETATM   13  O   UNL     1      -7.392   9.876  70.129  1.00  0.00    -0.132 OA 
BRANCH  12  14
HETATM   14  C   UNL     1      -9.473  10.449  69.161  1.00  0.00    -0.220 A  
HETATM   15  C   UNL     1     -10.804  10.660  69.581  1.00  0.00    -0.318 A  
HETATM   16  C   UNL     1     -11.728  11.335  68.779  1.00  0.00    -0.405 A  
HETATM   17  C   UNL     1     -11.340  11.813  67.535  1.00  0.00    -0.377 A  
HETATM   18  C   UNL     1     -10.030  11.623  67.099  1.00  0.00    -0.219 A  
HETATM   19  C   UNL     1      -9.096  10.950  67.909  1.00  0.00    -0.149 A  
HETATM   20  O   UNL     1      -7.822  10.805  67.439  1.00  0.00    -0.108 OA 
HETATM   21  H   UNL     1      -7.567  11.146  66.590  1.00  0.00     0.000 HD 
ENDBRANCH  12  14
ENDBRANCH  11  12
ENDBRANCH  10  11
TORSDOF 3
ENDMDL
MODEL      188
REMARK 921   NORMALIZED FREE ENERGY PREDICTED BY IDOCK:   -3.62 KCAL/MOL
REMARK 922        TOTAL FREE ENERGY PREDICTED BY IDOCK:   -5.20 KCAL/MOL
REMARK 923 INTER-LIGAND FREE ENERGY PREDICTED BY IDOCK:   -4.78 KCAL/MOL
REMARK 924 INTRA-LIGAND FREE ENERGY PREDICTED BY IDOCK:   -0.41 KCAL/MOL
REMARK 927      BINDING AFFINITY PREDICTED BY RF-SCORE:    0.00 PKD
ROOT
HETATM    1  C   UNL     1     -12.903  13.560  65.727  1.00  0.00    -0.326 C  
HETATM    2  C   UNL     1     -11.764  14.441  65.211  1.00  0.00    -0.364 C  
HETATM    3  C   UNL     1     -10.865  15.031  66.341  1.00  0.00    -0.326 C  
HETATM    4  C   UNL     1     -11.008  13.700  64.106  1.00  0.00    -0.211 C  
HETATM    5  C   UNL     1      -9.819  15.998  65.729  1.00  0.00    -0.357 C  
HETATM    6  C   UNL     1      -9.024  16.754  66.787  1.00  0.00    -0.265 C  
HETATM    7  C   UNL     1      -8.358  15.801  67.785  1.00  0.00    -0.163 C  
HETATM    8  C   UNL     1      -7.637  16.595  68.873  1.00  0.00    -0.240 C  
HETATM    9  C   UNL     1      -9.390  14.835  68.378  1.00  0.00    -0.197 C  
HETATM   10  C   UNL     1     -10.126  14.036  67.277  1.00  0.00    -0.249 C  
ENDROOT
BRANCH  10  11
HETATM   11  O   UNL     1     -11.029  13.102  67.915  1.00  0.00    -0.236 OA 
BRANCH  11  12
HETATM   12  C   UNL     1     -10.803  11.791  67.613  1.00  0.00    -0.217 C  
HETATM   13  O   UNL     1     -11.693  10.990  67.348  1.00  0.00    -0.539 OA 
BRANCH  12  14
HETATM   14  C   UNL     1      -9.373  11.353  67.641  1.00  0.00    -0.159 A  
HETATM   15  C   UNL     1      -8.831  11.121  68.924  1.00  0.00    -0.086 A  
HETATM   16  C   UNL     1      -7.502  10.723  69.097  1.00  0.00    -0.123 A  
HETATM   17  C   UNL     1      -6.685  10.550  67.988  1.00  0.00    -0.065 A  
HETATM   18  C   UNL     1      -7.198  10.767  66.711  1.00  0.00    -0.128 A  
HETATM   19  C   UNL     1      -8.538  11.160  66.534  1.00  0.00    -0.169 A  
HETATM   20  O   UNL     1      -8.993  11.344  65.259  1.00  0.00    -0.363 OA 
HETATM   21  H   UNL     1      -8.426  11.213  64.508  1.00  0.00     0.000 HD 
ENDBRANCH  12  14
ENDBRANCH  11  12
ENDBRANCH  10  11
TORSDOF 3
ENDMDL
MODEL      189
REMARK 921   NORMALIZED FREE ENERGY PREDICTED BY IDOCK:   -3.62 KCAL/MOL
REMARK 922        TOTAL FREE ENERGY PREDICTED BY IDOCK:   -5.19 KCAL/MOL
REMARK 923 INTER-LIGAND FREE ENERGY PREDICTED BY IDOCK:   -4.36 KCAL/MOL
REMARK 924 INTRA-LIGAND FREE ENERGY PREDICTED BY IDOCK:   -0.83 KCAL/MOL
REMARK 927      BINDING AFFINITY PREDICTED BY RF-SCORE:    0.00 PKD
ROOT
HETATM    1  C   UNL     1      -8.765   6.896  69.617  1.00  0.00    -0.141 C  
HETATM    2  C   UNL     1     -10.037   7.538  70.171  1.00  0.00    -0.195 C  
HETATM    3  C   UNL     1     -10.224   9.029  69.751  1.00  0.00    -0.214 C  
HETATM    4  C   UNL     1     -11.235   6.631  69.878  1.00  0.00    -0.421 C  
HETATM    5  C   UNL     1     -11.471   9.621  70.454  1.00  0.00    -0.325 C  
HETATM    6  C   UNL     1     -11.614  11.123  70.236  1.00  0.00    -0.388 C  
HETATM    7  C   UNL     1     -11.612  11.484  68.748  1.00  0.00    -0.379 C  
HETATM    8  C   UNL     1     -11.677  13.000  68.571  1.00  0.00    -0.377 C  
HETATM    9  C   UNL     1     -10.385  10.885  68.050  1.00  0.00    -0.212 C  
HETATM   10  C   UNL     1     -10.315   9.351  68.234  1.00  0.00    -0.212 C  
ENDROOT
BRANCH  10  11
HETATM   11  O   UNL     1      -9.175   8.853  67.492  1.00  0.00    -0.135 OA 
BRANCH  11  12
HETATM   12  C   UNL     1      -9.455   8.438  66.225  1.00  0.00    -0.224 C  
HETATM   13  O   UNL     1      -9.736   9.199  65.304  1.00  0.00    -0.157 OA 
BRANCH  12  14
HETATM   14  C   UNL     1      -9.426   6.960  66.001  1.00  0.00     0.029 A  
HETATM   15  C   UNL     1     -10.489   6.233  66.582  1.00  0.00    -0.255 A  
HETATM   16  C   UNL     1     -10.577   4.843  66.465  1.00  0.00    -0.240 A  
HETATM   17  C   UNL     1      -9.600   4.148  65.766  1.00  0.00    -0.190 A  
HETATM   18  C   UNL     1      -8.544   4.842  65.179  1.00  0.00    -0.140 A  
HETATM   19  C   UNL     1      -8.458   6.243  65.288  1.00  0.00    -0.111 A  
HETATM   20  O   UNL     1      -7.410   6.873  64.680  1.00  0.00    -0.077 OA 
HETATM   21  H   UNL     1      -6.753   6.386  64.196  1.00  0.00     0.000 HD 
ENDBRANCH  12  14
ENDBRANCH  11  12
ENDBRANCH  10  11
TORSDOF 3
ENDMDL
MODEL      190
REMARK 921   NORMALIZED FREE ENERGY PREDICTED BY IDOCK:   -3.61 KCAL/MOL
REMARK 922        TOTAL FREE ENERGY PREDICTED BY IDOCK:   -5.19 KCAL/MOL
REMARK 923 INTER-LIGAND FREE ENERGY PREDICTED BY IDOCK:   -4.83 KCAL/MOL
REMARK 924 INTRA-LIGAND FREE ENERGY PREDICTED BY IDOCK:   -0.36 KCAL/MOL
REMARK 927      BINDING AFFINITY PREDICTED BY RF-SCORE:    0.00 PKD
ROOT
HETATM    1  C   UNL     1      -9.437   9.108  66.358  1.00  0.00    -0.288 C  
HETATM    2  C   UNL     1      -9.583   9.741  64.973  1.00  0.00    -0.333 C  
HETATM    3  C   UNL     1     -10.495  11.006  64.953  1.00  0.00    -0.371 C  
HETATM    4  C   UNL     1      -8.196   9.936  64.353  1.00  0.00    -0.164 C  
HETATM    5  C   UNL     1     -10.675  11.501  63.495  1.00  0.00    -0.483 C  
HETATM    6  C   UNL     1     -11.700  12.623  63.375  1.00  0.00    -0.571 C  
HETATM    7  C   UNL     1     -11.371  13.795  64.305  1.00  0.00    -0.344 C  
HETATM    8  C   UNL     1     -12.460  14.863  64.216  1.00  0.00    -0.181 C  
HETATM    9  C   UNL     1     -11.179  13.302  65.745  1.00  0.00    -0.313 C  
HETATM   10  C   UNL     1     -10.081  12.216  65.836  1.00  0.00    -0.245 C  
ENDROOT
BRANCH  10  11
HETATM   11  O   UNL     1      -9.911  11.853  67.227  1.00  0.00    -0.186 OA 
BRANCH  11  12
HETATM   12  C   UNL     1     -10.094  12.876  68.110  1.00  0.00    -0.240 C  
HETATM   13  O   UNL     1     -11.184  13.182  68.582  1.00  0.00    -0.245 OA 
BRANCH  12  14
HETATM   14  C   UNL     1      -8.867  13.649  68.476  1.00  0.00    -0.099 A  
HETATM   15  C   UNL     1      -8.980  15.053  68.380  1.00  0.00    -0.179 A  
HETATM   16  C   UNL     1      -7.906  15.897  68.676  1.00  0.00    -0.164 A  
HETATM   17  C   UNL     1      -6.692  15.353  69.073  1.00  0.00    -0.128 A  
HETATM   18  C   UNL     1      -6.557  13.971  69.181  1.00  0.00    -0.113 A  
HETATM   19  C   UNL     1      -7.640  13.120  68.891  1.00  0.00     0.040 A  
HETATM   20  O   UNL     1      -7.456  11.773  69.029  1.00  0.00    -0.221 OA 
HETATM   21  H   UNL     1      -6.623  11.414  69.310  1.00  0.00     0.000 HD 
ENDBRANCH  12  14
ENDBRANCH  11  12
ENDBRANCH  10  11
TORSDOF 3
ENDMDL
MODEL      191
REMARK 921   NORMALIZED FREE ENERGY PREDICTED BY IDOCK:   -3.59 KCAL/MOL
REMARK 922        TOTAL FREE ENERGY PREDICTED BY IDOCK:   -5.16 KCAL/MOL
REMARK 923 INTER-LIGAND FREE ENERGY PREDICTED BY IDOCK:   -5.02 KCAL/MOL
REMARK 924 INTRA-LIGAND FREE ENERGY PREDICTED BY IDOCK:   -0.14 KCAL/MOL
REMARK 927      BINDING AFFINITY PREDICTED BY RF-SCORE:    0.00 PKD
ROOT
HETATM    1  C   UNL     1     -10.293   8.001  68.398  1.00  0.00    -0.236 C  
HETATM    2  C   UNL     1      -9.416   8.327  67.189  1.00  0.00    -0.206 C  
HETATM    3  C   UNL     1     -10.073   9.324  66.185  1.00  0.00    -0.304 C  
HETATM    4  C   UNL     1      -8.016   8.722  67.666  1.00  0.00    -0.106 C  
HETATM    5  C   UNL     1      -9.163   9.498  64.943  1.00  0.00    -0.284 C  
HETATM    6  C   UNL     1      -9.821  10.314  63.837  1.00  0.00    -0.251 C  
HETATM    7  C   UNL     1     -10.302  11.676  64.347  1.00  0.00    -0.362 C  
HETATM    8  C   UNL     1     -11.026  12.432  63.233  1.00  0.00    -0.325 C  
HETATM    9  C   UNL     1     -11.191  11.505  65.585  1.00  0.00    -0.212 C  
HETATM   10  C   UNL     1     -10.463  10.734  66.710  1.00  0.00    -0.251 C  
ENDROOT
BRANCH  10  11
HETATM   11  O   UNL     1     -11.337  10.673  67.863  1.00  0.00    -0.330 OA 
BRANCH  11  12
HETATM   12  C   UNL     1     -11.023  11.545  68.864  1.00  0.00    -0.229 C  
HETATM   13  O   UNL     1     -11.089  11.265  70.056  1.00  0.00    -0.194 OA 
BRANCH  12  14
HETATM   14  C   UNL     1     -10.601  12.912  68.429  1.00  0.00    -0.267 A  
HETATM   15  C   UNL     1      -9.254  13.035  68.025  1.00  0.00    -0.212 A  
HETATM   16  C   UNL     1      -8.721  14.259  67.611  1.00  0.00    -0.192 A  
HETATM   17  C   UNL     1      -9.526  15.390  67.595  1.00  0.00    -0.205 A  
HETATM   18  C   UNL     1     -10.861  15.294  67.984  1.00  0.00    -0.288 A  
HETATM   19  C   UNL     1     -11.401  14.060  68.393  1.00  0.00    -0.291 A  
HETATM   20  O   UNL     1     -12.719  14.021  68.749  1.00  0.00    -0.278 OA 
HETATM   21  H   UNL     1     -13.262  14.800  68.724  1.00  0.00     0.000 HD 
ENDBRANCH  12  14
ENDBRANCH  11  12
ENDBRANCH  10  11
TORSDOF 3
ENDMDL
MODEL      192
REMARK 921   NORMALIZED FREE ENERGY PREDICTED BY IDOCK:   -3.59 KCAL/MOL
REMARK 922        TOTAL FREE ENERGY PREDICTED BY IDOCK:   -5.16 KCAL/MOL
REMARK 923 INTER-LIGAND FREE ENERGY PREDICTED BY IDOCK:   -3.93 KCAL/MOL
REMARK 924 INTRA-LIGAND FREE ENERGY PREDICTED BY IDOCK:   -1.23 KCAL/MOL
REMARK 927      BINDING AFFINITY PREDICTED BY RF-SCORE:    0.00 PKD
ROOT
HETATM    1  C   UNL     1     -10.184   5.063  69.709  1.00  0.00    -0.336 C  
HETATM    2  C   UNL     1     -10.623   5.770  70.992  1.00  0.00    -0.318 C  
HETATM    3  C   UNL     1      -9.438   6.318  71.845  1.00  0.00    -0.160 C  
HETATM    4  C   UNL     1     -11.709   6.796  70.662  1.00  0.00    -0.440 C  
HETATM    5  C   UNL     1      -9.975   6.907  73.174  1.00  0.00    -0.227 C  
HETATM    6  C   UNL     1      -8.862   7.297  74.140  1.00  0.00    -0.262 C  
HETATM    7  C   UNL     1      -7.859   8.256  73.492  1.00  0.00    -0.206 C  
HETATM    8  C   UNL     1      -6.718   8.561  74.462  1.00  0.00    -0.193 C  
HETATM    9  C   UNL     1      -7.338   7.679  72.170  1.00  0.00    -0.075 C  
HETATM   10  C   UNL     1      -8.492   7.363  71.190  1.00  0.00    -0.118 C  
ENDROOT
BRANCH  10  11
HETATM   11  O   UNL     1      -7.921   6.890  69.947  1.00  0.00    -0.115 OA 
BRANCH  11  12
HETATM   12  C   UNL     1      -7.467   7.872  69.117  1.00  0.00    -0.093 C  
HETATM   13  O   UNL     1      -6.280   8.060  68.870  1.00  0.00    -0.038 OA 
BRANCH  12  14
HETATM   14  C   UNL     1      -8.513   8.754  68.516  1.00  0.00    -0.130 A  
HETATM   15  C   UNL     1      -9.568   8.087  67.855  1.00  0.00    -0.178 A  
HETATM   16  C   UNL     1     -10.605   8.789  67.234  1.00  0.00    -0.303 A  
HETATM   17  C   UNL     1     -10.608  10.177  67.259  1.00  0.00    -0.321 A  
HETATM   18  C   UNL     1      -9.582  10.859  67.911  1.00  0.00    -0.175 A  
HETATM   19  C   UNL     1      -8.541  10.153  68.543  1.00  0.00    -0.118 A  
HETATM   20  O   UNL     1      -7.570  10.873  69.180  1.00  0.00    -0.125 OA 
HETATM   21  H   UNL     1      -7.589  11.822  69.198  1.00  0.00     0.000 HD 
ENDBRANCH  12  14
ENDBRANCH  11  12
ENDBRANCH  10  11
TORSDOF 3
ENDMDL
MODEL      193
REMARK 921   NORMALIZED FREE ENERGY PREDICTED BY IDOCK:   -3.58 KCAL/MOL
REMARK 922        TOTAL FREE ENERGY PREDICTED BY IDOCK:   -5.15 KCAL/MOL
REMARK 923 INTER-LIGAND FREE ENERGY PREDICTED BY IDOCK:   -4.54 KCAL/MOL
REMARK 924 INTRA-LIGAND FREE ENERGY PREDICTED BY IDOCK:   -0.61 KCAL/MOL
REMARK 927      BINDING AFFINITY PREDICTED BY RF-SCORE:    0.00 PKD
ROOT
HETATM    1  C   UNL     1      -9.658  10.188  69.495  1.00  0.00    -0.243 C  
HETATM    2  C   UNL     1     -10.791  11.215  69.493  1.00  0.00    -0.241 C  
HETATM    3  C   UNL     1     -10.668  12.284  68.363  1.00  0.00    -0.255 C  
HETATM    4  C   UNL     1     -12.137  10.490  69.551  1.00  0.00    -0.208 C  
HETATM    5  C   UNL     1     -11.789  13.343  68.516  1.00  0.00    -0.401 C  
HETATM    6  C   UNL     1     -11.627  14.518  67.559  1.00  0.00    -0.403 C  
HETATM    7  C   UNL     1     -11.519  14.054  66.104  1.00  0.00    -0.350 C  
HETATM    8  C   UNL     1     -11.278  15.250  65.184  1.00  0.00    -0.374 C  
HETATM    9  C   UNL     1     -10.420  12.996  65.955  1.00  0.00    -0.289 C  
HETATM   10  C   UNL     1     -10.658  11.787  66.891  1.00  0.00    -0.235 C  
ENDROOT
BRANCH  10  11
HETATM   11  O   UNL     1      -9.623  10.806  66.644  1.00  0.00    -0.172 OA 
BRANCH  11  12
HETATM   12  C   UNL     1      -9.469  10.456  65.335  1.00  0.00    -0.232 C  
HETATM   13  O   UNL     1     -10.405  10.264  64.566  1.00  0.00    -0.255 OA 
BRANCH  12  14
HETATM   14  C   UNL     1      -8.059  10.288  64.867  1.00  0.00    -0.154 A  
HETATM   15  C   UNL     1      -7.063  10.778  65.740  1.00  0.00    -0.053 A  
HETATM   16  C   UNL     1      -5.705  10.702  65.421  1.00  0.00    -0.133 A  
HETATM   17  C   UNL     1      -5.312  10.135  64.216  1.00  0.00    -0.112 A  
HETATM   18  C   UNL     1      -6.275   9.638  63.339  1.00  0.00    -0.106 A  
HETATM   19  C   UNL     1      -7.642   9.707  63.663  1.00  0.00    -0.124 A  
HETATM   20  O   UNL     1      -8.542   9.191  62.774  1.00  0.00    -0.204 OA 
HETATM   21  H   UNL     1      -8.259   8.797  61.957  1.00  0.00     0.000 HD 
ENDBRANCH  12  14
ENDBRANCH  11  12
ENDBRANCH  10  11
TORSDOF 3
ENDMDL
MODEL      194
REMARK 921   NORMALIZED FREE ENERGY PREDICTED BY IDOCK:   -3.57 KCAL/MOL
REMARK 922        TOTAL FREE ENERGY PREDICTED BY IDOCK:   -5.13 KCAL/MOL
REMARK 923 INTER-LIGAND FREE ENERGY PREDICTED BY IDOCK:   -4.32 KCAL/MOL
REMARK 924 INTRA-LIGAND FREE ENERGY PREDICTED BY IDOCK:   -0.81 KCAL/MOL
REMARK 927      BINDING AFFINITY PREDICTED BY RF-SCORE:    0.00 PKD
ROOT
HETATM    1  C   UNL     1      -9.727   8.881  71.480  1.00  0.00    -0.372 C  
HETATM    2  C   UNL     1      -9.229   7.471  71.163  1.00  0.00    -0.151 C  
HETATM    3  C   UNL     1      -9.797   6.887  69.833  1.00  0.00    -0.172 C  
HETATM    4  C   UNL     1      -7.703   7.430  71.286  1.00  0.00    -0.087 C  
HETATM    5  C   UNL     1      -9.331   5.419  69.661  1.00  0.00    -0.178 C  
HETATM    6  C   UNL     1      -9.994   4.723  68.478  1.00  0.00    -0.160 C  
HETATM    7  C   UNL     1      -9.798   5.506  67.177  1.00  0.00    -0.172 C  
HETATM    8  C   UNL     1     -10.541   4.821  66.031  1.00  0.00    -0.300 C  
HETATM    9  C   UNL     1     -10.246   6.962  67.351  1.00  0.00    -0.262 C  
HETATM   10  C   UNL     1      -9.500   7.655  68.516  1.00  0.00    -0.147 C  
ENDROOT
BRANCH  10  11
HETATM   11  O   UNL     1      -9.924   9.038  68.573  1.00  0.00    -0.165 OA 
BRANCH  11  12
HETATM   12  C   UNL     1      -9.032   9.931  68.057  1.00  0.00    -0.121 C  
HETATM   13  O   UNL     1      -7.875  10.044  68.450  1.00  0.00    -0.087 OA 
BRANCH  12  14
HETATM   14  C   UNL     1      -9.549  10.812  66.965  1.00  0.00    -0.195 A  
HETATM   15  C   UNL     1      -9.946  10.151  65.783  1.00  0.00    -0.339 A  
HETATM   16  C   UNL     1     -10.433  10.854  64.677  1.00  0.00    -0.384 A  
HETATM   17  C   UNL     1     -10.531  12.237  64.730  1.00  0.00    -0.328 A  
HETATM   18  C   UNL     1     -10.150  12.914  65.887  1.00  0.00    -0.295 A  
HETATM   19  C   UNL     1      -9.667  12.207  67.004  1.00  0.00    -0.202 A  
HETATM   20  O   UNL     1      -9.323  12.919  68.118  1.00  0.00    -0.206 OA 
HETATM   21  H   UNL     1      -9.404  13.865  68.144  1.00  0.00     0.000 HD 
ENDBRANCH  12  14
ENDBRANCH  11  12
ENDBRANCH  10  11
TORSDOF 3
ENDMDL
MODEL      195
REMARK 921   NORMALIZED FREE ENERGY PREDICTED BY IDOCK:   -3.52 KCAL/MOL
REMARK 922        TOTAL FREE ENERGY PREDICTED BY IDOCK:   -5.08 KCAL/MOL
REMARK 923 INTER-LIGAND FREE ENERGY PREDICTED BY IDOCK:   -4.14 KCAL/MOL
REMARK 924 INTRA-LIGAND FREE ENERGY PREDICTED BY IDOCK:   -0.94 KCAL/MOL
REMARK 927      BINDING AFFINITY PREDICTED BY RF-SCORE:    0.00 PKD
ROOT
HETATM    1  C   UNL     1      -9.703  11.342  64.410  1.00  0.00    -0.293 C  
HETATM    2  C   UNL     1     -10.751  10.952  65.454  1.00  0.00    -0.189 C  
HETATM    3  C   UNL     1     -10.145  10.347  66.758  1.00  0.00    -0.267 C  
HETATM    4  C   UNL     1     -11.713  12.123  65.672  1.00  0.00    -0.385 C  
HETATM    5  C   UNL     1     -11.284   9.877  67.698  1.00  0.00    -0.032 C  
HETATM    6  C   UNL     1     -10.771   9.110  68.911  1.00  0.00    -0.167 C  
HETATM    7  C   UNL     1      -9.726   9.914  69.690  1.00  0.00    -0.252 C  
HETATM    8  C   UNL     1      -9.177   9.084  70.850  1.00  0.00    -0.320 C  
HETATM    9  C   UNL     1      -8.607  10.391  68.757  1.00  0.00    -0.141 C  
HETATM   10  C   UNL     1      -9.161  11.226  67.578  1.00  0.00    -0.158 C  
ENDROOT
BRANCH  10  11
HETATM   11  O   UNL     1      -8.045  11.696  66.785  1.00  0.00    -0.162 OA 
BRANCH  11  12
HETATM   12  C   UNL     1      -7.435  12.817  67.265  1.00  0.00    -0.097 C  
HETATM   13  O   UNL     1      -6.220  12.983  67.267  1.00  0.00    -0.279 OA 
BRANCH  12  14
HETATM   14  C   UNL     1      -8.343  13.863  67.828  1.00  0.00    -0.174 A  
HETATM   15  C   UNL     1      -9.336  14.346  66.949  1.00  0.00    -0.269 A  
HETATM   16  C   UNL     1     -10.242  15.337  67.338  1.00  0.00    -0.243 A  
HETATM   17  C   UNL     1     -10.171  15.869  68.619  1.00  0.00    -0.223 A  
HETATM   18  C   UNL     1      -9.203  15.405  69.508  1.00  0.00    -0.240 A  
HETATM   19  C   UNL     1      -8.296  14.402  69.119  1.00  0.00     0.056 A  
HETATM   20  O   UNL     1      -7.378  13.974  70.036  1.00  0.00    -0.308 OA 
HETATM   21  H   UNL     1      -7.346  14.339  70.912  1.00  0.00     0.000 HD 
ENDBRANCH  12  14
ENDBRANCH  11  12
ENDBRANCH  10  11
TORSDOF 3
ENDMDL
MODEL      196
REMARK 921   NORMALIZED FREE ENERGY PREDICTED BY IDOCK:   -3.51 KCAL/MOL
REMARK 922        TOTAL FREE ENERGY PREDICTED BY IDOCK:   -5.07 KCAL/MOL
REMARK 923 INTER-LIGAND FREE ENERGY PREDICTED BY IDOCK:   -4.34 KCAL/MOL
REMARK 924 INTRA-LIGAND FREE ENERGY PREDICTED BY IDOCK:   -0.73 KCAL/MOL
REMARK 927      BINDING AFFINITY PREDICTED BY RF-SCORE:    0.00 PKD
ROOT
HETATM    1  C   UNL     1     -12.034  12.384  66.211  1.00  0.00    -0.369 C  
HETATM    2  C   UNL     1     -11.691  13.701  65.513  1.00  0.00    -0.352 C  
HETATM    3  C   UNL     1     -10.896  14.700  66.409  1.00  0.00    -0.315 C  
HETATM    4  C   UNL     1     -11.053  13.406  64.153  1.00  0.00    -0.353 C  
HETATM    5  C   UNL     1     -10.702  16.041  65.658  1.00  0.00    -0.341 C  
HETATM    6  C   UNL     1     -10.094  17.128  66.537  1.00  0.00    -0.313 C  
HETATM    7  C   UNL     1      -8.778  16.671  67.174  1.00  0.00    -0.215 C  
HETATM    8  C   UNL     1      -8.240  17.755  68.108  1.00  0.00    -0.260 C  
HETATM    9  C   UNL     1      -8.968  15.337  67.906  1.00  0.00    -0.170 C  
HETATM   10  C   UNL     1      -9.519  14.241  66.963  1.00  0.00    -0.254 C  
ENDROOT
BRANCH  10  11
HETATM   11  O   UNL     1      -9.605  13.001  67.704  1.00  0.00    -0.195 OA 
BRANCH  11  12
HETATM   12  C   UNL     1      -8.666  12.070  67.371  1.00  0.00    -0.170 C  
HETATM   13  O   UNL     1      -8.728  11.370  66.365  1.00  0.00    -0.180 OA 
BRANCH  12  14
HETATM   14  C   UNL     1      -7.527  11.919  68.328  1.00  0.00    -0.104 A  
HETATM   15  C   UNL     1      -6.387  12.704  68.049  1.00  0.00    -0.093 A  
HETATM   16  C   UNL     1      -5.244  12.649  68.852  1.00  0.00    -0.062 A  
HETATM   17  C   UNL     1      -5.217  11.805  69.953  1.00  0.00    -0.078 A  
HETATM   18  C   UNL     1      -6.332  11.024  70.254  1.00  0.00    -0.120 A  
HETATM   19  C   UNL     1      -7.486  11.084  69.451  1.00  0.00    -0.072 A  
HETATM   20  O   UNL     1      -8.555  10.309  69.801  1.00  0.00    -0.322 OA 
HETATM   21  H   UNL     1      -8.527   9.742  70.563  1.00  0.00     0.000 HD 
ENDBRANCH  12  14
ENDBRANCH  11  12
ENDBRANCH  10  11
TORSDOF 3
ENDMDL
MODEL      197
REMARK 921   NORMALIZED FREE ENERGY PREDICTED BY IDOCK:   -3.48 KCAL/MOL
REMARK 922        TOTAL FREE ENERGY PREDICTED BY IDOCK:   -5.03 KCAL/MOL
REMARK 923 INTER-LIGAND FREE ENERGY PREDICTED BY IDOCK:   -4.26 KCAL/MOL
REMARK 924 INTRA-LIGAND FREE ENERGY PREDICTED BY IDOCK:   -0.77 KCAL/MOL
REMARK 927      BINDING AFFINITY PREDICTED BY RF-SCORE:    0.00 PKD
ROOT
HETATM    1  C   UNL     1      -8.385   3.408  67.746  1.00  0.00    -0.095 C  
HETATM    2  C   UNL     1      -7.679   4.691  67.306  1.00  0.00    -0.090 C  
HETATM    3  C   UNL     1      -8.643   5.901  67.104  1.00  0.00    -0.106 C  
HETATM    4  C   UNL     1      -6.490   4.961  68.231  1.00  0.00    -0.037 C  
HETATM    5  C   UNL     1      -7.854   7.114  66.547  1.00  0.00    -0.106 C  
HETATM    6  C   UNL     1      -8.759   8.275  66.151  1.00  0.00    -0.174 C  
HETATM    7  C   UNL     1      -9.666   8.707  67.307  1.00  0.00    -0.241 C  
HETATM    8  C   UNL     1     -10.611   9.818  66.851  1.00  0.00    -0.243 C  
HETATM    9  C   UNL     1     -10.435   7.504  67.867  1.00  0.00    -0.266 C  
HETATM   10  C   UNL     1      -9.480   6.377  68.323  1.00  0.00    -0.121 C  
ENDROOT
BRANCH  10  11
HETATM   11  O   UNL     1     -10.272   5.311  68.900  1.00  0.00    -0.191 OA 
BRANCH  11  12
HETATM   12  C   UNL     1     -10.155   5.181  70.252  1.00  0.00    -0.268 C  
HETATM   13  O   UNL     1      -9.631   4.217  70.801  1.00  0.00    -0.161 OA 
BRANCH  12  14
HETATM   14  C   UNL     1     -10.733   6.293  71.068  1.00  0.00    -0.313 A  
HETATM   15  C   UNL     1     -12.108   6.544  70.870  1.00  0.00    -0.293 A  
HETATM   16  C   UNL     1     -12.773   7.565  71.555  1.00  0.00    -0.391 A  
HETATM   17  C   UNL     1     -12.074   8.361  72.452  1.00  0.00    -0.443 A  
HETATM   18  C   UNL     1     -10.717   8.130  72.669  1.00  0.00    -0.421 A  
HETATM   19  C   UNL     1     -10.048   7.097  71.987  1.00  0.00    -0.177 A  
HETATM   20  O   UNL     1      -8.721   6.906  72.249  1.00  0.00    -0.126 OA 
HETATM   21  H   UNL     1      -8.256   7.451  72.873  1.00  0.00     0.000 HD 
ENDBRANCH  12  14
ENDBRANCH  11  12
ENDBRANCH  10  11
TORSDOF 3
ENDMDL
MODEL      198
REMARK 921   NORMALIZED FREE ENERGY PREDICTED BY IDOCK:   -3.47 KCAL/MOL
REMARK 922        TOTAL FREE ENERGY PREDICTED BY IDOCK:   -5.02 KCAL/MOL
REMARK 923 INTER-LIGAND FREE ENERGY PREDICTED BY IDOCK:   -4.86 KCAL/MOL
REMARK 924 INTRA-LIGAND FREE ENERGY PREDICTED BY IDOCK:   -0.16 KCAL/MOL
REMARK 927      BINDING AFFINITY PREDICTED BY RF-SCORE:    0.00 PKD
ROOT
HETATM    1  C   UNL     1     -12.279  13.789  65.513  1.00  0.00    -0.470 C  
HETATM    2  C   UNL     1     -11.909  12.811  64.397  1.00  0.00    -0.446 C  
HETATM    3  C   UNL     1     -10.678  11.912  64.730  1.00  0.00    -0.356 C  
HETATM    4  C   UNL     1     -13.160  12.051  63.950  1.00  0.00    -0.165 C  
HETATM    5  C   UNL     1     -10.312  11.045  63.499  1.00  0.00    -0.402 C  
HETATM    6  C   UNL     1      -9.010  10.275  63.686  1.00  0.00    -0.259 C  
HETATM    7  C   UNL     1      -9.032   9.423  64.958  1.00  0.00    -0.258 C  
HETATM    8  C   UNL     1      -7.684   8.729  65.153  1.00  0.00    -0.103 C  
HETATM    9  C   UNL     1      -9.409  10.278  66.173  1.00  0.00    -0.211 C  
HETATM   10  C   UNL     1     -10.769  10.987  65.974  1.00  0.00    -0.177 C  
ENDROOT
BRANCH  10  11
HETATM   11  O   UNL     1     -11.087  11.715  67.184  1.00  0.00    -0.265 OA 
BRANCH  11  12
HETATM   12  C   UNL     1     -10.071  11.788  68.091  1.00  0.00    -0.192 C  
HETATM   13  O   UNL     1      -9.758  10.868  68.840  1.00  0.00    -0.191 OA 
BRANCH  12  14
HETATM   14  C   UNL     1      -9.342  13.092  68.149  1.00  0.00    -0.217 A  
HETATM   15  C   UNL     1      -8.135  13.150  67.418  1.00  0.00    -0.181 A  
HETATM   16  C   UNL     1      -7.343  14.301  67.398  1.00  0.00    -0.152 A  
HETATM   17  C   UNL     1      -7.742  15.423  68.113  1.00  0.00    -0.126 A  
HETATM   18  C   UNL     1      -8.932  15.394  68.837  1.00  0.00    -0.208 A  
HETATM   19  C   UNL     1      -9.734  14.237  68.851  1.00  0.00    -0.115 A  
HETATM   20  O   UNL     1     -10.898  14.270  69.566  1.00  0.00    -0.364 OA 
HETATM   21  H   UNL     1     -11.165  15.047  70.043  1.00  0.00     0.000 HD 
ENDBRANCH  12  14
ENDBRANCH  11  12
ENDBRANCH  10  11
TORSDOF 3
ENDMDL
MODEL      199
REMARK 921   NORMALIZED FREE ENERGY PREDICTED BY IDOCK:   -3.43 KCAL/MOL
REMARK 922        TOTAL FREE ENERGY PREDICTED BY IDOCK:   -4.97 KCAL/MOL
REMARK 923 INTER-LIGAND FREE ENERGY PREDICTED BY IDOCK:   -5.06 KCAL/MOL
REMARK 924 INTRA-LIGAND FREE ENERGY PREDICTED BY IDOCK:    0.09 KCAL/MOL
REMARK 927      BINDING AFFINITY PREDICTED BY RF-SCORE:    0.00 PKD
ROOT
HETATM    1  C   UNL     1      -7.301  12.121  68.858  1.00  0.00    -0.054 C  
HETATM    2  C   UNL     1      -7.955  11.488  67.630  1.00  0.00    -0.126 C  
HETATM    3  C   UNL     1      -9.317  12.140  67.236  1.00  0.00    -0.183 C  
HETATM    4  C   UNL     1      -6.931  11.400  66.495  1.00  0.00    -0.062 C  
HETATM    5  C   UNL     1      -9.954  11.357  66.060  1.00  0.00    -0.269 C  
HETATM    6  C   UNL     1     -11.370  11.821  65.740  1.00  0.00    -0.309 C  
HETATM    7  C   UNL     1     -11.426  13.329  65.477  1.00  0.00    -0.335 C  
HETATM    8  C   UNL     1     -12.870  13.770  65.238  1.00  0.00    -0.430 C  
HETATM    9  C   UNL     1     -10.783  14.102  66.634  1.00  0.00    -0.289 C  
HETATM   10  C   UNL     1      -9.324  13.652  66.882  1.00  0.00    -0.257 C  
ENDROOT
BRANCH  10  11
HETATM   11  O   UNL     1      -8.765  14.471  67.936  1.00  0.00    -0.153 OA 
BRANCH  11  12
HETATM   12  C   UNL     1      -9.485  15.590  68.233  1.00  0.00    -0.200 C  
HETATM   13  O   UNL     1     -10.567  15.572  68.812  1.00  0.00    -0.228 OA 
BRANCH  12  14
HETATM   14  C   UNL     1      -8.888  16.887  67.787  1.00  0.00    -0.217 A  
HETATM   15  C   UNL     1      -7.889  16.789  66.794  1.00  0.00    -0.281 A  
HETATM   16  C   UNL     1      -7.235  17.921  66.298  1.00  0.00    -0.324 A  
HETATM   17  C   UNL     1      -7.566  19.177  66.787  1.00  0.00    -0.251 A  
HETATM   18  C   UNL     1      -8.553  19.301  67.763  1.00  0.00    -0.341 A  
HETATM   19  C   UNL     1      -9.218  18.163  68.258  1.00  0.00    -0.298 A  
HETATM   20  O   UNL     1     -10.188  18.344  69.203  1.00  0.00    -0.458 OA 
HETATM   21  H   UNL     1     -10.412  19.210  69.522  1.00  0.00     0.000 HD 
ENDBRANCH  12  14
ENDBRANCH  11  12
ENDBRANCH  10  11
TORSDOF 3
ENDMDL
MODEL      200
REMARK 921   NORMALIZED FREE ENERGY PREDICTED BY IDOCK:   -3.40 KCAL/MOL
REMARK 922        TOTAL FREE ENERGY PREDICTED BY IDOCK:   -4.94 KCAL/MOL
REMARK 923 INTER-LIGAND FREE ENERGY PREDICTED BY IDOCK:   -4.23 KCAL/MOL
REMARK 924 INTRA-LIGAND FREE ENERGY PREDICTED BY IDOCK:   -0.71 KCAL/MOL
REMARK 927      BINDING AFFINITY PREDICTED BY RF-SCORE:    0.00 PKD
ROOT
HETATM    1  C   UNL     1      -9.182   9.824  69.614  1.00  0.00    -0.239 C  
HETATM    2  C   UNL     1      -7.952   9.020  69.192  1.00  0.00    -0.101 C  
HETATM    3  C   UNL     1      -8.126   8.270  67.835  1.00  0.00    -0.127 C  
HETATM    4  C   UNL     1      -6.707   9.907  69.283  1.00  0.00    -0.055 C  
HETATM    5  C   UNL     1      -6.878   7.394  67.555  1.00  0.00    -0.078 C  
HETATM    6  C   UNL     1      -7.051   6.491  66.340  1.00  0.00    -0.068 C  
HETATM    7  C   UNL     1      -7.442   7.288  65.091  1.00  0.00    -0.087 C  
HETATM    8  C   UNL     1      -7.684   6.343  63.915  1.00  0.00    -0.104 C  
HETATM    9  C   UNL     1      -8.668   8.165  65.374  1.00  0.00    -0.128 C  
HETATM   10  C   UNL     1      -8.427   9.117  66.569  1.00  0.00    -0.123 C  
ENDROOT
BRANCH  10  11
HETATM   11  O   UNL     1      -9.596   9.955  66.728  1.00  0.00    -0.168 OA 
BRANCH  11  12
HETATM   12  C   UNL     1      -9.468  11.216  66.227  1.00  0.00    -0.196 C  
HETATM   13  O   UNL     1      -8.466  11.910  66.374  1.00  0.00    -0.145 OA 
BRANCH  12  14
HETATM   14  C   UNL     1     -10.651  11.745  65.480  1.00  0.00    -0.323 A  
HETATM   15  C   UNL     1     -10.753  11.338  64.132  1.00  0.00    -0.436 A  
HETATM   16  C   UNL     1     -11.800  11.771  63.313  1.00  0.00    -0.342 A  
HETATM   17  C   UNL     1     -12.767  12.624  63.825  1.00  0.00    -0.341 A  
HETATM   18  C   UNL     1     -12.692  13.036  65.155  1.00  0.00    -0.461 A  
HETATM   19  C   UNL     1     -11.643  12.595  65.983  1.00  0.00    -0.393 A  
HETATM   20  O   UNL     1     -11.627  13.017  67.282  1.00  0.00    -0.315 OA 
HETATM   21  H   UNL     1     -12.301  13.594  67.623  1.00  0.00     0.000 HD 
ENDBRANCH  12  14
ENDBRANCH  11  12
ENDBRANCH  10  11
TORSDOF 3
ENDMDL
MODEL      201
REMARK 921   NORMALIZED FREE ENERGY PREDICTED BY IDOCK:   -3.38 KCAL/MOL
REMARK 922        TOTAL FREE ENERGY PREDICTED BY IDOCK:   -4.91 KCAL/MOL
REMARK 923 INTER-LIGAND FREE ENERGY PREDICTED BY IDOCK:   -4.25 KCAL/MOL
REMARK 924 INTRA-LIGAND FREE ENERGY PREDICTED BY IDOCK:   -0.66 KCAL/MOL
REMARK 927      BINDING AFFINITY PREDICTED BY RF-SCORE:    0.00 PKD
ROOT
HETATM    1  C   UNL     1      -9.997   1.871  71.499  1.00  0.00    -0.172 C  
HETATM    2  C   UNL     1      -9.936   2.467  72.907  1.00  0.00    -0.197 C  
HETATM    3  C   UNL     1      -9.349   3.911  72.954  1.00  0.00    -0.142 C  
HETATM    4  C   UNL     1     -11.297   2.301  73.589  1.00  0.00    -0.318 C  
HETATM    5  C   UNL     1      -9.219   4.377  74.426  1.00  0.00    -0.116 C  
HETATM    6  C   UNL     1      -8.483   5.706  74.562  1.00  0.00    -0.107 C  
HETATM    7  C   UNL     1      -9.126   6.800  73.704  1.00  0.00    -0.169 C  
HETATM    8  C   UNL     1      -8.317   8.093  73.804  1.00  0.00    -0.311 C  
HETATM    9  C   UNL     1      -9.267   6.332  72.251  1.00  0.00    -0.139 C  
HETATM   10  C   UNL     1     -10.080   5.020  72.149  1.00  0.00    -0.196 C  
ENDROOT
BRANCH  10  11
HETATM   11  O   UNL     1     -10.229   4.682  70.749  1.00  0.00    -0.215 OA 
BRANCH  11  12
HETATM   12  C   UNL     1     -10.839   5.638  69.993  1.00  0.00    -0.296 C  
HETATM   13  O   UNL     1     -11.815   6.282  70.365  1.00  0.00    -0.329 OA 
BRANCH  12  14
HETATM   14  C   UNL     1     -10.261   5.860  68.632  1.00  0.00    -0.243 A  
HETATM   15  C   UNL     1      -9.489   4.797  68.116  1.00  0.00    -0.186 A  
HETATM   16  C   UNL     1      -8.876   4.877  66.862  1.00  0.00    -0.106 A  
HETATM   17  C   UNL     1      -9.020   6.026  66.097  1.00  0.00    -0.160 A  
HETATM   18  C   UNL     1      -9.782   7.087  66.581  1.00  0.00    -0.226 A  
HETATM   19  C   UNL     1     -10.407   7.005  67.840  1.00  0.00    -0.199 A  
HETATM   20  O   UNL     1     -11.155   8.069  68.258  1.00  0.00    -0.420 OA 
HETATM   21  H   UNL     1     -11.254   8.846  67.721  1.00  0.00     0.000 HD 
ENDBRANCH  12  14
ENDBRANCH  11  12
ENDBRANCH  10  11
TORSDOF 3
ENDMDL
MODEL      202
REMARK 921   NORMALIZED FREE ENERGY PREDICTED BY IDOCK:   -3.35 KCAL/MOL
REMARK 922        TOTAL FREE ENERGY PREDICTED BY IDOCK:   -4.88 KCAL/MOL
REMARK 923 INTER-LIGAND FREE ENERGY PREDICTED BY IDOCK:   -5.13 KCAL/MOL
REMARK 924 INTRA-LIGAND FREE ENERGY PREDICTED BY IDOCK:    0.25 KCAL/MOL
REMARK 927      BINDING AFFINITY PREDICTED BY RF-SCORE:    0.00 PKD
ROOT
HETATM    1  C   UNL     1      -9.000   6.762  69.711  1.00  0.00    -0.144 C  
HETATM    2  C   UNL     1     -10.329   7.183  70.339  1.00  0.00    -0.216 C  
HETATM    3  C   UNL     1     -10.569   8.724  70.331  1.00  0.00    -0.251 C  
HETATM    4  C   UNL     1     -11.464   6.351  69.735  1.00  0.00    -0.468 C  
HETATM    5  C   UNL     1     -11.878   9.057  71.090  1.00  0.00    -0.362 C  
HETATM    6  C   UNL     1     -12.085  10.555  71.283  1.00  0.00    -0.432 C  
HETATM    7  C   UNL     1     -12.026  11.311  69.953  1.00  0.00    -0.440 C  
HETATM    8  C   UNL     1     -12.158  12.814  70.194  1.00  0.00    -0.370 C  
HETATM    9  C   UNL     1     -10.737  10.971  69.195  1.00  0.00    -0.274 C  
HETATM   10  C   UNL     1     -10.599   9.449  68.957  1.00  0.00    -0.213 C  
ENDROOT
BRANCH  10  11
HETATM   11  O   UNL     1      -9.400   9.214  68.181  1.00  0.00    -0.138 OA 
BRANCH  11  12
HETATM   12  C   UNL     1      -8.883  10.323  67.579  1.00  0.00    -0.128 C  
HETATM   13  O   UNL     1      -8.384  11.261  68.191  1.00  0.00    -0.129 OA 
BRANCH  12  14
HETATM   14  C   UNL     1      -8.973  10.357  66.086  1.00  0.00    -0.175 A  
HETATM   15  C   UNL     1     -10.237  10.702  65.559  1.00  0.00    -0.329 A  
HETATM   16  C   UNL     1     -10.467  10.755  64.182  1.00  0.00    -0.309 A  
HETATM   17  C   UNL     1      -9.436  10.462  63.300  1.00  0.00    -0.361 A  
HETATM   18  C   UNL     1      -8.178  10.124  63.795  1.00  0.00    -0.163 A  
HETATM   19  C   UNL     1      -7.943  10.077  65.182  1.00  0.00    -0.145 A  
HETATM   20  O   UNL     1      -6.686   9.755  65.611  1.00  0.00    -0.082 OA 
HETATM   21  H   UNL     1      -5.987   9.566  64.997  1.00  0.00     0.000 HD 
ENDBRANCH  12  14
ENDBRANCH  11  12
ENDBRANCH  10  11
TORSDOF 3
ENDMDL
MODEL      203
REMARK 921   NORMALIZED FREE ENERGY PREDICTED BY IDOCK:   -3.33 KCAL/MOL
REMARK 922        TOTAL FREE ENERGY PREDICTED BY IDOCK:   -4.86 KCAL/MOL
REMARK 923 INTER-LIGAND FREE ENERGY PREDICTED BY IDOCK:   -4.57 KCAL/MOL
REMARK 924 INTRA-LIGAND FREE ENERGY PREDICTED BY IDOCK:   -0.28 KCAL/MOL
REMARK 927      BINDING AFFINITY PREDICTED BY RF-SCORE:    0.00 PKD
ROOT
HETATM    1  C   UNL     1     -12.667   7.287  71.224  1.00  0.00    -0.400 C  
HETATM    2  C   UNL     1     -11.605   6.774  72.197  1.00  0.00    -0.324 C  
HETATM    3  C   UNL     1     -10.889   5.473  71.719  1.00  0.00    -0.277 C  
HETATM    4  C   UNL     1     -10.668   7.922  72.582  1.00  0.00    -0.411 C  
HETATM    5  C   UNL     1      -9.923   4.969  72.821  1.00  0.00    -0.200 C  
HETATM    6  C   UNL     1      -9.323   3.605  72.501  1.00  0.00    -0.165 C  
HETATM    7  C   UNL     1      -8.635   3.593  71.134  1.00  0.00    -0.108 C  
HETATM    8  C   UNL     1      -8.116   2.192  70.814  1.00  0.00    -0.060 C  
HETATM    9  C   UNL     1      -9.587   4.106  70.046  1.00  0.00    -0.274 C  
HETATM   10  C   UNL     1     -10.118   5.521  70.372  1.00  0.00    -0.230 C  
ENDROOT
BRANCH  10  11
HETATM   11  O   UNL     1     -10.950   5.962  69.272  1.00  0.00    -0.334 OA 
BRANCH  11  12
HETATM   12  C   UNL     1     -10.287   6.633  68.287  1.00  0.00    -0.190 C  
HETATM   13  O   UNL     1     -10.382   7.842  68.104  1.00  0.00    -0.199 OA 
BRANCH  12  14
HETATM   14  C   UNL     1      -9.427   5.798  67.394  1.00  0.00    -0.112 A  
HETATM   15  C   UNL     1      -8.041   5.848  67.661  1.00  0.00    -0.102 A  
HETATM   16  C   UNL     1      -7.120   5.129  66.894  1.00  0.00    -0.073 A  
HETATM   17  C   UNL     1      -7.565   4.346  65.839  1.00  0.00    -0.089 A  
HETATM   18  C   UNL     1      -8.929   4.275  65.558  1.00  0.00    -0.132 A  
HETATM   19  C   UNL     1      -9.858   4.991  66.335  1.00  0.00    -0.201 A  
HETATM   20  O   UNL     1     -11.183   4.873  66.024  1.00  0.00    -0.693 OA 
HETATM   21  H   UNL     1     -11.476   4.325  65.306  1.00  0.00     0.000 HD 
ENDBRANCH  12  14
ENDBRANCH  11  12
ENDBRANCH  10  11
TORSDOF 3
ENDMDL
MODEL      204
REMARK 921   NORMALIZED FREE ENERGY PREDICTED BY IDOCK:   -3.31 KCAL/MOL
REMARK 922        TOTAL FREE ENERGY PREDICTED BY IDOCK:   -4.83 KCAL/MOL
REMARK 923 INTER-LIGAND FREE ENERGY PREDICTED BY IDOCK:   -3.98 KCAL/MOL
REMARK 924 INTRA-LIGAND FREE ENERGY PREDICTED BY IDOCK:   -0.84 KCAL/MOL
REMARK 927      BINDING AFFINITY PREDICTED BY RF-SCORE:    0.00 PKD
ROOT
HETATM    1  C   UNL     1     -11.670   9.943  71.000  1.00  0.00    -0.466 C  
HETATM    2  C   UNL     1     -11.426   8.434  71.018  1.00  0.00    -0.302 C  
HETATM    3  C   UNL     1     -10.897   7.866  69.664  1.00  0.00    -0.177 C  
HETATM    4  C   UNL     1     -10.585   8.067  72.244  1.00  0.00    -0.356 C  
HETATM    5  C   UNL     1     -10.795   6.322  69.746  1.00  0.00    -0.399 C  
HETATM    6  C   UNL     1     -10.460   5.681  68.404  1.00  0.00    -0.263 C  
HETATM    7  C   UNL     1      -9.185   6.273  67.795  1.00  0.00    -0.115 C  
HETATM    8  C   UNL     1      -8.925   5.664  66.418  1.00  0.00    -0.134 C  
HETATM    9  C   UNL     1      -9.280   7.802  67.728  1.00  0.00    -0.143 C  
HETATM   10  C   UNL     1      -9.551   8.420  69.120  1.00  0.00    -0.164 C  
ENDROOT
BRANCH  10  11
HETATM   11  O   UNL     1      -9.558   9.861  68.988  1.00  0.00    -0.169 OA 
BRANCH  11  12
HETATM   12  C   UNL     1      -8.388  10.472  69.330  1.00  0.00    -0.137 C  
HETATM   13  O   UNL     1      -7.556   9.978  70.084  1.00  0.00    -0.162 OA 
BRANCH  12  14
HETATM   14  C   UNL     1      -8.164  11.828  68.741  1.00  0.00    -0.027 A  
HETATM   15  C   UNL     1      -9.034  12.188  67.689  1.00  0.00    -0.178 A  
HETATM   16  C   UNL     1      -8.926  13.420  67.037  1.00  0.00    -0.228 A  
HETATM   17  C   UNL     1      -7.942  14.319  67.423  1.00  0.00    -0.211 A  
HETATM   18  C   UNL     1      -7.074  13.990  68.463  1.00  0.00    -0.102 A  
HETATM   19  C   UNL     1      -7.187  12.754  69.126  1.00  0.00     0.087 A  
HETATM   20  O   UNL     1      -6.320  12.490  70.148  1.00  0.00    -0.335 OA 
HETATM   21  H   UNL     1      -5.657  13.118  70.409  1.00  0.00     0.000 HD 
ENDBRANCH  12  14
ENDBRANCH  11  12
ENDBRANCH  10  11
TORSDOF 3
ENDMDL
MODEL      205
REMARK 921   NORMALIZED FREE ENERGY PREDICTED BY IDOCK:   -3.31 KCAL/MOL
REMARK 922        TOTAL FREE ENERGY PREDICTED BY IDOCK:   -4.82 KCAL/MOL
REMARK 923 INTER-LIGAND FREE ENERGY PREDICTED BY IDOCK:   -4.03 KCAL/MOL
REMARK 924 INTRA-LIGAND FREE ENERGY PREDICTED BY IDOCK:   -0.79 KCAL/MOL
REMARK 927      BINDING AFFINITY PREDICTED BY RF-SCORE:    0.00 PKD
ROOT
HETATM    1  C   UNL     1      -5.856  10.993  68.708  1.00  0.00    -0.039 C  
HETATM    2  C   UNL     1      -6.106   9.576  69.224  1.00  0.00    -0.037 C  
HETATM    3  C   UNL     1      -7.592   9.299  69.609  1.00  0.00    -0.084 C  
HETATM    4  C   UNL     1      -5.491   8.564  68.254  1.00  0.00    -0.034 C  
HETATM    5  C   UNL     1      -7.720   7.884  70.229  1.00  0.00    -0.088 C  
HETATM    6  C   UNL     1      -9.108   7.611  70.796  1.00  0.00    -0.153 C  
HETATM    7  C   UNL     1     -10.204   7.843  69.751  1.00  0.00    -0.212 C  
HETATM    8  C   UNL     1     -11.582   7.637  70.377  1.00  0.00    -0.138 C  
HETATM    9  C   UNL     1     -10.068   9.237  69.127  1.00  0.00    -0.204 C  
HETATM   10  C   UNL     1      -8.670   9.449  68.500  1.00  0.00    -0.128 C  
ENDROOT
BRANCH  10  11
HETATM   11  O   UNL     1      -8.642  10.755  67.875  1.00  0.00    -0.122 OA 
BRANCH  11  12
HETATM   12  C   UNL     1      -8.891  10.751  66.534  1.00  0.00    -0.155 C  
HETATM   13  O   UNL     1      -8.201  10.152  65.715  1.00  0.00    -0.132 OA 
BRANCH  12  14
HETATM   14  C   UNL     1     -10.069  11.555  66.086  1.00  0.00    -0.266 A  
HETATM   15  C   UNL     1     -10.326  11.541  64.698  1.00  0.00    -0.349 A  
HETATM   16  C   UNL     1     -11.385  12.261  64.141  1.00  0.00    -0.442 A  
HETATM   17  C   UNL     1     -12.212  13.016  64.962  1.00  0.00    -0.501 A  
HETATM   18  C   UNL     1     -11.984  13.042  66.336  1.00  0.00    -0.466 A  
HETATM   19  C   UNL     1     -10.922  12.310  66.900  1.00  0.00    -0.267 A  
HETATM   20  O   UNL     1     -10.754  12.359  68.255  1.00  0.00    -0.214 OA 
HETATM   21  H   UNL     1     -11.332  12.872  68.807  1.00  0.00     0.000 HD 
ENDBRANCH  12  14
ENDBRANCH  11  12
ENDBRANCH  10  11
TORSDOF 3
ENDMDL
MODEL      206
REMARK 921   NORMALIZED FREE ENERGY PREDICTED BY IDOCK:   -3.28 KCAL/MOL
REMARK 922        TOTAL FREE ENERGY PREDICTED BY IDOCK:   -4.79 KCAL/MOL
REMARK 923 INTER-LIGAND FREE ENERGY PREDICTED BY IDOCK:   -3.92 KCAL/MOL
REMARK 924 INTRA-LIGAND FREE ENERGY PREDICTED BY IDOCK:   -0.87 KCAL/MOL
REMARK 927      BINDING AFFINITY PREDICTED BY RF-SCORE:    0.00 PKD
ROOT
HETATM    1  C   UNL     1      -9.876  10.232  65.840  1.00  0.00    -0.298 C  
HETATM    2  C   UNL     1      -8.366  10.093  66.039  1.00  0.00    -0.130 C  
HETATM    3  C   UNL     1      -7.931  10.043  67.536  1.00  0.00    -0.106 C  
HETATM    4  C   UNL     1      -7.842   8.942  65.176  1.00  0.00    -0.106 C  
HETATM    5  C   UNL     1      -6.385  10.022  67.634  1.00  0.00    -0.059 C  
HETATM    6  C   UNL     1      -5.882  10.157  69.067  1.00  0.00    -0.037 C  
HETATM    7  C   UNL     1      -6.494   9.096  69.986  1.00  0.00    -0.044 C  
HETATM    8  C   UNL     1      -6.029   9.312  71.425  1.00  0.00    -0.075 C  
HETATM    9  C   UNL     1      -8.024   9.108  69.877  1.00  0.00    -0.104 C  
HETATM   10  C   UNL     1      -8.496   8.897  68.420  1.00  0.00    -0.129 C  
ENDROOT
BRANCH  10  11
HETATM   11  O   UNL     1      -9.942   8.850  68.409  1.00  0.00    -0.166 OA 
BRANCH  11  12
HETATM   12  C   UNL     1     -10.474   7.595  68.386  1.00  0.00    -0.169 C  
HETATM   13  O   UNL     1     -10.803   7.013  67.358  1.00  0.00    -0.285 OA 
BRANCH  12  14
HETATM   14  C   UNL     1     -10.664   6.942  69.718  1.00  0.00    -0.276 A  
HETATM   15  C   UNL     1     -10.005   5.706  69.892  1.00  0.00    -0.268 A  
HETATM   16  C   UNL     1     -10.109   4.979  71.081  1.00  0.00    -0.293 A  
HETATM   17  C   UNL     1     -10.880   5.474  72.124  1.00  0.00    -0.293 A  
HETATM   18  C   UNL     1     -11.536   6.695  71.980  1.00  0.00    -0.341 A  
HETATM   19  C   UNL     1     -11.425   7.432  70.786  1.00  0.00    -0.288 A  
HETATM   20  O   UNL     1     -12.077   8.629  70.706  1.00  0.00    -0.457 OA 
HETATM   21  H   UNL     1     -12.594   8.961  71.430  1.00  0.00     0.000 HD 
ENDBRANCH  12  14
ENDBRANCH  11  12
ENDBRANCH  10  11
TORSDOF 3
ENDMDL
MODEL      207
REMARK 921   NORMALIZED FREE ENERGY PREDICTED BY IDOCK:   -3.26 KCAL/MOL
REMARK 922        TOTAL FREE ENERGY PREDICTED BY IDOCK:   -4.77 KCAL/MOL
REMARK 923 INTER-LIGAND FREE ENERGY PREDICTED BY IDOCK:   -3.85 KCAL/MOL
REMARK 924 INTRA-LIGAND FREE ENERGY PREDICTED BY IDOCK:   -0.92 KCAL/MOL
REMARK 927      BINDING AFFINITY PREDICTED BY RF-SCORE:    0.00 PKD
ROOT
HETATM    1  C   UNL     1      -9.642  10.026  64.685  1.00  0.00    -0.363 C  
HETATM    2  C   UNL     1      -8.198   9.747  65.104  1.00  0.00    -0.140 C  
HETATM    3  C   UNL     1      -7.801  10.395  66.466  1.00  0.00    -0.124 C  
HETATM    4  C   UNL     1      -7.918   8.246  64.997  1.00  0.00    -0.141 C  
HETATM    5  C   UNL     1      -6.295  10.156  66.743  1.00  0.00    -0.070 C  
HETATM    6  C   UNL     1      -5.793  10.914  67.966  1.00  0.00    -0.045 C  
HETATM    7  C   UNL     1      -6.626  10.599  69.212  1.00  0.00    -0.068 C  
HETATM    8  C   UNL     1      -6.144  11.435  70.396  1.00  0.00    -0.110 C  
HETATM    9  C   UNL     1      -8.118  10.821  68.932  1.00  0.00    -0.145 C  
HETATM   10  C   UNL     1      -8.606   9.981  67.729  1.00  0.00    -0.118 C  
ENDROOT
BRANCH  10  11
HETATM   11  O   UNL     1     -10.029  10.190  67.573  1.00  0.00    -0.177 OA 
BRANCH  11  12
HETATM   12  C   UNL     1     -10.814   9.227  68.135  1.00  0.00    -0.090 C  
HETATM   13  O   UNL     1     -10.962   8.106  67.660  1.00  0.00    -0.092 OA 
BRANCH  12  14
HETATM   14  C   UNL     1     -11.528   9.618  69.389  1.00  0.00     0.048 A  
HETATM   15  C   UNL     1     -11.746  11.002  69.562  1.00  0.00    -0.400 A  
HETATM   16  C   UNL     1     -12.387  11.508  70.696  1.00  0.00    -0.457 A  
HETATM   17  C   UNL     1     -12.822  10.638  71.686  1.00  0.00    -0.570 A  
HETATM   18  C   UNL     1     -12.624   9.266  71.537  1.00  0.00    -0.430 A  
HETATM   19  C   UNL     1     -11.986   8.755  70.392  1.00  0.00     0.142 A  
HETATM   20  O   UNL     1     -11.832   7.401  70.291  1.00  0.00    -0.499 OA 
HETATM   21  H   UNL     1     -12.143   6.816  70.971  1.00  0.00     0.000 HD 
ENDBRANCH  12  14
ENDBRANCH  11  12
ENDBRANCH  10  11
TORSDOF 3
ENDMDL
MODEL      208
REMARK 921   NORMALIZED FREE ENERGY PREDICTED BY IDOCK:   -3.26 KCAL/MOL
REMARK 922        TOTAL FREE ENERGY PREDICTED BY IDOCK:   -4.77 KCAL/MOL
REMARK 923 INTER-LIGAND FREE ENERGY PREDICTED BY IDOCK:   -4.68 KCAL/MOL
REMARK 924 INTRA-LIGAND FREE ENERGY PREDICTED BY IDOCK:   -0.09 KCAL/MOL
REMARK 927      BINDING AFFINITY PREDICTED BY RF-SCORE:    0.00 PKD
ROOT
HETATM    1  C   UNL     1      -7.029   5.581  71.713  1.00  0.00    -0.075 C  
HETATM    2  C   UNL     1      -8.049   6.029  72.762  1.00  0.00    -0.107 C  
HETATM    3  C   UNL     1      -9.376   6.580  72.154  1.00  0.00    -0.142 C  
HETATM    4  C   UNL     1      -8.227   4.923  73.805  1.00  0.00    -0.106 C  
HETATM    5  C   UNL     1     -10.290   7.115  73.285  1.00  0.00    -0.369 C  
HETATM    6  C   UNL     1     -11.525   7.834  72.755  1.00  0.00    -0.415 C  
HETATM    7  C   UNL     1     -12.323   6.955  71.788  1.00  0.00    -0.401 C  
HETATM    8  C   UNL     1     -13.507   7.735  71.218  1.00  0.00    -0.240 C  
HETATM    9  C   UNL     1     -11.415   6.413  70.678  1.00  0.00    -0.426 C  
HETATM   10  C   UNL     1     -10.212   5.629  71.253  1.00  0.00    -0.220 C  
ENDROOT
BRANCH  10  11
HETATM   11  O   UNL     1      -9.444   5.094  70.149  1.00  0.00    -0.148 OA 
BRANCH  11  12
HETATM   12  C   UNL     1      -9.381   5.902  69.052  1.00  0.00    -0.123 C  
HETATM   13  O   UNL     1      -9.161   7.107  69.106  1.00  0.00    -0.138 OA 
BRANCH  12  14
HETATM   14  C   UNL     1      -9.622   5.234  67.736  1.00  0.00    -0.157 A  
HETATM   15  C   UNL     1      -8.706   4.217  67.391  1.00  0.00    -0.115 A  
HETATM   16  C   UNL     1      -8.803   3.521  66.183  1.00  0.00    -0.130 A  
HETATM   17  C   UNL     1      -9.820   3.832  65.290  1.00  0.00    -0.146 A  
HETATM   18  C   UNL     1     -10.740   4.828  65.609  1.00  0.00    -0.188 A  
HETATM   19  C   UNL     1     -10.649   5.524  66.829  1.00  0.00    -0.291 A  
HETATM   20  O   UNL     1     -11.586   6.480  67.097  1.00  0.00    -0.743 OA 
HETATM   21  H   UNL     1     -12.283   6.676  66.482  1.00  0.00     0.000 HD 
ENDBRANCH  12  14
ENDBRANCH  11  12
ENDBRANCH  10  11
TORSDOF 3
ENDMDL
MODEL      209
REMARK 921   NORMALIZED FREE ENERGY PREDICTED BY IDOCK:   -3.24 KCAL/MOL
REMARK 922        TOTAL FREE ENERGY PREDICTED BY IDOCK:   -4.75 KCAL/MOL
REMARK 923 INTER-LIGAND FREE ENERGY PREDICTED BY IDOCK:   -4.84 KCAL/MOL
REMARK 924 INTRA-LIGAND FREE ENERGY PREDICTED BY IDOCK:    0.09 KCAL/MOL
REMARK 927      BINDING AFFINITY PREDICTED BY RF-SCORE:    0.00 PKD
ROOT
HETATM    1  C   UNL     1     -12.536   6.884  72.299  1.00  0.00    -0.040 C  
HETATM    2  C   UNL     1     -11.473   5.799  72.472  1.00  0.00    -0.349 C  
HETATM    3  C   UNL     1     -10.882   5.277  71.126  1.00  0.00    -0.131 C  
HETATM    4  C   UNL     1     -10.434   6.262  73.496  1.00  0.00    -0.288 C  
HETATM    5  C   UNL     1      -9.907   4.104  71.400  1.00  0.00    -0.254 C  
HETATM    6  C   UNL     1      -9.430   3.422  70.123  1.00  0.00    -0.244 C  
HETATM    7  C   UNL     1      -8.809   4.423  69.144  1.00  0.00    -0.132 C  
HETATM    8  C   UNL     1      -8.416   3.718  67.846  1.00  0.00    -0.106 C  
HETATM    9  C   UNL     1      -9.768   5.590  68.885  1.00  0.00    -0.193 C  
HETATM   10  C   UNL     1     -10.173   6.300  70.198  1.00  0.00    -0.189 C  
ENDROOT
BRANCH  10  11
HETATM   11  O   UNL     1     -11.019   7.427  69.867  1.00  0.00    -0.250 OA 
BRANCH  11  12
HETATM   12  C   UNL     1     -10.372   8.475  69.282  1.00  0.00    -0.221 C  
HETATM   13  O   UNL     1      -9.330   8.363  68.645  1.00  0.00    -0.143 OA 
BRANCH  12  14
HETATM   14  C   UNL     1     -10.998   9.819  69.478  1.00  0.00    -0.256 A  
HETATM   15  C   UNL     1     -11.031  10.649  68.336  1.00  0.00    -0.303 A  
HETATM   16  C   UNL     1     -11.572  11.937  68.380  1.00  0.00    -0.376 A  
HETATM   17  C   UNL     1     -12.092  12.424  69.571  1.00  0.00    -0.250 A  
HETATM   18  C   UNL     1     -12.077  11.623  70.711  1.00  0.00    -0.383 A  
HETATM   19  C   UNL     1     -11.540  10.323  70.666  1.00  0.00    -0.347 A  
HETATM   20  O   UNL     1     -11.565   9.576  71.809  1.00  0.00    -0.385 OA 
HETATM   21  H   UNL     1     -11.933   9.918  72.616  1.00  0.00     0.000 HD 
ENDBRANCH  12  14
ENDBRANCH  11  12
ENDBRANCH  10  11
TORSDOF 3
ENDMDL
MODEL      210
REMARK 921   NORMALIZED FREE ENERGY PREDICTED BY IDOCK:   -3.23 KCAL/MOL
REMARK 922        TOTAL FREE ENERGY PREDICTED BY IDOCK:   -4.74 KCAL/MOL
REMARK 923 INTER-LIGAND FREE ENERGY PREDICTED BY IDOCK:   -3.98 KCAL/MOL
REMARK 924 INTRA-LIGAND FREE ENERGY PREDICTED BY IDOCK:   -0.76 KCAL/MOL
REMARK 927      BINDING AFFINITY PREDICTED BY RF-SCORE:    0.00 PKD
ROOT
HETATM    1  C   UNL     1     -12.104   7.146  70.709  1.00  0.00    -0.331 C  
HETATM    2  C   UNL     1     -11.047   6.585  71.661  1.00  0.00    -0.302 C  
HETATM    3  C   UNL     1      -9.698   6.226  70.963  1.00  0.00    -0.196 C  
HETATM    4  C   UNL     1     -10.918   7.503  72.878  1.00  0.00    -0.434 C  
HETATM    5  C   UNL     1      -8.740   5.559  71.982  1.00  0.00    -0.131 C  
HETATM    6  C   UNL     1      -7.473   5.016  71.332  1.00  0.00    -0.086 C  
HETATM    7  C   UNL     1      -6.739   6.094  70.529  1.00  0.00    -0.053 C  
HETATM    8  C   UNL     1      -5.520   5.495  69.829  1.00  0.00    -0.004 C  
HETATM    9  C   UNL     1      -7.692   6.764  69.531  1.00  0.00    -0.104 C  
HETATM   10  C   UNL     1      -8.930   7.365  70.237  1.00  0.00    -0.147 C  
ENDROOT
BRANCH  10  11
HETATM   11  O   UNL     1      -9.742   8.036  69.244  1.00  0.00    -0.163 OA 
BRANCH  11  12
HETATM   12  C   UNL     1      -9.550   9.384  69.165  1.00  0.00    -0.163 C  
HETATM   13  O   UNL     1      -9.257  10.088  70.126  1.00  0.00    -0.189 OA 
BRANCH  12  14
HETATM   14  C   UNL     1      -9.740   9.992  67.813  1.00  0.00    -0.174 A  
HETATM   15  C   UNL     1      -9.403  11.359  67.705  1.00  0.00    -0.162 A  
HETATM   16  C   UNL     1      -9.547  12.057  66.503  1.00  0.00    -0.234 A  
HETATM   17  C   UNL     1     -10.035  11.403  65.381  1.00  0.00    -0.289 A  
HETATM   18  C   UNL     1     -10.369  10.052  65.459  1.00  0.00    -0.146 A  
HETATM   19  C   UNL     1     -10.217   9.345  66.667  1.00  0.00    -0.249 A  
HETATM   20  O   UNL     1     -10.546   8.019  66.682  1.00  0.00    -0.418 OA 
HETATM   21  H   UNL     1     -10.869   7.580  65.905  1.00  0.00     0.000 HD 
ENDBRANCH  12  14
ENDBRANCH  11  12
ENDBRANCH  10  11
TORSDOF 3
ENDMDL
MODEL      211
REMARK 921   NORMALIZED FREE ENERGY PREDICTED BY IDOCK:   -3.21 KCAL/MOL
REMARK 922        TOTAL FREE ENERGY PREDICTED BY IDOCK:   -4.71 KCAL/MOL
REMARK 923 INTER-LIGAND FREE ENERGY PREDICTED BY IDOCK:   -4.37 KCAL/MOL
REMARK 924 INTRA-LIGAND FREE ENERGY PREDICTED BY IDOCK:   -0.34 KCAL/MOL
REMARK 927      BINDING AFFINITY PREDICTED BY RF-SCORE:    0.00 PKD
ROOT
HETATM    1  C   UNL     1      -6.840   6.775  69.143  1.00  0.00    -0.065 C  
HETATM    2  C   UNL     1      -7.340   8.109  69.698  1.00  0.00    -0.073 C  
HETATM    3  C   UNL     1      -8.802   8.058  70.237  1.00  0.00    -0.145 C  
HETATM    4  C   UNL     1      -6.309   8.670  70.681  1.00  0.00    -0.039 C  
HETATM    5  C   UNL     1      -9.255   9.477  70.665  1.00  0.00    -0.243 C  
HETATM    6  C   UNL     1     -10.733   9.540  71.032  1.00  0.00    -0.411 C  
HETATM    7  C   UNL     1     -11.095   8.511  72.108  1.00  0.00    -0.436 C  
HETATM    8  C   UNL     1     -12.596   8.549  72.391  1.00  0.00    -0.409 C  
HETATM    9  C   UNL     1     -10.634   7.110  71.690  1.00  0.00    -0.229 C  
HETATM   10  C   UNL     1      -9.116   7.071  71.395  1.00  0.00    -0.147 C  
ENDROOT
BRANCH  10  11
HETATM   11  O   UNL     1      -8.747   5.708  71.077  1.00  0.00    -0.130 OA 
BRANCH  11  12
HETATM   12  C   UNL     1      -9.757   4.945  70.572  1.00  0.00    -0.204 C  
HETATM   13  O   UNL     1     -10.572   4.347  71.267  1.00  0.00     0.034 OA 
BRANCH  12  14
HETATM   14  C   UNL     1      -9.819   4.849  69.081  1.00  0.00    -0.263 A  
HETATM   15  C   UNL     1      -8.948   3.905  68.494  1.00  0.00    -0.167 A  
HETATM   16  C   UNL     1      -8.890   3.723  67.109  1.00  0.00    -0.135 A  
HETATM   17  C   UNL     1      -9.703   4.484  66.280  1.00  0.00    -0.216 A  
HETATM   18  C   UNL     1     -10.576   5.418  66.835  1.00  0.00    -0.320 A  
HETATM   19  C   UNL     1     -10.641   5.597  68.230  1.00  0.00    -0.181 A  
HETATM   20  O   UNL     1     -11.525   6.515  68.720  1.00  0.00    -0.593 OA 
HETATM   21  H   UNL     1     -12.083   7.023  68.143  1.00  0.00     0.000 HD 
ENDBRANCH  12  14
ENDBRANCH  11  12
ENDBRANCH  10  11
TORSDOF 3
ENDMDL
MODEL      212
REMARK 921   NORMALIZED FREE ENERGY PREDICTED BY IDOCK:   -3.17 KCAL/MOL
REMARK 922        TOTAL FREE ENERGY PREDICTED BY IDOCK:   -4.66 KCAL/MOL
REMARK 923 INTER-LIGAND FREE ENERGY PREDICTED BY IDOCK:   -4.38 KCAL/MOL
REMARK 924 INTRA-LIGAND FREE ENERGY PREDICTED BY IDOCK:   -0.28 KCAL/MOL
REMARK 927      BINDING AFFINITY PREDICTED BY RF-SCORE:    0.00 PKD
ROOT
HETATM    1  C   UNL     1     -10.579   6.830  68.282  1.00  0.00    -0.276 C  
HETATM    2  C   UNL     1      -9.083   6.797  68.597  1.00  0.00    -0.127 C  
HETATM    3  C   UNL     1      -8.252   7.859  67.814  1.00  0.00    -0.129 C  
HETATM    4  C   UNL     1      -8.882   6.810  70.114  1.00  0.00    -0.141 C  
HETATM    5  C   UNL     1      -6.743   7.668  68.110  1.00  0.00    -0.059 C  
HETATM    6  C   UNL     1      -5.854   8.551  67.241  1.00  0.00    -0.043 C  
HETATM    7  C   UNL     1      -6.242  10.029  67.350  1.00  0.00    -0.059 C  
HETATM    8  C   UNL     1      -5.384  10.871  66.407  1.00  0.00    -0.099 C  
HETATM    9  C   UNL     1      -7.739  10.215  67.071  1.00  0.00    -0.096 C  
HETATM   10  C   UNL     1      -8.608   9.357  68.020  1.00  0.00    -0.120 C  
ENDROOT
BRANCH  10  11
HETATM   11  O   UNL     1     -10.001   9.639  67.743  1.00  0.00    -0.156 OA 
BRANCH  11  12
HETATM   12  C   UNL     1     -10.234  10.245  66.544  1.00  0.00    -0.226 C  
HETATM   13  O   UNL     1     -10.049   9.703  65.459  1.00  0.00    -0.290 OA 
BRANCH  12  14
HETATM   14  C   UNL     1     -10.723  11.657  66.611  1.00  0.00    -0.310 A  
HETATM   15  C   UNL     1     -11.477  11.987  67.758  1.00  0.00    -0.394 A  
HETATM   16  C   UNL     1     -12.009  13.266  67.942  1.00  0.00    -0.349 A  
HETATM   17  C   UNL     1     -11.800  14.244  66.979  1.00  0.00    -0.455 A  
HETATM   18  C   UNL     1     -11.054  13.945  65.841  1.00  0.00    -0.291 A  
HETATM   19  C   UNL     1     -10.511  12.659  65.658  1.00  0.00    -0.275 A  
HETATM   20  O   UNL     1      -9.776  12.425  64.531  1.00  0.00    -0.482 OA 
HETATM   21  H   UNL     1      -9.632  13.106  63.884  1.00  0.00     0.000 HD 
ENDBRANCH  12  14
ENDBRANCH  11  12
ENDBRANCH  10  11
TORSDOF 3
ENDMDL
MODEL      213
REMARK 921   NORMALIZED FREE ENERGY PREDICTED BY IDOCK:   -3.16 KCAL/MOL
REMARK 922        TOTAL FREE ENERGY PREDICTED BY IDOCK:   -4.65 KCAL/MOL
REMARK 923 INTER-LIGAND FREE ENERGY PREDICTED BY IDOCK:   -4.25 KCAL/MOL
REMARK 924 INTRA-LIGAND FREE ENERGY PREDICTED BY IDOCK:   -0.40 KCAL/MOL
REMARK 927      BINDING AFFINITY PREDICTED BY RF-SCORE:    0.00 PKD
ROOT
HETATM    1  C   UNL     1     -12.773   7.124  71.694  1.00  0.00    -0.415 C  
HETATM    2  C   UNL     1     -11.714   6.075  71.351  1.00  0.00    -0.133 C  
HETATM    3  C   UNL     1     -11.206   6.152  69.879  1.00  0.00    -0.484 C  
HETATM    4  C   UNL     1     -10.614   6.095  72.416  1.00  0.00    -0.243 C  
HETATM    5  C   UNL     1     -10.230   4.981  69.597  1.00  0.00    -0.306 C  
HETATM    6  C   UNL     1      -9.833   4.883  68.129  1.00  0.00    -0.198 C  
HETATM    7  C   UNL     1      -9.256   6.202  67.608  1.00  0.00    -0.107 C  
HETATM    8  C   UNL     1      -8.945   6.090  66.116  1.00  0.00    -0.160 C  
HETATM    9  C   UNL     1     -10.215   7.362  67.899  1.00  0.00    -0.242 C  
HETATM   10  C   UNL     1     -10.538   7.473  69.408  1.00  0.00    -0.223 C  
ENDROOT
BRANCH  10  11
HETATM   11  O   UNL     1     -11.388   8.627  69.611  1.00  0.00    -0.009 OA 
BRANCH  11  12
HETATM   12  C   UNL     1     -10.742   9.742  70.056  1.00  0.00    -0.283 C  
HETATM   13  O   UNL     1     -11.310  10.793  70.335  1.00  0.00    -0.301 OA 
BRANCH  12  14
HETATM   14  C   UNL     1      -9.255   9.631  70.173  1.00  0.00    -0.287 A  
HETATM   15  C   UNL     1      -8.785   8.812  71.223  1.00  0.00    -0.273 A  
HETATM   16  C   UNL     1      -7.419   8.633  71.457  1.00  0.00    -0.124 A  
HETATM   17  C   UNL     1      -6.491   9.272  70.647  1.00  0.00    -0.073 A  
HETATM   18  C   UNL     1      -6.930  10.082  69.600  1.00  0.00    -0.096 A  
HETATM   19  C   UNL     1      -8.305  10.257  69.357  1.00  0.00    -0.161 A  
HETATM   20  O   UNL     1      -8.678  11.048  68.309  1.00  0.00    -0.131 OA 
HETATM   21  H   UNL     1      -8.033  11.473  67.755  1.00  0.00     0.000 HD 
ENDBRANCH  12  14
ENDBRANCH  11  12
ENDBRANCH  10  11
TORSDOF 3
ENDMDL
MODEL      214
REMARK 921   NORMALIZED FREE ENERGY PREDICTED BY IDOCK:   -3.15 KCAL/MOL
REMARK 922        TOTAL FREE ENERGY PREDICTED BY IDOCK:   -4.64 KCAL/MOL
REMARK 923 INTER-LIGAND FREE ENERGY PREDICTED BY IDOCK:   -3.76 KCAL/MOL
REMARK 924 INTRA-LIGAND FREE ENERGY PREDICTED BY IDOCK:   -0.88 KCAL/MOL
REMARK 927      BINDING AFFINITY PREDICTED BY RF-SCORE:    0.00 PKD
ROOT
HETATM    1  C   UNL     1      -7.813  17.405  66.204  1.00  0.00    -0.293 C  
HETATM    2  C   UNL     1      -6.550  18.252  66.365  1.00  0.00    -0.246 C  
HETATM    3  C   UNL     1      -6.457  18.989  67.737  1.00  0.00    -0.223 C  
HETATM    4  C   UNL     1      -5.323  17.412  66.000  1.00  0.00    -0.107 C  
HETATM    5  C   UNL     1      -5.210  19.908  67.757  1.00  0.00    -0.190 C  
HETATM    6  C   UNL     1      -5.152  20.798  68.993  1.00  0.00    -0.333 C  
HETATM    7  C   UNL     1      -5.240  19.981  70.285  1.00  0.00    -0.256 C  
HETATM    8  C   UNL     1      -5.259  20.911  71.498  1.00  0.00    -0.087 C  
HETATM    9  C   UNL     1      -6.466  19.061  70.259  1.00  0.00     0.107 C  
HETATM   10  C   UNL     1      -6.452  18.124  69.028  1.00  0.00    -0.243 C  
ENDROOT
BRANCH  10  11
HETATM   11  O   UNL     1      -7.598  17.244  69.110  1.00  0.00    -0.214 OA 
BRANCH  11  12
HETATM   12  C   UNL     1      -7.298  15.935  69.344  1.00  0.00    -0.217 C  
HETATM   13  O   UNL     1      -6.249  15.558  69.856  1.00  0.00    -0.150 OA 
BRANCH  12  14
HETATM   14  C   UNL     1      -8.330  14.942  68.914  1.00  0.00    -0.178 A  
HETATM   15  C   UNL     1      -9.658  15.419  68.878  1.00  0.00    -0.220 A  
HETATM   16  C   UNL     1     -10.724  14.594  68.511  1.00  0.00    -0.248 A  
HETATM   17  C   UNL     1     -10.485  13.269  68.174  1.00  0.00    -0.251 A  
HETATM   18  C   UNL     1      -9.182  12.774  68.197  1.00  0.00    -0.212 A  
HETATM   19  C   UNL     1      -8.106  13.607  68.558  1.00  0.00    -0.118 A  
HETATM   20  O   UNL     1      -6.848  13.074  68.549  1.00  0.00    -0.081 OA 
HETATM   21  H   UNL     1      -6.696  12.168  68.307  1.00  0.00     0.000 HD 
ENDBRANCH  12  14
ENDBRANCH  11  12
ENDBRANCH  10  11
TORSDOF 3
ENDMDL
MODEL      215
REMARK 921   NORMALIZED FREE ENERGY PREDICTED BY IDOCK:   -3.13 KCAL/MOL
REMARK 922        TOTAL FREE ENERGY PREDICTED BY IDOCK:   -4.61 KCAL/MOL
REMARK 923 INTER-LIGAND FREE ENERGY PREDICTED BY IDOCK:   -4.55 KCAL/MOL
REMARK 924 INTRA-LIGAND FREE ENERGY PREDICTED BY IDOCK:   -0.06 KCAL/MOL
REMARK 927      BINDING AFFINITY PREDICTED BY RF-SCORE:    0.00 PKD
ROOT
HETATM    1  C   UNL     1     -12.529  13.109  66.255  1.00  0.00    -0.210 C  
HETATM    2  C   UNL     1     -12.194  14.386  65.484  1.00  0.00    -0.352 C  
HETATM    3  C   UNL     1     -10.948  15.146  66.036  1.00  0.00    -0.332 C  
HETATM    4  C   UNL     1     -12.151  14.080  63.985  1.00  0.00    -0.413 C  
HETATM    5  C   UNL     1     -10.763  16.479  65.268  1.00  0.00    -0.269 C  
HETATM    6  C   UNL     1      -9.676  17.361  65.871  1.00  0.00    -0.087 C  
HETATM    7  C   UNL     1      -8.342  16.618  65.990  1.00  0.00    -0.180 C  
HETATM    8  C   UNL     1      -7.301  17.505  66.670  1.00  0.00    -0.273 C  
HETATM    9  C   UNL     1      -8.529  15.292  66.737  1.00  0.00    -0.290 C  
HETATM   10  C   UNL     1      -9.588  14.395  66.054  1.00  0.00    -0.262 C  
ENDROOT
BRANCH  10  11
HETATM   11  O   UNL     1      -9.658  13.140  66.773  1.00  0.00    -0.236 OA 
BRANCH  11  12
HETATM   12  C   UNL     1      -9.169  13.183  68.045  1.00  0.00    -0.211 C  
HETATM   13  O   UNL     1      -8.086  12.710  68.375  1.00  0.00    -0.155 OA 
BRANCH  12  14
HETATM   14  C   UNL     1     -10.050  13.837  69.061  1.00  0.00     0.005 A  
HETATM   15  C   UNL     1     -11.369  13.339  69.135  1.00  0.00    -0.336 A  
HETATM   16  C   UNL     1     -12.304  13.869  70.029  1.00  0.00    -0.378 A  
HETATM   17  C   UNL     1     -11.939  14.913  70.868  1.00  0.00    -0.374 A  
HETATM   18  C   UNL     1     -10.641  15.419  70.818  1.00  0.00    -0.098 A  
HETATM   19  C   UNL     1      -9.696  14.880  69.924  1.00  0.00     0.189 A  
HETATM   20  O   UNL     1      -8.435  15.404  69.928  1.00  0.00    -0.289 OA 
HETATM   21  H   UNL     1      -8.195  16.112  70.515  1.00  0.00     0.000 HD 
ENDBRANCH  12  14
ENDBRANCH  11  12
ENDBRANCH  10  11
TORSDOF 3
ENDMDL
MODEL      216
REMARK 921   NORMALIZED FREE ENERGY PREDICTED BY IDOCK:   -3.13 KCAL/MOL
REMARK 922        TOTAL FREE ENERGY PREDICTED BY IDOCK:   -4.61 KCAL/MOL
REMARK 923 INTER-LIGAND FREE ENERGY PREDICTED BY IDOCK:   -3.96 KCAL/MOL
REMARK 924 INTRA-LIGAND FREE ENERGY PREDICTED BY IDOCK:   -0.65 KCAL/MOL
REMARK 927      BINDING AFFINITY PREDICTED BY RF-SCORE:    0.00 PKD
ROOT
HETATM    1  C   UNL     1      -8.694   6.159  65.029  1.00  0.00     0.055 C  
HETATM    2  C   UNL     1      -7.457   6.413  65.891  1.00  0.00    -0.082 C  
HETATM    3  C   UNL     1      -7.046   7.916  65.974  1.00  0.00    -0.062 C  
HETATM    4  C   UNL     1      -7.624   5.714  67.242  1.00  0.00    -0.089 C  
HETATM    5  C   UNL     1      -5.721   8.056  66.766  1.00  0.00    -0.036 C  
HETATM    6  C   UNL     1      -5.161   9.473  66.734  1.00  0.00    -0.040 C  
HETATM    7  C   UNL     1      -6.189  10.500  67.217  1.00  0.00    -0.058 C  
HETATM    8  C   UNL     1      -5.620  11.914  67.096  1.00  0.00    -0.132 C  
HETATM    9  C   UNL     1      -7.504  10.352  66.443  1.00  0.00    -0.120 C  
HETATM   10  C   UNL     1      -8.077   8.920  66.559  1.00  0.00    -0.107 C  
ENDROOT
BRANCH  10  11
HETATM   11  O   UNL     1      -9.347   8.878  65.864  1.00  0.00    -0.219 OA 
BRANCH  11  12
HETATM   12  C   UNL     1     -10.282   9.753  66.330  1.00  0.00    -0.217 C  
HETATM   13  O   UNL     1     -10.936   9.572  67.352  1.00  0.00    -0.232 OA 
BRANCH  12  14
HETATM   14  C   UNL     1     -10.500  10.978  65.501  1.00  0.00    -0.302 A  
HETATM   15  C   UNL     1     -10.934  12.123  66.205  1.00  0.00    -0.335 A  
HETATM   16  C   UNL     1     -11.192  13.331  65.552  1.00  0.00    -0.307 A  
HETATM   17  C   UNL     1     -11.023  13.421  64.177  1.00  0.00    -0.329 A  
HETATM   18  C   UNL     1     -10.591  12.307  63.460  1.00  0.00    -0.488 A  
HETATM   19  C   UNL     1     -10.323  11.091  64.117  1.00  0.00    -0.369 A  
HETATM   20  O   UNL     1      -9.886  10.036  63.367  1.00  0.00    -0.496 OA 
HETATM   21  H   UNL     1      -9.766  10.113  62.428  1.00  0.00     0.000 HD 
ENDBRANCH  12  14
ENDBRANCH  11  12
ENDBRANCH  10  11
TORSDOF 3
ENDMDL
MODEL      217
REMARK 921   NORMALIZED FREE ENERGY PREDICTED BY IDOCK:   -3.10 KCAL/MOL
REMARK 922        TOTAL FREE ENERGY PREDICTED BY IDOCK:   -4.58 KCAL/MOL
REMARK 923 INTER-LIGAND FREE ENERGY PREDICTED BY IDOCK:   -3.94 KCAL/MOL
REMARK 924 INTRA-LIGAND FREE ENERGY PREDICTED BY IDOCK:   -0.64 KCAL/MOL
REMARK 927      BINDING AFFINITY PREDICTED BY RF-SCORE:    0.00 PKD
ROOT
HETATM    1  C   UNL     1     -13.368   7.055  70.586  1.00  0.00     0.449 C  
HETATM    2  C   UNL     1     -12.780   7.400  71.955  1.00  0.00    -0.310 C  
HETATM    3  C   UNL     1     -11.221   7.442  71.977  1.00  0.00    -0.289 C  
HETATM    4  C   UNL     1     -13.468   8.653  72.503  1.00  0.00    -0.336 C  
HETATM    5  C   UNL     1     -10.723   7.681  73.425  1.00  0.00    -0.330 C  
HETATM    6  C   UNL     1      -9.210   7.553  73.558  1.00  0.00    -0.301 C  
HETATM    7  C   UNL     1      -8.475   8.471  72.576  1.00  0.00    -0.181 C  
HETATM    8  C   UNL     1      -6.965   8.258  72.683  1.00  0.00    -0.115 C  
HETATM    9  C   UNL     1      -8.979   8.245  71.146  1.00  0.00    -0.192 C  
HETATM   10  C   UNL     1     -10.508   8.453  71.038  1.00  0.00    -0.206 C  
ENDROOT
BRANCH  10  11
HETATM   11  O   UNL     1     -10.895   8.291  69.653  1.00  0.00    -0.226 OA 
BRANCH  11  12
HETATM   12  C   UNL     1     -10.129   8.982  68.761  1.00  0.00    -0.199 C  
HETATM   13  O   UNL     1      -9.184   8.493  68.152  1.00  0.00    -0.138 OA 
BRANCH  12  14
HETATM   14  C   UNL     1     -10.492  10.420  68.566  1.00  0.00    -0.210 A  
HETATM   15  C   UNL     1      -9.426  11.276  68.215  1.00  0.00    -0.190 A  
HETATM   16  C   UNL     1      -9.619  12.646  68.018  1.00  0.00    -0.213 A  
HETATM   17  C   UNL     1     -10.887  13.191  68.171  1.00  0.00    -0.271 A  
HETATM   18  C   UNL     1     -11.957  12.366  68.511  1.00  0.00    -0.273 A  
HETATM   19  C   UNL     1     -11.765  10.985  68.702  1.00  0.00    -0.296 A  
HETATM   20  O   UNL     1     -12.853  10.221  69.019  1.00  0.00    -0.115 OA 
HETATM   21  H   UNL     1     -13.717  10.605  69.111  1.00  0.00     0.000 HD 
ENDBRANCH  12  14
ENDBRANCH  11  12
ENDBRANCH  10  11
TORSDOF 3
ENDMDL
MODEL      218
REMARK 921   NORMALIZED FREE ENERGY PREDICTED BY IDOCK:   -3.06 KCAL/MOL
REMARK 922        TOTAL FREE ENERGY PREDICTED BY IDOCK:   -4.54 KCAL/MOL
REMARK 923 INTER-LIGAND FREE ENERGY PREDICTED BY IDOCK:   -4.36 KCAL/MOL
REMARK 924 INTRA-LIGAND FREE ENERGY PREDICTED BY IDOCK:   -0.18 KCAL/MOL
REMARK 927      BINDING AFFINITY PREDICTED BY RF-SCORE:    0.00 PKD
ROOT
HETATM    1  C   UNL     1     -11.785  12.081  66.850  1.00  0.00    -0.342 C  
HETATM    2  C   UNL     1     -11.554  13.500  67.373  1.00  0.00    -0.392 C  
HETATM    3  C   UNL     1     -10.139  13.719  67.992  1.00  0.00    -0.245 C  
HETATM    4  C   UNL     1     -11.951  14.511  66.295  1.00  0.00    -0.335 C  
HETATM    5  C   UNL     1     -10.044  15.143  68.597  1.00  0.00    -0.222 C  
HETATM    6  C   UNL     1      -8.756  15.367  69.380  1.00  0.00    -0.252 C  
HETATM    7  C   UNL     1      -7.517  15.058  68.534  1.00  0.00    -0.119 C  
HETATM    8  C   UNL     1      -6.250  15.217  69.374  1.00  0.00    -0.122 C  
HETATM    9  C   UNL     1      -7.618  13.655  67.924  1.00  0.00    -0.156 C  
HETATM   10  C   UNL     1      -8.903  13.489  67.079  1.00  0.00    -0.211 C  
ENDROOT
BRANCH  10  11
HETATM   11  O   UNL     1      -8.892  12.170  66.483  1.00  0.00    -0.204 OA 
BRANCH  11  12
HETATM   12  C   UNL     1      -8.059  11.277  67.089  1.00  0.00    -0.150 C  
HETATM   13  O   UNL     1      -6.836  11.367  67.075  1.00  0.00    -0.115 OA 
BRANCH  12  14
HETATM   14  C   UNL     1      -8.725  10.129  67.778  1.00  0.00    -0.121 A  
HETATM   15  C   UNL     1      -9.415   9.229  66.937  1.00  0.00    -0.211 A  
HETATM   16  C   UNL     1     -10.095   8.121  67.449  1.00  0.00    -0.298 A  
HETATM   17  C   UNL     1     -10.103   7.890  68.818  1.00  0.00    -0.203 A  
HETATM   18  C   UNL     1      -9.424   8.760  69.670  1.00  0.00    -0.170 A  
HETATM   19  C   UNL     1      -8.732   9.872  69.154  1.00  0.00    -0.159 A  
HETATM   20  O   UNL     1      -8.071  10.683  70.033  1.00  0.00    -0.331 OA 
HETATM   21  H   UNL     1      -8.076  10.509  70.967  1.00  0.00     0.000 HD 
ENDBRANCH  12  14
ENDBRANCH  11  12
ENDBRANCH  10  11
TORSDOF 3
ENDMDL
MODEL      219
REMARK 921   NORMALIZED FREE ENERGY PREDICTED BY IDOCK:   -3.04 KCAL/MOL
REMARK 922        TOTAL FREE ENERGY PREDICTED BY IDOCK:   -4.51 KCAL/MOL
REMARK 923 INTER-LIGAND FREE ENERGY PREDICTED BY IDOCK:   -3.72 KCAL/MOL
REMARK 924 INTRA-LIGAND FREE ENERGY PREDICTED BY IDOCK:   -0.79 KCAL/MOL
REMARK 927      BINDING AFFINITY PREDICTED BY RF-SCORE:    0.00 PKD
ROOT
HETATM    1  C   UNL     1      -9.676   8.915  71.574  1.00  0.00    -0.372 C  
HETATM    2  C   UNL     1      -8.570   7.859  71.529  1.00  0.00    -0.144 C  
HETATM    3  C   UNL     1      -8.556   7.018  70.215  1.00  0.00    -0.140 C  
HETATM    4  C   UNL     1      -7.232   8.506  71.895  1.00  0.00    -0.113 C  
HETATM    5  C   UNL     1      -7.484   5.904  70.315  1.00  0.00    -0.089 C  
HETATM    6  C   UNL     1      -7.535   4.928  69.145  1.00  0.00    -0.053 C  
HETATM    7  C   UNL     1      -7.437   5.652  67.798  1.00  0.00    -0.077 C  
HETATM    8  C   UNL     1      -7.571   4.652  66.650  1.00  0.00    -0.087 C  
HETATM    9  C   UNL     1      -8.488   6.764  67.706  1.00  0.00    -0.122 C  
HETATM   10  C   UNL     1      -8.358   7.773  68.871  1.00  0.00    -0.128 C  
ENDROOT
BRANCH  10  11
HETATM   11  O   UNL     1      -9.334   8.824  68.677  1.00  0.00    -0.141 OA 
BRANCH  11  12
HETATM   12  C   UNL     1      -8.818  10.010  68.245  1.00  0.00    -0.116 C  
HETATM   13  O   UNL     1      -7.655  10.155  67.883  1.00  0.00    -0.088 OA 
BRANCH  12  14
HETATM   14  C   UNL     1      -9.758  11.172  68.253  1.00  0.00    -0.190 A  
HETATM   15  C   UNL     1      -9.190  12.419  67.912  1.00  0.00    -0.192 A  
HETATM   16  C   UNL     1      -9.951  13.592  67.895  1.00  0.00    -0.245 A  
HETATM   17  C   UNL     1     -11.299  13.542  68.222  1.00  0.00    -0.328 A  
HETATM   18  C   UNL     1     -11.885  12.323  68.556  1.00  0.00    -0.359 A  
HETATM   19  C   UNL     1     -11.122  11.140  68.566  1.00  0.00    -0.244 A  
HETATM   20  O   UNL     1     -11.752   9.971  68.886  1.00  0.00    -0.496 OA 
HETATM   21  H   UNL     1     -12.677   9.949  69.098  1.00  0.00     0.000 HD 
ENDBRANCH  12  14
ENDBRANCH  11  12
ENDBRANCH  10  11
TORSDOF 3
ENDMDL
MODEL      220
REMARK 921   NORMALIZED FREE ENERGY PREDICTED BY IDOCK:   -3.02 KCAL/MOL
REMARK 922        TOTAL FREE ENERGY PREDICTED BY IDOCK:   -4.49 KCAL/MOL
REMARK 923 INTER-LIGAND FREE ENERGY PREDICTED BY IDOCK:   -3.58 KCAL/MOL
REMARK 924 INTRA-LIGAND FREE ENERGY PREDICTED BY IDOCK:   -0.90 KCAL/MOL
REMARK 927      BINDING AFFINITY PREDICTED BY RF-SCORE:    0.00 PKD
ROOT
HETATM    1  C   UNL     1      -8.825   6.143  64.966  1.00  0.00     0.143 C  
HETATM    2  C   UNL     1      -7.508   6.366  65.711  1.00  0.00    -0.082 C  
HETATM    3  C   UNL     1      -7.119   7.869  65.865  1.00  0.00    -0.061 C  
HETATM    4  C   UNL     1      -7.519   5.566  67.015  1.00  0.00    -0.088 C  
HETATM    5  C   UNL     1      -5.721   7.986  66.523  1.00  0.00    -0.040 C  
HETATM    6  C   UNL     1      -5.194   9.416  66.541  1.00  0.00    -0.044 C  
HETATM    7  C   UNL     1      -6.185  10.378  67.205  1.00  0.00    -0.062 C  
HETATM    8  C   UNL     1      -5.659  11.811  67.133  1.00  0.00    -0.121 C  
HETATM    9  C   UNL     1      -7.571  10.251  66.562  1.00  0.00    -0.113 C  
HETATM   10  C   UNL     1      -8.102   8.800  66.628  1.00  0.00    -0.103 C  
ENDROOT
BRANCH  10  11
HETATM   11  O   UNL     1      -9.437   8.775  66.068  1.00  0.00    -0.227 OA 
BRANCH  11  12
HETATM   12  C   UNL     1     -10.435   8.587  66.977  1.00  0.00    -0.292 C  
HETATM   13  O   UNL     1     -10.982   7.506  67.175  1.00  0.00    -0.293 OA 
BRANCH  12  14
HETATM   14  C   UNL     1     -10.863   9.802  67.736  1.00  0.00    -0.306 A  
HETATM   15  C   UNL     1     -11.031   9.625  69.127  1.00  0.00    -0.177 A  
HETATM   16  C   UNL     1     -11.445  10.672  69.955  1.00  0.00    -0.393 A  
HETATM   17  C   UNL     1     -11.703  11.921  69.408  1.00  0.00    -0.401 A  
HETATM   18  C   UNL     1     -11.539  12.123  68.038  1.00  0.00    -0.411 A  
HETATM   19  C   UNL     1     -11.115  11.072  67.205  1.00  0.00    -0.267 A  
HETATM   20  O   UNL     1     -10.957  11.330  65.873  1.00  0.00    -0.247 OA 
HETATM   21  H   UNL     1     -11.127  12.192  65.512  1.00  0.00     0.000 HD 
ENDBRANCH  12  14
ENDBRANCH  11  12
ENDBRANCH  10  11
TORSDOF 3
ENDMDL
MODEL      221
REMARK 921   NORMALIZED FREE ENERGY PREDICTED BY IDOCK:   -3.02 KCAL/MOL
REMARK 922        TOTAL FREE ENERGY PREDICTED BY IDOCK:   -4.49 KCAL/MOL
REMARK 923 INTER-LIGAND FREE ENERGY PREDICTED BY IDOCK:   -4.21 KCAL/MOL
REMARK 924 INTRA-LIGAND FREE ENERGY PREDICTED BY IDOCK:   -0.27 KCAL/MOL
REMARK 927      BINDING AFFINITY PREDICTED BY RF-SCORE:    0.00 PKD
ROOT
HETATM    1  C   UNL     1     -11.841   8.762  70.613  1.00  0.00    -0.137 C  
HETATM    2  C   UNL     1     -10.354   8.423  70.496  1.00  0.00    -0.220 C  
HETATM    3  C   UNL     1      -9.703   8.901  69.161  1.00  0.00    -0.168 C  
HETATM    4  C   UNL     1      -9.627   8.874  71.765  1.00  0.00    -0.353 C  
HETATM    5  C   UNL     1      -8.235   8.409  69.086  1.00  0.00    -0.120 C  
HETATM    6  C   UNL     1      -7.590   8.679  67.732  1.00  0.00    -0.098 C  
HETATM    7  C   UNL     1      -7.683  10.158  67.345  1.00  0.00    -0.095 C  
HETATM    8  C   UNL     1      -7.098  10.377  65.950  1.00  0.00    -0.135 C  
HETATM    9  C   UNL     1      -9.133  10.648  67.433  1.00  0.00    -0.146 C  
HETATM   10  C   UNL     1      -9.729  10.421  68.842  1.00  0.00    -0.198 C  
ENDROOT
BRANCH  10  11
HETATM   11  O   UNL     1     -11.069  10.969  68.866  1.00  0.00    -0.200 OA 
BRANCH  11  12
HETATM   12  C   UNL     1     -11.137  12.300  69.149  1.00  0.00    -0.203 C  
HETATM   13  O   UNL     1     -11.695  12.759  70.141  1.00  0.00    -0.269 OA 
BRANCH  12  14
HETATM   14  C   UNL     1     -10.496  13.213  68.153  1.00  0.00    -0.255 A  
HETATM   15  C   UNL     1      -9.403  13.968  68.631  1.00  0.00    -0.130 A  
HETATM   16  C   UNL     1      -8.721  14.872  67.812  1.00  0.00    -0.168 A  
HETATM   17  C   UNL     1      -9.121  15.043  66.494  1.00  0.00    -0.319 A  
HETATM   18  C   UNL     1     -10.194  14.306  65.996  1.00  0.00    -0.327 A  
HETATM   19  C   UNL     1     -10.876  13.389  66.817  1.00  0.00    -0.282 A  
HETATM   20  O   UNL     1     -11.910  12.682  66.273  1.00  0.00    -0.393 OA 
HETATM   21  H   UNL     1     -12.168  12.801  65.366  1.00  0.00     0.000 HD 
ENDBRANCH  12  14
ENDBRANCH  11  12
ENDBRANCH  10  11
TORSDOF 3
ENDMDL
MODEL      222
REMARK 921   NORMALIZED FREE ENERGY PREDICTED BY IDOCK:   -2.98 KCAL/MOL
REMARK 922        TOTAL FREE ENERGY PREDICTED BY IDOCK:   -4.44 KCAL/MOL
REMARK 923 INTER-LIGAND FREE ENERGY PREDICTED BY IDOCK:   -4.03 KCAL/MOL
REMARK 924 INTRA-LIGAND FREE ENERGY PREDICTED BY IDOCK:   -0.41 KCAL/MOL
REMARK 927      BINDING AFFINITY PREDICTED BY RF-SCORE:    0.00 PKD
ROOT
HETATM    1  C   UNL     1     -10.467   5.258  71.588  1.00  0.00    -0.280 C  
HETATM    2  C   UNL     1     -10.952   6.709  71.587  1.00  0.00    -0.280 C  
HETATM    3  C   UNL     1     -10.445   7.541  70.370  1.00  0.00    -0.227 C  
HETATM    4  C   UNL     1     -12.467   6.739  71.804  1.00  0.00    -0.394 C  
HETATM    5  C   UNL     1     -10.889   9.018  70.521  1.00  0.00    -0.296 C  
HETATM    6  C   UNL     1     -10.278   9.930  69.464  1.00  0.00    -0.243 C  
HETATM    7  C   UNL     1     -10.561   9.425  68.046  1.00  0.00    -0.278 C  
HETATM    8  C   UNL     1      -9.867  10.318  67.019  1.00  0.00    -0.238 C  
HETATM    9  C   UNL     1     -10.135   7.959  67.901  1.00  0.00    -0.240 C  
HETATM   10  C   UNL     1     -10.831   7.055  68.945  1.00  0.00    -0.167 C  
ENDROOT
BRANCH  10  11
HETATM   11  O   UNL     1     -10.434   5.685  68.701  1.00  0.00    -0.202 OA 
BRANCH  11  12
HETATM   12  C   UNL     1      -9.161   5.533  68.235  1.00  0.00    -0.109 C  
HETATM   13  O   UNL     1      -8.160   5.654  68.934  1.00  0.00    -0.098 OA 
BRANCH  12  14
HETATM   14  C   UNL     1      -9.033   5.224  66.778  1.00  0.00    -0.111 A  
HETATM   15  C   UNL     1      -9.991   4.326  66.258  1.00  0.00    -0.229 A  
HETATM   16  C   UNL     1      -9.979   3.936  64.916  1.00  0.00    -0.198 A  
HETATM   17  C   UNL     1      -9.004   4.435  64.063  1.00  0.00    -0.143 A  
HETATM   18  C   UNL     1      -8.050   5.327  64.550  1.00  0.00    -0.120 A  
HETATM   19  C   UNL     1      -8.066   5.727  65.900  1.00  0.00    -0.113 A  
HETATM   20  O   UNL     1      -7.117   6.615  66.319  1.00  0.00    -0.064 OA 
HETATM   21  H   UNL     1      -6.462   6.957  65.723  1.00  0.00     0.000 HD 
ENDBRANCH  12  14
ENDBRANCH  11  12
ENDBRANCH  10  11
TORSDOF 3
ENDMDL
MODEL      223
REMARK 921   NORMALIZED FREE ENERGY PREDICTED BY IDOCK:   -2.96 KCAL/MOL
REMARK 922        TOTAL FREE ENERGY PREDICTED BY IDOCK:   -4.42 KCAL/MOL
REMARK 923 INTER-LIGAND FREE ENERGY PREDICTED BY IDOCK:   -4.02 KCAL/MOL
REMARK 924 INTRA-LIGAND FREE ENERGY PREDICTED BY IDOCK:   -0.40 KCAL/MOL
REMARK 927      BINDING AFFINITY PREDICTED BY RF-SCORE:    0.00 PKD
ROOT
HETATM    1  C   UNL     1     -10.383   5.305  71.124  1.00  0.00    -0.291 C  
HETATM    2  C   UNL     1     -10.794   6.761  70.899  1.00  0.00    -0.289 C  
HETATM    3  C   UNL     1     -10.334   7.339  69.525  1.00  0.00    -0.230 C  
HETATM    4  C   UNL     1     -12.286   6.922  71.201  1.00  0.00    -0.428 C  
HETATM    5  C   UNL     1     -10.691   8.845  69.442  1.00  0.00    -0.192 C  
HETATM    6  C   UNL     1     -10.112   9.521  68.205  1.00  0.00    -0.214 C  
HETATM    7  C   UNL     1     -10.522   8.799  66.918  1.00  0.00    -0.319 C  
HETATM    8  C   UNL     1      -9.860   9.457  65.708  1.00  0.00    -0.345 C  
HETATM    9  C   UNL     1     -10.182   7.306  67.007  1.00  0.00    -0.348 C  
HETATM   10  C   UNL     1     -10.846   6.640  68.235  1.00  0.00    -0.254 C  
ENDROOT
BRANCH  10  11
HETATM   11  O   UNL     1     -10.537   5.226  68.211  1.00  0.00    -0.120 OA 
BRANCH  11  12
HETATM   12  C   UNL     1     -10.171   4.742  66.990  1.00  0.00    -0.158 C  
HETATM   13  O   UNL     1     -10.901   4.757  66.004  1.00  0.00    -0.287 OA 
BRANCH  12  14
HETATM   14  C   UNL     1      -8.800   4.151  66.907  1.00  0.00    -0.123 A  
HETATM   15  C   UNL     1      -8.051   4.175  68.104  1.00  0.00    -0.085 A  
HETATM   16  C   UNL     1      -6.749   3.671  68.165  1.00  0.00    -0.046 A  
HETATM   17  C   UNL     1      -6.165   3.134  67.026  1.00  0.00    -0.028 A  
HETATM   18  C   UNL     1      -6.885   3.093  65.833  1.00  0.00    -0.048 A  
HETATM   19  C   UNL     1      -8.199   3.592  65.773  1.00  0.00    -0.104 A  
HETATM   20  O   UNL     1      -8.863   3.513  64.582  1.00  0.00    -0.113 OA 
HETATM   21  H   UNL     1      -8.456   3.134  63.812  1.00  0.00     0.000 HD 
ENDBRANCH  12  14
ENDBRANCH  11  12
ENDBRANCH  10  11
TORSDOF 3
ENDMDL
MODEL      224
REMARK 921   NORMALIZED FREE ENERGY PREDICTED BY IDOCK:   -2.96 KCAL/MOL
REMARK 922        TOTAL FREE ENERGY PREDICTED BY IDOCK:   -4.42 KCAL/MOL
REMARK 923 INTER-LIGAND FREE ENERGY PREDICTED BY IDOCK:   -4.03 KCAL/MOL
REMARK 924 INTRA-LIGAND FREE ENERGY PREDICTED BY IDOCK:   -0.39 KCAL/MOL
REMARK 927      BINDING AFFINITY PREDICTED BY RF-SCORE:    0.00 PKD
ROOT
HETATM    1  C   UNL     1      -6.745   6.193  71.239  1.00  0.00    -0.055 C  
HETATM    2  C   UNL     1      -7.763   6.184  72.380  1.00  0.00    -0.100 C  
HETATM    3  C   UNL     1      -9.101   6.907  72.035  1.00  0.00    -0.141 C  
HETATM    4  C   UNL     1      -7.919   4.757  72.912  1.00  0.00    -0.097 C  
HETATM    5  C   UNL     1     -10.014   6.948  73.286  1.00  0.00    -0.243 C  
HETATM    6  C   UNL     1     -11.263   7.798  73.079  1.00  0.00    -0.380 C  
HETATM    7  C   UNL     1     -12.055   7.350  71.847  1.00  0.00    -0.341 C  
HETATM    8  C   UNL     1     -13.253   8.273  71.626  1.00  0.00    -0.349 C  
HETATM    9  C   UNL     1     -11.148   7.296  70.612  1.00  0.00    -0.287 C  
HETATM   10  C   UNL     1      -9.931   6.369  70.837  1.00  0.00    -0.185 C  
ENDROOT
BRANCH  10  11
HETATM   11  O   UNL     1      -9.163   6.315  69.611  1.00  0.00    -0.140 OA 
BRANCH  11  12
HETATM   12  C   UNL     1      -9.880   6.562  68.477  1.00  0.00    -0.138 C  
HETATM   13  O   UNL     1     -10.810   5.860  68.093  1.00  0.00    -0.271 OA 
BRANCH  12  14
HETATM   14  C   UNL     1      -9.455   7.755  67.683  1.00  0.00    -0.168 A  
HETATM   15  C   UNL     1     -10.501   8.512  67.112  1.00  0.00    -0.370 A  
HETATM   16  C   UNL     1     -10.246   9.643  66.332  1.00  0.00    -0.288 A  
HETATM   17  C   UNL     1      -8.936  10.041  66.103  1.00  0.00    -0.174 A  
HETATM   18  C   UNL     1      -7.885   9.314  66.660  1.00  0.00    -0.104 A  
HETATM   19  C   UNL     1      -8.141   8.179  67.453  1.00  0.00    -0.122 A  
HETATM   20  O   UNL     1      -7.074   7.513  67.987  1.00  0.00    -0.079 OA 
HETATM   21  H   UNL     1      -6.183   7.802  67.830  1.00  0.00     0.000 HD 
ENDBRANCH  12  14
ENDBRANCH  11  12
ENDBRANCH  10  11
TORSDOF 3
ENDMDL
MODEL      225
REMARK 921   NORMALIZED FREE ENERGY PREDICTED BY IDOCK:   -2.96 KCAL/MOL
REMARK 922        TOTAL FREE ENERGY PREDICTED BY IDOCK:   -4.42 KCAL/MOL
REMARK 923 INTER-LIGAND FREE ENERGY PREDICTED BY IDOCK:   -3.74 KCAL/MOL
REMARK 924 INTRA-LIGAND FREE ENERGY PREDICTED BY IDOCK:   -0.68 KCAL/MOL
REMARK 927      BINDING AFFINITY PREDICTED BY RF-SCORE:    0.00 PKD
ROOT
HETATM    1  C   UNL     1      -7.711   8.880  69.220  1.00  0.00    -0.094 C  
HETATM    2  C   UNL     1      -9.066   8.428  69.766  1.00  0.00    -0.153 C  
HETATM    3  C   UNL     1      -9.915   9.584  70.379  1.00  0.00    -0.325 C  
HETATM    4  C   UNL     1      -9.788   7.589  68.707  1.00  0.00    -0.166 C  
HETATM    5  C   UNL     1     -11.210   9.009  71.007  1.00  0.00    -0.361 C  
HETATM    6  C   UNL     1     -12.003  10.053  71.785  1.00  0.00    -0.254 C  
HETATM    7  C   UNL     1     -12.319  11.282  70.927  1.00  0.00    -0.490 C  
HETATM    8  C   UNL     1     -13.043  12.337  71.762  1.00  0.00    -0.449 C  
HETATM    9  C   UNL     1     -11.040  11.841  70.294  1.00  0.00     0.516 C  
HETATM   10  C   UNL     1     -10.302  10.771  69.454  1.00  0.00    -0.179 C  
ENDROOT
BRANCH  10  11
HETATM   11  O   UNL     1      -9.149  11.391  68.836  1.00  0.00    -0.127 OA 
BRANCH  11  12
HETATM   12  C   UNL     1      -9.441  12.367  67.931  1.00  0.00    -0.198 C  
HETATM   13  O   UNL     1     -10.266  12.238  67.032  1.00  0.00    -0.214 OA 
BRANCH  12  14
HETATM   14  C   UNL     1      -8.670  13.641  68.073  1.00  0.00    -0.176 A  
HETATM   15  C   UNL     1      -7.291  13.554  67.785  1.00  0.00    -0.166 A  
HETATM   16  C   UNL     1      -6.448  14.664  67.892  1.00  0.00    -0.177 A  
HETATM   17  C   UNL     1      -6.968  15.886  68.295  1.00  0.00    -0.120 A  
HETATM   18  C   UNL     1      -8.327  16.000  68.580  1.00  0.00    -0.191 A  
HETATM   19  C   UNL     1      -9.179  14.885  68.464  1.00  0.00    -0.192 A  
HETATM   20  O   UNL     1     -10.505  15.056  68.741  1.00  0.00    -0.224 OA 
HETATM   21  H   UNL     1     -10.850  15.901  69.006  1.00  0.00     0.000 HD 
ENDBRANCH  12  14
ENDBRANCH  11  12
ENDBRANCH  10  11
TORSDOF 3
ENDMDL
MODEL      226
REMARK 921   NORMALIZED FREE ENERGY PREDICTED BY IDOCK:   -2.91 KCAL/MOL
REMARK 922        TOTAL FREE ENERGY PREDICTED BY IDOCK:   -4.37 KCAL/MOL
REMARK 923 INTER-LIGAND FREE ENERGY PREDICTED BY IDOCK:   -4.88 KCAL/MOL
REMARK 924 INTRA-LIGAND FREE ENERGY PREDICTED BY IDOCK:    0.51 KCAL/MOL
REMARK 927      BINDING AFFINITY PREDICTED BY RF-SCORE:    0.00 PKD
ROOT
HETATM    1  C   UNL     1      -8.686  11.794  65.699  1.00  0.00     0.202 C  
HETATM    2  C   UNL     1     -10.109  11.704  66.253  1.00  0.00    -0.254 C  
HETATM    3  C   UNL     1     -10.341  12.566  67.532  1.00  0.00    -0.225 C  
HETATM    4  C   UNL     1     -11.112  11.944  65.122  1.00  0.00    -0.360 C  
HETATM    5  C   UNL     1     -11.769  12.317  68.082  1.00  0.00    -0.408 C  
HETATM    6  C   UNL     1     -12.006  12.984  69.432  1.00  0.00    -0.338 C  
HETATM    7  C   UNL     1     -11.701  14.484  69.385  1.00  0.00    -0.361 C  
HETATM    8  C   UNL     1     -11.874  15.101  70.772  1.00  0.00    -0.371 C  
HETATM    9  C   UNL     1     -10.294  14.730  68.827  1.00  0.00    -0.248 C  
HETATM   10  C   UNL     1     -10.115  14.099  67.427  1.00  0.00    -0.240 C  
ENDROOT
BRANCH  10  11
HETATM   11  O   UNL     1      -8.793  14.432  66.940  1.00  0.00    -0.228 OA 
BRANCH  11  12
HETATM   12  C   UNL     1      -8.071  15.247  67.761  1.00  0.00    -0.146 C  
HETATM   13  O   UNL     1      -7.556  14.875  68.810  1.00  0.00    -0.119 OA 
BRANCH  12  14
HETATM   14  C   UNL     1      -7.947  16.671  67.321  1.00  0.00    -0.193 A  
HETATM   15  C   UNL     1      -6.875  16.948  66.446  1.00  0.00    -0.189 A  
HETATM   16  C   UNL     1      -6.632  18.240  65.970  1.00  0.00    -0.290 A  
HETATM   17  C   UNL     1      -7.456  19.285  66.363  1.00  0.00    -0.271 A  
HETATM   18  C   UNL     1      -8.525  19.037  67.222  1.00  0.00    -0.297 A  
HETATM   19  C   UNL     1      -8.776  17.735  67.696  1.00  0.00    -0.244 A  
HETATM   20  O   UNL     1      -9.846  17.547  68.523  1.00  0.00    -0.295 OA 
HETATM   21  H   UNL     1     -10.409  18.269  68.777  1.00  0.00     0.000 HD 
ENDBRANCH  12  14
ENDBRANCH  11  12
ENDBRANCH  10  11
TORSDOF 3
ENDMDL
MODEL      227
REMARK 921   NORMALIZED FREE ENERGY PREDICTED BY IDOCK:   -2.87 KCAL/MOL
REMARK 922        TOTAL FREE ENERGY PREDICTED BY IDOCK:   -4.31 KCAL/MOL
REMARK 923 INTER-LIGAND FREE ENERGY PREDICTED BY IDOCK:   -4.10 KCAL/MOL
REMARK 924 INTRA-LIGAND FREE ENERGY PREDICTED BY IDOCK:   -0.21 KCAL/MOL
REMARK 927      BINDING AFFINITY PREDICTED BY RF-SCORE:    0.00 PKD
ROOT
HETATM    1  C   UNL     1      -5.989  12.506  67.146  1.00  0.00    -0.027 C  
HETATM    2  C   UNL     1      -6.346  13.774  67.923  1.00  0.00    -0.162 C  
HETATM    3  C   UNL     1      -7.861  14.138  67.871  1.00  0.00    -0.157 C  
HETATM    4  C   UNL     1      -5.750  13.692  69.331  1.00  0.00    -0.092 C  
HETATM    5  C   UNL     1      -8.101  15.494  68.583  1.00  0.00    -0.159 C  
HETATM    6  C   UNL     1      -9.527  16.005  68.415  1.00  0.00    -0.207 C  
HETATM    7  C   UNL     1     -10.559  14.968  68.867  1.00  0.00    -0.242 C  
HETATM    8  C   UNL     1     -11.974  15.484  68.610  1.00  0.00    -0.231 C  
HETATM    9  C   UNL     1     -10.312  13.623  68.173  1.00  0.00    -0.245 C  
HETATM   10  C   UNL     1      -8.878  13.103  68.426  1.00  0.00    -0.117 C  
ENDROOT
BRANCH  10  11
HETATM   11  O   UNL     1      -8.745  11.805  67.801  1.00  0.00    -0.144 OA 
BRANCH  11  12
HETATM   12  C   UNL     1      -9.859  11.369  67.147  1.00  0.00    -0.190 C  
HETATM   13  O   UNL     1     -10.879  10.992  67.716  1.00  0.00    -0.211 OA 
BRANCH  12  14
HETATM   14  C   UNL     1      -9.774  11.350  65.654  1.00  0.00    -0.263 A  
HETATM   15  C   UNL     1     -10.711  12.162  64.979  1.00  0.00    -0.338 A  
HETATM   16  C   UNL     1     -10.756  12.226  63.584  1.00  0.00    -0.513 A  
HETATM   17  C   UNL     1      -9.863  11.475  62.831  1.00  0.00    -0.279 A  
HETATM   18  C   UNL     1      -8.924  10.670  63.474  1.00  0.00    -0.216 A  
HETATM   19  C   UNL     1      -8.873  10.610  64.879  1.00  0.00    -0.190 A  
HETATM   20  O   UNL     1      -7.923   9.816  65.456  1.00  0.00    -0.115 OA 
HETATM   21  H   UNL     1      -7.311   9.315  64.930  1.00  0.00     0.000 HD 
ENDBRANCH  12  14
ENDBRANCH  11  12
ENDBRANCH  10  11
TORSDOF 3
ENDMDL
MODEL      228
REMARK 921   NORMALIZED FREE ENERGY PREDICTED BY IDOCK:   -2.84 KCAL/MOL
REMARK 922        TOTAL FREE ENERGY PREDICTED BY IDOCK:   -4.28 KCAL/MOL
REMARK 923 INTER-LIGAND FREE ENERGY PREDICTED BY IDOCK:   -3.83 KCAL/MOL
REMARK 924 INTRA-LIGAND FREE ENERGY PREDICTED BY IDOCK:   -0.45 KCAL/MOL
REMARK 927      BINDING AFFINITY PREDICTED BY RF-SCORE:    0.00 PKD
ROOT
HETATM    1  C   UNL     1      -7.643   4.702  69.553  1.00  0.00    -0.055 C  
HETATM    2  C   UNL     1      -8.171   5.140  68.186  1.00  0.00    -0.097 C  
HETATM    3  C   UNL     1      -9.049   6.428  68.234  1.00  0.00    -0.114 C  
HETATM    4  C   UNL     1      -7.016   5.183  67.183  1.00  0.00    -0.064 C  
HETATM    5  C   UNL     1      -9.631   6.721  66.828  1.00  0.00    -0.210 C  
HETATM    6  C   UNL     1     -10.645   7.859  66.834  1.00  0.00    -0.333 C  
HETATM    7  C   UNL     1     -10.063   9.134  67.452  1.00  0.00    -0.289 C  
HETATM    8  C   UNL     1     -11.131  10.226  67.513  1.00  0.00    -0.302 C  
HETATM    9  C   UNL     1      -9.474   8.841  68.837  1.00  0.00    -0.145 C  
HETATM   10  C   UNL     1      -8.399   7.730  68.779  1.00  0.00    -0.128 C  
ENDROOT
BRANCH  10  11
HETATM   11  O   UNL     1      -7.844   7.560  70.105  1.00  0.00    -0.095 OA 
BRANCH  11  12
HETATM   12  C   UNL     1      -8.640   8.006  71.118  1.00  0.00    -0.131 C  
HETATM   13  O   UNL     1      -8.690   9.177  71.480  1.00  0.00    -0.334 OA 
BRANCH  12  14
HETATM   14  C   UNL     1      -9.462   6.965  71.808  1.00  0.00    -0.155 A  
HETATM   15  C   UNL     1     -10.841   6.974  71.502  1.00  0.00    -0.255 A  
HETATM   16  C   UNL     1     -11.728   6.067  72.088  1.00  0.00    -0.335 A  
HETATM   17  C   UNL     1     -11.255   5.131  72.997  1.00  0.00    -0.390 A  
HETATM   18  C   UNL     1      -9.898   5.097  73.312  1.00  0.00    -0.171 A  
HETATM   19  C   UNL     1      -9.002   6.004  72.716  1.00  0.00    -0.123 A  
HETATM   20  O   UNL     1      -7.680   5.916  73.050  1.00  0.00    -0.101 OA 
HETATM   21  H   UNL     1      -7.367   5.264  73.666  1.00  0.00     0.000 HD 
ENDBRANCH  12  14
ENDBRANCH  11  12
ENDBRANCH  10  11
TORSDOF 3
ENDMDL
MODEL      229
REMARK 921   NORMALIZED FREE ENERGY PREDICTED BY IDOCK:   -2.83 KCAL/MOL
REMARK 922        TOTAL FREE ENERGY PREDICTED BY IDOCK:   -4.27 KCAL/MOL
REMARK 923 INTER-LIGAND FREE ENERGY PREDICTED BY IDOCK:   -3.36 KCAL/MOL
REMARK 924 INTRA-LIGAND FREE ENERGY PREDICTED BY IDOCK:   -0.91 KCAL/MOL
REMARK 927      BINDING AFFINITY PREDICTED BY RF-SCORE:    0.00 PKD
ROOT
HETATM    1  C   UNL     1     -10.930   6.305  67.782  1.00  0.00    -0.427 C  
HETATM    2  C   UNL     1     -10.724   5.525  69.082  1.00  0.00    -0.260 C  
HETATM    3  C   UNL     1      -9.441   4.638  69.087  1.00  0.00    -0.224 C  
HETATM    4  C   UNL     1     -10.855   6.478  70.273  1.00  0.00    -0.333 C  
HETATM    5  C   UNL     1      -9.385   3.802  70.391  1.00  0.00    -0.235 C  
HETATM    6  C   UNL     1      -8.257   2.777  70.387  1.00  0.00    -0.068 C  
HETATM    7  C   UNL     1      -6.900   3.429  70.105  1.00  0.00    -0.034 C  
HETATM    8  C   UNL     1      -5.807   2.363  70.031  1.00  0.00    -0.018 C  
HETATM    9  C   UNL     1      -6.960   4.267  68.823  1.00  0.00    -0.051 C  
HETATM   10  C   UNL     1      -8.070   5.342  68.894  1.00  0.00    -0.094 C  
ENDROOT
BRANCH  10  11
HETATM   11  O   UNL     1      -8.019   6.133  67.683  1.00  0.00    -0.104 OA 
BRANCH  11  12
HETATM   12  C   UNL     1      -7.408   7.345  67.817  1.00  0.00    -0.092 C  
HETATM   13  O   UNL     1      -6.268   7.490  68.245  1.00  0.00    -0.034 OA 
BRANCH  12  14
HETATM   14  C   UNL     1      -8.226   8.534  67.426  1.00  0.00    -0.109 A  
HETATM   15  C   UNL     1      -8.323   9.554  68.398  1.00  0.00    -0.118 A  
HETATM   16  C   UNL     1      -9.069  10.714  68.172  1.00  0.00    -0.148 A  
HETATM   17  C   UNL     1      -9.738  10.879  66.967  1.00  0.00    -0.203 A  
HETATM   18  C   UNL     1      -9.653   9.889  65.989  1.00  0.00    -0.284 A  
HETATM   19  C   UNL     1      -8.896   8.724  66.212  1.00  0.00    -0.157 A  
HETATM   20  O   UNL     1      -8.835   7.794  65.213  1.00  0.00    -0.364 OA 
HETATM   21  H   UNL     1      -9.289   7.923  64.389  1.00  0.00     0.000 HD 
ENDBRANCH  12  14
ENDBRANCH  11  12
ENDBRANCH  10  11
TORSDOF 3
ENDMDL
MODEL      230
REMARK 921   NORMALIZED FREE ENERGY PREDICTED BY IDOCK:   -2.83 KCAL/MOL
REMARK 922        TOTAL FREE ENERGY PREDICTED BY IDOCK:   -4.27 KCAL/MOL
REMARK 923 INTER-LIGAND FREE ENERGY PREDICTED BY IDOCK:   -3.60 KCAL/MOL
REMARK 924 INTRA-LIGAND FREE ENERGY PREDICTED BY IDOCK:   -0.67 KCAL/MOL
REMARK 927      BINDING AFFINITY PREDICTED BY RF-SCORE:    0.00 PKD
ROOT
HETATM    1  C   UNL     1      -9.306   5.214  65.540  1.00  0.00    -0.125 C  
HETATM    2  C   UNL     1      -7.868   5.537  65.947  1.00  0.00    -0.104 C  
HETATM    3  C   UNL     1      -7.607   7.056  66.183  1.00  0.00    -0.095 C  
HETATM    4  C   UNL     1      -7.449   4.623  67.102  1.00  0.00    -0.085 C  
HETATM    5  C   UNL     1      -6.103   7.292  66.473  1.00  0.00    -0.039 C  
HETATM    6  C   UNL     1      -5.738   8.771  66.533  1.00  0.00    -0.047 C  
HETATM    7  C   UNL     1      -6.607   9.529  67.541  1.00  0.00    -0.063 C  
HETATM    8  C   UNL     1      -6.268  11.019  67.516  1.00  0.00    -0.054 C  
HETATM    9  C   UNL     1      -8.095   9.284  67.262  1.00  0.00    -0.113 C  
HETATM   10  C   UNL     1      -8.439   7.776  67.280  1.00  0.00    -0.118 C  
ENDROOT
BRANCH  10  11
HETATM   11  O   UNL     1      -9.865   7.629  67.079  1.00  0.00    -0.177 OA 
BRANCH  11  12
HETATM   12  C   UNL     1     -10.529   7.035  68.110  1.00  0.00    -0.201 C  
HETATM   13  O   UNL     1     -11.128   5.969  68.011  1.00  0.00    -0.304 OA 
BRANCH  12  14
HETATM   14  C   UNL     1     -10.513   7.776  69.409  1.00  0.00    -0.221 A  
HETATM   15  C   UNL     1     -10.113   7.023  70.535  1.00  0.00    -0.202 A  
HETATM   16  C   UNL     1     -10.068   7.585  71.814  1.00  0.00    -0.205 A  
HETATM   17  C   UNL     1     -10.426   8.914  71.996  1.00  0.00    -0.383 A  
HETATM   18  C   UNL     1     -10.819   9.680  70.899  1.00  0.00    -0.409 A  
HETATM   19  C   UNL     1     -10.857   9.117  69.609  1.00  0.00    -0.197 A  
HETATM   20  O   UNL     1     -11.235   9.918  68.569  1.00  0.00    -0.453 OA 
HETATM   21  H   UNL     1     -11.469  10.829  68.705  1.00  0.00     0.000 HD 
ENDBRANCH  12  14
ENDBRANCH  11  12
ENDBRANCH  10  11
TORSDOF 3
ENDMDL
MODEL      231
REMARK 921   NORMALIZED FREE ENERGY PREDICTED BY IDOCK:   -2.83 KCAL/MOL
REMARK 922        TOTAL FREE ENERGY PREDICTED BY IDOCK:   -4.26 KCAL/MOL
REMARK 923 INTER-LIGAND FREE ENERGY PREDICTED BY IDOCK:   -4.12 KCAL/MOL
REMARK 924 INTRA-LIGAND FREE ENERGY PREDICTED BY IDOCK:   -0.15 KCAL/MOL
REMARK 927      BINDING AFFINITY PREDICTED BY RF-SCORE:    0.00 PKD
ROOT
HETATM    1  C   UNL     1      -6.353   8.175  69.239  1.00  0.00    -0.039 C  
HETATM    2  C   UNL     1      -7.127   9.474  69.014  1.00  0.00    -0.066 C  
HETATM    3  C   UNL     1      -8.625   9.398  69.445  1.00  0.00    -0.148 C  
HETATM    4  C   UNL     1      -6.343  10.645  69.613  1.00  0.00    -0.085 C  
HETATM    5  C   UNL     1      -9.348  10.716  69.069  1.00  0.00    -0.191 C  
HETATM    6  C   UNL     1     -10.854  10.648  69.293  1.00  0.00    -0.282 C  
HETATM    7  C   UNL     1     -11.197  10.235  70.727  1.00  0.00    -0.373 C  
HETATM    8  C   UNL     1     -12.710  10.100  70.891  1.00  0.00    -0.448 C  
HETATM    9  C   UNL     1     -10.469   8.938  71.103  1.00  0.00    -0.336 C  
HETATM   10  C   UNL     1      -8.938   9.070  70.931  1.00  0.00    -0.243 C  
ENDROOT
BRANCH  10  11
HETATM   11  O   UNL     1      -8.320   7.837  71.368  1.00  0.00    -0.106 OA 
BRANCH  11  12
HETATM   12  C   UNL     1      -8.987   6.704  71.006  1.00  0.00    -0.146 C  
HETATM   13  O   UNL     1      -9.135   6.343  69.843  1.00  0.00    -0.141 OA 
BRANCH  12  14
HETATM   14  C   UNL     1      -9.568   5.903  72.127  1.00  0.00    -0.164 A  
HETATM   15  C   UNL     1      -8.645   5.439  73.089  1.00  0.00    -0.117 A  
HETATM   16  C   UNL     1      -9.049   4.665  74.180  1.00  0.00    -0.111 A  
HETATM   17  C   UNL     1     -10.389   4.335  74.331  1.00  0.00    -0.296 A  
HETATM   18  C   UNL     1     -11.321   4.785  73.398  1.00  0.00    -0.397 A  
HETATM   19  C   UNL     1     -10.917   5.572  72.303  1.00  0.00    -0.239 A  
HETATM   20  O   UNL     1     -11.875   5.998  71.428  1.00  0.00    -0.191 OA 
HETATM   21  H   UNL     1     -12.790   5.773  71.548  1.00  0.00     0.000 HD 
ENDBRANCH  12  14
ENDBRANCH  11  12
ENDBRANCH  10  11
TORSDOF 3
ENDMDL
MODEL      232
REMARK 921   NORMALIZED FREE ENERGY PREDICTED BY IDOCK:   -2.83 KCAL/MOL
REMARK 922        TOTAL FREE ENERGY PREDICTED BY IDOCK:   -4.26 KCAL/MOL
REMARK 923 INTER-LIGAND FREE ENERGY PREDICTED BY IDOCK:   -3.65 KCAL/MOL
REMARK 924 INTRA-LIGAND FREE ENERGY PREDICTED BY IDOCK:   -0.61 KCAL/MOL
REMARK 927      BINDING AFFINITY PREDICTED BY RF-SCORE:    0.00 PKD
ROOT
HETATM    1  C   UNL     1      -6.644   9.878  70.449  1.00  0.00    -0.125 C  
HETATM    2  C   UNL     1      -6.669   9.602  68.945  1.00  0.00    -0.046 C  
HETATM    3  C   UNL     1      -7.678   8.489  68.526  1.00  0.00    -0.103 C  
HETATM    4  C   UNL     1      -6.815  10.924  68.187  1.00  0.00    -0.067 C  
HETATM    5  C   UNL     1      -7.544   8.202  67.009  1.00  0.00    -0.096 C  
HETATM    6  C   UNL     1      -8.367   7.000  66.560  1.00  0.00    -0.121 C  
HETATM    7  C   UNL     1      -9.841   7.143  66.953  1.00  0.00    -0.271 C  
HETATM    8  C   UNL     1     -10.617   5.888  66.558  1.00  0.00    -0.266 C  
HETATM    9  C   UNL     1      -9.972   7.442  68.451  1.00  0.00    -0.177 C  
HETATM   10  C   UNL     1      -9.180   8.708  68.854  1.00  0.00    -0.145 C  
ENDROOT
BRANCH  10  11
HETATM   11  O   UNL     1      -9.409   8.963  70.261  1.00  0.00    -0.163 OA 
BRANCH  11  12
HETATM   12  C   UNL     1     -10.718   8.936  70.641  1.00  0.00    -0.234 C  
HETATM   13  O   UNL     1     -11.514   9.839  70.405  1.00  0.00    -0.257 OA 
BRANCH  12  14
HETATM   14  C   UNL     1     -11.152   7.725  71.403  1.00  0.00    -0.268 A  
HETATM   15  C   UNL     1     -10.123   7.021  72.066  1.00  0.00    -0.201 A  
HETATM   16  C   UNL     1     -10.384   5.862  72.802  1.00  0.00    -0.222 A  
HETATM   17  C   UNL     1     -11.683   5.379  72.888  1.00  0.00    -0.232 A  
HETATM   18  C   UNL     1     -12.717   6.059  72.248  1.00  0.00     0.258 A  
HETATM   19  C   UNL     1     -12.457   7.232  71.513  1.00  0.00    -0.373 A  
HETATM   20  O   UNL     1     -13.510   7.866  70.918  1.00  0.00    -0.541 OA 
HETATM   21  H   UNL     1     -14.396   7.531  70.993  1.00  0.00     0.000 HD 
ENDBRANCH  12  14
ENDBRANCH  11  12
ENDBRANCH  10  11
TORSDOF 3
ENDMDL
MODEL      233
REMARK 921   NORMALIZED FREE ENERGY PREDICTED BY IDOCK:   -2.81 KCAL/MOL
REMARK 922        TOTAL FREE ENERGY PREDICTED BY IDOCK:   -4.24 KCAL/MOL
REMARK 923 INTER-LIGAND FREE ENERGY PREDICTED BY IDOCK:   -3.45 KCAL/MOL
REMARK 924 INTRA-LIGAND FREE ENERGY PREDICTED BY IDOCK:   -0.79 KCAL/MOL
REMARK 927      BINDING AFFINITY PREDICTED BY RF-SCORE:    0.00 PKD
ROOT
HETATM    1  C   UNL     1      -9.755   2.571  71.083  1.00  0.00    -0.180 C  
HETATM    2  C   UNL     1      -8.963   2.601  72.390  1.00  0.00    -0.115 C  
HETATM    3  C   UNL     1      -8.246   3.960  72.661  1.00  0.00    -0.094 C  
HETATM    4  C   UNL     1      -9.849   2.100  73.534  1.00  0.00    -0.143 C  
HETATM    5  C   UNL     1      -7.379   3.851  73.941  1.00  0.00    -0.062 C  
HETATM    6  C   UNL     1      -6.506   5.079  74.169  1.00  0.00    -0.068 C  
HETATM    7  C   UNL     1      -7.333   6.368  74.186  1.00  0.00    -0.085 C  
HETATM    8  C   UNL     1      -6.417   7.582  74.337  1.00  0.00    -0.092 C  
HETATM    9  C   UNL     1      -8.202   6.468  72.926  1.00  0.00    -0.108 C  
HETATM   10  C   UNL     1      -9.124   5.237  72.768  1.00  0.00    -0.133 C  
ENDROOT
BRANCH  10  11
HETATM   11  O   UNL     1      -9.957   5.436  71.601  1.00  0.00    -0.173 OA 
BRANCH  11  12
HETATM   12  C   UNL     1     -10.790   6.514  71.671  1.00  0.00    -0.240 C  
HETATM   13  O   UNL     1     -11.558   6.722  72.604  1.00  0.00    -0.232 OA 
BRANCH  12  14
HETATM   14  C   UNL     1     -10.739   7.453  70.508  1.00  0.00    -0.247 A  
HETATM   15  C   UNL     1     -10.265   6.901  69.298  1.00  0.00    -0.197 A  
HETATM   16  C   UNL     1     -10.150   7.670  68.137  1.00  0.00    -0.220 A  
HETATM   17  C   UNL     1     -10.506   9.012  68.162  1.00  0.00    -0.257 A  
HETATM   18  C   UNL     1     -10.983   9.579  69.342  1.00  0.00    -0.192 A  
HETATM   19  C   UNL     1     -11.107   8.803  70.510  1.00  0.00    -0.246 A  
HETATM   20  O   UNL     1     -11.594   9.407  71.635  1.00  0.00    -0.362 OA 
HETATM   21  H   UNL     1     -11.844  10.323  71.636  1.00  0.00     0.000 HD 
ENDBRANCH  12  14
ENDBRANCH  11  12
ENDBRANCH  10  11
TORSDOF 3
ENDMDL
MODEL      234
REMARK 921   NORMALIZED FREE ENERGY PREDICTED BY IDOCK:   -2.78 KCAL/MOL
REMARK 922        TOTAL FREE ENERGY PREDICTED BY IDOCK:   -4.21 KCAL/MOL
REMARK 923 INTER-LIGAND FREE ENERGY PREDICTED BY IDOCK:   -3.72 KCAL/MOL
REMARK 924 INTRA-LIGAND FREE ENERGY PREDICTED BY IDOCK:   -0.48 KCAL/MOL
REMARK 927      BINDING AFFINITY PREDICTED BY RF-SCORE:    0.00 PKD
ROOT
HETATM    1  C   UNL     1     -10.004   6.944  67.195  1.00  0.00    -0.239 C  
HETATM    2  C   UNL     1      -9.570   7.048  68.657  1.00  0.00    -0.138 C  
HETATM    3  C   UNL     1      -8.421   8.073  68.902  1.00  0.00    -0.131 C  
HETATM    4  C   UNL     1     -10.805   7.239  69.542  1.00  0.00    -0.224 C  
HETATM    5  C   UNL     1      -7.974   8.019  70.385  1.00  0.00    -0.103 C  
HETATM    6  C   UNL     1      -6.733   8.861  70.659  1.00  0.00    -0.054 C  
HETATM    7  C   UNL     1      -6.920  10.312  70.205  1.00  0.00    -0.159 C  
HETATM    8  C   UNL     1      -5.631  11.104  70.422  1.00  0.00    -0.124 C  
HETATM    9  C   UNL     1      -7.376  10.364  68.742  1.00  0.00    -0.089 C  
HETATM   10  C   UNL     1      -8.677   9.557  68.519  1.00  0.00    -0.124 C  
ENDROOT
BRANCH  10  11
HETATM   11  O   UNL     1      -9.079   9.711  67.137  1.00  0.00    -0.133 OA 
BRANCH  11  12
HETATM   12  C   UNL     1      -8.763  10.915  66.580  1.00  0.00    -0.155 C  
HETATM   13  O   UNL     1      -7.807  11.090  65.833  1.00  0.00    -0.130 OA 
BRANCH  12  14
HETATM   14  C   UNL     1      -9.653  12.058  66.951  1.00  0.00    -0.209 A  
HETATM   15  C   UNL     1      -9.001  13.290  67.179  1.00  0.00    -0.229 A  
HETATM   16  C   UNL     1      -9.708  14.437  67.548  1.00  0.00    -0.215 A  
HETATM   17  C   UNL     1     -11.087  14.377  67.700  1.00  0.00    -0.311 A  
HETATM   18  C   UNL     1     -11.755  13.174  67.475  1.00  0.00    -0.414 A  
HETATM   19  C   UNL     1     -11.045  12.020  67.096  1.00  0.00    -0.290 A  
HETATM   20  O   UNL     1     -11.752  10.873  66.874  1.00  0.00    -0.255 OA 
HETATM   21  H   UNL     1     -12.697  10.847  66.972  1.00  0.00     0.000 HD 
ENDBRANCH  12  14
ENDBRANCH  11  12
ENDBRANCH  10  11
TORSDOF 3
ENDMDL
MODEL      235
REMARK 921   NORMALIZED FREE ENERGY PREDICTED BY IDOCK:   -2.78 KCAL/MOL
REMARK 922        TOTAL FREE ENERGY PREDICTED BY IDOCK:   -4.20 KCAL/MOL
REMARK 923 INTER-LIGAND FREE ENERGY PREDICTED BY IDOCK:   -3.36 KCAL/MOL
REMARK 924 INTRA-LIGAND FREE ENERGY PREDICTED BY IDOCK:   -0.84 KCAL/MOL
REMARK 927      BINDING AFFINITY PREDICTED BY RF-SCORE:    0.00 PKD
ROOT
HETATM    1  C   UNL     1     -10.805   6.081  67.867  1.00  0.00    -0.378 C  
HETATM    2  C   UNL     1      -9.738   6.726  66.981  1.00  0.00    -0.200 C  
HETATM    3  C   UNL     1      -9.575   8.260  67.207  1.00  0.00    -0.215 C  
HETATM    4  C   UNL     1      -8.441   5.918  67.077  1.00  0.00    -0.107 C  
HETATM    5  C   UNL     1      -8.562   8.838  66.186  1.00  0.00    -0.162 C  
HETATM    6  C   UNL     1      -8.488  10.360  66.224  1.00  0.00    -0.145 C  
HETATM    7  C   UNL     1      -8.187  10.878  67.634  1.00  0.00    -0.116 C  
HETATM    8  C   UNL     1      -8.198  12.406  67.649  1.00  0.00    -0.169 C  
HETATM    9  C   UNL     1      -9.181  10.295  68.646  1.00  0.00    -0.159 C  
HETATM   10  C   UNL     1      -9.176   8.748  68.627  1.00  0.00    -0.141 C  
ENDROOT
BRANCH  10  11
HETATM   11  O   UNL     1     -10.082   8.275  69.651  1.00  0.00    -0.190 OA 
BRANCH  11  12
HETATM   12  C   UNL     1      -9.629   8.424  70.928  1.00  0.00    -0.175 C  
HETATM   13  O   UNL     1      -9.873   9.402  71.628  1.00  0.00    -0.219 OA 
BRANCH  12  14
HETATM   14  C   UNL     1      -8.774   7.314  71.451  1.00  0.00    -0.126 A  
HETATM   15  C   UNL     1      -8.862   6.093  70.747  1.00  0.00    -0.140 A  
HETATM   16  C   UNL     1      -8.131   4.968  71.137  1.00  0.00    -0.109 A  
HETATM   17  C   UNL     1      -7.295   5.039  72.243  1.00  0.00    -0.091 A  
HETATM   18  C   UNL     1      -7.186   6.235  72.951  1.00  0.00    -0.080 A  
HETATM   19  C   UNL     1      -7.916   7.371  72.555  1.00  0.00    -0.100 A  
HETATM   20  O   UNL     1      -7.759   8.521  73.276  1.00  0.00    -0.339 OA 
HETATM   21  H   UNL     1      -7.177   8.559  74.025  1.00  0.00     0.000 HD 
ENDBRANCH  12  14
ENDBRANCH  11  12
ENDBRANCH  10  11
TORSDOF 3
ENDMDL
MODEL      236
REMARK 921   NORMALIZED FREE ENERGY PREDICTED BY IDOCK:   -2.77 KCAL/MOL
REMARK 922        TOTAL FREE ENERGY PREDICTED BY IDOCK:   -4.20 KCAL/MOL
REMARK 923 INTER-LIGAND FREE ENERGY PREDICTED BY IDOCK:   -3.13 KCAL/MOL
REMARK 924 INTRA-LIGAND FREE ENERGY PREDICTED BY IDOCK:   -1.06 KCAL/MOL
REMARK 927      BINDING AFFINITY PREDICTED BY RF-SCORE:    0.00 PKD
ROOT
HETATM    1  C   UNL     1      -8.254   6.004  67.830  1.00  0.00    -0.112 C  
HETATM    2  C   UNL     1      -9.497   6.894  67.850  1.00  0.00    -0.120 C  
HETATM    3  C   UNL     1      -9.337   8.217  67.039  1.00  0.00    -0.197 C  
HETATM    4  C   UNL     1     -10.727   6.058  67.485  1.00  0.00    -0.383 C  
HETATM    5  C   UNL     1     -10.599   9.098  67.217  1.00  0.00    -0.303 C  
HETATM    6  C   UNL     1     -10.442  10.485  66.603  1.00  0.00    -0.290 C  
HETATM    7  C   UNL     1     -10.041  10.410  65.127  1.00  0.00    -0.379 C  
HETATM    8  C   UNL     1      -9.816  11.815  64.569  1.00  0.00    -0.228 C  
HETATM    9  C   UNL     1      -8.801   9.526  64.950  1.00  0.00    -0.240 C  
HETATM   10  C   UNL     1      -9.024   8.106  65.521  1.00  0.00    -0.032 C  
ENDROOT
BRANCH  10  11
HETATM   11  O   UNL     1      -7.842   7.314  65.256  1.00  0.00    -0.106 OA 
BRANCH  11  12
HETATM   12  C   UNL     1      -7.918   6.528  64.144  1.00  0.00    -0.088 C  
HETATM   13  O   UNL     1      -7.812   6.956  62.999  1.00  0.00    -0.109 OA 
BRANCH  12  14
HETATM   14  C   UNL     1      -8.166   5.074  64.389  1.00  0.00    -0.128 A  
HETATM   15  C   UNL     1      -9.511   4.659  64.285  1.00  0.00     0.011 A  
HETATM   16  C   UNL     1      -9.888   3.331  64.506  1.00  0.00    -0.145 A  
HETATM   17  C   UNL     1      -8.925   2.388  64.838  1.00  0.00    -0.124 A  
HETATM   18  C   UNL     1      -7.589   2.772  64.941  1.00  0.00    -0.076 A  
HETATM   19  C   UNL     1      -7.207   4.107  64.711  1.00  0.00    -0.070 A  
HETATM   20  O   UNL     1      -5.882   4.424  64.811  1.00  0.00    -0.014 OA 
HETATM   21  H   UNL     1      -5.231   3.767  65.029  1.00  0.00     0.000 HD 
ENDBRANCH  12  14
ENDBRANCH  11  12
ENDBRANCH  10  11
TORSDOF 3
ENDMDL
MODEL      237
REMARK 921   NORMALIZED FREE ENERGY PREDICTED BY IDOCK:   -2.68 KCAL/MOL
REMARK 922        TOTAL FREE ENERGY PREDICTED BY IDOCK:   -4.09 KCAL/MOL
REMARK 923 INTER-LIGAND FREE ENERGY PREDICTED BY IDOCK:   -3.45 KCAL/MOL
REMARK 924 INTRA-LIGAND FREE ENERGY PREDICTED BY IDOCK:   -0.64 KCAL/MOL
REMARK 927      BINDING AFFINITY PREDICTED BY RF-SCORE:    0.00 PKD
ROOT
HETATM    1  C   UNL     1      -8.093   2.919  68.655  1.00  0.00    -0.068 C  
HETATM    2  C   UNL     1      -7.507   4.317  68.447  1.00  0.00    -0.064 C  
HETATM    3  C   UNL     1      -8.576   5.453  68.449  1.00  0.00    -0.095 C  
HETATM    4  C   UNL     1      -6.339   4.529  69.412  1.00  0.00    -0.028 C  
HETATM    5  C   UNL     1      -7.903   6.809  68.114  1.00  0.00    -0.113 C  
HETATM    6  C   UNL     1      -8.910   7.936  67.918  1.00  0.00    -0.123 C  
HETATM    7  C   UNL     1      -9.842   8.080  69.125  1.00  0.00    -0.178 C  
HETATM    8  C   UNL     1     -10.886   9.164  68.860  1.00  0.00    -0.099 C  
HETATM    9  C   UNL     1     -10.496   6.736  69.465  1.00  0.00    -0.248 C  
HETATM   10  C   UNL     1      -9.441   5.636  69.726  1.00  0.00    -0.148 C  
ENDROOT
BRANCH  10  11
HETATM   11  O   UNL     1     -10.131   4.421  70.106  1.00  0.00    -0.217 OA 
BRANCH  11  12
HETATM   12  C   UNL     1      -9.888   4.001  71.380  1.00  0.00    -0.179 C  
HETATM   13  O   UNL     1      -9.841   2.821  71.711  1.00  0.00    -0.152 OA 
BRANCH  12  14
HETATM   14  C   UNL     1      -9.695   5.080  72.398  1.00  0.00    -0.190 A  
HETATM   15  C   UNL     1      -8.366   5.280  72.830  1.00  0.00    -0.112 A  
HETATM   16  C   UNL     1      -8.044   6.244  73.790  1.00  0.00    -0.105 A  
HETATM   17  C   UNL     1      -9.048   7.029  74.340  1.00  0.00    -0.239 A  
HETATM   18  C   UNL     1     -10.367   6.855  73.926  1.00  0.00    -0.398 A  
HETATM   19  C   UNL     1     -10.691   5.890  72.953  1.00  0.00    -0.249 A  
HETATM   20  O   UNL     1     -11.998   5.774  72.573  1.00  0.00    -0.442 OA 
HETATM   21  H   UNL     1     -12.675   6.324  72.951  1.00  0.00     0.000 HD 
ENDBRANCH  12  14
ENDBRANCH  11  12
ENDBRANCH  10  11
TORSDOF 3
ENDMDL
MODEL      238
REMARK 921   NORMALIZED FREE ENERGY PREDICTED BY IDOCK:   -2.60 KCAL/MOL
REMARK 922        TOTAL FREE ENERGY PREDICTED BY IDOCK:   -3.99 KCAL/MOL
REMARK 923 INTER-LIGAND FREE ENERGY PREDICTED BY IDOCK:   -3.88 KCAL/MOL
REMARK 924 INTRA-LIGAND FREE ENERGY PREDICTED BY IDOCK:   -0.11 KCAL/MOL
REMARK 927      BINDING AFFINITY PREDICTED BY RF-SCORE:    0.00 PKD
ROOT
HETATM    1  C   UNL     1      -7.666   7.727  73.140  1.00  0.00    -0.153 C  
HETATM    2  C   UNL     1      -6.696   7.055  72.167  1.00  0.00    -0.057 C  
HETATM    3  C   UNL     1      -7.094   7.218  70.668  1.00  0.00    -0.065 C  
HETATM    4  C   UNL     1      -5.263   7.476  72.504  1.00  0.00    -0.037 C  
HETATM    5  C   UNL     1      -6.121   6.407  69.775  1.00  0.00    -0.026 C  
HETATM    6  C   UNL     1      -6.554   6.369  68.313  1.00  0.00    -0.066 C  
HETATM    7  C   UNL     1      -6.760   7.776  67.746  1.00  0.00    -0.068 C  
HETATM    8  C   UNL     1      -7.268   7.697  66.307  1.00  0.00    -0.071 C  
HETATM    9  C   UNL     1      -7.711   8.583  68.638  1.00  0.00    -0.103 C  
HETATM   10  C   UNL     1      -7.201   8.658  70.097  1.00  0.00    -0.052 C  
ENDROOT
BRANCH  10  11
HETATM   11  O   UNL     1      -8.111   9.489  70.857  1.00  0.00    -0.297 OA 
BRANCH  11  12
HETATM   12  C   UNL     1      -9.381   9.545  70.364  1.00  0.00    -0.257 C  
HETATM   13  O   UNL     1      -9.778  10.421  69.602  1.00  0.00    -0.205 OA 
BRANCH  12  14
HETATM   14  C   UNL     1     -10.308   8.467  70.825  1.00  0.00    -0.228 A  
HETATM   15  C   UNL     1     -10.427   8.322  72.225  1.00  0.00    -0.392 A  
HETATM   16  C   UNL     1     -11.246   7.343  72.794  1.00  0.00    -0.380 A  
HETATM   17  C   UNL     1     -11.964   6.484  71.973  1.00  0.00    -0.372 A  
HETATM   18  C   UNL     1     -11.868   6.610  70.589  1.00  0.00    -0.443 A  
HETATM   19  C   UNL     1     -11.050   7.600  70.014  1.00  0.00    -0.191 A  
HETATM   20  O   UNL     1     -11.006   7.689  68.652  1.00  0.00    -0.421 OA 
HETATM   21  H   UNL     1     -11.510   7.101  68.101  1.00  0.00     0.000 HD 
ENDBRANCH  12  14
ENDBRANCH  11  12
ENDBRANCH  10  11
TORSDOF 3
ENDMDL
MODEL      239
REMARK 921   NORMALIZED FREE ENERGY PREDICTED BY IDOCK:   -2.56 KCAL/MOL
REMARK 922        TOTAL FREE ENERGY PREDICTED BY IDOCK:   -3.95 KCAL/MOL
REMARK 923 INTER-LIGAND FREE ENERGY PREDICTED BY IDOCK:   -3.08 KCAL/MOL
REMARK 924 INTRA-LIGAND FREE ENERGY PREDICTED BY IDOCK:   -0.87 KCAL/MOL
REMARK 927      BINDING AFFINITY PREDICTED BY RF-SCORE:    0.00 PKD
ROOT
HETATM    1  C   UNL     1      -6.744   1.922  69.583  1.00  0.00    -0.033 C  
HETATM    2  C   UNL     1      -6.709   2.756  68.302  1.00  0.00    -0.040 C  
HETATM    3  C   UNL     1      -8.029   3.540  68.025  1.00  0.00    -0.075 C  
HETATM    4  C   UNL     1      -5.437   3.608  68.284  1.00  0.00    -0.013 C  
HETATM    5  C   UNL     1      -7.938   4.255  66.653  1.00  0.00    -0.098 C  
HETATM    6  C   UNL     1      -9.257   4.891  66.230  1.00  0.00    -0.142 C  
HETATM    7  C   UNL     1      -9.796   5.845  67.301  1.00  0.00    -0.155 C  
HETATM    8  C   UNL     1     -11.155   6.401  66.877  1.00  0.00    -0.346 C  
HETATM    9  C   UNL     1      -9.872   5.141  68.661  1.00  0.00    -0.225 C  
HETATM   10  C   UNL     1      -8.499   4.571  69.088  1.00  0.00    -0.079 C  
ENDROOT
BRANCH  10  11
HETATM   11  O   UNL     1      -8.636   3.986  70.405  1.00  0.00    -0.070 OA 
BRANCH  11  12
HETATM   12  C   UNL     1      -8.138   4.746  71.422  1.00  0.00    -0.102 C  
HETATM   13  O   UNL     1      -7.041   4.559  71.937  1.00  0.00    -0.052 OA 
BRANCH  12  14
HETATM   14  C   UNL     1      -9.028   5.843  71.913  1.00  0.00    -0.139 A  
HETATM   15  C   UNL     1     -10.322   5.446  72.312  1.00  0.00    -0.260 A  
HETATM   16  C   UNL     1     -11.263   6.370  72.776  1.00  0.00    -0.261 A  
HETATM   17  C   UNL     1     -10.928   7.715  72.849  1.00  0.00    -0.456 A  
HETATM   18  C   UNL     1      -9.654   8.132  72.466  1.00  0.00    -0.347 A  
HETATM   19  C   UNL     1      -8.703   7.201  72.007  1.00  0.00    -0.122 A  
HETATM   20  O   UNL     1      -7.466   7.663  71.659  1.00  0.00    -0.073 OA 
HETATM   21  H   UNL     1      -7.246   8.585  71.723  1.00  0.00     0.000 HD 
ENDBRANCH  12  14
ENDBRANCH  11  12
ENDBRANCH  10  11
TORSDOF 3
ENDMDL
MODEL      240
REMARK 921   NORMALIZED FREE ENERGY PREDICTED BY IDOCK:   -2.48 KCAL/MOL
REMARK 922        TOTAL FREE ENERGY PREDICTED BY IDOCK:   -3.85 KCAL/MOL
REMARK 923 INTER-LIGAND FREE ENERGY PREDICTED BY IDOCK:   -3.35 KCAL/MOL
REMARK 924 INTRA-LIGAND FREE ENERGY PREDICTED BY IDOCK:   -0.51 KCAL/MOL
REMARK 927      BINDING AFFINITY PREDICTED BY RF-SCORE:    0.00 PKD
ROOT
HETATM    1  C   UNL     1      -8.825   8.004  73.571  1.00  0.00    -0.333 C  
HETATM    2  C   UNL     1      -8.270   6.581  73.492  1.00  0.00    -0.122 C  
HETATM    3  C   UNL     1      -9.355   5.473  73.656  1.00  0.00    -0.137 C  
HETATM    4  C   UNL     1      -7.393   6.446  72.244  1.00  0.00    -0.091 C  
HETATM    5  C   UNL     1      -8.681   4.077  73.680  1.00  0.00    -0.094 C  
HETATM    6  C   UNL     1      -9.656   2.956  74.020  1.00  0.00    -0.120 C  
HETATM    7  C   UNL     1     -10.868   2.954  73.083  1.00  0.00    -0.236 C  
HETATM    8  C   UNL     1     -11.859   1.870  73.504  1.00  0.00    -0.242 C  
HETATM    9  C   UNL     1     -11.525   4.339  73.049  1.00  0.00    -0.107 C  
HETATM   10  C   UNL     1     -10.521   5.439  72.631  1.00  0.00    -0.217 C  
ENDROOT
BRANCH  10  11
HETATM   11  O   UNL     1     -11.229   6.699  72.555  1.00  0.00    -0.253 OA 
BRANCH  11  12
HETATM   12  C   UNL     1     -11.570   7.088  71.293  1.00  0.00    -0.303 C  
HETATM   13  O   UNL     1     -12.596   6.730  70.724  1.00  0.00    -0.311 OA 
BRANCH  12  14
HETATM   14  C   UNL     1     -10.594   7.984  70.600  1.00  0.00    -0.227 A  
HETATM   15  C   UNL     1     -10.207   9.137  71.319  1.00  0.00    -0.400 A  
HETATM   16  C   UNL     1      -9.314  10.069  70.784  1.00  0.00     0.557 A  
HETATM   17  C   UNL     1      -8.789   9.869  69.514  1.00  0.00    -0.208 A  
HETATM   18  C   UNL     1      -9.150   8.737  68.787  1.00  0.00    -0.138 A  
HETATM   19  C   UNL     1     -10.043   7.793  69.328  1.00  0.00    -0.199 A  
HETATM   20  O   UNL     1     -10.350   6.694  68.577  1.00  0.00    -0.167 OA 
HETATM   21  H   UNL     1      -9.976   6.564  67.713  1.00  0.00     0.000 HD 
ENDBRANCH  12  14
ENDBRANCH  11  12
ENDBRANCH  10  11
TORSDOF 3
ENDMDL
MODEL      241
REMARK 921   NORMALIZED FREE ENERGY PREDICTED BY IDOCK:   -2.41 KCAL/MOL
REMARK 922        TOTAL FREE ENERGY PREDICTED BY IDOCK:   -3.77 KCAL/MOL
REMARK 923 INTER-LIGAND FREE ENERGY PREDICTED BY IDOCK:   -2.91 KCAL/MOL
REMARK 924 INTRA-LIGAND FREE ENERGY PREDICTED BY IDOCK:   -0.86 KCAL/MOL
REMARK 927      BINDING AFFINITY PREDICTED BY RF-SCORE:    0.00 PKD
ROOT
HETATM    1  C   UNL     1      -9.627   4.840  66.018  1.00  0.00    -0.187 C  
HETATM    2  C   UNL     1      -8.499   4.596  67.021  1.00  0.00    -0.105 C  
HETATM    3  C   UNL     1      -7.639   5.862  67.321  1.00  0.00    -0.096 C  
HETATM    4  C   UNL     1      -9.062   3.891  68.258  1.00  0.00    -0.186 C  
HETATM    5  C   UNL     1      -6.457   5.487  68.251  1.00  0.00    -0.043 C  
HETATM    6  C   UNL     1      -5.469   6.632  68.440  1.00  0.00    -0.016 C  
HETATM    7  C   UNL     1      -6.162   7.904  68.936  1.00  0.00    -0.039 C  
HETATM    8  C   UNL     1      -5.156   9.049  69.039  1.00  0.00    -0.037 C  
HETATM    9  C   UNL     1      -7.340   8.267  68.024  1.00  0.00    -0.096 C  
HETATM   10  C   UNL     1      -8.357   7.106  67.913  1.00  0.00    -0.118 C  
ENDROOT
BRANCH  10  11
HETATM   11  O   UNL     1      -9.467   7.547  67.096  1.00  0.00    -0.141 OA 
BRANCH  11  12
HETATM   12  C   UNL     1     -10.533   8.033  67.795  1.00  0.00    -0.214 C  
HETATM   13  O   UNL     1     -11.335   7.324  68.395  1.00  0.00     0.175 OA 
BRANCH  12  14
HETATM   14  C   UNL     1     -10.700   9.518  67.780  1.00  0.00    -0.302 A  
HETATM   15  C   UNL     1     -10.780  10.111  66.501  1.00  0.00    -0.118 A  
HETATM   16  C   UNL     1     -10.920  11.492  66.340  1.00  0.00    -0.336 A  
HETATM   17  C   UNL     1     -10.980  12.313  67.457  1.00  0.00    -0.298 A  
HETATM   18  C   UNL     1     -10.909  11.752  68.731  1.00  0.00    -0.268 A  
HETATM   19  C   UNL     1     -10.776  10.361  68.895  1.00  0.00    -0.224 A  
HETATM   20  O   UNL     1     -10.726   9.864  70.167  1.00  0.00    -0.263 OA 
HETATM   21  H   UNL     1     -10.778  10.436  70.924  1.00  0.00     0.000 HD 
ENDBRANCH  12  14
ENDBRANCH  11  12
ENDBRANCH  10  11
TORSDOF 3
ENDMDL
MODEL      242
REMARK 921   NORMALIZED FREE ENERGY PREDICTED BY IDOCK:   -2.31 KCAL/MOL
REMARK 922        TOTAL FREE ENERGY PREDICTED BY IDOCK:   -3.65 KCAL/MOL
REMARK 923 INTER-LIGAND FREE ENERGY PREDICTED BY IDOCK:   -2.98 KCAL/MOL
REMARK 924 INTRA-LIGAND FREE ENERGY PREDICTED BY IDOCK:   -0.67 KCAL/MOL
REMARK 927      BINDING AFFINITY PREDICTED BY RF-SCORE:    0.00 PKD
ROOT
HETATM    1  C   UNL     1      -8.166   2.754  68.095  1.00  0.00    -0.082 C  
HETATM    2  C   UNL     1      -7.466   3.953  67.454  1.00  0.00    -0.068 C  
HETATM    3  C   UNL     1      -8.413   5.160  67.175  1.00  0.00    -0.106 C  
HETATM    4  C   UNL     1      -6.205   4.294  68.254  1.00  0.00    -0.032 C  
HETATM    5  C   UNL     1      -7.640   6.272  66.421  1.00  0.00    -0.094 C  
HETATM    6  C   UNL     1      -8.544   7.406  65.952  1.00  0.00    -0.165 C  
HETATM    7  C   UNL     1      -9.354   8.001  67.108  1.00  0.00    -0.186 C  
HETATM    8  C   UNL     1     -10.304   9.078  66.588  1.00  0.00    -0.289 C  
HETATM    9  C   UNL     1     -10.107   6.899  67.862  1.00  0.00    -0.195 C  
HETATM   10  C   UNL     1      -9.147   5.803  68.384  1.00  0.00    -0.118 C  
ENDROOT
BRANCH  10  11
HETATM   11  O   UNL     1      -9.919   4.840  69.140  1.00  0.00    -0.191 OA 
BRANCH  11  12
HETATM   12  C   UNL     1     -10.232   5.229  70.408  1.00  0.00    -0.268 C  
HETATM   13  O   UNL     1     -11.102   6.052  70.674  1.00  0.00    -0.302 OA 
BRANCH  12  14
HETATM   14  C   UNL     1      -9.427   4.601  71.501  1.00  0.00    -0.214 A  
HETATM   15  C   UNL     1      -8.064   4.381  71.204  1.00  0.00    -0.081 A  
HETATM   16  C   UNL     1      -7.199   3.786  72.128  1.00  0.00    -0.051 A  
HETATM   17  C   UNL     1      -7.681   3.396  73.370  1.00  0.00    -0.065 A  
HETATM   18  C   UNL     1      -9.021   3.608  73.689  1.00  0.00    -0.087 A  
HETATM   19  C   UNL     1      -9.891   4.214  72.763  1.00  0.00    -0.145 A  
HETATM   20  O   UNL     1     -11.191   4.411  73.134  1.00  0.00    -0.245 OA 
HETATM   21  H   UNL     1     -11.506   4.148  73.991  1.00  0.00     0.000 HD 
ENDBRANCH  12  14
ENDBRANCH  11  12
ENDBRANCH  10  11
TORSDOF 3
ENDMDL
MODEL      243
REMARK 921   NORMALIZED FREE ENERGY PREDICTED BY IDOCK:   -2.26 KCAL/MOL
REMARK 922        TOTAL FREE ENERGY PREDICTED BY IDOCK:   -3.59 KCAL/MOL
REMARK 923 INTER-LIGAND FREE ENERGY PREDICTED BY IDOCK:   -3.01 KCAL/MOL
REMARK 924 INTRA-LIGAND FREE ENERGY PREDICTED BY IDOCK:   -0.59 KCAL/MOL
REMARK 927      BINDING AFFINITY PREDICTED BY RF-SCORE:    0.00 PKD
ROOT
HETATM    1  C   UNL     1      -9.760   2.724  71.134  1.00  0.00    -0.184 C  
HETATM    2  C   UNL     1      -9.286   2.928  72.574  1.00  0.00    -0.141 C  
HETATM    3  C   UNL     1      -8.470   4.240  72.788  1.00  0.00    -0.101 C  
HETATM    4  C   UNL     1     -10.465   2.738  73.531  1.00  0.00    -0.240 C  
HETATM    5  C   UNL     1      -7.935   4.296  74.241  1.00  0.00    -0.091 C  
HETATM    6  C   UNL     1      -6.977   5.458  74.474  1.00  0.00    -0.078 C  
HETATM    7  C   UNL     1      -7.604   6.798  74.078  1.00  0.00    -0.101 C  
HETATM    8  C   UNL     1      -6.589   7.928  74.250  1.00  0.00    -0.120 C  
HETATM    9  C   UNL     1      -8.146   6.738  72.645  1.00  0.00    -0.104 C  
HETATM   10  C   UNL     1      -9.168   5.590  72.467  1.00  0.00    -0.142 C  
ENDROOT
BRANCH  10  11
HETATM   11  O   UNL     1      -9.682   5.641  71.115  1.00  0.00    -0.164 OA 
BRANCH  11  12
HETATM   12  C   UNL     1     -10.179   6.853  70.738  1.00  0.00    -0.195 C  
HETATM   13  O   UNL     1     -10.919   7.535  71.441  1.00  0.00    -0.230 OA 
BRANCH  12  14
HETATM   14  C   UNL     1      -9.786   7.324  69.374  1.00  0.00    -0.161 A  
HETATM   15  C   UNL     1     -10.144   8.653  69.061  1.00  0.00    -0.207 A  
HETATM   16  C   UNL     1      -9.853   9.217  67.815  1.00  0.00    -0.214 A  
HETATM   17  C   UNL     1      -9.198   8.460  66.853  1.00  0.00    -0.196 A  
HETATM   18  C   UNL     1      -8.829   7.147  67.140  1.00  0.00    -0.121 A  
HETATM   19  C   UNL     1      -9.114   6.581  68.397  1.00  0.00    -0.123 A  
HETATM   20  O   UNL     1      -8.715   5.295  68.629  1.00  0.00    -0.094 OA 
HETATM   21  H   UNL     1      -8.259   4.791  67.966  1.00  0.00     0.000 HD 
ENDBRANCH  12  14
ENDBRANCH  11  12
ENDBRANCH  10  11
TORSDOF 3
ENDMDL
MODEL      244
REMARK 921   NORMALIZED FREE ENERGY PREDICTED BY IDOCK:   -2.10 KCAL/MOL
REMARK 922        TOTAL FREE ENERGY PREDICTED BY IDOCK:   -3.41 KCAL/MOL
REMARK 923 INTER-LIGAND FREE ENERGY PREDICTED BY IDOCK:   -3.19 KCAL/MOL
REMARK 924 INTRA-LIGAND FREE ENERGY PREDICTED BY IDOCK:   -0.21 KCAL/MOL
REMARK 927      BINDING AFFINITY PREDICTED BY RF-SCORE:    0.00 PKD
ROOT
HETATM    1  C   UNL     1     -11.952  15.568  68.408  1.00  0.00    -0.123 C  
HETATM    2  C   UNL     1     -10.958  15.164  69.498  1.00  0.00    -0.279 C  
HETATM    3  C   UNL     1      -9.465  15.386  69.102  1.00  0.00    -0.242 C  
HETATM    4  C   UNL     1     -11.374  15.798  70.827  1.00  0.00    -0.419 C  
HETATM    5  C   UNL     1      -8.539  14.839  70.217  1.00  0.00     1.091 C  
HETATM    6  C   UNL     1      -7.067  14.855  69.822  1.00  0.00    -0.156 C  
HETATM    7  C   UNL     1      -6.613  16.249  69.380  1.00  0.00    -0.202 C  
HETATM    8  C   UNL     1      -5.157  16.209  68.917  1.00  0.00    -0.100 C  
HETATM    9  C   UNL     1      -7.539  16.796  68.286  1.00  0.00    -0.188 C  
HETATM   10  C   UNL     1      -9.014  16.830  68.751  1.00  0.00    -0.254 C  
ENDROOT
BRANCH  10  11
HETATM   11  O   UNL     1      -9.811  17.419  67.696  1.00  0.00    -0.267 OA 
BRANCH  11  12
HETATM   12  C   UNL     1      -9.892  18.780  67.733  1.00  0.00    -0.333 C  
HETATM   13  O   UNL     1     -10.888  19.394  68.101  1.00  0.00    -0.264 OA 
BRANCH  12  14
HETATM   14  C   UNL     1      -8.677  19.518  67.269  1.00  0.00    -0.348 A  
HETATM   15  C   UNL     1      -8.551  19.668  65.871  1.00  0.00    -0.143 A  
HETATM   16  C   UNL     1      -7.456  20.322  65.299  1.00  0.00     0.030 A  
HETATM   17  C   UNL     1      -6.461  20.841  66.116  1.00  0.00    -0.282 A  
HETATM   18  C   UNL     1      -6.565  20.711  67.499  1.00  0.00    -0.359 A  
HETATM   19  C   UNL     1      -7.670  20.059  68.077  1.00  0.00    -0.266 A  
HETATM   20  O   UNL     1      -7.728  19.975  69.439  1.00  0.00    -0.085 OA 
HETATM   21  H   UNL     1      -7.045  20.342  69.987  1.00  0.00     0.000 HD 
ENDBRANCH  12  14
ENDBRANCH  11  12
ENDBRANCH  10  11
TORSDOF 3
ENDMDL
MODEL      245
REMARK 921   NORMALIZED FREE ENERGY PREDICTED BY IDOCK:   -1.71 KCAL/MOL
REMARK 922        TOTAL FREE ENERGY PREDICTED BY IDOCK:   -2.95 KCAL/MOL
REMARK 923 INTER-LIGAND FREE ENERGY PREDICTED BY IDOCK:   -3.04 KCAL/MOL
REMARK 924 INTRA-LIGAND FREE ENERGY PREDICTED BY IDOCK:    0.10 KCAL/MOL
REMARK 927      BINDING AFFINITY PREDICTED BY RF-SCORE:    0.00 PKD
ROOT
HETATM    1  C   UNL     1      -8.282   9.288  67.145  1.00  0.00    -0.117 C  
HETATM    2  C   UNL     1      -9.162  10.078  68.115  1.00  0.00    -0.130 C  
HETATM    3  C   UNL     1     -10.225   9.206  68.852  1.00  0.00    -0.221 C  
HETATM    4  C   UNL     1      -8.276  10.926  69.031  1.00  0.00    -0.126 C  
HETATM    5  C   UNL     1     -11.139  10.111  69.716  1.00  0.00    -0.328 C  
HETATM    6  C   UNL     1     -12.315   9.355  70.323  1.00  0.00     0.250 C  
HETATM    7  C   UNL     1     -11.853   8.134  71.123  1.00  0.00    -0.303 C  
HETATM    8  C   UNL     1     -13.060   7.358  71.648  1.00  0.00    -0.412 C  
HETATM    9  C   UNL     1     -10.937   7.246  70.272  1.00  0.00    -0.281 C  
HETATM   10  C   UNL     1      -9.719   8.032  69.734  1.00  0.00    -0.176 C  
ENDROOT
BRANCH  10  11
HETATM   11  O   UNL     1      -8.870   7.115  69.002  1.00  0.00    -0.132 OA 
BRANCH  11  12
HETATM   12  C   UNL     1      -9.538   6.204  68.239  1.00  0.00    -0.120 C  
HETATM   13  O   UNL     1     -10.601   6.438  67.672  1.00  0.00    -0.203 OA 
BRANCH  12  14
HETATM   14  C   UNL     1      -8.909   4.852  68.137  1.00  0.00    -0.113 A  
HETATM   15  C   UNL     1      -9.460   3.994  67.161  1.00  0.00    -0.224 A  
HETATM   16  C   UNL     1      -8.979   2.696  66.969  1.00  0.00    -0.171 A  
HETATM   17  C   UNL     1      -7.935   2.226  67.753  1.00  0.00    -0.061 A  
HETATM   18  C   UNL     1      -7.369   3.055  68.720  1.00  0.00    -0.049 A  
HETATM   19  C   UNL     1      -7.847   4.365  68.909  1.00  0.00    -0.070 A  
HETATM   20  O   UNL     1      -7.245   5.139  69.860  1.00  0.00    -0.056 OA 
HETATM   21  H   UNL     1      -6.525   4.809  70.383  1.00  0.00     0.000 HD 
ENDBRANCH  12  14
ENDBRANCH  11  12
ENDBRANCH  10  11
TORSDOF 3
ENDMDL
MODEL      246
REMARK 921   NORMALIZED FREE ENERGY PREDICTED BY IDOCK:   -0.93 KCAL/MOL
REMARK 922        TOTAL FREE ENERGY PREDICTED BY IDOCK:   -2.03 KCAL/MOL
REMARK 923 INTER-LIGAND FREE ENERGY PREDICTED BY IDOCK:   -1.95 KCAL/MOL
REMARK 924 INTRA-LIGAND FREE ENERGY PREDICTED BY IDOCK:   -0.08 KCAL/MOL
REMARK 927      BINDING AFFINITY PREDICTED BY RF-SCORE:    0.00 PKD
ROOT
HETATM    1  C   UNL     1     -11.078  10.743  71.767  1.00  0.00     2.676 C  
HETATM    2  C   UNL     1     -10.957   9.220  71.688  1.00  0.00    -0.433 C  
HETATM    3  C   UNL     1     -11.175   8.646  70.254  1.00  0.00    -0.196 C  
HETATM    4  C   UNL     1      -9.662   8.776  72.372  1.00  0.00    -0.215 C  
HETATM    5  C   UNL     1     -11.151   7.097  70.300  1.00  0.00    -0.303 C  
HETATM    6  C   UNL     1     -11.538   6.461  68.969  1.00  0.00    -0.021 C  
HETATM    7  C   UNL     1     -10.670   6.980  67.819  1.00  0.00    -0.300 C  
HETATM    8  C   UNL     1     -11.138   6.382  66.493  1.00  0.00     0.104 C  
HETATM    9  C   UNL     1     -10.683   8.513  67.784  1.00  0.00    -0.170 C  
HETATM   10  C   UNL     1     -10.216   9.120  69.128  1.00  0.00    -0.207 C  
ENDROOT
BRANCH  10  11
HETATM   11  O   UNL     1     -10.189  10.561  68.994  1.00  0.00    -0.194 OA 
BRANCH  11  12
HETATM   12  C   UNL     1     -11.251  11.093  68.325  1.00  0.00    -0.279 C  
HETATM   13  O   UNL     1     -12.397  11.098  68.761  1.00  0.00    -0.539 OA 
BRANCH  12  14
HETATM   14  C   UNL     1     -10.951  11.672  66.980  1.00  0.00    -0.338 A  
HETATM   15  C   UNL     1     -12.021  12.349  66.354  1.00  0.00    -0.346 A  
HETATM   16  C   UNL     1     -11.885  12.924  65.087  1.00  0.00    -0.415 A  
HETATM   17  C   UNL     1     -10.673  12.832  64.416  1.00  0.00    -0.398 A  
HETATM   18  C   UNL     1      -9.599  12.175  65.015  1.00  0.00    -0.027 A  
HETATM   19  C   UNL     1      -9.733  11.602  66.294  1.00  0.00    -0.218 A  
HETATM   20  O   UNL     1      -8.644  10.983  66.839  1.00  0.00    -0.136 OA 
HETATM   21  H   UNL     1      -7.817  10.936  66.373  1.00  0.00     0.000 HD 
ENDBRANCH  12  14
ENDBRANCH  11  12
ENDBRANCH  10  11
TORSDOF 3
ENDMDL
MODEL      247
REMARK 921   NORMALIZED FREE ENERGY PREDICTED BY IDOCK:   -0.33 KCAL/MOL
REMARK 922        TOTAL FREE ENERGY PREDICTED BY IDOCK:   -1.33 KCAL/MOL
REMARK 923 INTER-LIGAND FREE ENERGY PREDICTED BY IDOCK:   -1.68 KCAL/MOL
REMARK 924 INTRA-LIGAND FREE ENERGY PREDICTED BY IDOCK:    0.35 KCAL/MOL
REMARK 927      BINDING AFFINITY PREDICTED BY RF-SCORE:    0.00 PKD
ROOT
HETATM    1  C   UNL     1      -8.353  10.741  64.758  1.00  0.00     0.004 C  
HETATM    2  C   UNL     1      -9.698  10.139  65.170  1.00  0.00    -0.370 C  
HETATM    3  C   UNL     1     -10.062  10.377  66.668  1.00  0.00    -0.279 C  
HETATM    4  C   UNL     1     -10.775  10.565  64.169  1.00  0.00     0.369 C  
HETATM    5  C   UNL     1     -11.376   9.632  67.014  1.00  0.00     0.807 C  
HETATM    6  C   UNL     1     -11.699   9.667  68.504  1.00  0.00     0.699 C  
HETATM    7  C   UNL     1     -11.733  11.100  69.044  1.00  0.00    -0.408 C  
HETATM    8  C   UNL     1     -11.980  11.090  70.552  1.00  0.00    -0.474 C  
HETATM    9  C   UNL     1     -10.438  11.840  68.688  1.00  0.00    -0.242 C  
HETATM   10  C   UNL     1     -10.182  11.845  67.162  1.00  0.00    -0.208 C  
ENDROOT
BRANCH  10  11
HETATM   11  O   UNL     1      -8.987  12.617  66.901  1.00  0.00    -0.209 OA 
BRANCH  11  12
HETATM   12  C   UNL     1      -8.300  13.002  68.015  1.00  0.00    -0.169 C  
HETATM   13  O   UNL     1      -7.996  12.238  68.925  1.00  0.00    -0.022 OA 
BRANCH  12  14
HETATM   14  C   UNL     1      -7.939  14.451  68.091  1.00  0.00    -0.136 A  
HETATM   15  C   UNL     1      -8.893  15.285  68.715  1.00  0.00    -0.192 A  
HETATM   16  C   UNL     1      -8.692  16.662  68.839  1.00  0.00    -0.238 A  
HETATM   17  C   UNL     1      -7.531  17.237  68.340  1.00  0.00    -0.234 A  
HETATM   18  C   UNL     1      -6.572  16.434  67.725  1.00  0.00    -0.158 A  
HETATM   19  C   UNL     1      -6.769  15.046  67.606  1.00  0.00    -0.177 A  
HETATM   20  O   UNL     1      -5.789  14.306  67.008  1.00  0.00    -0.045 OA 
HETATM   21  H   UNL     1      -4.995  14.710  66.679  1.00  0.00     0.000 HD 
ENDBRANCH  12  14
ENDBRANCH  11  12
ENDBRANCH  10  11
TORSDOF 3
ENDMDL
MODEL      248
REMARK 921   NORMALIZED FREE ENERGY PREDICTED BY IDOCK:    2.07 KCAL/MOL
REMARK 922        TOTAL FREE ENERGY PREDICTED BY IDOCK:    1.50 KCAL/MOL
REMARK 923 INTER-LIGAND FREE ENERGY PREDICTED BY IDOCK:   -1.58 KCAL/MOL
REMARK 924 INTRA-LIGAND FREE ENERGY PREDICTED BY IDOCK:    3.07 KCAL/MOL
REMARK 927      BINDING AFFINITY PREDICTED BY RF-SCORE:    0.00 PKD
ROOT
HETATM    1  C   UNL     1      -8.210  16.080  68.275  1.00  0.00    -0.159 C  
HETATM    2  C   UNL     1      -8.653  15.356  69.547  1.00  0.00    -0.212 C  
HETATM    3  C   UNL     1     -10.168  15.528  69.873  1.00  0.00    -0.305 C  
HETATM    4  C   UNL     1      -8.162  13.906  69.505  1.00  0.00     0.716 C  
HETATM    5  C   UNL     1     -10.492  14.862  71.235  1.00  0.00     0.844 C  
HETATM    6  C   UNL     1     -11.913  15.146  71.708  1.00  0.00    -0.448 C  
HETATM    7  C   UNL     1     -12.952  14.751  70.654  1.00  0.00    -0.376 C  
HETATM    8  C   UNL     1     -14.355  15.123  71.131  1.00  0.00    -0.406 C  
HETATM    9  C   UNL     1     -12.623  15.399  69.304  1.00  0.00     0.139 C  
HETATM   10  C   UNL     1     -11.199  15.030  68.824  1.00  0.00    -0.277 C  
ENDROOT
BRANCH  10  11
HETATM   11  O   UNL     1     -10.990  15.618  67.518  1.00  0.00    -0.316 OA 
BRANCH  11  12
HETATM   12  C   UNL     1     -10.103  14.951  66.726  1.00  0.00    -0.251 C  
HETATM   13  O   UNL     1      -8.934  15.293  66.574  1.00  0.00    -0.268 OA 
BRANCH  12  14
HETATM   14  C   UNL     1     -10.640  13.754  66.009  1.00  0.00    -0.290 A  
HETATM   15  C   UNL     1     -12.048  13.643  65.978  1.00  0.00    -0.480 A  
HETATM   16  C   UNL     1     -12.684  12.566  65.355  1.00  0.00     0.045 A  
HETATM   17  C   UNL     1     -11.925  11.573  64.751  1.00  0.00     0.164 A  
HETATM   18  C   UNL     1     -10.534  11.663  64.763  1.00  0.00    -0.346 A  
HETATM   19  C   UNL     1      -9.892  12.751  65.382  1.00  0.00    -0.128 A  
HETATM   20  O   UNL     1      -8.527  12.796  65.351  1.00  0.00     0.780 OA 
HETATM   21  H   UNL     1      -8.019  12.115  64.925  1.00  0.00     0.000 HD 
ENDBRANCH  12  14
ENDBRANCH  11  12
ENDBRANCH  10  11
TORSDOF 3
ENDMDL
MODEL      249
REMARK 921   NORMALIZED FREE ENERGY PREDICTED BY IDOCK:    3.27 KCAL/MOL
REMARK 922        TOTAL FREE ENERGY PREDICTED BY IDOCK:    2.91 KCAL/MOL
REMARK 923 INTER-LIGAND FREE ENERGY PREDICTED BY IDOCK:   -1.33 KCAL/MOL
REMARK 924 INTRA-LIGAND FREE ENERGY PREDICTED BY IDOCK:    4.24 KCAL/MOL
REMARK 927      BINDING AFFINITY PREDICTED BY RF-SCORE:    0.00 PKD
ROOT
HETATM    1  C   UNL     1      -9.729  20.383  67.247  1.00  0.00    -0.602 C  
HETATM    2  C   UNL     1     -10.004  19.394  66.113  1.00  0.00    -0.501 C  
HETATM    3  C   UNL     1     -10.092  17.908  66.581  1.00  0.00    -0.362 C  
HETATM    4  C   UNL     1     -11.198  19.883  65.290  1.00  0.00     0.519 C  
HETATM    5  C   UNL     1     -10.253  16.978  65.352  1.00  0.00    -0.008 C  
HETATM    6  C   UNL     1     -10.163  15.500  65.714  1.00  0.00    -0.390 C  
HETATM    7  C   UNL     1     -11.163  15.123  66.811  1.00  0.00    -0.285 C  
HETATM    8  C   UNL     1     -10.989  13.656  67.202  1.00  0.00    -0.299 C  
HETATM    9  C   UNL     1     -11.013  16.053  68.021  1.00  0.00    -0.341 C  
HETATM   10  C   UNL     1     -11.181  17.538  67.625  1.00  0.00     0.231 C  
ENDROOT
BRANCH  10  11
HETATM   11  O   UNL     1     -11.096  18.344  68.825  1.00  0.00     0.616 OA 
BRANCH  11  12
HETATM   12  C   UNL     1      -9.856  18.399  69.389  1.00  0.00     0.091 C  
HETATM   13  O   UNL     1      -9.395  19.401  69.926  1.00  0.00     0.273 OA 
BRANCH  12  14
HETATM   14  C   UNL     1      -9.043  17.147  69.302  1.00  0.00     0.106 A  
HETATM   15  C   UNL     1      -9.660  15.982  69.809  1.00  0.00    -0.007 A  
HETATM   16  C   UNL     1      -9.008  14.746  69.806  1.00  0.00     0.328 A  
HETATM   17  C   UNL     1      -7.721  14.648  69.296  1.00  0.00    -0.091 A  
HETATM   18  C   UNL     1      -7.092  15.781  68.784  1.00  0.00    -0.131 A  
HETATM   19  C   UNL     1      -7.750  17.025  68.779  1.00  0.00    -0.249 A  
HETATM   20  O   UNL     1      -7.092  18.100  68.251  1.00  0.00    -0.231 OA 
HETATM   21  H   UNL     1      -6.215  18.017  67.896  1.00  0.00     0.000 HD 
ENDBRANCH  12  14
ENDBRANCH  11  12
ENDBRANCH  10  11
TORSDOF 3
ENDMDL
MODEL      250
REMARK 921   NORMALIZED FREE ENERGY PREDICTED BY IDOCK:    3.42 KCAL/MOL
REMARK 922        TOTAL FREE ENERGY PREDICTED BY IDOCK:    3.08 KCAL/MOL
REMARK 923 INTER-LIGAND FREE ENERGY PREDICTED BY IDOCK:    2.99 KCAL/MOL
REMARK 924 INTRA-LIGAND FREE ENERGY PREDICTED BY IDOCK:    0.09 KCAL/MOL
REMARK 927      BINDING AFFINITY PREDICTED BY RF-SCORE:    0.00 PKD
ROOT
HETATM    1  C   UNL     1      -9.879  19.687  67.712  1.00  0.00    -0.498 C  
HETATM    2  C   UNL     1      -9.642  18.938  66.400  1.00  0.00    -0.377 C  
HETATM    3  C   UNL     1      -9.633  17.385  66.554  1.00  0.00    -0.292 C  
HETATM    4  C   UNL     1     -10.593  19.474  65.328  1.00  0.00     0.174 C  
HETATM    5  C   UNL     1      -9.269  16.724  65.201  1.00  0.00     1.682 C  
HETATM    6  C   UNL     1      -9.062  15.219  65.316  1.00  0.00     0.985 C  
HETATM    7  C   UNL     1     -10.274  14.526  65.945  1.00  0.00    -0.339 C  
HETATM    8  C   UNL     1      -9.999  13.032  66.117  1.00  0.00    -0.278 C  
HETATM    9  C   UNL     1     -10.643  15.190  67.277  1.00  0.00    -0.286 C  
HETATM   10  C   UNL     1     -10.915  16.703  67.107  1.00  0.00    -0.023 C  
ENDROOT
BRANCH  10  11
HETATM   11  O   UNL     1     -11.322  17.242  68.387  1.00  0.00    -0.047 OA 
BRANCH  11  12
HETATM   12  C   UNL     1     -10.618  16.770  69.455  1.00  0.00    -0.283 C  
HETATM   13  O   UNL     1      -9.418  16.960  69.619  1.00  0.00     0.098 OA 
BRANCH  12  14
HETATM   14  C   UNL     1     -11.397  15.962  70.444  1.00  0.00    -0.399 A  
HETATM   15  C   UNL     1     -12.400  15.131  69.898  1.00  0.00    -0.314 A  
HETATM   16  C   UNL     1     -13.214  14.335  70.709  1.00  0.00    -0.255 A  
HETATM   17  C   UNL     1     -13.044  14.355  72.086  1.00  0.00    -0.450 A  
HETATM   18  C   UNL     1     -12.058  15.163  72.649  1.00  0.00    -0.487 A  
HETATM   19  C   UNL     1     -11.232  15.959  71.834  1.00  0.00    -0.042 A  
HETATM   20  O   UNL     1     -10.271  16.720  72.438  1.00  0.00     4.424 OA 
HETATM   21  H   UNL     1     -10.159  16.717  73.381  1.00  0.00     0.000 HD 
ENDBRANCH  12  14
ENDBRANCH  11  12
ENDBRANCH  10  11
TORSDOF 3
ENDMDL
MODEL      251
REMARK 921   NORMALIZED FREE ENERGY PREDICTED BY IDOCK:   17.09 KCAL/MOL
REMARK 922        TOTAL FREE ENERGY PREDICTED BY IDOCK:   19.15 KCAL/MOL
REMARK 923 INTER-LIGAND FREE ENERGY PREDICTED BY IDOCK:   20.08 KCAL/MOL
REMARK 924 INTRA-LIGAND FREE ENERGY PREDICTED BY IDOCK:   -0.92 KCAL/MOL
REMARK 927      BINDING AFFINITY PREDICTED BY RF-SCORE:    0.00 PKD
ROOT
HETATM    1  C   UNL     1     -13.944  15.103  69.159  1.00  0.00     4.882 C  
HETATM    2  C   UNL     1     -13.255  15.196  70.521  1.00  0.00    -0.268 C  
HETATM    3  C   UNL     1     -11.730  14.873  70.478  1.00  0.00    -0.344 C  
HETATM    4  C   UNL     1     -13.614  16.528  71.184  1.00  0.00     3.678 C  
HETATM    5  C   UNL     1     -11.151  14.877  71.916  1.00  0.00     0.220 C  
HETATM    6  C   UNL     1      -9.707  14.391  71.972  1.00  0.00     5.801 C  
HETATM    7  C   UNL     1      -8.804  15.186  71.025  1.00  0.00     2.696 C  
HETATM    8  C   UNL     1      -7.384  14.621  71.049  1.00  0.00     1.593 C  
HETATM    9  C   UNL     1      -9.385  15.194  69.606  1.00  0.00    -0.091 C  
HETATM   10  C   UNL     1     -10.824  15.760  69.580  1.00  0.00    -0.300 C  
ENDROOT
BRANCH  10  11
HETATM   11  O   UNL     1     -11.276  15.799  68.205  1.00  0.00    -0.327 OA 
BRANCH  11  12
HETATM   12  C   UNL     1     -11.369  17.050  67.671  1.00  0.00     0.257 C  
HETATM   13  O   UNL     1     -12.366  17.759  67.767  1.00  0.00     2.431 OA 
BRANCH  12  14
HETATM   14  C   UNL     1     -10.170  17.529  66.917  1.00  0.00    -0.329 A  
HETATM   15  C   UNL     1      -9.921  18.918  66.985  1.00  0.00    -0.389 A  
HETATM   16  C   UNL     1      -8.843  19.503  66.315  1.00  0.00    -0.391 A  
HETATM   17  C   UNL     1      -7.991  18.711  65.559  1.00  0.00     0.573 A  
HETATM   18  C   UNL     1      -8.211  17.337  65.480  1.00  0.00     0.948 A  
HETATM   19  C   UNL     1      -9.291  16.745  66.161  1.00  0.00    -0.255 A  
HETATM   20  O   UNL     1      -9.451  15.392  66.061  1.00  0.00    -0.306 OA 
HETATM   21  H   UNL     1      -8.855  14.860  65.548  1.00  0.00     0.000 HD 
ENDBRANCH  12  14
ENDBRANCH  11  12
ENDBRANCH  10  11
TORSDOF 3
ENDMDL
MODEL      252
REMARK 921   NORMALIZED FREE ENERGY PREDICTED BY IDOCK:   25.15 KCAL/MOL
REMARK 922        TOTAL FREE ENERGY PREDICTED BY IDOCK:   28.62 KCAL/MOL
REMARK 923 INTER-LIGAND FREE ENERGY PREDICTED BY IDOCK:   29.50 KCAL/MOL
REMARK 924 INTRA-LIGAND FREE ENERGY PREDICTED BY IDOCK:   -0.88 KCAL/MOL
REMARK 927      BINDING AFFINITY PREDICTED BY RF-SCORE:    0.00 PKD
ROOT
HETATM    1  C   UNL     1     -13.864  15.385  69.324  1.00  0.00     3.609 C  
HETATM    2  C   UNL     1     -13.924  15.514  70.846  1.00  0.00    -0.019 C  
HETATM    3  C   UNL     1     -12.629  15.033  71.570  1.00  0.00    -0.410 C  
HETATM    4  C   UNL     1     -14.386  16.925  71.220  1.00  0.00     7.569 C  
HETATM    5  C   UNL     1     -12.832  15.092  73.106  1.00  0.00    -0.615 C  
HETATM    6  C   UNL     1     -11.677  14.466  73.878  1.00  0.00     0.740 C  
HETATM    7  C   UNL     1     -10.331  15.085  73.489  1.00  0.00     4.642 C  
HETATM    8  C   UNL     1      -9.192  14.380  74.223  1.00  0.00    10.485 C  
HETATM    9  C   UNL     1     -10.138  15.040  71.968  1.00  0.00     2.784 C  
HETATM   10  C   UNL     1     -11.294  15.747  71.223  1.00  0.00    -0.376 C  
ENDROOT
BRANCH  10  11
HETATM   11  O   UNL     1     -11.006  15.724  69.804  1.00  0.00    -0.260 OA 
BRANCH  11  12
HETATM   12  C   UNL     1     -10.610  16.919  69.282  1.00  0.00    -0.325 C  
HETATM   13  O   UNL     1     -11.363  17.688  68.694  1.00  0.00     0.347 OA 
BRANCH  12  14
HETATM   14  C   UNL     1      -9.162  17.255  69.444  1.00  0.00     0.275 A  
HETATM   15  C   UNL     1      -8.879  18.604  69.749  1.00  0.00     1.004 A  
HETATM   16  C   UNL     1      -7.567  19.059  69.911  1.00  0.00     0.578 A  
HETATM   17  C   UNL     1      -6.508  18.173  69.769  1.00  0.00    -0.057 A  
HETATM   18  C   UNL     1      -6.761  16.835  69.473  1.00  0.00    -0.181 A  
HETATM   19  C   UNL     1      -8.082  16.373  69.318  1.00  0.00    -0.121 A  
HETATM   20  O   UNL     1      -8.273  15.049  69.043  1.00  0.00    -0.166 OA 
HETATM   21  H   UNL     1      -7.540  14.451  68.958  1.00  0.00     0.000 HD 
ENDBRANCH  12  14
ENDBRANCH  11  12
ENDBRANCH  10  11
TORSDOF 3
ENDMDL
