MODEL        1
REMARK 921   NORMALIZED FREE ENERGY PREDICTED BY IDOCK:   -7.11 KCAL/MOL
REMARK 922        TOTAL FREE ENERGY PREDICTED BY IDOCK:   -8.46 KCAL/MOL
REMARK 923 INTER-LIGAND FREE ENERGY PREDICTED BY IDOCK:   -7.94 KCAL/MOL
REMARK 924 INTRA-LIGAND FREE ENERGY PREDICTED BY IDOCK:   -0.52 KCAL/MOL
REMARK 927      BINDING AFFINITY PREDICTED BY RF-SCORE:    0.00 PKD
ROOT
HETATM    1  C   UNL     1      -6.509  18.871  69.423  1.00  0.00    -0.269 C  
HETATM    2  N   UNL     1      -7.549  18.302  68.450  1.00  0.00    -0.281 N  
HETATM    3  C   UNL     1      -6.855  18.094  67.095  1.00  0.00    -0.191 C  
HETATM    4  C   UNL     1      -8.674  19.335  68.334  1.00  0.00    -0.357 C  
HETATM    5  C   UNL     1      -7.727  17.319  66.117  1.00  0.00    -0.317 C  
HETATM    6  C   UNL     1      -8.173  15.995  66.705  1.00  0.00    -0.324 C  
HETATM    7  C   UNL     1      -8.953  16.213  67.999  1.00  0.00    -0.185 C  
HETATM    8  C   UNL     1      -8.080  16.961  69.020  1.00  0.00    -0.162 C  
ENDROOT
BRANCH   7   9
HETATM    9  O   UNL     1      -9.351  14.919  68.482  1.00  0.00    -0.183 OA 
BRANCH   9  10
HETATM   10  C   UNL     1     -10.414  14.397  67.765  1.00  0.00    -0.245 C  
HETATM   11  O   UNL     1     -11.387  15.079  67.465  1.00  0.00    -0.322 OA 
HETATM   12  C   UNL     1     -10.211  12.878  67.420  1.00  0.00    -0.230 C  
HETATM   13  C   UNL     1     -10.839  12.568  66.048  1.00  0.00    -0.309 A  
HETATM   14  O   UNL     1      -8.775  12.703  67.318  1.00  0.00    -0.182 OA 
HETATM   15  C   UNL     1     -10.722  11.992  68.566  1.00  0.00    -0.261 A  
HETATM   16  H   UNL     1      -8.653  11.785  67.109  1.00  0.00     0.000 HD 
HETATM   17  C   UNL     1     -10.053  12.188  64.943  1.00  0.00    -0.280 A  
HETATM   18  C   UNL     1     -11.826  12.370  69.352  1.00  0.00    -0.365 A  
HETATM   19  C   UNL     1     -10.612  12.045  63.668  1.00  0.00    -0.503 A  
HETATM   20  C   UNL     1     -12.223  11.609  70.453  1.00  0.00    -0.434 A  
HETATM   21  C   UNL     1     -11.537  10.445  70.780  1.00  0.00    -0.450 A  
HETATM   22  C   UNL     1     -11.969  12.276  63.469  1.00  0.00    -0.625 A  
HETATM   23  C   UNL     1     -12.775  12.620  64.548  1.00  0.00    -0.439 A  
HETATM   24  C   UNL     1     -10.473  10.022  69.986  1.00  0.00    -0.337 A  
HETATM   25  C   UNL     1     -10.081  10.777  68.879  1.00  0.00    -0.217 A  
HETATM   26  C   UNL     1     -12.218  12.753  65.825  1.00  0.00    -0.469 A  
ENDBRANCH   9  10
ENDBRANCH   7   9
TORSDOF 2
ENDMDL
MODEL        2
REMARK 921   NORMALIZED FREE ENERGY PREDICTED BY IDOCK:   -6.97 KCAL/MOL
REMARK 922        TOTAL FREE ENERGY PREDICTED BY IDOCK:   -8.30 KCAL/MOL
REMARK 923 INTER-LIGAND FREE ENERGY PREDICTED BY IDOCK:   -7.75 KCAL/MOL
REMARK 924 INTRA-LIGAND FREE ENERGY PREDICTED BY IDOCK:   -0.55 KCAL/MOL
REMARK 927      BINDING AFFINITY PREDICTED BY RF-SCORE:    0.00 PKD
ROOT
HETATM    1  C   UNL     1      -7.723  10.215  64.632  1.00  0.00    -0.141 C  
HETATM    2  N   UNL     1      -9.030  10.140  65.431  1.00  0.00    -0.166 N  
HETATM    3  C   UNL     1      -9.234   8.677  65.856  1.00  0.00    -0.202 C  
HETATM    4  C   UNL     1     -10.157  10.599  64.500  1.00  0.00    -0.353 C  
HETATM    5  C   UNL     1     -10.377   8.523  66.848  1.00  0.00    -0.367 C  
HETATM    6  C   UNL     1     -10.184   9.416  68.057  1.00  0.00    -0.248 C  
HETATM    7  C   UNL     1     -10.086  10.880  67.639  1.00  0.00    -0.179 C  
HETATM    8  C   UNL     1      -8.912  11.072  66.665  1.00  0.00    -0.168 C  
ENDROOT
BRANCH   7   9
HETATM    9  O   UNL     1      -9.920  11.658  68.836  1.00  0.00    -0.168 OA 
BRANCH   9  10
HETATM   10  C   UNL     1     -11.060  12.375  69.157  1.00  0.00    -0.203 C  
HETATM   11  O   UNL     1     -12.090  11.820  69.523  1.00  0.00    -0.295 OA 
HETATM   12  C   UNL     1     -10.860  13.922  68.979  1.00  0.00    -0.225 C  
HETATM   13  C   UNL     1     -11.675  14.678  70.046  1.00  0.00    -0.348 A  
HETATM   14  O   UNL     1      -9.451  14.152  69.231  1.00  0.00    -0.401 OA 
HETATM   15  C   UNL     1     -11.163  14.342  67.533  1.00  0.00    -0.329 A  
HETATM   16  H   UNL     1      -9.330  15.088  69.124  1.00  0.00     0.000 HD 
HETATM   17  C   UNL     1     -11.051  15.436  71.055  1.00  0.00    -0.377 A  
HETATM   18  C   UNL     1     -12.149  13.691  66.769  1.00  0.00    -0.445 A  
HETATM   19  C   UNL     1     -11.790  16.003  72.100  1.00  0.00    -0.623 A  
HETATM   20  C   UNL     1     -12.351  14.012  65.425  1.00  0.00    -0.495 A  
HETATM   21  C   UNL     1     -11.585  15.004  64.823  1.00  0.00    -0.395 A  
HETATM   22  C   UNL     1     -13.169  15.827  72.157  1.00  0.00    -0.508 A  
HETATM   23  C   UNL     1     -13.815  15.111  71.157  1.00  0.00    -0.495 A  
HETATM   24  C   UNL     1     -10.639  15.698  65.572  1.00  0.00    -0.422 A  
HETATM   25  C   UNL     1     -10.442  15.386  66.919  1.00  0.00    -0.295 A  
HETATM   26  C   UNL     1     -13.078  14.554  70.106  1.00  0.00     0.094 A  
ENDBRANCH   9  10
ENDBRANCH   7   9
TORSDOF 2
ENDMDL
MODEL        3
REMARK 921   NORMALIZED FREE ENERGY PREDICTED BY IDOCK:   -6.87 KCAL/MOL
REMARK 922        TOTAL FREE ENERGY PREDICTED BY IDOCK:   -8.19 KCAL/MOL
REMARK 923 INTER-LIGAND FREE ENERGY PREDICTED BY IDOCK:   -7.64 KCAL/MOL
REMARK 924 INTRA-LIGAND FREE ENERGY PREDICTED BY IDOCK:   -0.55 KCAL/MOL
REMARK 927      BINDING AFFINITY PREDICTED BY RF-SCORE:    0.00 PKD
ROOT
HETATM    1  C   UNL     1      -9.800  19.719  69.068  1.00  0.00    -0.335 C  
HETATM    2  N   UNL     1      -9.311  19.312  67.672  1.00  0.00    -0.301 N  
HETATM    3  C   UNL     1      -7.884  19.856  67.501  1.00  0.00    -0.290 C  
HETATM    4  C   UNL     1     -10.263  19.949  66.655  1.00  0.00    -0.485 C  
HETATM    5  C   UNL     1      -7.211  19.317  66.247  1.00  0.00    -0.265 C  
HETATM    6  C   UNL     1      -7.219  17.802  66.224  1.00  0.00    -0.331 C  
HETATM    7  C   UNL     1      -8.647  17.266  66.289  1.00  0.00    -0.229 C  
HETATM    8  C   UNL     1      -9.337  17.765  67.569  1.00  0.00    -0.245 C  
ENDROOT
BRANCH   7   9
HETATM    9  O   UNL     1      -8.569  15.831  66.247  1.00  0.00    -0.305 OA 
BRANCH   9  10
HETATM   10  C   UNL     1      -9.724  15.260  65.741  1.00  0.00    -0.350 C  
HETATM   11  O   UNL     1     -10.434  15.846  64.933  1.00  0.00    -0.542 OA 
HETATM   12  C   UNL     1      -9.988  13.829  66.333  1.00  0.00    -0.297 C  
HETATM   13  C   UNL     1     -10.649  12.938  65.264  1.00  0.00    -0.316 A  
HETATM   14  O   UNL     1      -8.673  13.294  66.627  1.00  0.00    -0.411 OA 
HETATM   15  C   UNL     1     -10.772  13.927  67.650  1.00  0.00    -0.255 A  
HETATM   16  H   UNL     1      -8.834  12.428  66.985  1.00  0.00     0.000 HD 
HETATM   17  C   UNL     1      -9.992  11.814  64.729  1.00  0.00    -0.275 A  
HETATM   18  C   UNL     1     -11.726  14.939  67.866  1.00  0.00    -0.344 A  
HETATM   19  C   UNL     1     -10.539  11.093  63.661  1.00  0.00    -0.414 A  
HETATM   20  C   UNL     1     -12.362  15.082  69.100  1.00  0.00    -0.094 A  
HETATM   21  C   UNL     1     -12.073  14.203  70.138  1.00  0.00    -0.411 A  
HETATM   22  C   UNL     1     -11.755  11.478  63.106  1.00  0.00     0.022 A  
HETATM   23  C   UNL     1     -12.441  12.564  63.636  1.00  0.00    -0.570 A  
HETATM   24  C   UNL     1     -11.173  13.161  69.933  1.00  0.00     0.067 A  
HETATM   25  C   UNL     1     -10.542  13.012  68.697  1.00  0.00    -0.257 A  
HETATM   26  C   UNL     1     -11.900  13.279  64.711  1.00  0.00    -0.411 A  
ENDBRANCH   9  10
ENDBRANCH   7   9
TORSDOF 2
ENDMDL
MODEL        4
REMARK 921   NORMALIZED FREE ENERGY PREDICTED BY IDOCK:   -6.86 KCAL/MOL
REMARK 922        TOTAL FREE ENERGY PREDICTED BY IDOCK:   -8.18 KCAL/MOL
REMARK 923 INTER-LIGAND FREE ENERGY PREDICTED BY IDOCK:   -7.87 KCAL/MOL
REMARK 924 INTRA-LIGAND FREE ENERGY PREDICTED BY IDOCK:   -0.31 KCAL/MOL
REMARK 927      BINDING AFFINITY PREDICTED BY RF-SCORE:    0.00 PKD
ROOT
HETATM    1  C   UNL     1      -6.726  19.548  68.847  1.00  0.00    -0.312 C  
HETATM    2  N   UNL     1      -6.820  18.073  68.436  1.00  0.00    -0.217 N  
HETATM    3  C   UNL     1      -5.568  17.359  68.969  1.00  0.00    -0.171 C  
HETATM    4  C   UNL     1      -6.861  18.031  66.905  1.00  0.00    -0.189 C  
HETATM    5  C   UNL     1      -5.664  15.848  68.822  1.00  0.00    -0.104 C  
HETATM    6  C   UNL     1      -6.917  15.307  69.481  1.00  0.00    -0.191 C  
HETATM    7  C   UNL     1      -8.165  15.943  68.875  1.00  0.00    -0.213 C  
HETATM    8  C   UNL     1      -8.112  17.470  69.046  1.00  0.00    -0.077 C  
ENDROOT
BRANCH   7   9
HETATM    9  O   UNL     1      -9.304  15.370  69.538  1.00  0.00    -0.265 OA 
BRANCH   9  10
HETATM   10  C   UNL     1     -10.378  15.201  68.682  1.00  0.00    -0.232 C  
HETATM   11  O   UNL     1     -10.760  16.098  67.939  1.00  0.00    -0.302 OA 
HETATM   12  C   UNL     1     -11.016  13.771  68.802  1.00  0.00    -0.264 C  
HETATM   13  C   UNL     1     -11.534  13.315  67.424  1.00  0.00    -0.371 A  
HETATM   14  O   UNL     1      -9.923  12.902  69.192  1.00  0.00    -0.396 OA 
HETATM   15  C   UNL     1     -12.072  13.743  69.917  1.00  0.00    -0.412 A  
HETATM   16  H   UNL     1     -10.309  12.037  69.264  1.00  0.00     0.000 HD 
HETATM   17  C   UNL     1     -10.964  12.222  66.744  1.00  0.00    -0.321 A  
HETATM   18  C   UNL     1     -12.865  14.869  70.208  1.00  0.00    -0.264 A  
HETATM   19  C   UNL     1     -11.345  11.901  65.436  1.00  0.00    -0.334 A  
HETATM   20  C   UNL     1     -13.752  14.869  71.286  1.00  0.00    -0.505 A  
HETATM   21  C   UNL     1     -13.879  13.738  72.084  1.00  0.00    -0.649 A  
HETATM   22  C   UNL     1     -12.305  12.665  64.780  1.00  0.00    -0.556 A  
HETATM   23  C   UNL     1     -12.908  13.729  65.439  1.00  0.00    -0.455 A  
HETATM   24  C   UNL     1     -13.144  12.594  71.785  1.00  0.00    -0.461 A  
HETATM   25  C   UNL     1     -12.263  12.588  70.702  1.00  0.00    -0.365 A  
HETATM   26  C   UNL     1     -12.535  14.043  66.751  1.00  0.00    -0.238 A  
ENDBRANCH   9  10
ENDBRANCH   7   9
TORSDOF 2
ENDMDL
MODEL        5
REMARK 921   NORMALIZED FREE ENERGY PREDICTED BY IDOCK:   -6.81 KCAL/MOL
REMARK 922        TOTAL FREE ENERGY PREDICTED BY IDOCK:   -8.13 KCAL/MOL
REMARK 923 INTER-LIGAND FREE ENERGY PREDICTED BY IDOCK:   -7.77 KCAL/MOL
REMARK 924 INTRA-LIGAND FREE ENERGY PREDICTED BY IDOCK:   -0.35 KCAL/MOL
REMARK 927      BINDING AFFINITY PREDICTED BY RF-SCORE:    0.00 PKD
ROOT
HETATM    1  C   UNL     1      -6.879  19.090  66.253  1.00  0.00    -0.219 C  
HETATM    2  N   UNL     1      -7.779  18.432  67.305  1.00  0.00    -0.221 N  
HETATM    3  C   UNL     1      -8.725  19.512  67.853  1.00  0.00    -0.320 C  
HETATM    4  C   UNL     1      -6.866  17.894  68.411  1.00  0.00    -0.227 C  
HETATM    5  C   UNL     1      -9.817  18.925  68.735  1.00  0.00    -0.461 C  
HETATM    6  C   UNL     1     -10.594  17.846  68.007  1.00  0.00    -0.366 C  
HETATM    7  C   UNL     1      -9.665  16.722  67.555  1.00  0.00    -0.252 C  
HETATM    8  C   UNL     1      -8.573  17.283  66.629  1.00  0.00    -0.257 C  
ENDROOT
BRANCH   7   9
HETATM    9  O   UNL     1     -10.475  15.737  66.891  1.00  0.00    -0.304 OA 
BRANCH   9  10
HETATM   10  C   UNL     1     -10.110  14.446  67.228  1.00  0.00    -0.251 C  
HETATM   11  O   UNL     1      -8.969  14.168  67.581  1.00  0.00    -0.176 OA 
HETATM   12  C   UNL     1     -11.303  13.434  67.088  1.00  0.00    -0.315 C  
HETATM   13  C   UNL     1     -11.191  12.345  68.172  1.00  0.00    -0.313 A  
HETATM   14  O   UNL     1     -12.494  14.218  67.346  1.00  0.00    -0.588 OA 
HETATM   15  C   UNL     1     -11.385  12.893  65.652  1.00  0.00    -0.344 A  
HETATM   16  H   UNL     1     -13.216  13.605  67.261  1.00  0.00     0.000 HD 
HETATM   17  C   UNL     1     -12.146  12.223  69.200  1.00  0.00    -0.214 A  
HETATM   18  C   UNL     1     -10.230  12.696  64.873  1.00  0.00    -0.295 A  
HETATM   19  C   UNL     1     -11.964  11.325  70.258  1.00  0.00    -0.466 A  
HETATM   20  C   UNL     1     -10.319  12.300  63.537  1.00  0.00    -0.443 A  
HETATM   21  C   UNL     1     -11.563  12.073  62.959  1.00  0.00    -0.067 A  
HETATM   22  C   UNL     1     -10.826  10.527  70.311  1.00  0.00    -0.241 A  
HETATM   23  C   UNL     1      -9.883  10.603  69.293  1.00  0.00    -0.201 A  
HETATM   24  C   UNL     1     -12.718  12.210  63.725  1.00  0.00    -0.525 A  
HETATM   25  C   UNL     1     -12.630  12.597  65.063  1.00  0.00    -0.504 A  
HETATM   26  C   UNL     1     -10.070  11.493  68.230  1.00  0.00    -0.205 A  
ENDBRANCH   9  10
ENDBRANCH   7   9
TORSDOF 2
ENDMDL
MODEL        6
REMARK 921   NORMALIZED FREE ENERGY PREDICTED BY IDOCK:   -6.77 KCAL/MOL
REMARK 922        TOTAL FREE ENERGY PREDICTED BY IDOCK:   -8.08 KCAL/MOL
REMARK 923 INTER-LIGAND FREE ENERGY PREDICTED BY IDOCK:   -7.62 KCAL/MOL
REMARK 924 INTRA-LIGAND FREE ENERGY PREDICTED BY IDOCK:   -0.46 KCAL/MOL
REMARK 927      BINDING AFFINITY PREDICTED BY RF-SCORE:    0.00 PKD
ROOT
HETATM    1  C   UNL     1      -9.677   8.285  72.383  1.00  0.00    -0.303 C  
HETATM    2  N   UNL     1     -10.961   8.508  71.575  1.00  0.00    -0.250 N  
HETATM    3  C   UNL     1     -12.133   8.560  72.567  1.00  0.00    -0.326 C  
HETATM    4  C   UNL     1     -11.108   7.319  70.620  1.00  0.00    -0.264 C  
HETATM    5  C   UNL     1     -13.427   9.007  71.903  1.00  0.00    -0.481 C  
HETATM    6  C   UNL     1     -13.255  10.338  71.198  1.00  0.00    -0.429 C  
HETATM    7  C   UNL     1     -12.158  10.253  70.140  1.00  0.00    -0.202 C  
HETATM    8  C   UNL     1     -10.829   9.840  70.792  1.00  0.00    -0.333 C  
ENDROOT
BRANCH   7   9
HETATM    9  O   UNL     1     -12.068  11.542  69.511  1.00  0.00    -0.308 OA 
BRANCH   9  10
HETATM   10  C   UNL     1     -11.597  11.459  68.212  1.00  0.00    -0.306 C  
HETATM   11  O   UNL     1     -11.587  10.400  67.596  1.00  0.00    -0.383 OA 
HETATM   12  C   UNL     1     -11.089  12.844  67.673  1.00  0.00    -0.264 C  
HETATM   13  C   UNL     1     -11.381  12.953  66.164  1.00  0.00    -0.356 A  
HETATM   14  O   UNL     1     -11.888  13.835  68.368  1.00  0.00    -0.341 OA 
HETATM   15  C   UNL     1      -9.617  13.063  68.052  1.00  0.00    -0.224 A  
HETATM   16  H   UNL     1     -11.581  14.672  68.041  1.00  0.00     0.000 HD 
HETATM   17  C   UNL     1     -12.293  13.896  65.653  1.00  0.00    -0.511 A  
HETATM   18  C   UNL     1      -8.710  11.990  68.132  1.00  0.00    -0.177 A  
HETATM   19  C   UNL     1     -12.658  13.896  64.302  1.00  0.00    -0.181 A  
HETATM   20  C   UNL     1      -7.399  12.182  68.572  1.00  0.00    -0.105 A  
HETATM   21  C   UNL     1      -6.962  13.455  68.923  1.00  0.00    -0.102 A  
HETATM   22  C   UNL     1     -12.117  12.956  63.431  1.00  0.00    -0.610 A  
HETATM   23  C   UNL     1     -11.189  12.035  63.902  1.00  0.00    -0.490 A  
HETATM   24  C   UNL     1      -7.825  14.541  68.803  1.00  0.00    -0.145 A  
HETATM   25  C   UNL     1      -9.133  14.352  68.353  1.00  0.00    -0.193 A  
HETATM   26  C   UNL     1     -10.817  12.041  65.250  1.00  0.00    -0.340 A  
ENDBRANCH   9  10
ENDBRANCH   7   9
TORSDOF 2
ENDMDL
MODEL        7
REMARK 921   NORMALIZED FREE ENERGY PREDICTED BY IDOCK:   -6.65 KCAL/MOL
REMARK 922        TOTAL FREE ENERGY PREDICTED BY IDOCK:   -7.95 KCAL/MOL
REMARK 923 INTER-LIGAND FREE ENERGY PREDICTED BY IDOCK:   -7.29 KCAL/MOL
REMARK 924 INTRA-LIGAND FREE ENERGY PREDICTED BY IDOCK:   -0.66 KCAL/MOL
REMARK 927      BINDING AFFINITY PREDICTED BY RF-SCORE:    0.00 PKD
ROOT
HETATM    1  C   UNL     1      -8.958   7.170  72.134  1.00  0.00    -0.129 C  
HETATM    2  N   UNL     1     -10.251   7.729  71.529  1.00  0.00    -0.181 N  
HETATM    3  C   UNL     1     -11.287   7.837  72.659  1.00  0.00    -0.393 C  
HETATM    4  C   UNL     1     -10.716   6.739  70.456  1.00  0.00    -0.238 C  
HETATM    5  C   UNL     1     -12.533   8.595  72.224  1.00  0.00    -0.460 C  
HETATM    6  C   UNL     1     -12.183   9.965  71.678  1.00  0.00    -0.482 C  
HETATM    7  C   UNL     1     -11.234   9.848  70.488  1.00  0.00    -0.330 C  
HETATM    8  C   UNL     1      -9.948   9.119  70.911  1.00  0.00    -0.288 C  
ENDROOT
BRANCH   7   9
HETATM    9  O   UNL     1     -10.965  11.181  70.022  1.00  0.00    -0.180 OA 
BRANCH   9  10
HETATM   10  C   UNL     1     -11.353  11.363  68.706  1.00  0.00    -0.271 C  
HETATM   11  O   UNL     1     -12.528  11.289  68.363  1.00  0.00    -0.403 OA 
HETATM   12  C   UNL     1     -10.133  11.648  67.759  1.00  0.00    -0.187 C  
HETATM   13  C   UNL     1     -10.559  12.619  66.641  1.00  0.00    -0.267 A  
HETATM   14  O   UNL     1      -9.154  12.313  68.595  1.00  0.00    -0.356 OA 
HETATM   15  C   UNL     1      -9.521  10.332  67.257  1.00  0.00    -0.174 A  
HETATM   16  H   UNL     1      -8.417  12.486  68.022  1.00  0.00     0.000 HD 
HETATM   17  C   UNL     1     -10.022  13.917  66.543  1.00  0.00    -0.288 A  
HETATM   18  C   UNL     1     -10.315   9.194  67.020  1.00  0.00    -0.333 A  
HETATM   19  C   UNL     1     -10.514  14.840  65.613  1.00  0.00    -0.365 A  
HETATM   20  C   UNL     1      -9.740   7.974  66.659  1.00  0.00    -0.313 A  
HETATM   21  C   UNL     1      -8.361   7.872  66.508  1.00  0.00    -0.127 A  
HETATM   22  C   UNL     1     -11.552  14.485  64.758  1.00  0.00    -0.414 A  
HETATM   23  C   UNL     1     -12.079  13.200  64.810  1.00  0.00    -0.459 A  
HETATM   24  C   UNL     1      -7.560   8.996  66.686  1.00  0.00    -0.089 A  
HETATM   25  C   UNL     1      -8.134  10.219  67.038  1.00  0.00    -0.121 A  
HETATM   26  C   UNL     1     -11.580  12.274  65.732  1.00  0.00    -0.443 A  
ENDBRANCH   9  10
ENDBRANCH   7   9
TORSDOF 2
ENDMDL
MODEL        8
REMARK 921   NORMALIZED FREE ENERGY PREDICTED BY IDOCK:   -6.65 KCAL/MOL
REMARK 922        TOTAL FREE ENERGY PREDICTED BY IDOCK:   -7.94 KCAL/MOL
REMARK 923 INTER-LIGAND FREE ENERGY PREDICTED BY IDOCK:   -7.70 KCAL/MOL
REMARK 924 INTRA-LIGAND FREE ENERGY PREDICTED BY IDOCK:   -0.25 KCAL/MOL
REMARK 927      BINDING AFFINITY PREDICTED BY RF-SCORE:    0.00 PKD
ROOT
HETATM    1  C   UNL     1     -10.103   7.984  72.581  1.00  0.00    -0.301 C  
HETATM    2  N   UNL     1     -11.181   8.475  71.607  1.00  0.00    -0.271 N  
HETATM    3  C   UNL     1     -12.494   8.611  72.394  1.00  0.00    -0.362 C  
HETATM    4  C   UNL     1     -11.313   7.418  70.506  1.00  0.00    -0.271 C  
HETATM    5  C   UNL     1     -13.577   9.310  71.585  1.00  0.00    -0.448 C  
HETATM    6  C   UNL     1     -13.106  10.660  71.082  1.00  0.00    -0.415 C  
HETATM    7  C   UNL     1     -11.860  10.509  70.213  1.00  0.00    -0.331 C  
HETATM    8  C   UNL     1     -10.735   9.840  71.020  1.00  0.00    -0.272 C  
ENDROOT
BRANCH   7   9
HETATM    9  O   UNL     1     -11.487  11.823  69.765  1.00  0.00    -0.280 OA 
BRANCH   9  10
HETATM   10  C   UNL     1     -10.914  11.804  68.506  1.00  0.00    -0.227 C  
HETATM   11  O   UNL     1     -10.355  10.805  68.066  1.00  0.00    -0.170 OA 
HETATM   12  C   UNL     1     -11.060  13.180  67.763  1.00  0.00    -0.262 C  
HETATM   13  C   UNL     1     -11.229  12.939  66.251  1.00  0.00    -0.337 A  
HETATM   14  O   UNL     1     -12.289  13.755  68.275  1.00  0.00    -0.430 OA 
HETATM   15  C   UNL     1      -9.901  14.117  68.131  1.00  0.00    -0.229 A  
HETATM   16  H   UNL     1     -12.377  14.588  67.826  1.00  0.00     0.000 HD 
HETATM   17  C   UNL     1     -12.423  13.261  65.578  1.00  0.00    -0.531 A  
HETATM   18  C   UNL     1      -8.611  13.623  68.399  1.00  0.00    -0.151 A  
HETATM   19  C   UNL     1     -12.619  12.911  64.238  1.00  0.00    -0.363 A  
HETATM   20  C   UNL     1      -7.587  14.469  68.828  1.00  0.00    -0.131 A  
HETATM   21  C   UNL     1      -7.826  15.830  68.981  1.00  0.00    -0.206 A  
HETATM   22  C   UNL     1     -11.625  12.235  63.538  1.00  0.00    -0.570 A  
HETATM   23  C   UNL     1     -10.424  11.933  64.168  1.00  0.00    -0.393 A  
HETATM   24  C   UNL     1      -9.080  16.352  68.672  1.00  0.00    -0.233 A  
HETATM   25  C   UNL     1     -10.102  15.508  68.233  1.00  0.00    -0.218 A  
HETATM   26  C   UNL     1     -10.223  12.292  65.505  1.00  0.00    -0.296 A  
ENDBRANCH   9  10
ENDBRANCH   7   9
TORSDOF 2
ENDMDL
MODEL        9
REMARK 921   NORMALIZED FREE ENERGY PREDICTED BY IDOCK:   -6.62 KCAL/MOL
REMARK 922        TOTAL FREE ENERGY PREDICTED BY IDOCK:   -7.92 KCAL/MOL
REMARK 923 INTER-LIGAND FREE ENERGY PREDICTED BY IDOCK:   -7.41 KCAL/MOL
REMARK 924 INTRA-LIGAND FREE ENERGY PREDICTED BY IDOCK:   -0.50 KCAL/MOL
REMARK 927      BINDING AFFINITY PREDICTED BY RF-SCORE:    0.00 PKD
ROOT
HETATM    1  C   UNL     1     -10.819   7.551  73.039  1.00  0.00    -0.392 C  
HETATM    2  N   UNL     1     -11.518   8.159  71.816  1.00  0.00    -0.269 N  
HETATM    3  C   UNL     1     -12.820   8.815  72.300  1.00  0.00    -0.405 C  
HETATM    4  C   UNL     1     -11.813   7.011  70.845  1.00  0.00    -0.356 C  
HETATM    5  C   UNL     1     -13.481   9.649  71.212  1.00  0.00    -0.359 C  
HETATM    6  C   UNL     1     -12.527  10.687  70.656  1.00  0.00    -0.462 C  
HETATM    7  C   UNL     1     -11.278  10.023  70.081  1.00  0.00    -0.304 C  
HETATM    8  C   UNL     1     -10.569   9.204  71.172  1.00  0.00    -0.309 C  
ENDROOT
BRANCH   7   9
HETATM    9  O   UNL     1     -10.437  11.067  69.564  1.00  0.00    -0.195 OA 
BRANCH   9  10
HETATM   10  C   UNL     1     -10.306  10.999  68.188  1.00  0.00    -0.182 C  
HETATM   11  O   UNL     1     -10.220   9.927  67.599  1.00  0.00    -0.182 OA 
HETATM   12  C   UNL     1     -10.268  12.421  67.522  1.00  0.00    -0.209 C  
HETATM   13  C   UNL     1     -10.952  12.367  66.142  1.00  0.00    -0.321 A  
HETATM   14  O   UNL     1     -11.061  13.266  68.394  1.00  0.00    -0.245 OA 
HETATM   15  C   UNL     1      -8.833  12.969  67.499  1.00  0.00    -0.195 A  
HETATM   16  H   UNL     1     -11.039  14.126  67.991  1.00  0.00     0.000 HD 
HETATM   17  C   UNL     1     -12.148  13.063  65.881  1.00  0.00    -0.503 A  
HETATM   18  C   UNL     1      -7.723  12.117  67.347  1.00  0.00    -0.165 A  
HETATM   19  C   UNL     1     -12.835  12.898  64.673  1.00  0.00    -0.323 A  
HETATM   20  C   UNL     1      -6.419  12.608  67.425  1.00  0.00    -0.150 A  
HETATM   21  C   UNL     1      -6.198  13.965  67.638  1.00  0.00    -0.109 A  
HETATM   22  C   UNL     1     -12.341  12.036  63.699  1.00  0.00    -0.648 A  
HETATM   23  C   UNL     1     -11.145  11.363  63.917  1.00  0.00    -0.410 A  
HETATM   24  C   UNL     1      -7.279  14.835  67.740  1.00  0.00    -0.192 A  
HETATM   25  C   UNL     1      -8.584  14.347  67.652  1.00  0.00    -0.189 A  
HETATM   26  C   UNL     1     -10.452  11.536  65.120  1.00  0.00    -0.340 A  
ENDBRANCH   9  10
ENDBRANCH   7   9
TORSDOF 2
ENDMDL
MODEL       10
REMARK 921   NORMALIZED FREE ENERGY PREDICTED BY IDOCK:   -6.58 KCAL/MOL
REMARK 922        TOTAL FREE ENERGY PREDICTED BY IDOCK:   -7.86 KCAL/MOL
REMARK 923 INTER-LIGAND FREE ENERGY PREDICTED BY IDOCK:   -7.46 KCAL/MOL
REMARK 924 INTRA-LIGAND FREE ENERGY PREDICTED BY IDOCK:   -0.40 KCAL/MOL
REMARK 927      BINDING AFFINITY PREDICTED BY RF-SCORE:    0.00 PKD
ROOT
HETATM    1  C   UNL     1     -10.371   6.440  68.204  1.00  0.00    -0.192 C  
HETATM    2  N   UNL     1     -10.243   7.553  69.252  1.00  0.00    -0.196 N  
HETATM    3  C   UNL     1      -8.857   7.424  69.902  1.00  0.00    -0.141 C  
HETATM    4  C   UNL     1     -11.353   7.332  70.285  1.00  0.00    -0.238 C  
HETATM    5  C   UNL     1      -8.529   8.614  70.792  1.00  0.00    -0.181 C  
HETATM    6  C   UNL     1      -8.653   9.922  70.035  1.00  0.00    -0.196 C  
HETATM    7  C   UNL     1     -10.064  10.093  69.479  1.00  0.00    -0.235 C  
HETATM    8  C   UNL     1     -10.406   8.923  68.543  1.00  0.00    -0.198 C  
ENDROOT
BRANCH   7   9
HETATM    9  O   UNL     1     -10.103  11.356  68.792  1.00  0.00    -0.205 OA 
BRANCH   9  10
HETATM   10  C   UNL     1     -11.212  12.107  69.141  1.00  0.00    -0.244 C  
HETATM   11  O   UNL     1     -12.233  11.586  69.576  1.00  0.00    -0.289 OA 
HETATM   12  C   UNL     1     -10.992  13.642  68.897  1.00  0.00    -0.249 C  
HETATM   13  C   UNL     1     -11.741  14.452  69.973  1.00  0.00    -0.360 A  
HETATM   14  O   UNL     1      -9.569  13.852  69.073  1.00  0.00    -0.404 OA 
HETATM   15  C   UNL     1     -11.358  14.017  67.453  1.00  0.00    -0.350 A  
HETATM   16  H   UNL     1      -9.436  14.781  68.927  1.00  0.00     0.000 HD 
HETATM   17  C   UNL     1     -11.055  15.232  70.923  1.00  0.00    -0.343 A  
HETATM   18  C   UNL     1     -12.392  13.360  66.761  1.00  0.00    -0.287 A  
HETATM   19  C   UNL     1     -11.731  15.850  71.981  1.00  0.00    -0.588 A  
HETATM   20  C   UNL     1     -12.653  13.637  65.418  1.00  0.00    -0.533 A  
HETATM   21  C   UNL     1     -11.898  14.591  64.744  1.00  0.00    -0.446 A  
HETATM   22  C   UNL     1     -13.109  15.705  72.111  1.00  0.00    -0.540 A  
HETATM   23  C   UNL     1     -13.815  14.968  71.169  1.00  0.00    -0.468 A  
HETATM   24  C   UNL     1     -10.904  15.292  65.422  1.00  0.00    -0.399 A  
HETATM   25  C   UNL     1     -10.648  15.023  66.767  1.00  0.00    -0.301 A  
HETATM   26  C   UNL     1     -13.141  14.358  70.106  1.00  0.00     0.128 A  
ENDBRANCH   9  10
ENDBRANCH   7   9
TORSDOF 2
ENDMDL
MODEL       11
REMARK 921   NORMALIZED FREE ENERGY PREDICTED BY IDOCK:   -6.53 KCAL/MOL
REMARK 922        TOTAL FREE ENERGY PREDICTED BY IDOCK:   -7.81 KCAL/MOL
REMARK 923 INTER-LIGAND FREE ENERGY PREDICTED BY IDOCK:   -7.19 KCAL/MOL
REMARK 924 INTRA-LIGAND FREE ENERGY PREDICTED BY IDOCK:   -0.62 KCAL/MOL
REMARK 927      BINDING AFFINITY PREDICTED BY RF-SCORE:    0.00 PKD
ROOT
HETATM    1  C   UNL     1     -11.711  12.427  66.681  1.00  0.00    -0.372 C  
HETATM    2  N   UNL     1     -11.364  12.366  68.173  1.00  0.00    -0.267 N  
HETATM    3  C   UNL     1     -12.132  13.494  68.878  1.00  0.00    -0.279 C  
HETATM    4  C   UNL     1      -9.851  12.576  68.296  1.00  0.00    -0.227 C  
HETATM    5  C   UNL     1     -12.046  13.387  70.394  1.00  0.00    -0.405 C  
HETATM    6  C   UNL     1     -12.514  12.029  70.879  1.00  0.00    -0.384 C  
HETATM    7  C   UNL     1     -11.679  10.914  70.255  1.00  0.00    -0.347 C  
HETATM    8  C   UNL     1     -11.780  10.976  68.722  1.00  0.00    -0.314 C  
ENDROOT
BRANCH   7   9
HETATM    9  O   UNL     1     -12.172   9.668  70.774  1.00  0.00    -0.284 OA 
BRANCH   9  10
HETATM   10  C   UNL     1     -11.151   8.844  71.216  1.00  0.00    -0.297 C  
HETATM   11  O   UNL     1     -10.231   9.269  71.906  1.00  0.00    -0.269 OA 
HETATM   12  C   UNL     1     -11.322   7.364  70.719  1.00  0.00    -0.280 C  
HETATM   13  C   UNL     1     -10.794   6.392  71.791  1.00  0.00    -0.283 A  
HETATM   14  O   UNL     1     -12.753   7.173  70.590  1.00  0.00    -0.609 OA 
HETATM   15  C   UNL     1     -10.687   7.185  69.332  1.00  0.00    -0.246 A  
HETATM   16  H   UNL     1     -12.857   6.277  70.290  1.00  0.00     0.000 HD 
HETATM   17  C   UNL     1     -11.651   5.506  72.473  1.00  0.00    -0.272 A  
HETATM   18  C   UNL     1      -9.539   7.902  68.949  1.00  0.00    -0.155 A  
HETATM   19  C   UNL     1     -11.191   4.727  73.540  1.00  0.00    -0.392 A  
HETATM   20  C   UNL     1      -9.026   7.808  67.654  1.00  0.00    -0.128 A  
HETATM   21  C   UNL     1      -9.638   6.980  66.721  1.00  0.00    -0.221 A  
HETATM   22  C   UNL     1      -9.863   4.813  73.948  1.00  0.00    -0.174 A  
HETATM   23  C   UNL     1      -8.988   5.655  73.272  1.00  0.00    -0.127 A  
HETATM   24  C   UNL     1     -10.745   6.219  67.090  1.00  0.00    -0.432 A  
HETATM   25  C   UNL     1     -11.254   6.305  68.388  1.00  0.00    -0.272 A  
HETATM   26  C   UNL     1      -9.446   6.426  72.198  1.00  0.00    -0.152 A  
ENDBRANCH   9  10
ENDBRANCH   7   9
TORSDOF 2
ENDMDL
MODEL       12
REMARK 921   NORMALIZED FREE ENERGY PREDICTED BY IDOCK:   -6.43 KCAL/MOL
REMARK 922        TOTAL FREE ENERGY PREDICTED BY IDOCK:   -7.70 KCAL/MOL
REMARK 923 INTER-LIGAND FREE ENERGY PREDICTED BY IDOCK:   -7.29 KCAL/MOL
REMARK 924 INTRA-LIGAND FREE ENERGY PREDICTED BY IDOCK:   -0.41 KCAL/MOL
REMARK 927      BINDING AFFINITY PREDICTED BY RF-SCORE:    0.00 PKD
ROOT
HETATM    1  C   UNL     1      -6.454  18.393  65.780  1.00  0.00    -0.270 C  
HETATM    2  N   UNL     1      -7.637  18.803  66.666  1.00  0.00    -0.235 N  
HETATM    3  C   UNL     1      -8.399  19.922  65.939  1.00  0.00    -0.187 C  
HETATM    4  C   UNL     1      -7.057  19.309  67.990  1.00  0.00    -0.255 C  
HETATM    5  C   UNL     1      -9.722  20.247  66.616  1.00  0.00    -0.550 C  
HETATM    6  C   UNL     1     -10.587  19.011  66.762  1.00  0.00    -0.508 C  
HETATM    7  C   UNL     1      -9.866  17.939  67.575  1.00  0.00    -0.309 C  
HETATM    8  C   UNL     1      -8.541  17.563  66.891  1.00  0.00    -0.247 C  
ENDROOT
BRANCH   7   9
HETATM    9  O   UNL     1     -10.752  16.812  67.680  1.00  0.00    -0.339 OA 
BRANCH   9  10
HETATM   10  C   UNL     1     -10.723  16.240  68.940  1.00  0.00    -0.300 C  
HETATM   11  O   UNL     1      -9.992  16.667  69.827  1.00  0.00    -0.079 OA 
HETATM   12  C   UNL     1     -11.700  15.017  69.061  1.00  0.00    -0.325 C  
HETATM   13  C   UNL     1     -12.283  14.956  70.487  1.00  0.00    -0.388 A  
HETATM   14  O   UNL     1     -12.780  15.304  68.137  1.00  0.00     0.108 OA 
HETATM   15  C   UNL     1     -11.007  13.725  68.604  1.00  0.00    -0.287 A  
HETATM   16  H   UNL     1     -13.371  14.564  68.211  1.00  0.00     0.000 HD 
HETATM   17  C   UNL     1     -13.653  15.162  70.736  1.00  0.00    -0.299 A  
HETATM   18  C   UNL     1      -9.630  13.518  68.805  1.00  0.00     0.009 A  
HETATM   19  C   UNL     1     -14.150  15.245  72.041  1.00  0.00    -0.662 A  
HETATM   20  C   UNL     1      -8.988  12.386  68.299  1.00  0.00    -0.178 A  
HETATM   21  C   UNL     1      -9.713  11.428  67.599  1.00  0.00    -0.183 A  
HETATM   22  C   UNL     1     -13.289  15.120  73.127  1.00  0.00    -0.558 A  
HETATM   23  C   UNL     1     -11.937  14.883  72.910  1.00  0.00    -0.328 A  
HETATM   24  C   UNL     1     -11.087  11.585  67.432  1.00  0.00    -0.339 A  
HETATM   25  C   UNL     1     -11.732  12.712  67.945  1.00  0.00    -0.412 A  
HETATM   26  C   UNL     1     -11.442  14.790  71.605  1.00  0.00    -0.167 A  
ENDBRANCH   9  10
ENDBRANCH   7   9
TORSDOF 2
ENDMDL
MODEL       13
REMARK 921   NORMALIZED FREE ENERGY PREDICTED BY IDOCK:   -6.24 KCAL/MOL
REMARK 922        TOTAL FREE ENERGY PREDICTED BY IDOCK:   -7.49 KCAL/MOL
REMARK 923 INTER-LIGAND FREE ENERGY PREDICTED BY IDOCK:   -6.99 KCAL/MOL
REMARK 924 INTRA-LIGAND FREE ENERGY PREDICTED BY IDOCK:   -0.50 KCAL/MOL
REMARK 927      BINDING AFFINITY PREDICTED BY RF-SCORE:    0.00 PKD
ROOT
HETATM    1  C   UNL     1      -9.033  15.714  66.142  1.00  0.00    -0.327 C  
HETATM    2  N   UNL     1     -10.381  14.984  66.111  1.00  0.00    -0.285 N  
HETATM    3  C   UNL     1     -11.120  15.421  64.836  1.00  0.00    -0.423 C  
HETATM    4  C   UNL     1     -11.155  15.407  67.363  1.00  0.00    -0.311 C  
HETATM    5  C   UNL     1     -12.367  14.587  64.582  1.00  0.00    -0.419 C  
HETATM    6  C   UNL     1     -12.043  13.107  64.538  1.00  0.00    -0.462 C  
HETATM    7  C   UNL     1     -11.402  12.654  65.847  1.00  0.00    -0.334 C  
HETATM    8  C   UNL     1     -10.116  13.455  66.109  1.00  0.00    -0.302 C  
ENDROOT
BRANCH   7   9
HETATM    9  O   UNL     1     -11.141  11.245  65.731  1.00  0.00    -0.206 OA 
BRANCH   9  10
HETATM   10  C   UNL     1     -11.007  10.634  66.966  1.00  0.00    -0.208 C  
HETATM   11  O   UNL     1     -11.711  10.946  67.920  1.00  0.00    -0.557 OA 
HETATM   12  C   UNL     1      -9.871   9.550  66.974  1.00  0.00    -0.190 C  
HETATM   13  C   UNL     1     -10.264   8.393  67.913  1.00  0.00    -0.273 A  
HETATM   14  O   UNL     1      -9.824   9.043  65.616  1.00  0.00    -0.461 OA 
HETATM   15  C   UNL     1      -8.514  10.193  67.293  1.00  0.00    -0.125 A  
HETATM   16  H   UNL     1      -9.138   8.386  65.622  1.00  0.00     0.000 HD 
HETATM   17  C   UNL     1     -10.515   7.096  67.425  1.00  0.00    -0.354 A  
HETATM   18  C   UNL     1      -8.407  11.295  68.161  1.00  0.00    -0.143 A  
HETATM   19  C   UNL     1     -11.006   6.087  68.261  1.00  0.00    -0.347 A  
HETATM   20  C   UNL     1      -7.185  11.936  68.370  1.00  0.00    -0.091 A  
HETATM   21  C   UNL     1      -6.039  11.476  67.730  1.00  0.00    -0.052 A  
HETATM   22  C   UNL     1     -11.255   6.351  69.604  1.00  0.00    -0.483 A  
HETATM   23  C   UNL     1     -10.985   7.613  70.120  1.00  0.00    -0.255 A  
HETATM   24  C   UNL     1      -6.109  10.355  66.907  1.00  0.00    -0.061 A  
HETATM   25  C   UNL     1      -7.329   9.707  66.705  1.00  0.00    -0.091 A  
HETATM   26  C   UNL     1     -10.484   8.619  69.286  1.00  0.00    -0.226 A  
ENDBRANCH   9  10
ENDBRANCH   7   9
TORSDOF 2
ENDMDL
MODEL       14
REMARK 921   NORMALIZED FREE ENERGY PREDICTED BY IDOCK:   -6.18 KCAL/MOL
REMARK 922        TOTAL FREE ENERGY PREDICTED BY IDOCK:   -7.42 KCAL/MOL
REMARK 923 INTER-LIGAND FREE ENERGY PREDICTED BY IDOCK:   -6.98 KCAL/MOL
REMARK 924 INTRA-LIGAND FREE ENERGY PREDICTED BY IDOCK:   -0.44 KCAL/MOL
REMARK 927      BINDING AFFINITY PREDICTED BY RF-SCORE:    0.00 PKD
ROOT
HETATM    1  C   UNL     1     -10.888  10.285  69.970  1.00  0.00    -0.307 C  
HETATM    2  N   UNL     1     -10.485  11.062  68.711  1.00  0.00    -0.190 N  
HETATM    3  C   UNL     1     -11.038  10.303  67.496  1.00  0.00    -0.232 C  
HETATM    4  C   UNL     1      -8.954  11.106  68.676  1.00  0.00    -0.162 C  
HETATM    5  C   UNL     1     -10.899  11.102  66.208  1.00  0.00    -0.266 C  
HETATM    6  C   UNL     1     -11.544  12.467  66.332  1.00  0.00    -0.449 C  
HETATM    7  C   UNL     1     -10.919  13.260  67.477  1.00  0.00    -0.263 C  
HETATM    8  C   UNL     1     -11.081  12.491  68.799  1.00  0.00    -0.270 C  
ENDROOT
BRANCH   7   9
HETATM    9  O   UNL     1     -11.571  14.540  67.519  1.00  0.00    -0.347 OA 
BRANCH   9  10
HETATM   10  C   UNL     1     -10.770  15.552  67.020  1.00  0.00    -0.321 C  
HETATM   11  O   UNL     1     -10.766  15.845  65.830  1.00  0.00    -0.331 OA 
HETATM   12  C   UNL     1      -9.898  16.228  68.138  1.00  0.00    -0.229 C  
HETATM   13  C   UNL     1      -9.723  17.727  67.825  1.00  0.00    -0.285 A  
HETATM   14  O   UNL     1     -10.679  16.102  69.353  1.00  0.00    -0.259 OA 
HETATM   15  C   UNL     1      -8.581  15.462  68.332  1.00  0.00    -0.162 A  
HETATM   16  H   UNL     1     -10.152  16.511  70.029  1.00  0.00     0.000 HD 
HETATM   17  C   UNL     1     -10.274  18.725  68.651  1.00  0.00    -0.366 A  
HETATM   18  C   UNL     1      -7.934  14.827  67.256  1.00  0.00    -0.232 A  
HETATM   19  C   UNL     1     -10.231  20.075  68.287  1.00  0.00    -0.527 A  
HETATM   20  C   UNL     1      -6.791  14.050  67.456  1.00  0.00    -0.150 A  
HETATM   21  C   UNL     1      -6.261  13.909  68.734  1.00  0.00    -0.088 A  
HETATM   22  C   UNL     1      -9.634  20.459  67.090  1.00  0.00    -0.587 A  
HETATM   23  C   UNL     1      -9.053  19.498  66.272  1.00  0.00    -0.403 A  
HETATM   24  C   UNL     1      -6.853  14.570  69.807  1.00  0.00    -0.126 A  
HETATM   25  C   UNL     1      -7.990  15.355  69.606  1.00  0.00    -0.138 A  
HETATM   26  C   UNL     1      -9.086  18.149  66.641  1.00  0.00    -0.290 A  
ENDBRANCH   9  10
ENDBRANCH   7   9
TORSDOF 2
ENDMDL
MODEL       15
REMARK 921   NORMALIZED FREE ENERGY PREDICTED BY IDOCK:   -6.14 KCAL/MOL
REMARK 922        TOTAL FREE ENERGY PREDICTED BY IDOCK:   -7.37 KCAL/MOL
REMARK 923 INTER-LIGAND FREE ENERGY PREDICTED BY IDOCK:   -6.98 KCAL/MOL
REMARK 924 INTRA-LIGAND FREE ENERGY PREDICTED BY IDOCK:   -0.40 KCAL/MOL
REMARK 927      BINDING AFFINITY PREDICTED BY RF-SCORE:    0.00 PKD
ROOT
HETATM    1  C   UNL     1     -10.290  19.158  67.470  1.00  0.00    -0.432 C  
HETATM    2  N   UNL     1      -9.598  17.888  66.960  1.00  0.00    -0.276 N  
HETATM    3  C   UNL     1      -8.157  18.263  66.578  1.00  0.00    -0.269 C  
HETATM    4  C   UNL     1     -10.380  17.407  65.733  1.00  0.00    -0.216 C  
HETATM    5  C   UNL     1      -7.307  17.037  66.278  1.00  0.00    -0.294 C  
HETATM    6  C   UNL     1      -7.323  16.056  67.433  1.00  0.00    -0.216 C  
HETATM    7  C   UNL     1      -8.749  15.607  67.742  1.00  0.00    -0.170 C  
HETATM    8  C   UNL     1      -9.621  16.824  68.088  1.00  0.00    -0.242 C  
ENDROOT
BRANCH   7   9
HETATM    9  O   UNL     1      -8.676  14.673  68.833  1.00  0.00    -0.177 OA 
BRANCH   9  10
HETATM   10  C   UNL     1      -8.801  13.361  68.408  1.00  0.00    -0.133 C  
HETATM   11  O   UNL     1      -7.823  12.676  68.131  1.00  0.00    -0.126 OA 
HETATM   12  C   UNL     1     -10.301  12.904  68.320  1.00  0.00    -0.244 C  
HETATM   13  C   UNL     1     -10.412  11.412  68.689  1.00  0.00    -0.224 A  
HETATM   14  O   UNL     1     -10.991  13.679  69.332  1.00  0.00    -0.392 OA 
HETATM   15  C   UNL     1     -10.896  13.265  66.951  1.00  0.00    -0.286 A  
HETATM   16  H   UNL     1     -11.898  13.402  69.280  1.00  0.00     0.000 HD 
HETATM   17  C   UNL     1     -11.094  10.984  69.844  1.00  0.00    -0.276 A  
HETATM   18  C   UNL     1     -10.112  13.254  65.782  1.00  0.00    -0.293 A  
HETATM   19  C   UNL     1     -11.071   9.644  70.247  1.00  0.00    -0.327 A  
HETATM   20  C   UNL     1     -10.634  13.678  64.558  1.00  0.00    -0.428 A  
HETATM   21  C   UNL     1     -11.955  14.103  64.474  1.00  0.00    -0.476 A  
HETATM   22  C   UNL     1     -10.369   8.701  69.503  1.00  0.00    -0.214 A  
HETATM   23  C   UNL     1      -9.714   9.091  68.340  1.00  0.00    -0.170 A  
HETATM   24  C   UNL     1     -12.766  14.073  65.606  1.00  0.00    -0.515 A  
HETATM   25  C   UNL     1     -12.249  13.640  66.828  1.00  0.00    -0.416 A  
HETATM   26  C   UNL     1      -9.745  10.428  67.932  1.00  0.00    -0.168 A  
ENDBRANCH   9  10
ENDBRANCH   7   9
TORSDOF 2
ENDMDL
MODEL       16
REMARK 921   NORMALIZED FREE ENERGY PREDICTED BY IDOCK:   -6.13 KCAL/MOL
REMARK 922        TOTAL FREE ENERGY PREDICTED BY IDOCK:   -7.36 KCAL/MOL
REMARK 923 INTER-LIGAND FREE ENERGY PREDICTED BY IDOCK:   -7.02 KCAL/MOL
REMARK 924 INTRA-LIGAND FREE ENERGY PREDICTED BY IDOCK:   -0.34 KCAL/MOL
REMARK 927      BINDING AFFINITY PREDICTED BY RF-SCORE:    0.00 PKD
ROOT
HETATM    1  C   UNL     1      -8.765   8.655  64.754  1.00  0.00    -0.063 C  
HETATM    2  N   UNL     1      -9.181  10.131  64.758  1.00  0.00    -0.220 N  
HETATM    3  C   UNL     1      -9.633  10.492  63.334  1.00  0.00    -0.331 C  
HETATM    4  C   UNL     1      -7.950  10.949  65.163  1.00  0.00     0.138 C  
HETATM    5  C   UNL     1     -10.286  11.866  63.271  1.00  0.00    -0.428 C  
HETATM    6  C   UNL     1     -11.439  11.975  64.249  1.00  0.00    -0.435 C  
HETATM    7  C   UNL     1     -10.964  11.717  65.676  1.00  0.00    -0.295 C  
HETATM    8  C   UNL     1     -10.335  10.318  65.777  1.00  0.00    -0.165 C  
ENDROOT
BRANCH   7   9
HETATM    9  O   UNL     1     -12.106  11.853  66.539  1.00  0.00    -0.568 OA 
BRANCH   9  10
HETATM   10  C   UNL     1     -11.858  12.698  67.607  1.00  0.00    -0.329 C  
HETATM   11  O   UNL     1     -11.935  13.916  67.498  1.00  0.00    -0.377 OA 
HETATM   12  C   UNL     1     -11.468  11.912  68.909  1.00  0.00    -0.301 C  
HETATM   13  C   UNL     1     -12.009  12.654  70.146  1.00  0.00    -0.375 A  
HETATM   14  O   UNL     1     -12.154  10.639  68.801  1.00  0.00    -0.739 OA 
HETATM   15  C   UNL     1      -9.956  11.640  68.943  1.00  0.00    -0.083 A  
HETATM   16  H   UNL     1     -11.918  10.164  69.589  1.00  0.00     0.000 HD 
HETATM   17  C   UNL     1     -13.008  12.095  70.966  1.00  0.00    -0.160 A  
HETATM   18  C   UNL     1      -9.033  12.550  68.396  1.00  0.00    -0.130 A  
HETATM   19  C   UNL     1     -13.593  12.831  72.003  1.00  0.00    -0.460 A  
HETATM   20  C   UNL     1      -7.670  12.252  68.341  1.00  0.00    -0.141 A  
HETATM   21  C   UNL     1      -7.200  11.047  68.851  1.00  0.00    -0.103 A  
HETATM   22  C   UNL     1     -13.191  14.140  72.245  1.00  0.00    -0.540 A  
HETATM   23  C   UNL     1     -12.184  14.706  71.472  1.00  0.00    -0.416 A  
HETATM   24  C   UNL     1      -8.087  10.154  69.446  1.00  0.00    -0.163 A  
HETATM   25  C   UNL     1      -9.449  10.454  69.509  1.00  0.00    -0.164 A  
HETATM   26  C   UNL     1     -11.592  13.967  70.442  1.00  0.00    -0.177 A  
ENDBRANCH   9  10
ENDBRANCH   7   9
TORSDOF 2
ENDMDL
MODEL       17
REMARK 921   NORMALIZED FREE ENERGY PREDICTED BY IDOCK:   -6.12 KCAL/MOL
REMARK 922        TOTAL FREE ENERGY PREDICTED BY IDOCK:   -7.36 KCAL/MOL
REMARK 923 INTER-LIGAND FREE ENERGY PREDICTED BY IDOCK:   -6.79 KCAL/MOL
REMARK 924 INTRA-LIGAND FREE ENERGY PREDICTED BY IDOCK:   -0.56 KCAL/MOL
REMARK 927      BINDING AFFINITY PREDICTED BY RF-SCORE:    0.00 PKD
ROOT
HETATM    1  C   UNL     1     -10.076   9.834  66.892  1.00  0.00    -0.226 C  
HETATM    2  N   UNL     1      -9.755  11.022  65.977  1.00  0.00    -0.215 N  
HETATM    3  C   UNL     1     -10.381  10.736  64.603  1.00  0.00    -0.324 C  
HETATM    4  C   UNL     1      -8.230  11.117  65.873  1.00  0.00    -0.048 C  
HETATM    5  C   UNL     1     -10.325  11.947  63.684  1.00  0.00    -0.477 C  
HETATM    6  C   UNL     1     -10.968  13.159  64.329  1.00  0.00    -0.428 C  
HETATM    7  C   UNL     1     -10.276  13.504  65.645  1.00  0.00    -0.296 C  
HETATM    8  C   UNL     1     -10.352  12.308  66.608  1.00  0.00    -0.215 C  
ENDROOT
BRANCH   7   9
HETATM    9  O   UNL     1     -10.931  14.666  66.182  1.00  0.00    -0.317 OA 
BRANCH   9  10
HETATM   10  C   UNL     1     -10.132  15.794  66.115  1.00  0.00    -0.318 C  
HETATM   11  O   UNL     1      -9.786  16.278  65.043  1.00  0.00    -0.317 OA 
HETATM   12  C   UNL     1      -9.739  16.330  67.538  1.00  0.00    -0.234 C  
HETATM   13  C   UNL     1      -9.643  17.868  67.505  1.00  0.00    -0.269 A  
HETATM   14  O   UNL     1     -10.843  15.958  68.400  1.00  0.00    -0.285 OA 
HETATM   15  C   UNL     1      -8.473  15.627  68.049  1.00  0.00    -0.146 A  
HETATM   16  H   UNL     1     -10.606  16.283  69.260  1.00  0.00     0.000 HD 
HETATM   17  C   UNL     1     -10.535  18.680  68.231  1.00  0.00    -0.315 A  
HETATM   18  C   UNL     1      -7.452  15.218  67.170  1.00  0.00    -0.202 A  
HETATM   19  C   UNL     1     -10.532  20.072  68.087  1.00  0.00    -0.428 A  
HETATM   20  C   UNL     1      -6.352  14.492  67.628  1.00  0.00    -0.128 A  
HETATM   21  C   UNL     1      -6.238  14.176  68.978  1.00  0.00    -0.094 A  
HETATM   22  C   UNL     1      -9.635  20.683  67.217  1.00  0.00    -0.558 A  
HETATM   23  C   UNL     1      -8.721  19.908  66.513  1.00  0.00    -0.406 A  
HETATM   24  C   UNL     1      -7.209  14.615  69.875  1.00  0.00    -0.003 A  
HETATM   25  C   UNL     1      -8.305  15.349  69.420  1.00  0.00    -0.250 A  
HETATM   26  C   UNL     1      -8.717  18.518  66.665  1.00  0.00    -0.294 A  
ENDBRANCH   9  10
ENDBRANCH   7   9
TORSDOF 2
ENDMDL
MODEL       18
REMARK 921   NORMALIZED FREE ENERGY PREDICTED BY IDOCK:   -6.12 KCAL/MOL
REMARK 922        TOTAL FREE ENERGY PREDICTED BY IDOCK:   -7.35 KCAL/MOL
REMARK 923 INTER-LIGAND FREE ENERGY PREDICTED BY IDOCK:   -6.83 KCAL/MOL
REMARK 924 INTRA-LIGAND FREE ENERGY PREDICTED BY IDOCK:   -0.53 KCAL/MOL
REMARK 927      BINDING AFFINITY PREDICTED BY RF-SCORE:    0.00 PKD
ROOT
HETATM    1  C   UNL     1     -10.531   5.450  69.975  1.00  0.00    -0.303 C  
HETATM    2  N   UNL     1     -10.832   6.917  70.304  1.00  0.00    -0.244 N  
HETATM    3  C   UNL     1      -9.736   7.416  71.258  1.00  0.00    -0.165 C  
HETATM    4  C   UNL     1     -12.205   6.957  70.981  1.00  0.00    -0.377 C  
HETATM    5  C   UNL     1      -9.802   8.922  71.469  1.00  0.00    -0.384 C  
HETATM    6  C   UNL     1      -9.751   9.668  70.151  1.00  0.00    -0.301 C  
HETATM    7  C   UNL     1     -10.904   9.244  69.244  1.00  0.00    -0.152 C  
HETATM    8  C   UNL     1     -10.838   7.730  68.983  1.00  0.00    -0.021 C  
ENDROOT
BRANCH   7   9
HETATM    9  O   UNL     1     -10.794  10.002  68.028  1.00  0.00    -0.244 OA 
BRANCH   9  10
HETATM   10  C   UNL     1     -11.322  11.275  68.156  1.00  0.00    -0.303 C  
HETATM   11  O   UNL     1     -12.330  11.493  68.818  1.00  0.00    -0.425 OA 
HETATM   12  C   UNL     1     -10.494  12.346  67.359  1.00  0.00    -0.215 C  
HETATM   13  C   UNL     1     -10.511  13.687  68.118  1.00  0.00    -0.250 A  
HETATM   14  O   UNL     1      -9.135  11.841  67.351  1.00  0.00    -0.168 OA 
HETATM   15  C   UNL     1     -10.982  12.433  65.906  1.00  0.00    -0.323 A  
HETATM   16  H   UNL     1      -8.634  12.489  66.869  1.00  0.00     0.000 HD 
HETATM   17  C   UNL     1      -9.340  14.238  68.673  1.00  0.00    -0.172 A  
HETATM   18  C   UNL     1     -12.334  12.231  65.571  1.00  0.00    -0.101 A  
HETATM   19  C   UNL     1      -9.386  15.381  69.479  1.00  0.00    -0.252 A  
HETATM   20  C   UNL     1     -12.754  12.214  64.239  1.00  0.00    -0.366 A  
HETATM   21  C   UNL     1     -11.834  12.419  63.216  1.00  0.00    -0.491 A  
HETATM   22  C   UNL     1     -10.603  16.000  69.746  1.00  0.00    -0.323 A  
HETATM   23  C   UNL     1     -11.770  15.496  69.184  1.00  0.00    -0.380 A  
HETATM   24  C   UNL     1     -10.500  12.673  63.525  1.00  0.00    -0.256 A  
HETATM   25  C   UNL     1     -10.081  12.700  64.856  1.00  0.00    -0.244 A  
HETATM   26  C   UNL     1     -11.723  14.360  68.370  1.00  0.00    -0.367 A  
ENDBRANCH   9  10
ENDBRANCH   7   9
TORSDOF 2
ENDMDL
MODEL       19
REMARK 921   NORMALIZED FREE ENERGY PREDICTED BY IDOCK:   -6.10 KCAL/MOL
REMARK 922        TOTAL FREE ENERGY PREDICTED BY IDOCK:   -7.33 KCAL/MOL
REMARK 923 INTER-LIGAND FREE ENERGY PREDICTED BY IDOCK:   -6.76 KCAL/MOL
REMARK 924 INTRA-LIGAND FREE ENERGY PREDICTED BY IDOCK:   -0.57 KCAL/MOL
REMARK 927      BINDING AFFINITY PREDICTED BY RF-SCORE:    0.00 PKD
ROOT
HETATM    1  C   UNL     1      -9.762  10.001  65.751  1.00  0.00    -0.257 C  
HETATM    2  N   UNL     1      -9.544  10.694  67.101  1.00  0.00    -0.163 N  
HETATM    3  C   UNL     1      -8.557   9.839  67.911  1.00  0.00    -0.125 C  
HETATM    4  C   UNL     1     -10.905  10.765  67.800  1.00  0.00    -0.269 C  
HETATM    5  C   UNL     1      -8.088  10.546  69.174  1.00  0.00    -0.152 C  
HETATM    6  C   UNL     1      -7.494  11.905  68.859  1.00  0.00    -0.060 C  
HETATM    7  C   UNL     1      -8.513  12.789  68.145  1.00  0.00    -0.177 C  
HETATM    8  C   UNL     1      -8.975  12.114  66.843  1.00  0.00    -0.201 C  
ENDROOT
BRANCH   7   9
HETATM    9  O   UNL     1      -7.882  14.056  67.896  1.00  0.00    -0.130 OA 
BRANCH   9  10
HETATM   10  C   UNL     1      -8.705  15.122  68.215  1.00  0.00    -0.171 C  
HETATM   11  O   UNL     1      -8.999  15.387  69.375  1.00  0.00    -0.250 OA 
HETATM   12  C   UNL     1      -9.196  15.897  66.941  1.00  0.00    -0.226 C  
HETATM   13  C   UNL     1      -9.329  17.398  67.265  1.00  0.00    -0.238 A  
HETATM   14  O   UNL     1      -8.135  15.732  65.967  1.00  0.00    -0.169 OA 
HETATM   15  C   UNL     1     -10.471  15.254  66.376  1.00  0.00    -0.307 A  
HETATM   16  H   UNL     1      -8.432  16.201  65.196  1.00  0.00     0.000 HD 
HETATM   17  C   UNL     1      -8.504  18.363  66.656  1.00  0.00    -0.283 A  
HETATM   18  C   UNL     1     -11.426  14.653  67.216  1.00  0.00    -0.386 A  
HETATM   19  C   UNL     1      -8.535  19.703  67.057  1.00  0.00    -0.349 A  
HETATM   20  C   UNL     1     -12.533  13.984  66.690  1.00  0.00    -0.296 A  
HETATM   21  C   UNL     1     -12.717  13.919  65.314  1.00  0.00    -0.485 A  
HETATM   22  C   UNL     1      -9.395  20.110  68.073  1.00  0.00    -0.353 A  
HETATM   23  C   UNL     1     -10.244  19.185  68.668  1.00  0.00    -0.407 A  
HETATM   24  C   UNL     1     -11.814  14.551  64.463  1.00  0.00    -0.459 A  
HETATM   25  C   UNL     1     -10.712  15.229  64.988  1.00  0.00    -0.461 A  
HETATM   26  C   UNL     1     -10.220  17.847  68.260  1.00  0.00    -0.391 A  
ENDBRANCH   9  10
ENDBRANCH   7   9
TORSDOF 2
ENDMDL
MODEL       20
REMARK 921   NORMALIZED FREE ENERGY PREDICTED BY IDOCK:   -6.08 KCAL/MOL
REMARK 922        TOTAL FREE ENERGY PREDICTED BY IDOCK:   -7.31 KCAL/MOL
REMARK 923 INTER-LIGAND FREE ENERGY PREDICTED BY IDOCK:   -7.58 KCAL/MOL
REMARK 924 INTRA-LIGAND FREE ENERGY PREDICTED BY IDOCK:    0.26 KCAL/MOL
REMARK 927      BINDING AFFINITY PREDICTED BY RF-SCORE:    0.00 PKD
ROOT
HETATM    1  C   UNL     1      -9.517  11.489  65.730  1.00  0.00    -0.234 C  
HETATM    2  N   UNL     1     -10.433  12.502  65.033  1.00  0.00    -0.290 N  
HETATM    3  C   UNL     1     -11.856  12.295  65.576  1.00  0.00    -0.359 C  
HETATM    4  C   UNL     1     -10.374  12.209  63.531  1.00  0.00    -0.441 C  
HETATM    5  C   UNL     1     -12.806  13.396  65.128  1.00  0.00    -0.380 C  
HETATM    6  C   UNL     1     -12.278  14.767  65.502  1.00  0.00    -0.101 C  
HETATM    7  C   UNL     1     -10.908  15.010  64.875  1.00  0.00    -0.411 C  
HETATM    8  C   UNL     1      -9.917  13.932  65.343  1.00  0.00    -0.247 C  
ENDROOT
BRANCH   7   9
HETATM    9  O   UNL     1     -10.486  16.328  65.264  1.00  0.00    -0.541 OA 
BRANCH   9  10
HETATM   10  C   UNL     1      -9.480  16.297  66.213  1.00  0.00    -0.316 C  
HETATM   11  O   UNL     1      -8.365  15.857  65.958  1.00  0.00    -0.202 OA 
HETATM   12  C   UNL     1      -9.951  16.865  67.599  1.00  0.00    -0.271 C  
HETATM   13  C   UNL     1      -8.779  17.589  68.290  1.00  0.00    -0.270 A  
HETATM   14  O   UNL     1     -10.970  17.846  67.278  1.00  0.00    -0.243 OA 
HETATM   15  C   UNL     1     -10.599  15.758  68.444  1.00  0.00    -0.264 A  
HETATM   16  H   UNL     1     -11.254  18.189  68.117  1.00  0.00     0.000 HD 
HETATM   17  C   UNL     1      -8.799  18.977  68.521  1.00  0.00    -0.398 A  
HETATM   18  C   UNL     1     -10.160  14.423  68.369  1.00  0.00    -0.244 A  
HETATM   19  C   UNL     1      -7.677  19.647  69.020  1.00  0.00    -0.291 A  
HETATM   20  C   UNL     1     -10.818  13.406  69.063  1.00  0.00    -0.220 A  
HETATM   21  C   UNL     1     -11.916  13.705  69.863  1.00  0.00    -0.415 A  
HETATM   22  C   UNL     1      -6.510  18.944  69.302  1.00  0.00    -0.311 A  
HETATM   23  C   UNL     1      -6.473  17.568  69.115  1.00  0.00    -0.240 A  
HETATM   24  C   UNL     1     -12.337  15.026  69.994  1.00  0.00    -0.353 A  
HETATM   25  C   UNL     1     -11.675  16.046  69.307  1.00  0.00    -0.302 A  
HETATM   26  C   UNL     1      -7.599  16.896  68.627  1.00  0.00    -0.232 A  
ENDBRANCH   9  10
ENDBRANCH   7   9
TORSDOF 2
ENDMDL
MODEL       21
REMARK 921   NORMALIZED FREE ENERGY PREDICTED BY IDOCK:   -6.08 KCAL/MOL
REMARK 922        TOTAL FREE ENERGY PREDICTED BY IDOCK:   -7.31 KCAL/MOL
REMARK 923 INTER-LIGAND FREE ENERGY PREDICTED BY IDOCK:   -6.69 KCAL/MOL
REMARK 924 INTRA-LIGAND FREE ENERGY PREDICTED BY IDOCK:   -0.62 KCAL/MOL
REMARK 927      BINDING AFFINITY PREDICTED BY RF-SCORE:    0.00 PKD
ROOT
HETATM    1  C   UNL     1      -6.672  19.877  66.366  1.00  0.00    -0.209 C  
HETATM    2  N   UNL     1      -7.859  19.434  67.230  1.00  0.00    -0.253 N  
HETATM    3  C   UNL     1      -8.889  20.574  67.229  1.00  0.00    -0.291 C  
HETATM    4  C   UNL     1      -7.323  19.183  68.643  1.00  0.00    -0.330 C  
HETATM    5  C   UNL     1     -10.207  20.156  67.863  1.00  0.00    -0.501 C  
HETATM    6  C   UNL     1     -10.772  18.918  67.198  1.00  0.00    -0.506 C  
HETATM    7  C   UNL     1      -9.787  17.755  67.292  1.00  0.00    -0.312 C  
HETATM    8  C   UNL     1      -8.457  18.138  66.622  1.00  0.00    -0.264 C  
ENDROOT
BRANCH   7   9
HETATM    9  O   UNL     1     -10.400  16.622  66.655  1.00  0.00    -0.296 OA 
BRANCH   9  10
HETATM   10  C   UNL     1     -10.538  15.548  67.517  1.00  0.00    -0.297 C  
HETATM   11  O   UNL     1     -11.399  15.527  68.390  1.00  0.00    -0.320 OA 
HETATM   12  C   UNL     1      -9.477  14.423  67.242  1.00  0.00    -0.215 C  
HETATM   13  C   UNL     1     -10.099  13.042  67.526  1.00  0.00    -0.218 A  
HETATM   14  O   UNL     1      -9.191  14.514  65.824  1.00  0.00    -0.516 OA 
HETATM   15  C   UNL     1      -8.179  14.705  68.013  1.00  0.00    -0.145 A  
HETATM   16  H   UNL     1      -8.550  13.833  65.657  1.00  0.00     0.000 HD 
HETATM   17  C   UNL     1     -10.310  12.100  66.501  1.00  0.00    -0.239 A  
HETATM   18  C   UNL     1      -8.193  15.334  69.272  1.00  0.00    -0.244 A  
HETATM   19  C   UNL     1     -11.001  10.907  66.741  1.00  0.00    -0.248 A  
HETATM   20  C   UNL     1      -7.006  15.676  69.922  1.00  0.00    -0.045 A  
HETATM   21  C   UNL     1      -5.780  15.379  69.335  1.00  0.00    -0.102 A  
HETATM   22  C   UNL     1     -11.494  10.627  68.012  1.00  0.00    -0.289 A  
HETATM   23  C   UNL     1     -11.271  11.524  69.050  1.00  0.00    -0.324 A  
HETATM   24  C   UNL     1      -5.740  14.710  68.115  1.00  0.00    -0.130 A  
HETATM   25  C   UNL     1      -6.927  14.359  67.468  1.00  0.00    -0.182 A  
HETATM   26  C   UNL     1     -10.571  12.712  68.812  1.00  0.00    -0.214 A  
ENDBRANCH   9  10
ENDBRANCH   7   9
TORSDOF 2
ENDMDL
MODEL       22
REMARK 921   NORMALIZED FREE ENERGY PREDICTED BY IDOCK:   -6.07 KCAL/MOL
REMARK 922        TOTAL FREE ENERGY PREDICTED BY IDOCK:   -7.29 KCAL/MOL
REMARK 923 INTER-LIGAND FREE ENERGY PREDICTED BY IDOCK:   -6.91 KCAL/MOL
REMARK 924 INTRA-LIGAND FREE ENERGY PREDICTED BY IDOCK:   -0.39 KCAL/MOL
REMARK 927      BINDING AFFINITY PREDICTED BY RF-SCORE:    0.00 PKD
ROOT
HETATM    1  C   UNL     1     -12.230  16.903  74.022  1.00  0.00    -0.085 C  
HETATM    2  N   UNL     1     -12.418  15.801  72.972  1.00  0.00    -0.421 N  
HETATM    3  C   UNL     1     -13.918  15.710  72.653  1.00  0.00    -0.525 C  
HETATM    4  C   UNL     1     -11.911  14.494  73.591  1.00  0.00     0.117 C  
HETATM    5  C   UNL     1     -14.197  14.811  71.458  1.00  0.00    -0.580 C  
HETATM    6  C   UNL     1     -13.411  15.253  70.239  1.00  0.00     0.045 C  
HETATM    7  C   UNL     1     -11.912  15.242  70.528  1.00  0.00    -0.344 C  
HETATM    8  C   UNL     1     -11.598  16.175  71.710  1.00  0.00    -0.419 C  
ENDROOT
BRANCH   7   9
HETATM    9  O   UNL     1     -11.241  15.656  69.326  1.00  0.00    -0.274 OA 
BRANCH   9  10
HETATM   10  C   UNL     1     -10.848  14.580  68.549  1.00  0.00    -0.249 C  
HETATM   11  O   UNL     1     -10.935  13.426  68.953  1.00  0.00    -0.251 OA 
HETATM   12  C   UNL     1     -10.289  15.027  67.152  1.00  0.00    -0.257 C  
HETATM   13  C   UNL     1     -10.656  13.978  66.085  1.00  0.00    -0.290 A  
HETATM   14  O   UNL     1     -10.987  16.260  66.843  1.00  0.00    -0.213 OA 
HETATM   15  C   UNL     1      -8.787  15.337  67.246  1.00  0.00    -0.212 A  
HETATM   16  H   UNL     1     -10.649  16.530  65.997  1.00  0.00     0.000 HD 
HETATM   17  C   UNL     1     -11.537  14.276  65.028  1.00  0.00    -0.367 A  
HETATM   18  C   UNL     1      -7.943  14.629  68.122  1.00  0.00    -0.136 A  
HETATM   19  C   UNL     1     -11.975  13.281  64.145  1.00  0.00    -0.505 A  
HETATM   20  C   UNL     1      -6.601  14.981  68.274  1.00  0.00    -0.115 A  
HETATM   21  C   UNL     1      -6.070  16.036  67.540  1.00  0.00    -0.189 A  
HETATM   22  C   UNL     1     -11.540  11.969  64.298  1.00  0.00    -0.435 A  
HETATM   23  C   UNL     1     -10.645  11.654  65.313  1.00  0.00    -0.333 A  
HETATM   24  C   UNL     1      -6.872  16.718  66.628  1.00  0.00    -0.255 A  
HETATM   25  C   UNL     1      -8.212  16.361  66.468  1.00  0.00    -0.341 A  
HETATM   26  C   UNL     1     -10.199  12.649  66.189  1.00  0.00    -0.272 A  
ENDBRANCH   9  10
ENDBRANCH   7   9
TORSDOF 2
ENDMDL
MODEL       23
REMARK 921   NORMALIZED FREE ENERGY PREDICTED BY IDOCK:   -6.02 KCAL/MOL
REMARK 922        TOTAL FREE ENERGY PREDICTED BY IDOCK:   -7.24 KCAL/MOL
REMARK 923 INTER-LIGAND FREE ENERGY PREDICTED BY IDOCK:   -6.84 KCAL/MOL
REMARK 924 INTRA-LIGAND FREE ENERGY PREDICTED BY IDOCK:   -0.41 KCAL/MOL
REMARK 927      BINDING AFFINITY PREDICTED BY RF-SCORE:    0.00 PKD
ROOT
HETATM    1  C   UNL     1      -9.052  15.238  66.307  1.00  0.00    -0.302 C  
HETATM    2  N   UNL     1     -10.461  14.654  66.462  1.00  0.00    -0.284 N  
HETATM    3  C   UNL     1     -11.195  14.844  65.125  1.00  0.00    -0.386 C  
HETATM    4  C   UNL     1     -11.155  15.436  67.582  1.00  0.00    -0.316 C  
HETATM    5  C   UNL     1     -12.520  14.097  65.088  1.00  0.00    -0.453 C  
HETATM    6  C   UNL     1     -12.334  12.625  65.397  1.00  0.00    -0.499 C  
HETATM    7  C   UNL     1     -11.698  12.437  66.773  1.00  0.00    -0.362 C  
HETATM    8  C   UNL     1     -10.337  13.151  66.825  1.00  0.00    -0.252 C  
ENDROOT
BRANCH   7   9
HETATM    9  O   UNL     1     -11.570  11.023  66.996  1.00  0.00    -0.427 OA 
BRANCH   9  10
HETATM   10  C   UNL     1     -11.263  10.727  68.313  1.00  0.00    -0.297 C  
HETATM   11  O   UNL     1     -11.621  11.449  69.237  1.00  0.00    -0.257 OA 
HETATM   12  C   UNL     1     -10.420   9.409  68.446  1.00  0.00    -0.218 C  
HETATM   13  C   UNL     1     -10.802   8.677  69.748  1.00  0.00    -0.185 A  
HETATM   14  O   UNL     1     -10.826   8.587  67.323  1.00  0.00    -0.447 OA 
HETATM   15  C   UNL     1      -8.921   9.710  68.304  1.00  0.00    -0.123 A  
HETATM   16  H   UNL     1     -10.317   7.789  67.404  1.00  0.00     0.000 HD 
HETATM   17  C   UNL     1     -11.438   7.422  69.732  1.00  0.00     0.038 A  
HETATM   18  C   UNL     1      -8.367  10.920  68.760  1.00  0.00    -0.151 A  
HETATM   19  C   UNL     1     -11.906   6.829  70.910  1.00  0.00    -0.438 A  
HETATM   20  C   UNL     1      -7.024  11.229  68.539  1.00  0.00    -0.078 A  
HETATM   21  C   UNL     1      -6.202  10.326  67.874  1.00  0.00    -0.059 A  
HETATM   22  C   UNL     1     -11.747   7.478  72.131  1.00  0.00    -0.344 A  
HETATM   23  C   UNL     1     -11.093   8.703  72.179  1.00  0.00    -0.434 A  
HETATM   24  C   UNL     1      -6.714   9.099  67.459  1.00  0.00    -0.069 A  
HETATM   25  C   UNL     1      -8.055   8.785  67.688  1.00  0.00    -0.106 A  
HETATM   26  C   UNL     1     -10.615   9.290  71.003  1.00  0.00    -0.386 A  
ENDBRANCH   9  10
ENDBRANCH   7   9
TORSDOF 2
ENDMDL
MODEL       24
REMARK 921   NORMALIZED FREE ENERGY PREDICTED BY IDOCK:   -5.99 KCAL/MOL
REMARK 922        TOTAL FREE ENERGY PREDICTED BY IDOCK:   -7.20 KCAL/MOL
REMARK 923 INTER-LIGAND FREE ENERGY PREDICTED BY IDOCK:   -7.06 KCAL/MOL
REMARK 924 INTRA-LIGAND FREE ENERGY PREDICTED BY IDOCK:   -0.14 KCAL/MOL
REMARK 927      BINDING AFFINITY PREDICTED BY RF-SCORE:    0.00 PKD
ROOT
HETATM    1  C   UNL     1      -8.756   9.123  67.748  1.00  0.00    -0.121 C  
HETATM    2  N   UNL     1      -9.779  10.265  67.706  1.00  0.00    -0.155 N  
HETATM    3  C   UNL     1     -10.935   9.890  68.648  1.00  0.00    -0.179 C  
HETATM    4  C   UNL     1     -10.270  10.381  66.260  1.00  0.00    -0.222 C  
HETATM    5  C   UNL     1     -11.896  11.050  68.864  1.00  0.00    -0.378 C  
HETATM    6  C   UNL     1     -11.170  12.284  69.363  1.00  0.00    -0.243 C  
HETATM    7  C   UNL     1     -10.091  12.714  68.373  1.00  0.00    -0.222 C  
HETATM    8  C   UNL     1      -9.082  11.572  68.166  1.00  0.00    -0.181 C  
ENDROOT
BRANCH   7   9
HETATM    9  O   UNL     1      -9.463  13.891  68.908  1.00  0.00    -0.097 OA 
BRANCH   9  10
HETATM   10  C   UNL     1     -10.013  15.055  68.399  1.00  0.00    -0.225 C  
HETATM   11  O   UNL     1     -10.723  15.785  69.080  1.00  0.00    -0.218 OA 
HETATM   12  C   UNL     1      -9.629  15.286  66.894  1.00  0.00    -0.233 C  
HETATM   13  C   UNL     1      -9.481  16.795  66.621  1.00  0.00    -0.275 A  
HETATM   14  O   UNL     1      -8.330  14.662  66.736  1.00  0.00    -0.373 OA 
HETATM   15  C   UNL     1     -10.622  14.568  65.967  1.00  0.00    -0.311 A  
HETATM   16  H   UNL     1      -8.098  14.802  65.825  1.00  0.00     0.000 HD 
HETATM   17  C   UNL     1      -8.240  17.368  66.283  1.00  0.00    -0.288 A  
HETATM   18  C   UNL     1     -11.980  14.431  66.310  1.00  0.00    -0.391 A  
HETATM   19  C   UNL     1      -8.085  18.754  66.174  1.00  0.00    -0.221 A  
HETATM   20  C   UNL     1     -12.856  13.692  65.511  1.00  0.00    -0.443 A  
HETATM   21  C   UNL     1     -12.396  13.093  64.344  1.00  0.00    -0.426 A  
HETATM   22  C   UNL     1      -9.167  19.599  66.398  1.00  0.00    -0.448 A  
HETATM   23  C   UNL     1     -10.411  19.059  66.701  1.00  0.00    -0.517 A  
HETATM   24  C   UNL     1     -11.069  13.259  63.957  1.00  0.00    -0.342 A  
HETATM   25  C   UNL     1     -10.194  14.005  64.749  1.00  0.00    -0.332 A  
HETATM   26  C   UNL     1     -10.569  17.673  66.799  1.00  0.00    -0.224 A  
ENDBRANCH   9  10
ENDBRANCH   7   9
TORSDOF 2
ENDMDL
MODEL       25
REMARK 921   NORMALIZED FREE ENERGY PREDICTED BY IDOCK:   -5.96 KCAL/MOL
REMARK 922        TOTAL FREE ENERGY PREDICTED BY IDOCK:   -7.17 KCAL/MOL
REMARK 923 INTER-LIGAND FREE ENERGY PREDICTED BY IDOCK:   -6.94 KCAL/MOL
REMARK 924 INTRA-LIGAND FREE ENERGY PREDICTED BY IDOCK:   -0.23 KCAL/MOL
REMARK 927      BINDING AFFINITY PREDICTED BY RF-SCORE:    0.00 PKD
ROOT
HETATM    1  C   UNL     1      -6.322  18.950  66.519  1.00  0.00    -0.188 C  
HETATM    2  N   UNL     1      -6.408  17.544  67.127  1.00  0.00    -0.145 N  
HETATM    3  C   UNL     1      -6.470  17.699  68.654  1.00  0.00    -0.204 C  
HETATM    4  C   UNL     1      -5.143  16.790  66.706  1.00  0.00    -0.028 C  
HETATM    5  C   UNL     1      -6.791  16.384  69.351  1.00  0.00    -0.217 C  
HETATM    6  C   UNL     1      -8.071  15.773  68.816  1.00  0.00    -0.179 C  
HETATM    7  C   UNL     1      -7.966  15.525  67.314  1.00  0.00    -0.203 C  
HETATM    8  C   UNL     1      -7.681  16.846  66.581  1.00  0.00    -0.263 C  
ENDROOT
BRANCH   7   9
HETATM    9  O   UNL     1      -9.206  14.934  66.889  1.00  0.00    -0.219 OA 
BRANCH   9  10
HETATM   10  C   UNL     1      -9.317  13.612  67.282  1.00  0.00    -0.233 C  
HETATM   11  O   UNL     1      -8.342  12.960  67.639  1.00  0.00    -0.152 OA 
HETATM   12  C   UNL     1     -10.794  13.087  67.196  1.00  0.00    -0.260 C  
HETATM   13  C   UNL     1     -11.053  12.073  68.327  1.00  0.00    -0.290 A  
HETATM   14  O   UNL     1     -11.623  14.254  67.427  1.00  0.00    -0.330 OA 
HETATM   15  C   UNL     1     -11.096  12.555  65.787  1.00  0.00    -0.343 A  
HETATM   16  H   UNL     1     -12.517  13.936  67.375  1.00  0.00     0.000 HD 
HETATM   17  C   UNL     1     -11.966  12.341  69.366  1.00  0.00    -0.318 A  
HETATM   18  C   UNL     1     -10.105  11.929  65.009  1.00  0.00    -0.297 A  
HETATM   19  C   UNL     1     -12.092  11.480  70.462  1.00  0.00    -0.472 A  
HETATM   20  C   UNL     1     -10.359  11.537  63.693  1.00  0.00    -0.467 A  
HETATM   21  C   UNL     1     -11.615  11.745  63.135  1.00  0.00    -0.182 A  
HETATM   22  C   UNL     1     -11.311  10.331  70.543  1.00  0.00    -0.422 A  
HETATM   23  C   UNL     1     -10.426  10.026  69.516  1.00  0.00    -0.260 A  
HETATM   24  C   UNL     1     -12.628  12.316  63.902  1.00  0.00    -0.544 A  
HETATM   25  C   UNL     1     -12.378  12.699  65.221  1.00  0.00    -0.528 A  
HETATM   26  C   UNL     1     -10.307  10.881  68.415  1.00  0.00    -0.196 A  
ENDBRANCH   9  10
ENDBRANCH   7   9
TORSDOF 2
ENDMDL
MODEL       26
REMARK 921   NORMALIZED FREE ENERGY PREDICTED BY IDOCK:   -5.95 KCAL/MOL
REMARK 922        TOTAL FREE ENERGY PREDICTED BY IDOCK:   -7.17 KCAL/MOL
REMARK 923 INTER-LIGAND FREE ENERGY PREDICTED BY IDOCK:   -6.65 KCAL/MOL
REMARK 924 INTRA-LIGAND FREE ENERGY PREDICTED BY IDOCK:   -0.51 KCAL/MOL
REMARK 927      BINDING AFFINITY PREDICTED BY RF-SCORE:    0.00 PKD
ROOT
HETATM    1  C   UNL     1     -13.569  12.507  72.153  1.00  0.00    -0.360 C  
HETATM    2  N   UNL     1     -13.222  13.978  71.891  1.00  0.00    -0.367 N  
HETATM    3  C   UNL     1     -13.031  14.662  73.254  1.00  0.00    -0.457 C  
HETATM    4  C   UNL     1     -14.402  14.594  71.132  1.00  0.00    -0.122 C  
HETATM    5  C   UNL     1     -12.458  16.065  73.115  1.00  0.00    -0.633 C  
HETATM    6  C   UNL     1     -11.163  16.058  72.327  1.00  0.00     0.166 C  
HETATM    7  C   UNL     1     -11.381  15.472  70.934  1.00  0.00    -0.369 C  
HETATM    8  C   UNL     1     -11.923  14.038  71.046  1.00  0.00    -0.233 C  
ENDROOT
BRANCH   7   9
HETATM    9  O   UNL     1     -10.117  15.514  70.250  1.00  0.00    -0.270 OA 
BRANCH   9  10
HETATM   10  C   UNL     1     -10.142  16.364  69.157  1.00  0.00    -0.278 C  
HETATM   11  O   UNL     1     -10.798  17.400  69.160  1.00  0.00    -0.149 OA 
HETATM   12  C   UNL     1      -9.267  15.830  67.967  1.00  0.00    -0.188 C  
HETATM   13  C   UNL     1      -8.634  17.016  67.215  1.00  0.00    -0.209 A  
HETATM   14  O   UNL     1      -8.207  15.064  68.593  1.00  0.00    -0.139 OA 
HETATM   15  C   UNL     1     -10.085  14.880  67.080  1.00  0.00    -0.240 A  
HETATM   16  H   UNL     1      -7.677  14.742  67.873  1.00  0.00     0.000 HD 
HETATM   17  C   UNL     1      -7.242  17.227  67.205  1.00  0.00    -0.202 A  
HETATM   18  C   UNL     1     -11.466  15.066  66.879  1.00  0.00    -0.266 A  
HETATM   19  C   UNL     1      -6.686  18.380  66.639  1.00  0.00    -0.222 A  
HETATM   20  C   UNL     1     -12.222  14.144  66.153  1.00  0.00    -0.465 A  
HETATM   21  C   UNL     1     -11.609  13.027  65.596  1.00  0.00    -0.391 A  
HETATM   22  C   UNL     1      -7.508  19.346  66.069  1.00  0.00    -0.305 A  
HETATM   23  C   UNL     1      -8.883  19.148  66.037  1.00  0.00    -0.097 A  
HETATM   24  C   UNL     1     -10.236  12.848  65.736  1.00  0.00    -0.298 A  
HETATM   25  C   UNL     1      -9.477  13.774  66.454  1.00  0.00    -0.259 A  
HETATM   26  C   UNL     1      -9.438  17.991  66.592  1.00  0.00    -0.300 A  
ENDBRANCH   9  10
ENDBRANCH   7   9
TORSDOF 2
ENDMDL
MODEL       27
REMARK 921   NORMALIZED FREE ENERGY PREDICTED BY IDOCK:   -5.94 KCAL/MOL
REMARK 922        TOTAL FREE ENERGY PREDICTED BY IDOCK:   -7.15 KCAL/MOL
REMARK 923 INTER-LIGAND FREE ENERGY PREDICTED BY IDOCK:   -6.66 KCAL/MOL
REMARK 924 INTRA-LIGAND FREE ENERGY PREDICTED BY IDOCK:   -0.50 KCAL/MOL
REMARK 927      BINDING AFFINITY PREDICTED BY RF-SCORE:    0.00 PKD
ROOT
HETATM    1  C   UNL     1     -14.034  15.508  71.749  1.00  0.00    -0.469 C  
HETATM    2  N   UNL     1     -13.084  14.314  71.593  1.00  0.00    -0.328 N  
HETATM    3  C   UNL     1     -13.695  13.128  72.355  1.00  0.00    -0.540 C  
HETATM    4  C   UNL     1     -11.740  14.721  72.206  1.00  0.00    -0.122 C  
HETATM    5  C   UNL     1     -12.956  11.827  72.079  1.00  0.00    -0.370 C  
HETATM    6  C   UNL     1     -12.886  11.536  70.593  1.00  0.00    -0.151 C  
HETATM    7  C   UNL     1     -12.184  12.671  69.852  1.00  0.00    -0.168 C  
HETATM    8  C   UNL     1     -12.934  13.993  70.083  1.00  0.00     0.128 C  
ENDROOT
BRANCH   7   9
HETATM    9  O   UNL     1     -12.145  12.314  68.460  1.00  0.00    -0.279 OA 
BRANCH   9  10
HETATM   10  C   UNL     1     -10.850  12.152  67.998  1.00  0.00    -0.222 C  
HETATM   11  O   UNL     1      -9.930  11.846  68.748  1.00  0.00    -0.184 OA 
HETATM   12  C   UNL     1     -10.731  12.416  66.455  1.00  0.00    -0.247 C  
HETATM   13  C   UNL     1      -9.664  11.485  65.848  1.00  0.00    -0.260 A  
HETATM   14  O   UNL     1     -12.023  12.050  65.908  1.00  0.00    -0.540 OA 
HETATM   15  C   UNL     1     -10.500  13.910  66.180  1.00  0.00    -0.297 A  
HETATM   16  H   UNL     1     -11.950  12.209  64.975  1.00  0.00     0.000 HD 
HETATM   17  C   UNL     1     -10.000  10.476  64.925  1.00  0.00    -0.401 A  
HETATM   18  C   UNL     1      -9.763  14.716  67.067  1.00  0.00    -0.247 A  
HETATM   19  C   UNL     1      -9.050   9.547  64.487  1.00  0.00    -0.250 A  
HETATM   20  C   UNL     1      -9.641  16.091  66.862  1.00  0.00    -0.239 A  
HETATM   21  C   UNL     1     -10.236  16.686  65.755  1.00  0.00    -0.328 A  
HETATM   22  C   UNL     1      -7.743   9.606  64.960  1.00  0.00    -0.119 A  
HETATM   23  C   UNL     1      -7.376  10.611  65.846  1.00  0.00    -0.128 A  
HETATM   24  C   UNL     1     -10.926  15.901  64.835  1.00  0.00    -0.427 A  
HETATM   25  C   UNL     1     -11.041  14.524  65.033  1.00  0.00    -0.393 A  
HETATM   26  C   UNL     1      -8.322  11.547  66.276  1.00  0.00    -0.076 A  
ENDBRANCH   9  10
ENDBRANCH   7   9
TORSDOF 2
ENDMDL
MODEL       28
REMARK 921   NORMALIZED FREE ENERGY PREDICTED BY IDOCK:   -5.94 KCAL/MOL
REMARK 922        TOTAL FREE ENERGY PREDICTED BY IDOCK:   -7.15 KCAL/MOL
REMARK 923 INTER-LIGAND FREE ENERGY PREDICTED BY IDOCK:   -6.68 KCAL/MOL
REMARK 924 INTRA-LIGAND FREE ENERGY PREDICTED BY IDOCK:   -0.47 KCAL/MOL
REMARK 927      BINDING AFFINITY PREDICTED BY RF-SCORE:    0.00 PKD
ROOT
HETATM    1  C   UNL     1     -11.923  13.375  64.679  1.00  0.00    -0.399 C  
HETATM    2  N   UNL     1     -11.291  13.358  66.076  1.00  0.00    -0.304 N  
HETATM    3  C   UNL     1     -11.994  14.433  66.920  1.00  0.00    -0.399 C  
HETATM    4  C   UNL     1      -9.804  13.683  65.906  1.00  0.00    -0.246 C  
HETATM    5  C   UNL     1     -11.609  14.350  68.390  1.00  0.00    -0.351 C  
HETATM    6  C   UNL     1     -11.870  12.966  68.952  1.00  0.00    -0.352 C  
HETATM    7  C   UNL     1     -11.088  11.910  68.175  1.00  0.00    -0.242 C  
HETATM    8  C   UNL     1     -11.487  11.947  66.690  1.00  0.00    -0.314 C  
ENDROOT
BRANCH   7   9
HETATM    9  O   UNL     1     -11.376  10.636  68.775  1.00  0.00    -0.255 OA 
BRANCH   9  10
HETATM   10  C   UNL     1     -10.258  10.071  69.364  1.00  0.00    -0.222 C  
HETATM   11  O   UNL     1      -9.214  10.699  69.503  1.00  0.00    -0.115 OA 
HETATM   12  C   UNL     1     -10.500   8.580  69.793  1.00  0.00    -0.220 C  
HETATM   13  C   UNL     1      -9.711   8.274  71.080  1.00  0.00    -0.209 A  
HETATM   14  O   UNL     1     -11.916   8.499  70.093  1.00  0.00    -0.426 OA 
HETATM   15  C   UNL     1     -10.203   7.627  68.625  1.00  0.00    -0.214 A  
HETATM   16  H   UNL     1     -12.063   7.597  70.353  1.00  0.00     0.000 HD 
HETATM   17  C   UNL     1     -10.360   7.979  72.294  1.00  0.00    -0.336 A  
HETATM   18  C   UNL     1      -9.195   7.909  67.684  1.00  0.00    -0.147 A  
HETATM   19  C   UNL     1      -9.642   7.842  73.487  1.00  0.00    -0.332 A  
HETATM   20  C   UNL     1      -8.997   7.090  66.571  1.00  0.00    -0.165 A  
HETATM   21  C   UNL     1      -9.788   5.962  66.386  1.00  0.00    -0.161 A  
HETATM   22  C   UNL     1      -8.259   7.992  73.493  1.00  0.00    -0.271 A  
HETATM   23  C   UNL     1      -7.589   8.251  72.304  1.00  0.00    -0.160 A  
HETATM   24  C   UNL     1     -10.756   5.633  67.331  1.00  0.00    -0.283 A  
HETATM   25  C   UNL     1     -10.950   6.446  68.449  1.00  0.00    -0.390 A  
HETATM   26  C   UNL     1      -8.305   8.378  71.109  1.00  0.00    -0.163 A  
ENDBRANCH   9  10
ENDBRANCH   7   9
TORSDOF 2
ENDMDL
MODEL       29
REMARK 921   NORMALIZED FREE ENERGY PREDICTED BY IDOCK:   -5.92 KCAL/MOL
REMARK 922        TOTAL FREE ENERGY PREDICTED BY IDOCK:   -7.13 KCAL/MOL
REMARK 923 INTER-LIGAND FREE ENERGY PREDICTED BY IDOCK:   -6.90 KCAL/MOL
REMARK 924 INTRA-LIGAND FREE ENERGY PREDICTED BY IDOCK:   -0.23 KCAL/MOL
REMARK 927      BINDING AFFINITY PREDICTED BY RF-SCORE:    0.00 PKD
ROOT
HETATM    1  C   UNL     1      -8.138  10.303  64.601  1.00  0.00    -0.154 C  
HETATM    2  N   UNL     1      -9.382  10.675  65.417  1.00  0.00    -0.197 N  
HETATM    3  C   UNL     1      -9.708   9.490  66.339  1.00  0.00    -0.232 C  
HETATM    4  C   UNL     1     -10.520  10.922  64.422  1.00  0.00    -0.333 C  
HETATM    5  C   UNL     1     -10.783   9.835  67.359  1.00  0.00    -0.314 C  
HETATM    6  C   UNL     1     -10.404  11.060  68.167  1.00  0.00    -0.204 C  
HETATM    7  C   UNL     1     -10.182  12.263  67.255  1.00  0.00    -0.210 C  
HETATM    8  C   UNL     1      -9.071  11.954  66.238  1.00  0.00    -0.188 C  
ENDROOT
BRANCH   7   9
HETATM    9  O   UNL     1      -9.843  13.381  68.094  1.00  0.00    -0.222 OA 
BRANCH   9  10
HETATM   10  C   UNL     1     -10.965  14.021  68.590  1.00  0.00    -0.263 C  
HETATM   11  O   UNL     1     -12.098  13.668  68.285  1.00  0.00    -0.357 OA 
HETATM   12  C   UNL     1     -10.597  15.216  69.540  1.00  0.00    -0.270 C  
HETATM   13  C   UNL     1     -11.651  15.336  70.658  1.00  0.00    -0.355 A  
HETATM   14  O   UNL     1      -9.331  14.844  70.142  1.00  0.00    -0.344 OA 
HETATM   15  C   UNL     1     -10.383  16.504  68.730  1.00  0.00    -0.286 A  
HETATM   16  H   UNL     1      -9.109  15.567  70.717  1.00  0.00     0.000 HD 
HETATM   17  C   UNL     1     -11.328  15.098  72.008  1.00  0.00    -0.358 A  
HETATM   18  C   UNL     1     -11.118  16.767  67.559  1.00  0.00    -0.035 A  
HETATM   19  C   UNL     1     -12.318  15.071  72.997  1.00  0.00    -0.483 A  
HETATM   20  C   UNL     1     -10.850  17.890  66.775  1.00  0.00    -0.025 A  
HETATM   21  C   UNL     1      -9.854  18.783  67.155  1.00  0.00    -0.352 A  
HETATM   22  C   UNL     1     -13.651  15.283  72.660  1.00  0.00    -0.617 A  
HETATM   23  C   UNL     1     -13.993  15.552  71.341  1.00  0.00    -0.476 A  
HETATM   24  C   UNL     1      -9.149  18.573  68.337  1.00  0.00    -0.345 A  
HETATM   25  C   UNL     1      -9.423  17.455  69.127  1.00  0.00    -0.025 A  
HETATM   26  C   UNL     1     -13.003  15.590  70.353  1.00  0.00    -0.252 A  
ENDBRANCH   9  10
ENDBRANCH   7   9
TORSDOF 2
ENDMDL
MODEL       30
REMARK 921   NORMALIZED FREE ENERGY PREDICTED BY IDOCK:   -5.88 KCAL/MOL
REMARK 922        TOTAL FREE ENERGY PREDICTED BY IDOCK:   -7.08 KCAL/MOL
REMARK 923 INTER-LIGAND FREE ENERGY PREDICTED BY IDOCK:   -6.78 KCAL/MOL
REMARK 924 INTRA-LIGAND FREE ENERGY PREDICTED BY IDOCK:   -0.30 KCAL/MOL
REMARK 927      BINDING AFFINITY PREDICTED BY RF-SCORE:    0.00 PKD
ROOT
HETATM    1  C   UNL     1     -12.086  13.275  63.462  1.00  0.00    -0.482 C  
HETATM    2  N   UNL     1     -11.423  13.317  64.844  1.00  0.00    -0.309 N  
HETATM    3  C   UNL     1     -11.698  14.701  65.452  1.00  0.00    -0.330 C  
HETATM    4  C   UNL     1      -9.921  13.103  64.632  1.00  0.00    -0.120 C  
HETATM    5  C   UNL     1     -11.286  14.777  66.915  1.00  0.00    -0.347 C  
HETATM    6  C   UNL     1     -11.948  13.686  67.732  1.00  0.00    -0.387 C  
HETATM    7  C   UNL     1     -11.587  12.307  67.187  1.00  0.00    -0.353 C  
HETATM    8  C   UNL     1     -12.029  12.189  65.719  1.00  0.00    -0.194 C  
ENDROOT
BRANCH   7   9
HETATM    9  O   UNL     1     -12.237  11.333  68.021  1.00  0.00    -0.621 OA 
BRANCH   9  10
HETATM   10  C   UNL     1     -11.419  10.893  69.047  1.00  0.00    -0.302 C  
HETATM   11  O   UNL     1     -11.457  11.396  70.164  1.00  0.00    -0.288 OA 
HETATM   12  C   UNL     1     -10.472   9.725  68.594  1.00  0.00    -0.208 C  
HETATM   13  C   UNL     1     -10.251   8.751  69.768  1.00  0.00    -0.205 A  
HETATM   14  O   UNL     1     -11.202   9.030  67.553  1.00  0.00    -0.397 OA 
HETATM   15  C   UNL     1      -9.179  10.285  67.983  1.00  0.00    -0.138 A  
HETATM   16  H   UNL     1     -10.629   8.323  67.279  1.00  0.00     0.000 HD 
HETATM   17  C   UNL     1     -10.724   7.425  69.728  1.00  0.00    -0.252 A  
HETATM   18  C   UNL     1      -8.607  11.486  68.444  1.00  0.00    -0.159 A  
HETATM   19  C   UNL     1     -10.643   6.591  70.849  1.00  0.00    -0.275 A  
HETATM   20  C   UNL     1      -7.489  12.040  67.818  1.00  0.00    -0.121 A  
HETATM   21  C   UNL     1      -6.908  11.396  66.732  1.00  0.00    -0.132 A  
HETATM   22  C   UNL     1     -10.085   7.062  72.033  1.00  0.00    -0.201 A  
HETATM   23  C   UNL     1      -9.580   8.356  72.090  1.00  0.00    -0.367 A  
HETATM   24  C   UNL     1      -7.424  10.180  66.290  1.00  0.00    -0.112 A  
HETATM   25  C   UNL     1      -8.536   9.619  66.921  1.00  0.00    -0.132 A  
HETATM   26  C   UNL     1      -9.651   9.186  70.967  1.00  0.00    -0.350 A  
ENDBRANCH   9  10
ENDBRANCH   7   9
TORSDOF 2
ENDMDL
MODEL       31
REMARK 921   NORMALIZED FREE ENERGY PREDICTED BY IDOCK:   -5.85 KCAL/MOL
REMARK 922        TOTAL FREE ENERGY PREDICTED BY IDOCK:   -7.06 KCAL/MOL
REMARK 923 INTER-LIGAND FREE ENERGY PREDICTED BY IDOCK:   -6.51 KCAL/MOL
REMARK 924 INTRA-LIGAND FREE ENERGY PREDICTED BY IDOCK:   -0.55 KCAL/MOL
REMARK 927      BINDING AFFINITY PREDICTED BY RF-SCORE:    0.00 PKD
ROOT
HETATM    1  C   UNL     1      -8.495   9.203  63.628  1.00  0.00    -0.184 C  
HETATM    2  N   UNL     1      -7.960   9.405  65.051  1.00  0.00    -0.113 N  
HETATM    3  C   UNL     1      -6.425   9.371  64.982  1.00  0.00    -0.076 C  
HETATM    4  C   UNL     1      -8.493   8.250  65.904  1.00  0.00    -0.140 C  
HETATM    5  C   UNL     1      -5.783   9.791  66.296  1.00  0.00    -0.053 C  
HETATM    6  C   UNL     1      -6.274  11.154  66.740  1.00  0.00    -0.122 C  
HETATM    7  C   UNL     1      -7.791  11.155  66.909  1.00  0.00    -0.152 C  
HETATM    8  C   UNL     1      -8.468  10.771  65.582  1.00  0.00    -0.163 C  
ENDROOT
BRANCH   7   9
HETATM    9  O   UNL     1      -8.174  12.470  67.343  1.00  0.00    -0.164 OA 
BRANCH   9  10
HETATM   10  C   UNL     1      -9.384  12.468  68.016  1.00  0.00    -0.205 C  
HETATM   11  O   UNL     1      -9.751  11.505  68.681  1.00  0.00    -0.197 OA 
HETATM   12  C   UNL     1     -10.186  13.801  67.804  1.00  0.00    -0.241 C  
HETATM   13  C   UNL     1     -10.975  14.142  69.084  1.00  0.00    -0.280 A  
HETATM   14  O   UNL     1      -9.176  14.821  67.603  1.00  0.00    -0.186 OA 
HETATM   15  C   UNL     1     -11.044  13.718  66.533  1.00  0.00    -0.309 A  
HETATM   16  H   UNL     1      -9.661  15.628  67.476  1.00  0.00     0.000 HD 
HETATM   17  C   UNL     1     -10.677  15.282  69.855  1.00  0.00    -0.300 A  
HETATM   18  C   UNL     1     -11.618  12.505  66.111  1.00  0.00    -0.448 A  
HETATM   19  C   UNL     1     -11.301  15.509  71.086  1.00  0.00    -0.442 A  
HETATM   20  C   UNL     1     -12.313  12.416  64.903  1.00  0.00    -0.475 A  
HETATM   21  C   UNL     1     -12.467  13.543  64.103  1.00  0.00    -0.301 A  
HETATM   22  C   UNL     1     -12.239  14.604  71.573  1.00  0.00    -0.416 A  
HETATM   23  C   UNL     1     -12.576  13.488  70.817  1.00  0.00    -0.382 A  
HETATM   24  C   UNL     1     -11.953  14.767  64.525  1.00  0.00    -0.451 A  
HETATM   25  C   UNL     1     -11.266  14.859  65.737  1.00  0.00    -0.334 A  
HETATM   26  C   UNL     1     -11.960  13.266  69.581  1.00  0.00    -0.376 A  
ENDBRANCH   9  10
ENDBRANCH   7   9
TORSDOF 2
ENDMDL
MODEL       32
REMARK 921   NORMALIZED FREE ENERGY PREDICTED BY IDOCK:   -5.84 KCAL/MOL
REMARK 922        TOTAL FREE ENERGY PREDICTED BY IDOCK:   -7.05 KCAL/MOL
REMARK 923 INTER-LIGAND FREE ENERGY PREDICTED BY IDOCK:   -7.44 KCAL/MOL
REMARK 924 INTRA-LIGAND FREE ENERGY PREDICTED BY IDOCK:    0.39 KCAL/MOL
REMARK 927      BINDING AFFINITY PREDICTED BY RF-SCORE:    0.00 PKD
ROOT
HETATM    1  C   UNL     1      -6.512  19.739  69.242  1.00  0.00    -0.339 C  
HETATM    2  N   UNL     1      -7.256  19.383  67.949  1.00  0.00    -0.250 N  
HETATM    3  C   UNL     1      -6.426  18.323  67.209  1.00  0.00    -0.178 C  
HETATM    4  C   UNL     1      -7.366  20.667  67.121  1.00  0.00    -0.337 C  
HETATM    5  C   UNL     1      -7.179  17.726  66.029  1.00  0.00    -0.322 C  
HETATM    6  C   UNL     1      -8.518  17.161  66.457  1.00  0.00    -0.309 C  
HETATM    7  C   UNL     1      -9.382  18.243  67.099  1.00  0.00    -0.264 C  
HETATM    8  C   UNL     1      -8.660  18.837  68.320  1.00  0.00    -0.327 C  
ENDROOT
BRANCH   7   9
HETATM    9  O   UNL     1     -10.633  17.635  67.461  1.00  0.00    -0.366 OA 
BRANCH   9  10
HETATM   10  C   UNL     1     -10.660  17.244  68.788  1.00  0.00    -0.305 C  
HETATM   11  O   UNL     1     -10.379  18.019  69.696  1.00  0.00     0.021 OA 
HETATM   12  C   UNL     1     -11.067  15.737  68.957  1.00  0.00    -0.282 C  
HETATM   13  C   UNL     1     -11.879  15.560  70.255  1.00  0.00    -0.381 A  
HETATM   14  O   UNL     1     -11.935  15.452  67.831  1.00  0.00    -0.402 OA 
HETATM   15  C   UNL     1      -9.832  14.830  68.854  1.00  0.00    -0.222 A  
HETATM   16  H   UNL     1     -12.181  14.540  67.934  1.00  0.00     0.000 HD 
HETATM   17  C   UNL     1     -13.236  15.182  70.233  1.00  0.00    -0.051 A  
HETATM   18  C   UNL     1      -8.570  15.249  69.313  1.00  0.00    -0.236 A  
HETATM   19  C   UNL     1     -14.002  15.160  71.404  1.00  0.00    -0.595 A  
HETATM   20  C   UNL     1      -7.434  14.460  69.126  1.00  0.00    -0.094 A  
HETATM   21  C   UNL     1      -7.539  13.227  68.493  1.00  0.00    -0.128 A  
HETATM   22  C   UNL     1     -13.430  15.512  72.622  1.00  0.00    -0.642 A  
HETATM   23  C   UNL     1     -12.085  15.857  72.677  1.00  0.00    -0.615 A  
HETATM   24  C   UNL     1      -8.785  12.766  68.076  1.00  0.00    -0.194 A  
HETATM   25  C   UNL     1      -9.924  13.550  68.271  1.00  0.00    -0.237 A  
HETATM   26  C   UNL     1     -11.316  15.869  71.509  1.00  0.00    -0.384 A  
ENDBRANCH   9  10
ENDBRANCH   7   9
TORSDOF 2
ENDMDL
MODEL       33
REMARK 921   NORMALIZED FREE ENERGY PREDICTED BY IDOCK:   -5.81 KCAL/MOL
REMARK 922        TOTAL FREE ENERGY PREDICTED BY IDOCK:   -7.01 KCAL/MOL
REMARK 923 INTER-LIGAND FREE ENERGY PREDICTED BY IDOCK:   -6.90 KCAL/MOL
REMARK 924 INTRA-LIGAND FREE ENERGY PREDICTED BY IDOCK:   -0.11 KCAL/MOL
REMARK 927      BINDING AFFINITY PREDICTED BY RF-SCORE:    0.00 PKD
ROOT
HETATM    1  C   UNL     1     -13.563  13.364  72.825  1.00  0.00    -0.216 C  
HETATM    2  N   UNL     1     -13.179  14.437  71.799  1.00  0.00    -0.337 N  
HETATM    3  C   UNL     1     -11.922  15.151  72.318  1.00  0.00    -0.396 C  
HETATM    4  C   UNL     1     -14.358  15.411  71.700  1.00  0.00    -0.505 C  
HETATM    5  C   UNL     1     -11.317  16.078  71.274  1.00  0.00    -0.397 C  
HETATM    6  C   UNL     1     -11.026  15.340  69.982  1.00  0.00    -0.306 C  
HETATM    7  C   UNL     1     -12.299  14.719  69.415  1.00  0.00    -0.149 C  
HETATM    8  C   UNL     1     -12.910  13.746  70.437  1.00  0.00    -0.096 C  
ENDROOT
BRANCH   7   9
HETATM    9  O   UNL     1     -11.943  14.055  68.191  1.00  0.00    -0.357 OA 
BRANCH   9  10
HETATM   10  C   UNL     1     -11.062  14.801  67.427  1.00  0.00    -0.324 C  
HETATM   11  O   UNL     1     -11.322  15.946  67.076  1.00  0.00    -0.109 OA 
HETATM   12  C   UNL     1      -9.753  14.005  67.081  1.00  0.00    -0.242 C  
HETATM   13  C   UNL     1      -8.554  14.972  67.034  1.00  0.00    -0.266 A  
HETATM   14  O   UNL     1      -9.562  13.092  68.190  1.00  0.00    -0.218 OA 
HETATM   15  C   UNL     1      -9.949  13.176  65.803  1.00  0.00    -0.260 A  
HETATM   16  H   UNL     1      -8.770  12.611  67.980  1.00  0.00     0.000 HD 
HETATM   17  C   UNL     1      -7.502  14.892  67.966  1.00  0.00    -0.133 A  
HETATM   18  C   UNL     1     -10.770  13.625  64.753  1.00  0.00    -0.420 A  
HETATM   19  C   UNL     1      -6.490  15.858  68.005  1.00  0.00    -0.146 A  
HETATM   20  C   UNL     1     -11.022  12.822  63.638  1.00  0.00    -0.403 A  
HETATM   21  C   UNL     1     -10.442  11.562  63.542  1.00  0.00    -0.486 A  
HETATM   22  C   UNL     1      -6.505  16.923  67.111  1.00  0.00    -0.223 A  
HETATM   23  C   UNL     1      -7.514  17.009  66.159  1.00  0.00    -0.255 A  
HETATM   24  C   UNL     1      -9.584  11.117  64.544  1.00  0.00    -0.288 A  
HETATM   25  C   UNL     1      -9.323  11.922  65.654  1.00  0.00    -0.125 A  
HETATM   26  C   UNL     1      -8.520  16.038  66.113  1.00  0.00    -0.247 A  
ENDBRANCH   9  10
ENDBRANCH   7   9
TORSDOF 2
ENDMDL
MODEL       34
REMARK 921   NORMALIZED FREE ENERGY PREDICTED BY IDOCK:   -5.78 KCAL/MOL
REMARK 922        TOTAL FREE ENERGY PREDICTED BY IDOCK:   -6.97 KCAL/MOL
REMARK 923 INTER-LIGAND FREE ENERGY PREDICTED BY IDOCK:   -6.33 KCAL/MOL
REMARK 924 INTRA-LIGAND FREE ENERGY PREDICTED BY IDOCK:   -0.64 KCAL/MOL
REMARK 927      BINDING AFFINITY PREDICTED BY RF-SCORE:    0.00 PKD
ROOT
HETATM    1  C   UNL     1      -8.438   5.341  70.610  1.00  0.00    -0.117 C  
HETATM    2  N   UNL     1      -9.773   6.090  70.695  1.00  0.00    -0.172 N  
HETATM    3  C   UNL     1     -10.409   5.761  72.054  1.00  0.00    -0.208 C  
HETATM    4  C   UNL     1     -10.651   5.584  69.545  1.00  0.00    -0.296 C  
HETATM    5  C   UNL     1     -11.625   6.629  72.344  1.00  0.00    -0.281 C  
HETATM    6  C   UNL     1     -11.286   8.103  72.249  1.00  0.00    -0.429 C  
HETATM    7  C   UNL     1     -10.752   8.447  70.861  1.00  0.00    -0.222 C  
HETATM    8  C   UNL     1      -9.498   7.611  70.558  1.00  0.00    -0.164 C  
ENDROOT
BRANCH   7   9
HETATM    9  O   UNL     1     -10.470   9.857  70.847  1.00  0.00    -0.286 OA 
BRANCH   9  10
HETATM   10  C   UNL     1     -11.015  10.489  69.743  1.00  0.00    -0.294 C  
HETATM   11  O   UNL     1     -12.227  10.601  69.596  1.00  0.00    -0.290 OA 
HETATM   12  C   UNL     1      -9.914  11.002  68.747  1.00  0.00    -0.207 C  
HETATM   13  C   UNL     1     -10.383  12.313  68.086  1.00  0.00    -0.221 A  
HETATM   14  O   UNL     1      -8.762  11.294  69.577  1.00  0.00    -0.308 OA 
HETATM   15  C   UNL     1      -9.525   9.896  67.756  1.00  0.00    -0.158 A  
HETATM   16  H   UNL     1      -8.096  11.605  68.975  1.00  0.00     0.000 HD 
HETATM   17  C   UNL     1      -9.726  13.536  68.321  1.00  0.00    -0.224 A  
HETATM   18  C   UNL     1     -10.462   8.949  67.304  1.00  0.00    -0.348 A  
HETATM   19  C   UNL     1     -10.239  14.742  67.830  1.00  0.00    -0.229 A  
HETATM   20  C   UNL     1     -10.079   7.888  66.482  1.00  0.00    -0.246 A  
HETATM   21  C   UNL     1      -8.755   7.763  66.078  1.00  0.00    -0.184 A  
HETATM   22  C   UNL     1     -11.418  14.752  67.092  1.00  0.00    -0.375 A  
HETATM   23  C   UNL     1     -12.069  13.556  66.818  1.00  0.00    -0.425 A  
HETATM   24  C   UNL     1      -7.818   8.716  66.470  1.00  0.00    -0.099 A  
HETATM   25  C   UNL     1      -8.202   9.783  67.285  1.00  0.00    -0.117 A  
HETATM   26  C   UNL     1     -11.551  12.349  67.299  1.00  0.00    -0.435 A  
ENDBRANCH   9  10
ENDBRANCH   7   9
TORSDOF 2
ENDMDL
MODEL       35
REMARK 921   NORMALIZED FREE ENERGY PREDICTED BY IDOCK:   -5.75 KCAL/MOL
REMARK 922        TOTAL FREE ENERGY PREDICTED BY IDOCK:   -6.95 KCAL/MOL
REMARK 923 INTER-LIGAND FREE ENERGY PREDICTED BY IDOCK:   -6.32 KCAL/MOL
REMARK 924 INTRA-LIGAND FREE ENERGY PREDICTED BY IDOCK:   -0.62 KCAL/MOL
REMARK 927      BINDING AFFINITY PREDICTED BY RF-SCORE:    0.00 PKD
ROOT
HETATM    1  C   UNL     1     -10.152  18.000  68.672  1.00  0.00    -0.394 C  
HETATM    2  N   UNL     1      -9.117  17.072  68.024  1.00  0.00    -0.232 N  
HETATM    3  C   UNL     1      -7.722  17.576  68.426  1.00  0.00    -0.260 C  
HETATM    4  C   UNL     1      -9.313  17.163  66.507  1.00  0.00    -0.265 C  
HETATM    5  C   UNL     1      -6.624  16.599  68.032  1.00  0.00    -0.146 C  
HETATM    6  C   UNL     1      -6.884  15.217  68.598  1.00  0.00    -0.105 C  
HETATM    7  C   UNL     1      -8.226  14.677  68.111  1.00  0.00    -0.142 C  
HETATM    8  C   UNL     1      -9.360  15.627  68.531  1.00  0.00    -0.197 C  
ENDROOT
BRANCH   7   9
HETATM    9  O   UNL     1      -8.391  13.365  68.677  1.00  0.00    -0.117 OA 
BRANCH   9  10
HETATM   10  C   UNL     1      -8.501  12.386  67.704  1.00  0.00    -0.169 C  
HETATM   11  O   UNL     1      -7.530  11.999  67.065  1.00  0.00    -0.148 OA 
HETATM   12  C   UNL     1      -9.978  11.879  67.535  1.00  0.00    -0.187 C  
HETATM   13  C   UNL     1      -9.975  10.380  67.179  1.00  0.00    -0.239 A  
HETATM   14  O   UNL     1     -10.583  12.038  68.843  1.00  0.00    -0.280 OA 
HETATM   15  C   UNL     1     -10.742  12.765  66.541  1.00  0.00    -0.277 A  
HETATM   16  H   UNL     1     -11.476  11.730  68.740  1.00  0.00     0.000 HD 
HETATM   17  C   UNL     1     -10.499   9.410  68.055  1.00  0.00    -0.278 A  
HETATM   18  C   UNL     1     -10.099  13.363  65.442  1.00  0.00    -0.270 A  
HETATM   19  C   UNL     1     -10.366   8.042  67.788  1.00  0.00    -0.294 A  
HETATM   20  C   UNL     1     -10.776  14.247  64.600  1.00  0.00    -0.384 A  
HETATM   21  C   UNL     1     -12.118  14.535  64.827  1.00  0.00    -0.454 A  
HETATM   22  C   UNL     1      -9.709   7.614  66.638  1.00  0.00    -0.283 A  
HETATM   23  C   UNL     1      -9.212   8.550  65.740  1.00  0.00    -0.210 A  
HETATM   24  C   UNL     1     -12.791  13.916  65.877  1.00  0.00    -0.387 A  
HETATM   25  C   UNL     1     -12.117  13.025  66.715  1.00  0.00    -0.366 A  
HETATM   26  C   UNL     1      -9.353   9.917  66.001  1.00  0.00    -0.240 A  
ENDBRANCH   9  10
ENDBRANCH   7   9
TORSDOF 2
ENDMDL
MODEL       36
REMARK 921   NORMALIZED FREE ENERGY PREDICTED BY IDOCK:   -5.73 KCAL/MOL
REMARK 922        TOTAL FREE ENERGY PREDICTED BY IDOCK:   -6.91 KCAL/MOL
REMARK 923 INTER-LIGAND FREE ENERGY PREDICTED BY IDOCK:   -6.39 KCAL/MOL
REMARK 924 INTRA-LIGAND FREE ENERGY PREDICTED BY IDOCK:   -0.53 KCAL/MOL
REMARK 927      BINDING AFFINITY PREDICTED BY RF-SCORE:    0.00 PKD
ROOT
HETATM    1  C   UNL     1      -9.420   6.190  71.082  1.00  0.00    -0.167 C  
HETATM    2  N   UNL     1     -10.609   7.118  70.800  1.00  0.00    -0.220 N  
HETATM    3  C   UNL     1     -11.312   7.396  72.137  1.00  0.00    -0.271 C  
HETATM    4  C   UNL     1     -11.542   6.378  69.836  1.00  0.00    -0.353 C  
HETATM    5  C   UNL     1     -12.366   8.487  72.014  1.00  0.00    -0.423 C  
HETATM    6  C   UNL     1     -11.778   9.760  71.437  1.00  0.00    -0.475 C  
HETATM    7  C   UNL     1     -11.171   9.501  70.061  1.00  0.00    -0.209 C  
HETATM    8  C   UNL     1     -10.074   8.428  70.164  1.00  0.00    -0.191 C  
ENDROOT
BRANCH   7   9
HETATM    9  O   UNL     1     -10.652  10.752  69.579  1.00  0.00    -0.223 OA 
BRANCH   9  10
HETATM   10  C   UNL     1     -10.857  10.914  68.220  1.00  0.00    -0.225 C  
HETATM   11  O   UNL     1     -11.713  10.278  67.615  1.00  0.00    -0.192 OA 
HETATM   12  C   UNL     1      -9.875  11.966  67.591  1.00  0.00    -0.187 C  
HETATM   13  C   UNL     1     -10.586  12.726  66.455  1.00  0.00    -0.273 A  
HETATM   14  O   UNL     1      -9.590  12.902  68.661  1.00  0.00    -0.380 OA 
HETATM   15  C   UNL     1      -8.557  11.295  67.177  1.00  0.00    -0.147 A  
HETATM   16  H   UNL     1      -8.997  13.539  68.280  1.00  0.00     0.000 HD 
HETATM   17  C   UNL     1     -10.865  14.104  66.547  1.00  0.00    -0.298 A  
HETATM   18  C   UNL     1      -8.523   9.968  66.710  1.00  0.00    -0.125 A  
HETATM   19  C   UNL     1     -11.633  14.756  65.576  1.00  0.00    -0.301 A  
HETATM   20  C   UNL     1      -7.312   9.332  66.430  1.00  0.00    -0.092 A  
HETATM   21  C   UNL     1      -6.112  10.015  66.592  1.00  0.00    -0.064 A  
HETATM   22  C   UNL     1     -12.137  14.048  64.490  1.00  0.00    -0.484 A  
HETATM   23  C   UNL     1     -11.850  12.695  64.357  1.00  0.00    -0.452 A  
HETATM   24  C   UNL     1      -6.123  11.346  67.003  1.00  0.00    -0.120 A  
HETATM   25  C   UNL     1      -7.334  11.986  67.275  1.00  0.00    -0.151 A  
HETATM   26  C   UNL     1     -11.073  12.044  65.322  1.00  0.00    -0.367 A  
ENDBRANCH   9  10
ENDBRANCH   7   9
TORSDOF 2
ENDMDL
MODEL       37
REMARK 921   NORMALIZED FREE ENERGY PREDICTED BY IDOCK:   -5.70 KCAL/MOL
REMARK 922        TOTAL FREE ENERGY PREDICTED BY IDOCK:   -6.89 KCAL/MOL
REMARK 923 INTER-LIGAND FREE ENERGY PREDICTED BY IDOCK:   -6.43 KCAL/MOL
REMARK 924 INTRA-LIGAND FREE ENERGY PREDICTED BY IDOCK:   -0.46 KCAL/MOL
REMARK 927      BINDING AFFINITY PREDICTED BY RF-SCORE:    0.00 PKD
ROOT
HETATM    1  C   UNL     1     -11.337  14.052  64.954  1.00  0.00    -0.354 C  
HETATM    2  N   UNL     1     -10.973  13.794  66.421  1.00  0.00    -0.297 N  
HETATM    3  C   UNL     1     -11.566  14.938  67.258  1.00  0.00    -0.324 C  
HETATM    4  C   UNL     1      -9.444  13.786  66.514  1.00  0.00    -0.269 C  
HETATM    5  C   UNL     1     -11.465  14.667  68.752  1.00  0.00    -0.322 C  
HETATM    6  C   UNL     1     -12.105  13.343  69.117  1.00  0.00    -0.306 C  
HETATM    7  C   UNL     1     -11.442  12.195  68.360  1.00  0.00    -0.304 C  
HETATM    8  C   UNL     1     -11.564  12.424  66.845  1.00  0.00    -0.370 C  
ENDROOT
BRANCH   7   9
HETATM    9  O   UNL     1     -12.091  10.979  68.771  1.00  0.00    -0.518 OA 
BRANCH   9  10
HETATM   10  C   UNL     1     -11.297  10.222  69.614  1.00  0.00    -0.257 C  
HETATM   11  O   UNL     1     -11.300  10.390  70.829  1.00  0.00    -0.330 OA 
HETATM   12  C   UNL     1     -10.424   9.177  68.831  1.00  0.00    -0.218 C  
HETATM   13  C   UNL     1     -10.257   7.900  69.677  1.00  0.00    -0.207 A  
HETATM   14  O   UNL     1     -11.199   8.848  67.651  1.00  0.00    -0.424 OA 
HETATM   15  C   UNL     1      -9.102   9.813  68.376  1.00  0.00    -0.123 A  
HETATM   16  H   UNL     1     -10.671   8.216  67.178  1.00  0.00     0.000 HD 
HETATM   17  C   UNL     1     -10.810   6.669  69.275  1.00  0.00    -0.335 A  
HETATM   18  C   UNL     1      -8.457  10.800  69.144  1.00  0.00    -0.105 A  
HETATM   19  C   UNL     1     -10.775   5.549  70.114  1.00  0.00    -0.348 A  
HETATM   20  C   UNL     1      -7.310  11.444  68.677  1.00  0.00    -0.104 A  
HETATM   21  C   UNL     1      -6.772  11.101  67.441  1.00  0.00    -0.084 A  
HETATM   22  C   UNL     1     -10.185   5.634  71.371  1.00  0.00    -0.270 A  
HETATM   23  C   UNL     1      -9.603   6.828  71.779  1.00  0.00    -0.157 A  
HETATM   24  C   UNL     1      -7.363  10.091  66.686  1.00  0.00    -0.103 A  
HETATM   25  C   UNL     1      -8.505   9.439  67.155  1.00  0.00    -0.128 A  
HETATM   26  C   UNL     1      -9.628   7.944  70.937  1.00  0.00    -0.172 A  
ENDBRANCH   9  10
ENDBRANCH   7   9
TORSDOF 2
ENDMDL
MODEL       38
REMARK 921   NORMALIZED FREE ENERGY PREDICTED BY IDOCK:   -5.69 KCAL/MOL
REMARK 922        TOTAL FREE ENERGY PREDICTED BY IDOCK:   -6.87 KCAL/MOL
REMARK 923 INTER-LIGAND FREE ENERGY PREDICTED BY IDOCK:   -6.25 KCAL/MOL
REMARK 924 INTRA-LIGAND FREE ENERGY PREDICTED BY IDOCK:   -0.62 KCAL/MOL
REMARK 927      BINDING AFFINITY PREDICTED BY RF-SCORE:    0.00 PKD
ROOT
HETATM    1  C   UNL     1     -10.501   5.372  66.923  1.00  0.00    -0.277 C  
HETATM    2  N   UNL     1      -9.486   6.506  66.730  1.00  0.00    -0.154 N  
HETATM    3  C   UNL     1      -8.678   6.198  65.460  1.00  0.00    -0.098 C  
HETATM    4  C   UNL     1      -8.579   6.517  67.964  1.00  0.00    -0.118 C  
HETATM    5  C   UNL     1      -7.799   7.369  65.042  1.00  0.00    -0.124 C  
HETATM    6  C   UNL     1      -8.612   8.636  64.871  1.00  0.00    -0.163 C  
HETATM    7  C   UNL     1      -9.332   8.996  66.169  1.00  0.00    -0.232 C  
HETATM    8  C   UNL     1     -10.258   7.844  66.593  1.00  0.00    -0.233 C  
ENDROOT
BRANCH   7   9
HETATM    9  O   UNL     1     -10.064  10.210  65.930  1.00  0.00    -0.258 OA 
BRANCH   9  10
HETATM   10  C   UNL     1      -9.606  11.259  66.709  1.00  0.00    -0.193 C  
HETATM   11  O   UNL     1      -8.538  11.815  66.480  1.00  0.00    -0.183 OA 
HETATM   12  C   UNL     1     -10.594  11.606  67.880  1.00  0.00    -0.193 C  
HETATM   13  C   UNL     1     -10.566  13.123  68.150  1.00  0.00    -0.257 A  
HETATM   14  O   UNL     1     -11.908  11.254  67.381  1.00  0.00    -0.590 OA 
HETATM   15  C   UNL     1     -10.298  10.737  69.111  1.00  0.00    -0.238 A  
HETATM   16  H   UNL     1     -12.506  11.465  68.089  1.00  0.00     0.000 HD 
HETATM   17  C   UNL     1     -11.690  13.938  67.914  1.00  0.00    -0.396 A  
HETATM   18  C   UNL     1      -8.989  10.326  69.424  1.00  0.00    -0.190 A  
HETATM   19  C   UNL     1     -11.615  15.330  68.028  1.00  0.00    -0.325 A  
HETATM   20  C   UNL     1      -8.740   9.456  70.487  1.00  0.00    -0.276 A  
HETATM   21  C   UNL     1      -9.792   8.994  71.270  1.00  0.00    -0.376 A  
HETATM   22  C   UNL     1     -10.416  15.940  68.382  1.00  0.00    -0.254 A  
HETATM   23  C   UNL     1      -9.299  15.158  68.652  1.00  0.00    -0.199 A  
HETATM   24  C   UNL     1     -11.090   9.428  71.013  1.00  0.00    -0.414 A  
HETATM   25  C   UNL     1     -11.340  10.306  69.956  1.00  0.00    -0.370 A  
HETATM   26  C   UNL     1      -9.377  13.765  68.549  1.00  0.00    -0.144 A  
ENDBRANCH   9  10
ENDBRANCH   7   9
TORSDOF 2
ENDMDL
MODEL       39
REMARK 921   NORMALIZED FREE ENERGY PREDICTED BY IDOCK:   -5.66 KCAL/MOL
REMARK 922        TOTAL FREE ENERGY PREDICTED BY IDOCK:   -6.84 KCAL/MOL
REMARK 923 INTER-LIGAND FREE ENERGY PREDICTED BY IDOCK:   -6.23 KCAL/MOL
REMARK 924 INTRA-LIGAND FREE ENERGY PREDICTED BY IDOCK:   -0.61 KCAL/MOL
REMARK 927      BINDING AFFINITY PREDICTED BY RF-SCORE:    0.00 PKD
ROOT
HETATM    1  C   UNL     1      -8.012   7.710  64.404  1.00  0.00    -0.123 C  
HETATM    2  N   UNL     1      -8.245   9.197  64.111  1.00  0.00    -0.154 N  
HETATM    3  C   UNL     1      -8.828   9.308  62.693  1.00  0.00    -0.204 C  
HETATM    4  C   UNL     1      -6.884   9.895  64.197  1.00  0.00    -0.126 C  
HETATM    5  C   UNL     1      -9.315  10.716  62.382  1.00  0.00    -0.282 C  
HETATM    6  C   UNL     1     -10.313  11.197  63.416  1.00  0.00    -0.419 C  
HETATM    7  C   UNL     1      -9.695  11.183  64.812  1.00  0.00    -0.257 C  
HETATM    8  C   UNL     1      -9.230   9.762  65.168  1.00  0.00    -0.240 C  
ENDROOT
BRANCH   7   9
HETATM    9  O   UNL     1     -10.694  11.664  65.728  1.00  0.00    -0.266 OA 
BRANCH   9  10
HETATM   10  C   UNL     1     -10.166  12.528  66.671  1.00  0.00    -0.230 C  
HETATM   11  O   UNL     1      -9.307  13.354  66.382  1.00  0.00    -0.244 OA 
HETATM   12  C   UNL     1     -10.782  12.300  68.098  1.00  0.00    -0.216 C  
HETATM   13  C   UNL     1     -10.880  13.646  68.842  1.00  0.00    -0.264 A  
HETATM   14  O   UNL     1     -12.126  11.812  67.855  1.00  0.00    -0.592 OA 
HETATM   15  C   UNL     1     -10.006  11.212  68.854  1.00  0.00    -0.188 A  
HETATM   16  H   UNL     1     -12.498  11.675  68.717  1.00  0.00     0.000 HD 
HETATM   17  C   UNL     1     -12.123  14.216  69.180  1.00  0.00    -0.362 A  
HETATM   18  C   UNL     1      -8.621  11.038  68.675  1.00  0.00    -0.157 A  
HETATM   19  C   UNL     1     -12.207  15.500  69.730  1.00  0.00    -0.328 A  
HETATM   20  C   UNL     1      -7.939   9.985  69.289  1.00  0.00    -0.130 A  
HETATM   21  C   UNL     1      -8.625   9.096  70.109  1.00  0.00    -0.195 A  
HETATM   22  C   UNL     1     -11.052  16.242  69.956  1.00  0.00    -0.351 A  
HETATM   23  C   UNL     1      -9.811  15.691  69.663  1.00  0.00    -0.280 A  
HETATM   24  C   UNL     1      -9.985   9.278  70.343  1.00  0.00    -0.287 A  
HETATM   25  C   UNL     1     -10.666  10.336  69.738  1.00  0.00    -0.328 A  
HETATM   26  C   UNL     1      -9.725  14.403  69.123  1.00  0.00    -0.011 A  
ENDBRANCH   9  10
ENDBRANCH   7   9
TORSDOF 2
ENDMDL
MODEL       40
REMARK 921   NORMALIZED FREE ENERGY PREDICTED BY IDOCK:   -5.66 KCAL/MOL
REMARK 922        TOTAL FREE ENERGY PREDICTED BY IDOCK:   -6.84 KCAL/MOL
REMARK 923 INTER-LIGAND FREE ENERGY PREDICTED BY IDOCK:   -6.36 KCAL/MOL
REMARK 924 INTRA-LIGAND FREE ENERGY PREDICTED BY IDOCK:   -0.47 KCAL/MOL
REMARK 927      BINDING AFFINITY PREDICTED BY RF-SCORE:    0.00 PKD
ROOT
HETATM    1  C   UNL     1      -8.921  19.135  66.225  1.00  0.00    -0.309 C  
HETATM    2  N   UNL     1      -9.146  17.953  67.176  1.00  0.00    -0.247 N  
HETATM    3  C   UNL     1     -10.607  18.006  67.648  1.00  0.00    -0.399 C  
HETATM    4  C   UNL     1      -8.185  18.131  68.356  1.00  0.00    -0.303 C  
HETATM    5  C   UNL     1     -11.008  16.753  68.412  1.00  0.00    -0.325 C  
HETATM    6  C   UNL     1     -10.748  15.501  67.598  1.00  0.00    -0.302 C  
HETATM    7  C   UNL     1      -9.273  15.400  67.219  1.00  0.00    -0.207 C  
HETATM    8  C   UNL     1      -8.851  16.637  66.410  1.00  0.00    -0.302 C  
ENDROOT
BRANCH   7   9
HETATM    9  O   UNL     1      -9.106  14.186  66.466  1.00  0.00    -0.246 OA 
BRANCH   9  10
HETATM   10  C   UNL     1      -8.950  13.081  67.283  1.00  0.00    -0.212 C  
HETATM   11  O   UNL     1      -8.147  13.071  68.210  1.00  0.00    -0.143 OA 
HETATM   12  C   UNL     1      -9.890  11.894  66.866  1.00  0.00    -0.202 C  
HETATM   13  C   UNL     1     -10.336  11.118  68.121  1.00  0.00    -0.207 A  
HETATM   14  O   UNL     1     -11.056  12.525  66.279  1.00  0.00    -0.273 OA 
HETATM   15  C   UNL     1      -9.220  11.027  65.790  1.00  0.00    -0.226 A  
HETATM   16  H   UNL     1     -11.625  11.807  66.027  1.00  0.00     0.000 HD 
HETATM   17  C   UNL     1     -11.681  11.096  68.538  1.00  0.00    -0.368 A  
HETATM   18  C   UNL     1      -7.826  10.832  65.765  1.00  0.00    -0.106 A  
HETATM   19  C   UNL     1     -12.056  10.508  69.751  1.00  0.00    -0.285 A  
HETATM   20  C   UNL     1      -7.214  10.126  64.728  1.00  0.00    -0.130 A  
HETATM   21  C   UNL     1      -7.984   9.583  63.705  1.00  0.00    -0.142 A  
HETATM   22  C   UNL     1     -11.096   9.928  70.574  1.00  0.00    -0.398 A  
HETATM   23  C   UNL     1      -9.766   9.908  70.172  1.00  0.00    -0.255 A  
HETATM   24  C   UNL     1      -9.370   9.717  63.736  1.00  0.00    -0.176 A  
HETATM   25  C   UNL     1      -9.985  10.415  64.777  1.00  0.00    -0.409 A  
HETATM   26  C   UNL     1      -9.392  10.485  68.954  1.00  0.00    -0.192 A  
ENDBRANCH   9  10
ENDBRANCH   7   9
TORSDOF 2
ENDMDL
MODEL       41
REMARK 921   NORMALIZED FREE ENERGY PREDICTED BY IDOCK:   -5.64 KCAL/MOL
REMARK 922        TOTAL FREE ENERGY PREDICTED BY IDOCK:   -6.81 KCAL/MOL
REMARK 923 INTER-LIGAND FREE ENERGY PREDICTED BY IDOCK:   -6.64 KCAL/MOL
REMARK 924 INTRA-LIGAND FREE ENERGY PREDICTED BY IDOCK:   -0.17 KCAL/MOL
REMARK 927      BINDING AFFINITY PREDICTED BY RF-SCORE:    0.00 PKD
ROOT
HETATM    1  C   UNL     1     -12.228  13.050  63.371  1.00  0.00    -0.472 C  
HETATM    2  N   UNL     1     -11.537  13.177  64.734  1.00  0.00    -0.320 N  
HETATM    3  C   UNL     1     -12.164  14.374  65.465  1.00  0.00    -0.348 C  
HETATM    4  C   UNL     1     -10.048  13.419  64.467  1.00  0.00    -0.192 C  
HETATM    5  C   UNL     1     -11.719  14.455  66.918  1.00  0.00    -0.422 C  
HETATM    6  C   UNL     1     -12.004  13.162  67.656  1.00  0.00    -0.363 C  
HETATM    7  C   UNL     1     -11.293  11.989  66.985  1.00  0.00    -0.336 C  
HETATM    8  C   UNL     1     -11.755  11.860  65.524  1.00  0.00    -0.157 C  
ENDROOT
BRANCH   7   9
HETATM    9  O   UNL     1     -11.599  10.810  67.748  1.00  0.00    -0.521 OA 
BRANCH   9  10
HETATM   10  C   UNL     1     -10.560   9.896  67.738  1.00  0.00    -0.261 C  
HETATM   11  O   UNL     1     -10.318   9.204  66.756  1.00  0.00    -0.258 OA 
HETATM   12  C   UNL     1      -9.782   9.863  69.102  1.00  0.00    -0.198 C  
HETATM   13  C   UNL     1      -8.290   9.579  68.843  1.00  0.00    -0.121 A  
HETATM   14  O   UNL     1      -9.907  11.203  69.640  1.00  0.00    -0.400 OA 
HETATM   15  C   UNL     1     -10.453   8.889  70.082  1.00  0.00    -0.236 A  
HETATM   16  H   UNL     1      -9.436  11.184  70.465  1.00  0.00     0.000 HD 
HETATM   17  C   UNL     1      -7.296  10.537  69.119  1.00  0.00    -0.109 A  
HETATM   18  C   UNL     1     -11.090   7.717  69.634  1.00  0.00    -0.074 A  
HETATM   19  C   UNL     1      -5.962  10.325  68.752  1.00  0.00    -0.040 A  
HETATM   20  C   UNL     1     -11.783   6.887  70.518  1.00  0.00    -0.401 A  
HETATM   21  C   UNL     1     -11.835   7.202  71.872  1.00  0.00    -0.336 A  
HETATM   22  C   UNL     1      -5.592   9.151  68.104  1.00  0.00    -0.038 A  
HETATM   23  C   UNL     1      -6.547   8.175  67.849  1.00  0.00    -0.061 A  
HETATM   24  C   UNL     1     -11.168   8.328  72.348  1.00  0.00    -0.451 A  
HETATM   25  C   UNL     1     -10.467   9.153  71.466  1.00  0.00    -0.422 A  
HETATM   26  C   UNL     1      -7.878   8.381  68.225  1.00  0.00    -0.110 A  
ENDBRANCH   9  10
ENDBRANCH   7   9
TORSDOF 2
ENDMDL
MODEL       42
REMARK 921   NORMALIZED FREE ENERGY PREDICTED BY IDOCK:   -5.59 KCAL/MOL
REMARK 922        TOTAL FREE ENERGY PREDICTED BY IDOCK:   -6.76 KCAL/MOL
REMARK 923 INTER-LIGAND FREE ENERGY PREDICTED BY IDOCK:   -6.39 KCAL/MOL
REMARK 924 INTRA-LIGAND FREE ENERGY PREDICTED BY IDOCK:   -0.37 KCAL/MOL
REMARK 927      BINDING AFFINITY PREDICTED BY RF-SCORE:    0.00 PKD
ROOT
HETATM    1  C   UNL     1      -9.877  19.235  68.521  1.00  0.00    -0.424 C  
HETATM    2  N   UNL     1      -9.081  17.970  68.176  1.00  0.00    -0.269 N  
HETATM    3  C   UNL     1      -7.723  18.063  68.888  1.00  0.00    -0.204 C  
HETATM    4  C   UNL     1      -8.899  17.950  66.655  1.00  0.00    -0.268 C  
HETATM    5  C   UNL     1      -6.942  16.760  68.806  1.00  0.00    -0.197 C  
HETATM    6  C   UNL     1      -7.753  15.595  69.338  1.00  0.00    -0.218 C  
HETATM    7  C   UNL     1      -9.056  15.442  68.558  1.00  0.00    -0.197 C  
HETATM    8  C   UNL     1      -9.884  16.733  68.658  1.00  0.00    -0.261 C  
ENDROOT
BRANCH   7   9
HETATM    9  O   UNL     1      -9.755  14.313  69.110  1.00  0.00    -0.098 OA 
BRANCH   9  10
HETATM   10  C   UNL     1     -10.307  13.508  68.128  1.00  0.00    -0.247 C  
HETATM   11  O   UNL     1     -11.153  13.929  67.348  1.00  0.00    -0.286 OA 
HETATM   12  C   UNL     1      -9.733  12.047  68.165  1.00  0.00    -0.199 C  
HETATM   13  C   UNL     1      -9.651  11.485  66.732  1.00  0.00    -0.203 A  
HETATM   14  O   UNL     1      -8.385  12.184  68.681  1.00  0.00    -0.284 OA 
HETATM   15  C   UNL     1     -10.536  11.176  69.143  1.00  0.00    -0.211 A  
HETATM   16  H   UNL     1      -8.038  11.300  68.703  1.00  0.00     0.000 HD 
HETATM   17  C   UNL     1      -8.416  11.189  66.123  1.00  0.00    -0.156 A  
HETATM   18  C   UNL     1     -11.916  11.370  69.338  1.00  0.00    -0.407 A  
HETATM   19  C   UNL     1      -8.342  10.813  64.777  1.00  0.00     0.004 A  
HETATM   20  C   UNL     1     -12.619  10.643  70.300  1.00  0.00    -0.333 A  
HETATM   21  C   UNL     1     -11.961   9.692  71.073  1.00  0.00    -0.427 A  
HETATM   22  C   UNL     1      -9.500  10.721  64.011  1.00  0.00    -0.312 A  
HETATM   23  C   UNL     1     -10.735  10.975  64.596  1.00  0.00    -0.318 A  
HETATM   24  C   UNL     1     -10.607   9.445  70.862  1.00  0.00    -0.390 A  
HETATM   25  C   UNL     1      -9.904  10.165  69.894  1.00  0.00    -0.223 A  
HETATM   26  C   UNL     1     -10.810  11.341  65.944  1.00  0.00    -0.264 A  
ENDBRANCH   9  10
ENDBRANCH   7   9
TORSDOF 2
ENDMDL
MODEL       43
REMARK 921   NORMALIZED FREE ENERGY PREDICTED BY IDOCK:   -5.58 KCAL/MOL
REMARK 922        TOTAL FREE ENERGY PREDICTED BY IDOCK:   -6.75 KCAL/MOL
REMARK 923 INTER-LIGAND FREE ENERGY PREDICTED BY IDOCK:   -6.21 KCAL/MOL
REMARK 924 INTRA-LIGAND FREE ENERGY PREDICTED BY IDOCK:   -0.54 KCAL/MOL
REMARK 927      BINDING AFFINITY PREDICTED BY RF-SCORE:    0.00 PKD
ROOT
HETATM    1  C   UNL     1     -12.777   9.397  71.838  1.00  0.00    -0.401 C  
HETATM    2  N   UNL     1     -11.688   8.437  71.346  1.00  0.00    -0.277 N  
HETATM    3  C   UNL     1     -12.268   7.015  71.382  1.00  0.00    -0.366 C  
HETATM    4  C   UNL     1     -10.501   8.567  72.307  1.00  0.00    -0.332 C  
HETATM    5  C   UNL     1     -11.356   6.007  70.697  1.00  0.00    -0.301 C  
HETATM    6  C   UNL     1     -11.037   6.425  69.276  1.00  0.00    -0.437 C  
HETATM    7  C   UNL     1     -10.366   7.796  69.253  1.00  0.00    -0.219 C  
HETATM    8  C   UNL     1     -11.284   8.843  69.904  1.00  0.00    -0.065 C  
ENDROOT
BRANCH   7   9
HETATM    9  O   UNL     1     -10.084   8.112  67.879  1.00  0.00    -0.177 OA 
BRANCH   9  10
HETATM   10  C   UNL     1      -9.062   9.037  67.754  1.00  0.00    -0.134 C  
HETATM   11  O   UNL     1      -8.153   9.110  68.573  1.00  0.00    -0.101 OA 
HETATM   12  C   UNL     1      -9.233   9.946  66.484  1.00  0.00    -0.155 C  
HETATM   13  C   UNL     1      -7.848  10.298  65.907  1.00  0.00    -0.139 A  
HETATM   14  O   UNL     1      -9.934   9.119  65.521  1.00  0.00    -0.441 OA 
HETATM   15  C   UNL     1     -10.114  11.161  66.805  1.00  0.00    -0.255 A  
HETATM   16  H   UNL     1     -10.036   9.669  64.753  1.00  0.00     0.000 HD 
HETATM   17  C   UNL     1      -7.434   9.838  64.643  1.00  0.00    -0.134 A  
HETATM   18  C   UNL     1     -10.101  11.765  68.077  1.00  0.00    -0.198 A  
HETATM   19  C   UNL     1      -6.128  10.044  64.186  1.00  0.00    -0.132 A  
HETATM   20  C   UNL     1     -10.976  12.806  68.392  1.00  0.00    -0.281 A  
HETATM   21  C   UNL     1     -11.869  13.279  67.436  1.00  0.00    -0.413 A  
HETATM   22  C   UNL     1      -5.206  10.716  64.983  1.00  0.00    -0.152 A  
HETATM   23  C   UNL     1      -5.597  11.210  66.222  1.00  0.00    -0.149 A  
HETATM   24  C   UNL     1     -11.865  12.734  66.155  1.00  0.00    -0.484 A  
HETATM   25  C   UNL     1     -10.984  11.698  65.835  1.00  0.00    -0.334 A  
HETATM   26  C   UNL     1      -6.906  11.013  66.673  1.00  0.00    -0.137 A  
ENDBRANCH   9  10
ENDBRANCH   7   9
TORSDOF 2
ENDMDL
MODEL       44
REMARK 921   NORMALIZED FREE ENERGY PREDICTED BY IDOCK:   -5.57 KCAL/MOL
REMARK 922        TOTAL FREE ENERGY PREDICTED BY IDOCK:   -6.74 KCAL/MOL
REMARK 923 INTER-LIGAND FREE ENERGY PREDICTED BY IDOCK:   -6.27 KCAL/MOL
REMARK 924 INTRA-LIGAND FREE ENERGY PREDICTED BY IDOCK:   -0.46 KCAL/MOL
REMARK 927      BINDING AFFINITY PREDICTED BY RF-SCORE:    0.00 PKD
ROOT
HETATM    1  C   UNL     1      -7.953   7.169  69.314  1.00  0.00    -0.119 C  
HETATM    2  N   UNL     1      -8.088   8.386  68.390  1.00  0.00    -0.122 N  
HETATM    3  C   UNL     1      -8.921   7.957  67.172  1.00  0.00    -0.129 C  
HETATM    4  C   UNL     1      -6.673   8.793  67.968  1.00  0.00    -0.069 C  
HETATM    5  C   UNL     1      -9.314   9.141  66.301  1.00  0.00    -0.274 C  
HETATM    6  C   UNL     1     -10.039  10.202  67.105  1.00  0.00    -0.260 C  
HETATM    7  C   UNL     1      -9.166  10.701  68.254  1.00  0.00    -0.153 C  
HETATM    8  C   UNL     1      -8.786   9.528  69.173  1.00  0.00    -0.147 C  
ENDROOT
BRANCH   7   9
HETATM    9  O   UNL     1      -9.915  11.709  68.955  1.00  0.00    -0.168 OA 
BRANCH   9  10
HETATM   10  C   UNL     1      -9.959  12.905  68.259  1.00  0.00    -0.234 C  
HETATM   11  O   UNL     1      -8.946  13.426  67.805  1.00  0.00    -0.184 OA 
HETATM   12  C   UNL     1     -11.417  13.478  68.154  1.00  0.00    -0.303 C  
HETATM   13  C   UNL     1     -11.593  14.205  66.806  1.00  0.00    -0.409 A  
HETATM   14  O   UNL     1     -12.282  12.315  68.164  1.00  0.00    -0.349 OA 
HETATM   15  C   UNL     1     -11.750  14.335  69.385  1.00  0.00    -0.363 A  
HETATM   16  H   UNL     1     -13.163  12.662  68.099  1.00  0.00     0.000 HD 
HETATM   17  C   UNL     1     -12.476  13.728  65.819  1.00  0.00    -0.527 A  
HETATM   18  C   UNL     1     -10.765  15.097  70.040  1.00  0.00    -0.259 A  
HETATM   19  C   UNL     1     -12.527  14.311  64.547  1.00  0.00    -0.357 A  
HETATM   20  C   UNL     1     -11.052  15.794  71.215  1.00  0.00    -0.264 A  
HETATM   21  C   UNL     1     -12.336  15.759  71.748  1.00  0.00    -0.523 A  
HETATM   22  C   UNL     1     -11.699  15.385  64.236  1.00  0.00    -0.212 A  
HETATM   23  C   UNL     1     -10.842  15.897  65.203  1.00  0.00    -0.438 A  
HETATM   24  C   UNL     1     -13.341  15.055  71.090  1.00  0.00    -0.510 A  
HETATM   25  C   UNL     1     -13.057  14.365  69.910  1.00  0.00     0.410 A  
HETATM   26  C   UNL     1     -10.799  15.321  66.477  1.00  0.00    -0.311 A  
ENDBRANCH   9  10
ENDBRANCH   7   9
TORSDOF 2
ENDMDL
MODEL       45
REMARK 921   NORMALIZED FREE ENERGY PREDICTED BY IDOCK:   -5.56 KCAL/MOL
REMARK 922        TOTAL FREE ENERGY PREDICTED BY IDOCK:   -6.73 KCAL/MOL
REMARK 923 INTER-LIGAND FREE ENERGY PREDICTED BY IDOCK:   -6.57 KCAL/MOL
REMARK 924 INTRA-LIGAND FREE ENERGY PREDICTED BY IDOCK:   -0.16 KCAL/MOL
REMARK 927      BINDING AFFINITY PREDICTED BY RF-SCORE:    0.00 PKD
ROOT
HETATM    1  C   UNL     1      -8.931   6.001  70.323  1.00  0.00    -0.148 C  
HETATM    2  N   UNL     1     -10.147   6.921  70.160  1.00  0.00    -0.182 N  
HETATM    3  C   UNL     1     -10.910   6.928  71.494  1.00  0.00    -0.230 C  
HETATM    4  C   UNL     1     -11.012   6.335  69.040  1.00  0.00    -0.372 C  
HETATM    5  C   UNL     1     -12.005   7.985  71.523  1.00  0.00    -0.331 C  
HETATM    6  C   UNL     1     -11.452   9.361  71.209  1.00  0.00    -0.433 C  
HETATM    7  C   UNL     1     -10.785   9.376  69.836  1.00  0.00    -0.234 C  
HETATM    8  C   UNL     1      -9.647   8.343  69.793  1.00  0.00    -0.170 C  
ENDROOT
BRANCH   7   9
HETATM    9  O   UNL     1     -10.303  10.712  69.608  1.00  0.00    -0.216 OA 
BRANCH   9  10
HETATM   10  C   UNL     1     -10.209  11.011  68.260  1.00  0.00    -0.176 C  
HETATM   11  O   UNL     1     -10.222  10.136  67.402  1.00  0.00    -0.193 OA 
HETATM   12  C   UNL     1     -10.075  12.554  68.001  1.00  0.00    -0.220 C  
HETATM   13  C   UNL     1     -10.792  12.925  66.688  1.00  0.00    -0.288 A  
HETATM   14  O   UNL     1     -10.779  13.184  69.101  1.00  0.00    -0.410 OA 
HETATM   15  C   UNL     1      -8.602  12.986  68.064  1.00  0.00    -0.186 A  
HETATM   16  H   UNL     1     -10.698  14.117  68.944  1.00  0.00     0.000 HD 
HETATM   17  C   UNL     1     -11.935  13.747  66.676  1.00  0.00    -0.469 A  
HETATM   18  C   UNL     1      -7.567  12.132  67.640  1.00  0.00    -0.140 A  
HETATM   19  C   UNL     1     -12.661  13.964  65.499  1.00  0.00    -0.560 A  
HETATM   20  C   UNL     1      -6.226  12.492  67.791  1.00  0.00    -0.119 A  
HETATM   21  C   UNL     1      -5.894  13.720  68.351  1.00  0.00    -0.100 A  
HETATM   22  C   UNL     1     -12.258  13.368  64.309  1.00  0.00    -0.450 A  
HETATM   23  C   UNL     1     -11.115  12.579  64.286  1.00  0.00    -0.403 A  
HETATM   24  C   UNL     1      -6.901  14.604  68.730  1.00  0.00    -0.095 A  
HETATM   25  C   UNL     1      -8.242  14.250  68.571  1.00  0.00    -0.145 A  
HETATM   26  C   UNL     1     -10.383  12.370  65.459  1.00  0.00    -0.298 A  
ENDBRANCH   9  10
ENDBRANCH   7   9
TORSDOF 2
ENDMDL
MODEL       46
REMARK 921   NORMALIZED FREE ENERGY PREDICTED BY IDOCK:   -5.55 KCAL/MOL
REMARK 922        TOTAL FREE ENERGY PREDICTED BY IDOCK:   -6.72 KCAL/MOL
REMARK 923 INTER-LIGAND FREE ENERGY PREDICTED BY IDOCK:   -7.48 KCAL/MOL
REMARK 924 INTRA-LIGAND FREE ENERGY PREDICTED BY IDOCK:    0.76 KCAL/MOL
REMARK 927      BINDING AFFINITY PREDICTED BY RF-SCORE:    0.00 PKD
ROOT
HETATM    1  C   UNL     1     -13.184  12.809  72.168  1.00  0.00    -0.441 C  
HETATM    2  N   UNL     1     -13.018  14.246  71.658  1.00  0.00    -0.328 N  
HETATM    3  C   UNL     1     -11.823  14.869  72.396  1.00  0.00    -0.263 C  
HETATM    4  C   UNL     1     -14.313  14.996  71.984  1.00  0.00    -0.573 C  
HETATM    5  C   UNL     1     -11.421  16.212  71.806  1.00  0.00    -0.386 C  
HETATM    6  C   UNL     1     -11.139  16.101  70.320  1.00  0.00    -0.375 C  
HETATM    7  C   UNL     1     -12.365  15.579  69.575  1.00  0.00    -0.153 C  
HETATM    8  C   UNL     1     -12.770  14.202  70.127  1.00  0.00    -0.172 C  
ENDROOT
BRANCH   7   9
HETATM    9  O   UNL     1     -12.024  15.516  68.180  1.00  0.00    -0.233 OA 
BRANCH   9  10
HETATM   10  C   UNL     1     -11.335  14.359  67.861  1.00  0.00    -0.301 C  
HETATM   11  O   UNL     1     -11.541  13.303  68.448  1.00  0.00    -0.292 OA 
HETATM   12  C   UNL     1     -10.294  14.584  66.707  1.00  0.00    -0.269 C  
HETATM   13  C   UNL     1     -10.197  13.314  65.840  1.00  0.00    -0.295 A  
HETATM   14  O   UNL     1     -10.852  15.650  65.898  1.00  0.00    -0.326 OA 
HETATM   15  C   UNL     1      -8.952  15.066  67.278  1.00  0.00    -0.212 A  
HETATM   16  H   UNL     1     -10.222  15.785  65.200  1.00  0.00     0.000 HD 
HETATM   17  C   UNL     1     -10.612  13.303  64.495  1.00  0.00    -0.437 A  
HETATM   18  C   UNL     1      -8.491  14.638  68.536  1.00  0.00    -0.161 A  
HETATM   19  C   UNL     1     -10.652  12.115  63.756  1.00  0.00    -0.482 A  
HETATM   20  C   UNL     1      -7.320  15.156  69.092  1.00  0.00    -0.167 A  
HETATM   21  C   UNL     1      -6.575  16.099  68.392  1.00  0.00    -0.127 A  
HETATM   22  C   UNL     1     -10.275  10.912  64.345  1.00  0.00    -0.423 A  
HETATM   23  C   UNL     1      -9.830  10.899  65.661  1.00  0.00    -0.292 A  
HETATM   24  C   UNL     1      -6.983  16.500  67.123  1.00  0.00    -0.230 A  
HETATM   25  C   UNL     1      -8.149  15.976  66.562  1.00  0.00    -0.304 A  
HETATM   26  C   UNL     1      -9.780  12.088  66.396  1.00  0.00    -0.239 A  
ENDBRANCH   9  10
ENDBRANCH   7   9
TORSDOF 2
ENDMDL
MODEL       47
REMARK 921   NORMALIZED FREE ENERGY PREDICTED BY IDOCK:   -5.55 KCAL/MOL
REMARK 922        TOTAL FREE ENERGY PREDICTED BY IDOCK:   -6.72 KCAL/MOL
REMARK 923 INTER-LIGAND FREE ENERGY PREDICTED BY IDOCK:   -6.63 KCAL/MOL
REMARK 924 INTRA-LIGAND FREE ENERGY PREDICTED BY IDOCK:   -0.08 KCAL/MOL
REMARK 927      BINDING AFFINITY PREDICTED BY RF-SCORE:    0.00 PKD
ROOT
HETATM    1  C   UNL     1     -11.682   6.517  71.164  1.00  0.00    -0.335 C  
HETATM    2  N   UNL     1     -10.725   7.141  70.142  1.00  0.00    -0.234 N  
HETATM    3  C   UNL     1     -11.161   6.671  68.746  1.00  0.00    -0.227 C  
HETATM    4  C   UNL     1      -9.317   6.635  70.473  1.00  0.00    -0.166 C  
HETATM    5  C   UNL     1     -10.426   7.410  67.637  1.00  0.00    -0.310 C  
HETATM    6  C   UNL     1     -10.583   8.911  67.776  1.00  0.00    -0.266 C  
HETATM    7  C   UNL     1     -10.052   9.389  69.125  1.00  0.00    -0.195 C  
HETATM    8  C   UNL     1     -10.806   8.685  70.265  1.00  0.00    -0.235 C  
ENDROOT
BRANCH   7   9
HETATM    9  O   UNL     1     -10.222  10.815  69.172  1.00  0.00    -0.208 OA 
BRANCH   9  10
HETATM   10  C   UNL     1      -9.936  11.417  67.959  1.00  0.00    -0.182 C  
HETATM   11  O   UNL     1      -8.936  11.124  67.313  1.00  0.00    -0.145 OA 
HETATM   12  C   UNL     1     -11.013  12.485  67.555  1.00  0.00    -0.251 C  
HETATM   13  C   UNL     1     -11.187  12.495  66.023  1.00  0.00    -0.354 A  
HETATM   14  O   UNL     1     -12.249  12.020  68.153  1.00  0.00    -0.428 OA 
HETATM   15  C   UNL     1     -10.670  13.853  68.162  1.00  0.00    -0.260 A  
HETATM   16  H   UNL     1     -12.900  12.666  67.908  1.00  0.00     0.000 HD 
HETATM   17  C   UNL     1     -12.391  12.095  65.413  1.00  0.00     0.002 A  
HETATM   18  C   UNL     1      -9.337  14.266  68.342  1.00  0.00    -0.208 A  
HETATM   19  C   UNL     1     -12.495  11.973  64.023  1.00  0.00    -0.492 A  
HETATM   20  C   UNL     1      -9.032  15.467  68.985  1.00  0.00    -0.237 A  
HETATM   21  C   UNL     1     -10.055  16.290  69.444  1.00  0.00    -0.253 A  
HETATM   22  C   UNL     1     -11.399  12.249  63.212  1.00  0.00    -0.414 A  
HETATM   23  C   UNL     1     -10.208  12.677  63.786  1.00  0.00    -0.281 A  
HETATM   24  C   UNL     1     -11.383  15.929  69.232  1.00  0.00    -0.355 A  
HETATM   25  C   UNL     1     -11.689  14.733  68.581  1.00  0.00    -0.356 A  
HETATM   26  C   UNL     1     -10.107  12.810  65.174  1.00  0.00    -0.246 A  
ENDBRANCH   9  10
ENDBRANCH   7   9
TORSDOF 2
ENDMDL
MODEL       48
REMARK 921   NORMALIZED FREE ENERGY PREDICTED BY IDOCK:   -5.54 KCAL/MOL
REMARK 922        TOTAL FREE ENERGY PREDICTED BY IDOCK:   -6.71 KCAL/MOL
REMARK 923 INTER-LIGAND FREE ENERGY PREDICTED BY IDOCK:   -6.05 KCAL/MOL
REMARK 924 INTRA-LIGAND FREE ENERGY PREDICTED BY IDOCK:   -0.66 KCAL/MOL
REMARK 927      BINDING AFFINITY PREDICTED BY RF-SCORE:    0.00 PKD
ROOT
HETATM    1  C   UNL     1      -7.639  10.062  66.741  1.00  0.00    -0.103 C  
HETATM    2  N   UNL     1      -7.212  11.195  67.682  1.00  0.00    -0.091 N  
HETATM    3  C   UNL     1      -5.717  11.010  67.988  1.00  0.00    -0.042 C  
HETATM    4  C   UNL     1      -8.050  11.066  68.957  1.00  0.00    -0.104 C  
HETATM    5  C   UNL     1      -5.131  12.206  68.725  1.00  0.00    -0.050 C  
HETATM    6  C   UNL     1      -5.372  13.495  67.965  1.00  0.00    -0.114 C  
HETATM    7  C   UNL     1      -6.866  13.728  67.754  1.00  0.00    -0.173 C  
HETATM    8  C   UNL     1      -7.476  12.551  66.976  1.00  0.00    -0.003 C  
ENDROOT
BRANCH   7   9
HETATM    9  O   UNL     1      -7.010  14.970  67.044  1.00  0.00    -0.202 OA 
BRANCH   9  10
HETATM   10  C   UNL     1      -7.800  15.876  67.731  1.00  0.00    -0.139 C  
HETATM   11  O   UNL     1      -7.431  16.387  68.782  1.00  0.00    -0.181 OA 
HETATM   12  C   UNL     1      -9.174  16.131  67.015  1.00  0.00    -0.211 C  
HETATM   13  C   UNL     1      -9.606  17.595  67.227  1.00  0.00    -0.271 A  
HETATM   14  O   UNL     1      -8.906  15.933  65.604  1.00  0.00    -0.270 OA 
HETATM   15  C   UNL     1     -10.214  15.092  67.457  1.00  0.00    -0.234 A  
HETATM   16  H   UNL     1      -9.737  16.088  65.170  1.00  0.00     0.000 HD 
HETATM   17  C   UNL     1      -9.692  18.504  66.155  1.00  0.00    -0.241 A  
HETATM   18  C   UNL     1     -10.215  14.559  68.759  1.00  0.00    -0.244 A  
HETATM   19  C   UNL     1      -9.949  19.862  66.374  1.00  0.00    -0.593 A  
HETATM   20  C   UNL     1     -11.100  13.543  69.124  1.00  0.00    -0.271 A  
HETATM   21  C   UNL     1     -12.016  13.052  68.201  1.00  0.00    -0.322 A  
HETATM   22  C   UNL     1     -10.129  20.342  67.667  1.00  0.00    -0.515 A  
HETATM   23  C   UNL     1     -10.082  19.460  68.741  1.00  0.00    -0.504 A  
HETATM   24  C   UNL     1     -12.070  13.599  66.921  1.00  0.00    -0.431 A  
HETATM   25  C   UNL     1     -11.192  14.622  66.557  1.00  0.00    -0.346 A  
HETATM   26  C   UNL     1      -9.836  18.101  68.522  1.00  0.00    -0.393 A  
ENDBRANCH   9  10
ENDBRANCH   7   9
TORSDOF 2
ENDMDL
MODEL       49
REMARK 921   NORMALIZED FREE ENERGY PREDICTED BY IDOCK:   -5.54 KCAL/MOL
REMARK 922        TOTAL FREE ENERGY PREDICTED BY IDOCK:   -6.70 KCAL/MOL
REMARK 923 INTER-LIGAND FREE ENERGY PREDICTED BY IDOCK:   -7.51 KCAL/MOL
REMARK 924 INTRA-LIGAND FREE ENERGY PREDICTED BY IDOCK:    0.81 KCAL/MOL
REMARK 927      BINDING AFFINITY PREDICTED BY RF-SCORE:    0.00 PKD
ROOT
HETATM    1  C   UNL     1     -11.962  17.247  73.792  1.00  0.00     0.328 C  
HETATM    2  N   UNL     1     -12.430  15.888  73.257  1.00  0.00    -0.467 N  
HETATM    3  C   UNL     1     -13.901  16.033  72.836  1.00  0.00    -0.339 C  
HETATM    4  C   UNL     1     -12.286  14.877  74.398  1.00  0.00    -0.080 C  
HETATM    5  C   UNL     1     -14.402  14.814  72.076  1.00  0.00    -0.642 C  
HETATM    6  C   UNL     1     -13.525  14.509  70.879  1.00  0.00    -0.266 C  
HETATM    7  C   UNL     1     -12.083  14.263  71.313  1.00  0.00    -0.316 C  
HETATM    8  C   UNL     1     -11.537  15.497  72.050  1.00  0.00    -0.456 C  
ENDROOT
BRANCH   7   9
HETATM    9  O   UNL     1     -11.323  13.968  70.129  1.00  0.00    -0.178 OA 
BRANCH   9  10
HETATM   10  C   UNL     1     -11.288  15.037  69.250  1.00  0.00    -0.296 C  
HETATM   11  O   UNL     1     -12.090  15.961  69.325  1.00  0.00    -0.329 OA 
HETATM   12  C   UNL     1     -10.142  14.896  68.186  1.00  0.00    -0.222 C  
HETATM   13  C   UNL     1      -9.582  16.289  67.838  1.00  0.00    -0.227 A  
HETATM   14  O   UNL     1      -9.101  14.137  68.851  1.00  0.00    -0.354 OA 
HETATM   15  C   UNL     1     -10.627  14.087  66.974  1.00  0.00    -0.279 A  
HETATM   16  H   UNL     1      -8.408  14.052  68.207  1.00  0.00     0.000 HD 
HETATM   17  C   UNL     1      -8.262  16.658  68.161  1.00  0.00    -0.192 A  
HETATM   18  C   UNL     1     -11.961  14.152  66.532  1.00  0.00    -0.466 A  
HETATM   19  C   UNL     1      -7.805  17.967  67.969  1.00  0.00    -0.251 A  
HETATM   20  C   UNL     1     -12.419  13.340  65.493  1.00  0.00    -0.531 A  
HETATM   21  C   UNL     1     -11.547  12.459  64.861  1.00  0.00    -0.392 A  
HETATM   22  C   UNL     1      -8.657  18.935  67.447  1.00  0.00    -0.293 A  
HETATM   23  C   UNL     1      -9.955  18.591  67.089  1.00  0.00    -0.357 A  
HETATM   24  C   UNL     1     -10.209  12.414  65.246  1.00  0.00    -0.306 A  
HETATM   25  C   UNL     1      -9.748  13.233  66.278  1.00  0.00    -0.274 A  
HETATM   26  C   UNL     1     -10.408  17.280  67.271  1.00  0.00    -0.331 A  
ENDBRANCH   9  10
ENDBRANCH   7   9
TORSDOF 2
ENDMDL
MODEL       50
REMARK 921   NORMALIZED FREE ENERGY PREDICTED BY IDOCK:   -5.52 KCAL/MOL
REMARK 922        TOTAL FREE ENERGY PREDICTED BY IDOCK:   -6.68 KCAL/MOL
REMARK 923 INTER-LIGAND FREE ENERGY PREDICTED BY IDOCK:   -6.07 KCAL/MOL
REMARK 924 INTRA-LIGAND FREE ENERGY PREDICTED BY IDOCK:   -0.61 KCAL/MOL
REMARK 927      BINDING AFFINITY PREDICTED BY RF-SCORE:    0.00 PKD
ROOT
HETATM    1  C   UNL     1     -11.013  15.144  66.824  1.00  0.00    -0.321 C  
HETATM    2  N   UNL     1     -10.881  14.479  68.199  1.00  0.00    -0.236 N  
HETATM    3  C   UNL     1     -11.784  15.245  69.177  1.00  0.00    -0.335 C  
HETATM    4  C   UNL     1      -9.411  14.586  68.616  1.00  0.00    -0.199 C  
HETATM    5  C   UNL     1     -11.912  14.534  70.516  1.00  0.00    -0.387 C  
HETATM    6  C   UNL     1     -12.393  13.107  70.341  1.00  0.00    -0.351 C  
HETATM    7  C   UNL     1     -11.436  12.319  69.451  1.00  0.00    -0.277 C  
HETATM    8  C   UNL     1     -11.319  12.996  68.075  1.00  0.00    -0.290 C  
ENDROOT
BRANCH   7   9
HETATM    9  O   UNL     1     -11.951  10.981  69.347  1.00  0.00    -0.306 OA 
BRANCH   9  10
HETATM   10  C   UNL     1     -11.104  10.048  69.918  1.00  0.00    -0.288 C  
HETATM   11  O   UNL     1     -10.976   9.951  71.134  1.00  0.00    -0.333 OA 
HETATM   12  C   UNL     1     -10.355   9.185  68.841  1.00  0.00    -0.214 C  
HETATM   13  C   UNL     1     -10.151   7.753  69.373  1.00  0.00    -0.195 A  
HETATM   14  O   UNL     1     -11.259   9.128  67.709  1.00  0.00    -0.474 OA 
HETATM   15  C   UNL     1      -9.065   9.884  68.391  1.00  0.00    -0.123 A  
HETATM   16  H   UNL     1     -10.806   8.605  67.057  1.00  0.00     0.000 HD 
HETATM   17  C   UNL     1     -10.787   6.645  68.781  1.00  0.00    -0.321 A  
HETATM   18  C   UNL     1      -8.307  10.673  69.277  1.00  0.00    -0.112 A  
HETATM   19  C   UNL     1     -10.708   5.371  69.353  1.00  0.00    -0.226 A  
HETATM   20  C   UNL     1      -7.191  11.386  68.836  1.00  0.00    -0.113 A  
HETATM   21  C   UNL     1      -6.797  11.309  67.505  1.00  0.00    -0.086 A  
HETATM   22  C   UNL     1      -9.989   5.174  70.528  1.00  0.00    -0.304 A  
HETATM   23  C   UNL     1      -9.324   6.243  71.115  1.00  0.00    -0.169 A  
HETATM   24  C   UNL     1      -7.499  10.495  66.620  1.00  0.00    -0.120 A  
HETATM   25  C   UNL     1      -8.610   9.774  67.062  1.00  0.00    -0.127 A  
HETATM   26  C   UNL     1      -9.394   7.515  70.538  1.00  0.00    -0.160 A  
ENDBRANCH   9  10
ENDBRANCH   7   9
TORSDOF 2
ENDMDL
MODEL       51
REMARK 921   NORMALIZED FREE ENERGY PREDICTED BY IDOCK:   -5.51 KCAL/MOL
REMARK 922        TOTAL FREE ENERGY PREDICTED BY IDOCK:   -6.67 KCAL/MOL
REMARK 923 INTER-LIGAND FREE ENERGY PREDICTED BY IDOCK:   -6.06 KCAL/MOL
REMARK 924 INTRA-LIGAND FREE ENERGY PREDICTED BY IDOCK:   -0.61 KCAL/MOL
REMARK 927      BINDING AFFINITY PREDICTED BY RF-SCORE:    0.00 PKD
ROOT
HETATM    1  C   UNL     1     -11.315  11.922  65.314  1.00  0.00    -0.275 C  
HETATM    2  N   UNL     1     -10.978  12.230  66.778  1.00  0.00    -0.263 N  
HETATM    3  C   UNL     1     -11.787  13.469  67.193  1.00  0.00    -0.387 C  
HETATM    4  C   UNL     1      -9.474  12.512  66.848  1.00  0.00    -0.219 C  
HETATM    5  C   UNL     1     -11.710  13.729  68.690  1.00  0.00    -0.391 C  
HETATM    6  C   UNL     1     -12.140  12.512  69.485  1.00  0.00    -0.248 C  
HETATM    7  C   UNL     1     -11.265  11.308  69.146  1.00  0.00    -0.273 C  
HETATM    8  C   UNL     1     -11.355  10.999  67.643  1.00  0.00    -0.281 C  
ENDROOT
BRANCH   7   9
HETATM    9  O   UNL     1     -11.724  10.206  69.948  1.00  0.00    -0.237 OA 
BRANCH   9  10
HETATM   10  C   UNL     1     -10.677   9.493  70.505  1.00  0.00    -0.298 C  
HETATM   11  O   UNL     1      -9.691  10.052  70.972  1.00  0.00     0.177 OA 
HETATM   12  C   UNL     1     -10.913   7.942  70.443  1.00  0.00    -0.249 C  
HETATM   13  C   UNL     1     -10.300   7.272  71.689  1.00  0.00    -0.214 A  
HETATM   14  O   UNL     1     -12.352   7.777  70.497  1.00  0.00    -0.502 OA 
HETATM   15  C   UNL     1     -10.414   7.373  69.107  1.00  0.00    -0.217 A  
HETATM   16  H   UNL     1     -12.495   6.839  70.460  1.00  0.00     0.000 HD 
HETATM   17  C   UNL     1     -11.100   6.635  72.656  1.00  0.00    -0.291 A  
HETATM   18  C   UNL     1      -9.297   7.917  68.446  1.00  0.00    -0.140 A  
HETATM   19  C   UNL     1     -10.552   6.154  73.850  1.00  0.00    -0.230 A  
HETATM   20  C   UNL     1      -8.909   7.461  67.186  1.00  0.00    -0.126 A  
HETATM   21  C   UNL     1      -9.617   6.436  66.568  1.00  0.00    -0.185 A  
HETATM   22  C   UNL     1      -9.191   6.296  74.103  1.00  0.00    -0.164 A  
HETATM   23  C   UNL     1      -8.372   6.892  73.151  1.00  0.00    -0.127 A  
HETATM   24  C   UNL     1     -10.694   5.845  67.224  1.00  0.00    -0.380 A  
HETATM   25  C   UNL     1     -11.078   6.294  68.489  1.00  0.00    -0.397 A  
HETATM   26  C   UNL     1      -8.918   7.363  71.953  1.00  0.00    -0.140 A  
ENDBRANCH   9  10
ENDBRANCH   7   9
TORSDOF 2
ENDMDL
MODEL       52
REMARK 921   NORMALIZED FREE ENERGY PREDICTED BY IDOCK:   -5.48 KCAL/MOL
REMARK 922        TOTAL FREE ENERGY PREDICTED BY IDOCK:   -6.64 KCAL/MOL
REMARK 923 INTER-LIGAND FREE ENERGY PREDICTED BY IDOCK:   -7.02 KCAL/MOL
REMARK 924 INTRA-LIGAND FREE ENERGY PREDICTED BY IDOCK:    0.38 KCAL/MOL
REMARK 927      BINDING AFFINITY PREDICTED BY RF-SCORE:    0.00 PKD
ROOT
HETATM    1  C   UNL     1      -9.513   7.738  72.031  1.00  0.00    -0.163 C  
HETATM    2  N   UNL     1     -10.733   8.333  71.318  1.00  0.00    -0.221 N  
HETATM    3  C   UNL     1     -11.797   8.634  72.385  1.00  0.00    -0.331 C  
HETATM    4  C   UNL     1     -11.238   7.279  70.327  1.00  0.00    -0.262 C  
HETATM    5  C   UNL     1     -12.959   9.440  71.825  1.00  0.00    -0.484 C  
HETATM    6  C   UNL     1     -12.479  10.717  71.164  1.00  0.00    -0.523 C  
HETATM    7  C   UNL     1     -11.501  10.407  70.034  1.00  0.00    -0.308 C  
HETATM    8  C   UNL     1     -10.295   9.626  70.582  1.00  0.00    -0.297 C  
ENDROOT
BRANCH   7   9
HETATM    9  O   UNL     1     -11.106  11.662  69.453  1.00  0.00    -0.244 OA 
BRANCH   9  10
HETATM   10  C   UNL     1     -10.049  11.520  68.571  1.00  0.00    -0.207 C  
HETATM   11  O   UNL     1      -8.888  11.707  68.918  1.00  0.00    -0.061 OA 
HETATM   12  C   UNL     1     -10.526  11.120  67.129  1.00  0.00    -0.231 C  
HETATM   13  C   UNL     1      -9.482  10.196  66.474  1.00  0.00    -0.214 A  
HETATM   14  O   UNL     1     -11.745  10.362  67.332  1.00  0.00    -0.435 OA 
HETATM   15  C   UNL     1     -10.870  12.372  66.308  1.00  0.00    -0.299 A  
HETATM   16  H   UNL     1     -12.034  10.120  66.460  1.00  0.00     0.000 HD 
HETATM   17  C   UNL     1      -9.771   8.853  66.166  1.00  0.00    -0.338 A  
HETATM   18  C   UNL     1     -10.172  13.581  66.483  1.00  0.00    -0.283 A  
HETATM   19  C   UNL     1      -8.778   7.984  65.702  1.00  0.00    -0.156 A  
HETATM   20  C   UNL     1     -10.554  14.741  65.806  1.00  0.00    -0.338 A  
HETATM   21  C   UNL     1     -11.630  14.710  64.925  1.00  0.00    -0.405 A  
HETATM   22  C   UNL     1      -7.474   8.438  65.531  1.00  0.00    -0.085 A  
HETATM   23  C   UNL     1      -7.168   9.768  65.795  1.00  0.00    -0.104 A  
HETATM   24  C   UNL     1     -12.303  13.514  64.696  1.00  0.00    -0.419 A  
HETATM   25  C   UNL     1     -11.917  12.351  65.365  1.00  0.00    -0.457 A  
HETATM   26  C   UNL     1      -8.163  10.639  66.250  1.00  0.00    -0.153 A  
ENDBRANCH   9  10
ENDBRANCH   7   9
TORSDOF 2
ENDMDL
MODEL       53
REMARK 921   NORMALIZED FREE ENERGY PREDICTED BY IDOCK:   -5.48 KCAL/MOL
REMARK 922        TOTAL FREE ENERGY PREDICTED BY IDOCK:   -6.63 KCAL/MOL
REMARK 923 INTER-LIGAND FREE ENERGY PREDICTED BY IDOCK:   -6.11 KCAL/MOL
REMARK 924 INTRA-LIGAND FREE ENERGY PREDICTED BY IDOCK:   -0.52 KCAL/MOL
REMARK 927      BINDING AFFINITY PREDICTED BY RF-SCORE:    0.00 PKD
ROOT
HETATM    1  C   UNL     1     -10.784  13.444  64.638  1.00  0.00    -0.411 C  
HETATM    2  N   UNL     1     -10.406  12.672  65.908  1.00  0.00    -0.271 N  
HETATM    3  C   UNL     1     -11.544  12.860  66.924  1.00  0.00    -0.368 C  
HETATM    4  C   UNL     1      -9.100  13.276  66.434  1.00  0.00    -0.046 C  
HETATM    5  C   UNL     1     -11.386  11.951  68.135  1.00  0.00    -0.350 C  
HETATM    6  C   UNL     1     -11.263  10.498  67.723  1.00  0.00    -0.344 C  
HETATM    7  C   UNL     1     -10.068  10.298  66.795  1.00  0.00    -0.216 C  
HETATM    8  C   UNL     1     -10.222  11.176  65.543  1.00  0.00    -0.263 C  
ENDROOT
BRANCH   7   9
HETATM    9  O   UNL     1     -10.012   8.900  66.464  1.00  0.00    -0.250 OA 
BRANCH   9  10
HETATM   10  C   UNL     1      -9.450   8.144  67.478  1.00  0.00    -0.152 C  
HETATM   11  O   UNL     1      -8.504   8.555  68.141  1.00  0.00    -0.132 OA 
HETATM   12  C   UNL     1     -10.153   6.750  67.642  1.00  0.00    -0.161 C  
HETATM   13  C   UNL     1     -10.158   6.341  69.127  1.00  0.00    -0.204 A  
HETATM   14  O   UNL     1     -11.523   6.967  67.222  1.00  0.00    -0.697 OA 
HETATM   15  C   UNL     1      -9.521   5.713  66.701  1.00  0.00    -0.158 A  
HETATM   16  H   UNL     1     -11.949   6.123  67.321  1.00  0.00     0.000 HD 
HETATM   17  C   UNL     1     -11.355   6.228  69.860  1.00  0.00    -0.504 A  
HETATM   18  C   UNL     1      -8.152   5.751  66.377  1.00  0.00    -0.106 A  
HETATM   19  C   UNL     1     -11.343   5.994  71.240  1.00  0.00    -0.296 A  
HETATM   20  C   UNL     1      -7.604   4.868  65.445  1.00  0.00    -0.085 A  
HETATM   21  C   UNL     1      -8.410   3.915  64.832  1.00  0.00    -0.104 A  
HETATM   22  C   UNL     1     -10.135   5.864  71.917  1.00  0.00    -0.222 A  
HETATM   23  C   UNL     1      -8.939   5.938  71.213  1.00  0.00    -0.145 A  
HETATM   24  C   UNL     1      -9.757   3.824  65.174  1.00  0.00    -0.176 A  
HETATM   25  C   UNL     1     -10.304   4.700  66.113  1.00  0.00    -0.310 A  
HETATM   26  C   UNL     1      -8.951   6.161  69.832  1.00  0.00    -0.139 A  
ENDBRANCH   9  10
ENDBRANCH   7   9
TORSDOF 2
ENDMDL
MODEL       54
REMARK 921   NORMALIZED FREE ENERGY PREDICTED BY IDOCK:   -5.44 KCAL/MOL
REMARK 922        TOTAL FREE ENERGY PREDICTED BY IDOCK:   -6.59 KCAL/MOL
REMARK 923 INTER-LIGAND FREE ENERGY PREDICTED BY IDOCK:   -6.17 KCAL/MOL
REMARK 924 INTRA-LIGAND FREE ENERGY PREDICTED BY IDOCK:   -0.42 KCAL/MOL
REMARK 927      BINDING AFFINITY PREDICTED BY RF-SCORE:    0.00 PKD
ROOT
HETATM    1  C   UNL     1      -9.199   7.939  73.492  1.00  0.00    -0.276 C  
HETATM    2  N   UNL     1      -9.696   7.695  72.061  1.00  0.00    -0.162 N  
HETATM    3  C   UNL     1     -10.944   6.802  72.147  1.00  0.00    -0.238 C  
HETATM    4  C   UNL     1      -8.568   6.986  71.304  1.00  0.00    -0.119 C  
HETATM    5  C   UNL     1     -11.656   6.683  70.808  1.00  0.00    -0.432 C  
HETATM    6  C   UNL     1     -12.005   8.047  70.245  1.00  0.00     0.278 C  
HETATM    7  C   UNL     1     -10.749   8.895  70.064  1.00  0.00    -0.228 C  
HETATM    8  C   UNL     1     -10.030   9.063  71.412  1.00  0.00    -0.318 C  
ENDROOT
BRANCH   7   9
HETATM    9  O   UNL     1     -11.161  10.159  69.516  1.00  0.00    -0.230 OA 
BRANCH   9  10
HETATM   10  C   UNL     1     -10.841  10.276  68.174  1.00  0.00    -0.265 C  
HETATM   11  O   UNL     1     -10.770   9.297  67.439  1.00  0.00    -0.279 OA 
HETATM   12  C   UNL     1     -10.580  11.766  67.752  1.00  0.00    -0.200 C  
HETATM   13  C   UNL     1     -11.061  11.988  66.305  1.00  0.00    -0.363 A  
HETATM   14  O   UNL     1     -11.410  12.559  68.638  1.00  0.00    -0.244 OA 
HETATM   15  C   UNL     1      -9.113  12.147  67.998  1.00  0.00    -0.190 A  
HETATM   16  H   UNL     1     -11.252  13.461  68.382  1.00  0.00     0.000 HD 
HETATM   17  C   UNL     1     -12.140  12.843  66.007  1.00  0.00    -0.484 A  
HETATM   18  C   UNL     1      -8.075  11.208  67.856  1.00  0.00    -0.119 A  
HETATM   19  C   UNL     1     -12.660  12.931  64.711  1.00  0.00    -0.493 A  
HETATM   20  C   UNL     1      -6.756  11.535  68.177  1.00  0.00    -0.062 A  
HETATM   21  C   UNL     1      -6.445  12.813  68.628  1.00  0.00    -0.079 A  
HETATM   22  C   UNL     1     -12.112  12.170  63.683  1.00  0.00    -0.648 A  
HETATM   23  C   UNL     1     -11.026  11.343  63.943  1.00  0.00    -0.442 A  
HETATM   24  C   UNL     1      -7.446  13.775  68.727  1.00  0.00    -0.098 A  
HETATM   25  C   UNL     1      -8.764  13.453  68.397  1.00  0.00    -0.134 A  
HETATM   26  C   UNL     1     -10.499  11.262  65.236  1.00  0.00    -0.341 A  
ENDBRANCH   9  10
ENDBRANCH   7   9
TORSDOF 2
ENDMDL
MODEL       55
REMARK 921   NORMALIZED FREE ENERGY PREDICTED BY IDOCK:   -5.43 KCAL/MOL
REMARK 922        TOTAL FREE ENERGY PREDICTED BY IDOCK:   -6.58 KCAL/MOL
REMARK 923 INTER-LIGAND FREE ENERGY PREDICTED BY IDOCK:   -6.07 KCAL/MOL
REMARK 924 INTRA-LIGAND FREE ENERGY PREDICTED BY IDOCK:   -0.51 KCAL/MOL
REMARK 927      BINDING AFFINITY PREDICTED BY RF-SCORE:    0.00 PKD
ROOT
HETATM    1  C   UNL     1     -11.685  15.583  64.296  1.00  0.00    -0.190 C  
HETATM    2  N   UNL     1     -11.853  14.094  64.624  1.00  0.00    -0.408 N  
HETATM    3  C   UNL     1     -12.385  13.396  63.363  1.00  0.00    -0.269 C  
HETATM    4  C   UNL     1     -12.864  13.994  65.771  1.00  0.00    -0.377 C  
HETATM    5  C   UNL     1     -12.372  11.880  63.498  1.00  0.00    -0.603 C  
HETATM    6  C   UNL     1     -10.991  11.369  63.857  1.00  0.00    -0.442 C  
HETATM    7  C   UNL     1     -10.508  11.988  65.166  1.00  0.00    -0.289 C  
HETATM    8  C   UNL     1     -10.475  13.520  65.043  1.00  0.00    -0.376 C  
ENDROOT
BRANCH   7   9
HETATM    9  O   UNL     1      -9.206  11.445  65.442  1.00  0.00    -0.210 OA 
BRANCH   9  10
HETATM   10  C   UNL     1      -9.114  10.935  66.726  1.00  0.00    -0.152 C  
HETATM   11  O   UNL     1      -9.596   9.848  67.025  1.00  0.00    -0.164 OA 
HETATM   12  C   UNL     1      -8.354  11.905  67.699  1.00  0.00    -0.152 C  
HETATM   13  C   UNL     1      -7.552  11.085  68.728  1.00  0.00    -0.127 A  
HETATM   14  O   UNL     1      -7.418  12.626  66.858  1.00  0.00    -0.376 OA 
HETATM   15  C   UNL     1      -9.326  12.921  68.316  1.00  0.00    -0.194 A  
HETATM   16  H   UNL     1      -6.958  13.212  67.447  1.00  0.00     0.000 HD 
HETATM   17  C   UNL     1      -6.144  11.106  68.757  1.00  0.00    -0.043 A  
HETATM   18  C   UNL     1     -10.662  12.583  68.599  1.00  0.00    -0.263 A  
HETATM   19  C   UNL     1      -5.421  10.255  69.600  1.00  0.00    -0.038 A  
HETATM   20  C   UNL     1     -11.566  13.538  69.067  1.00  0.00    -0.356 A  
HETATM   21  C   UNL     1     -11.148  14.847  69.280  1.00  0.00    -0.284 A  
HETATM   22  C   UNL     1      -6.089   9.365  70.435  1.00  0.00    -0.054 A  
HETATM   23  C   UNL     1      -7.479   9.346  70.451  1.00  0.00    -0.141 A  
HETATM   24  C   UNL     1      -9.818  15.194  69.057  1.00  0.00    -0.238 A  
HETATM   25  C   UNL     1      -8.910  14.238  68.598  1.00  0.00    -0.150 A  
HETATM   26  C   UNL     1      -8.201  10.205  69.617  1.00  0.00    -0.176 A  
ENDBRANCH   9  10
ENDBRANCH   7   9
TORSDOF 2
ENDMDL
MODEL       56
REMARK 921   NORMALIZED FREE ENERGY PREDICTED BY IDOCK:   -5.42 KCAL/MOL
REMARK 922        TOTAL FREE ENERGY PREDICTED BY IDOCK:   -6.58 KCAL/MOL
REMARK 923 INTER-LIGAND FREE ENERGY PREDICTED BY IDOCK:   -6.76 KCAL/MOL
REMARK 924 INTRA-LIGAND FREE ENERGY PREDICTED BY IDOCK:    0.19 KCAL/MOL
REMARK 927      BINDING AFFINITY PREDICTED BY RF-SCORE:    0.00 PKD
ROOT
HETATM    1  C   UNL     1      -9.033  15.557  66.289  1.00  0.00    -0.327 C  
HETATM    2  N   UNL     1     -10.463  15.024  66.437  1.00  0.00    -0.285 N  
HETATM    3  C   UNL     1     -11.158  15.165  65.074  1.00  0.00    -0.419 C  
HETATM    4  C   UNL     1     -11.160  15.883  67.497  1.00  0.00    -0.235 C  
HETATM    5  C   UNL     1     -12.504  14.456  65.041  1.00  0.00    -0.366 C  
HETATM    6  C   UNL     1     -12.370  12.997  65.431  1.00  0.00    -0.538 C  
HETATM    7  C   UNL     1     -11.775  12.864  66.830  1.00  0.00    -0.382 C  
HETATM    8  C   UNL     1     -10.394  13.539  66.881  1.00  0.00    -0.265 C  
ENDROOT
BRANCH   7   9
HETATM    9  O   UNL     1     -11.695  11.460  67.130  1.00  0.00    -0.556 OA 
BRANCH   9  10
HETATM   10  C   UNL     1     -10.446  10.935  66.848  1.00  0.00    -0.249 C  
HETATM   11  O   UNL     1      -9.976  10.958  65.716  1.00  0.00    -0.225 OA 
HETATM   12  C   UNL     1      -9.757  10.322  68.119  1.00  0.00    -0.143 C  
HETATM   13  C   UNL     1      -8.233  10.537  68.038  1.00  0.00    -0.112 A  
HETATM   14  O   UNL     1     -10.270  11.092  69.235  1.00  0.00    -0.365 OA 
HETATM   15  C   UNL     1     -10.182   8.859  68.310  1.00  0.00    -0.239 A  
HETATM   16  H   UNL     1      -9.853  10.722  70.003  1.00  0.00     0.000 HD 
HETATM   17  C   UNL     1      -7.554  11.367  68.950  1.00  0.00    -0.114 A  
HETATM   18  C   UNL     1     -10.451   8.021  67.212  1.00  0.00    -0.384 A  
HETATM   19  C   UNL     1      -6.197  11.668  68.787  1.00  0.00    -0.052 A  
HETATM   20  C   UNL     1     -10.932   6.723  67.393  1.00  0.00    -0.407 A  
HETATM   21  C   UNL     1     -11.135   6.229  68.677  1.00  0.00    -0.409 A  
HETATM   22  C   UNL     1      -5.488  11.144  67.711  1.00  0.00    -0.040 A  
HETATM   23  C   UNL     1      -6.126  10.294  66.815  1.00  0.00    -0.062 A  
HETATM   24  C   UNL     1     -10.826   7.020  69.781  1.00  0.00    -0.276 A  
HETATM   25  C   UNL     1     -10.336   8.315  69.601  1.00  0.00    -0.218 A  
HETATM   26  C   UNL     1      -7.479   9.985  66.983  1.00  0.00    -0.092 A  
ENDBRANCH   9  10
ENDBRANCH   7   9
TORSDOF 2
ENDMDL
MODEL       57
REMARK 921   NORMALIZED FREE ENERGY PREDICTED BY IDOCK:   -5.36 KCAL/MOL
REMARK 922        TOTAL FREE ENERGY PREDICTED BY IDOCK:   -6.50 KCAL/MOL
REMARK 923 INTER-LIGAND FREE ENERGY PREDICTED BY IDOCK:   -6.05 KCAL/MOL
REMARK 924 INTRA-LIGAND FREE ENERGY PREDICTED BY IDOCK:   -0.45 KCAL/MOL
REMARK 927      BINDING AFFINITY PREDICTED BY RF-SCORE:    0.00 PKD
ROOT
HETATM    1  C   UNL     1     -12.084  14.110  64.119  1.00  0.00    -0.406 C  
HETATM    2  N   UNL     1     -11.345  13.599  65.361  1.00  0.00    -0.298 N  
HETATM    3  C   UNL     1     -12.261  13.822  66.574  1.00  0.00    -0.430 C  
HETATM    4  C   UNL     1     -10.058  14.420  65.492  1.00  0.00    -0.356 C  
HETATM    5  C   UNL     1     -11.728  13.144  67.828  1.00  0.00    -0.401 C  
HETATM    6  C   UNL     1     -11.487  11.665  67.596  1.00  0.00    -0.373 C  
HETATM    7  C   UNL     1     -10.495  11.450  66.456  1.00  0.00    -0.249 C  
HETATM    8  C   UNL     1     -11.029  12.093  65.166  1.00  0.00    -0.310 C  
ENDROOT
BRANCH   7   9
HETATM    9  O   UNL     1     -10.310  10.032  66.311  1.00  0.00    -0.223 OA 
BRANCH   9  10
HETATM   10  C   UNL     1      -9.330   9.543  67.156  1.00  0.00    -0.143 C  
HETATM   11  O   UNL     1      -8.217  10.054  67.219  1.00  0.00    -0.116 OA 
HETATM   12  C   UNL     1      -9.817   8.292  67.972  1.00  0.00    -0.169 C  
HETATM   13  C   UNL     1      -9.169   8.299  69.370  1.00  0.00    -0.155 A  
HETATM   14  O   UNL     1     -11.246   8.477  68.127  1.00  0.00    -0.329 OA 
HETATM   15  C   UNL     1      -9.584   7.002  67.171  1.00  0.00    -0.187 A  
HETATM   16  H   UNL     1     -11.540   7.720  68.621  1.00  0.00     0.000 HD 
HETATM   17  C   UNL     1      -9.936   8.466  70.539  1.00  0.00    -0.205 A  
HETATM   18  C   UNL     1      -8.484   6.863  66.304  1.00  0.00    -0.131 A  
HETATM   19  C   UNL     1      -9.328   8.612  71.791  1.00  0.00    -0.343 A  
HETATM   20  C   UNL     1      -8.333   5.727  65.506  1.00  0.00    -0.140 A  
HETATM   21  C   UNL     1      -9.267   4.699  65.573  1.00  0.00    -0.153 A  
HETATM   22  C   UNL     1      -7.942   8.591  71.903  1.00  0.00    -0.170 A  
HETATM   23  C   UNL     1      -7.162   8.395  70.770  1.00  0.00    -0.055 A  
HETATM   24  C   UNL     1     -10.335   4.791  66.461  1.00  0.00    -0.284 A  
HETATM   25  C   UNL     1     -10.482   5.921  67.267  1.00  0.00    -0.325 A  
HETATM   26  C   UNL     1      -7.769   8.238  69.520  1.00  0.00    -0.101 A  
ENDBRANCH   9  10
ENDBRANCH   7   9
TORSDOF 2
ENDMDL
MODEL       58
REMARK 921   NORMALIZED FREE ENERGY PREDICTED BY IDOCK:   -5.31 KCAL/MOL
REMARK 922        TOTAL FREE ENERGY PREDICTED BY IDOCK:   -6.45 KCAL/MOL
REMARK 923 INTER-LIGAND FREE ENERGY PREDICTED BY IDOCK:   -6.81 KCAL/MOL
REMARK 924 INTRA-LIGAND FREE ENERGY PREDICTED BY IDOCK:    0.37 KCAL/MOL
REMARK 927      BINDING AFFINITY PREDICTED BY RF-SCORE:    0.00 PKD
ROOT
HETATM    1  C   UNL     1      -5.913  21.246  65.986  1.00  0.00    -0.232 C  
HETATM    2  N   UNL     1      -6.426  20.099  66.864  1.00  0.00    -0.193 N  
HETATM    3  C   UNL     1      -6.400  20.580  68.323  1.00  0.00    -0.317 C  
HETATM    4  C   UNL     1      -5.476  18.914  66.662  1.00  0.00    -0.150 C  
HETATM    5  C   UNL     1      -7.104  19.608  69.259  1.00  0.00    -0.366 C  
HETATM    6  C   UNL     1      -8.524  19.334  68.806  1.00  0.00    -0.382 C  
HETATM    7  C   UNL     1      -8.539  18.758  67.392  1.00  0.00    -0.273 C  
HETATM    8  C   UNL     1      -7.868  19.740  66.417  1.00  0.00    -0.312 C  
ENDROOT
BRANCH   7   9
HETATM    9  O   UNL     1      -9.912  18.513  67.044  1.00  0.00    -0.313 OA 
BRANCH   9  10
HETATM   10  C   UNL     1     -10.316  17.232  67.377  1.00  0.00    -0.338 C  
HETATM   11  O   UNL     1     -11.286  17.027  68.097  1.00  0.00    -0.272 OA 
HETATM   12  C   UNL     1      -9.390  16.133  66.743  1.00  0.00    -0.234 C  
HETATM   13  C   UNL     1     -10.228  14.889  66.388  1.00  0.00    -0.292 A  
HETATM   14  O   UNL     1      -8.896  16.719  65.513  1.00  0.00    -0.354 OA 
HETATM   15  C   UNL     1      -8.188  15.848  67.656  1.00  0.00    -0.164 A  
HETATM   16  H   UNL     1      -8.337  16.054  65.129  1.00  0.00     0.000 HD 
HETATM   17  C   UNL     1     -10.418  14.481  65.054  1.00  0.00    -0.454 A  
HETATM   18  C   UNL     1      -8.294  15.923  69.057  1.00  0.00    -0.239 A  
HETATM   19  C   UNL     1     -11.292  13.437  64.731  1.00  0.00    -0.356 A  
HETATM   20  C   UNL     1      -7.175  15.761  69.876  1.00  0.00     0.073 A  
HETATM   21  C   UNL     1      -5.931  15.500  69.312  1.00  0.00    -0.112 A  
HETATM   22  C   UNL     1     -11.994  12.776  65.734  1.00  0.00    -0.502 A  
HETATM   23  C   UNL     1     -11.800  13.136  67.062  1.00  0.00    -0.435 A  
HETATM   24  C   UNL     1      -5.811  15.369  67.931  1.00  0.00    -0.162 A  
HETATM   25  C   UNL     1      -6.930  15.522  67.111  1.00  0.00    -0.125 A  
HETATM   26  C   UNL     1     -10.918  14.173  67.386  1.00  0.00    -0.306 A  
ENDBRANCH   9  10
ENDBRANCH   7   9
TORSDOF 2
ENDMDL
MODEL       59
REMARK 921   NORMALIZED FREE ENERGY PREDICTED BY IDOCK:   -5.31 KCAL/MOL
REMARK 922        TOTAL FREE ENERGY PREDICTED BY IDOCK:   -6.44 KCAL/MOL
REMARK 923 INTER-LIGAND FREE ENERGY PREDICTED BY IDOCK:   -5.96 KCAL/MOL
REMARK 924 INTRA-LIGAND FREE ENERGY PREDICTED BY IDOCK:   -0.48 KCAL/MOL
REMARK 927      BINDING AFFINITY PREDICTED BY RF-SCORE:    0.00 PKD
ROOT
HETATM    1  C   UNL     1      -8.693  16.225  66.307  1.00  0.00    -0.335 C  
HETATM    2  N   UNL     1      -9.443  15.261  67.234  1.00  0.00    -0.205 N  
HETATM    3  C   UNL     1     -10.947  15.452  66.988  1.00  0.00    -0.306 C  
HETATM    4  C   UNL     1      -9.073  15.636  68.673  1.00  0.00    -0.205 C  
HETATM    5  C   UNL     1     -11.781  14.386  67.684  1.00  0.00    -0.421 C  
HETATM    6  C   UNL     1     -11.340  12.992  67.286  1.00  0.00    -0.348 C  
HETATM    7  C   UNL     1      -9.869  12.771  67.628  1.00  0.00    -0.214 C  
HETATM    8  C   UNL     1      -8.999  13.812  66.905  1.00  0.00    -0.221 C  
ENDROOT
BRANCH   7   9
HETATM    9  O   UNL     1      -9.535  11.429  67.236  1.00  0.00    -0.166 OA 
BRANCH   9  10
HETATM   10  C   UNL     1      -9.107  10.662  68.306  1.00  0.00    -0.153 C  
HETATM   11  O   UNL     1      -8.216  11.042  69.057  1.00  0.00    -0.150 OA 
HETATM   12  C   UNL     1      -9.877   9.297  68.406  1.00  0.00    -0.155 C  
HETATM   13  C   UNL     1     -10.046   8.903  69.886  1.00  0.00    -0.204 A  
HETATM   14  O   UNL     1     -11.189   9.563  67.850  1.00  0.00    -0.519 OA 
HETATM   15  C   UNL     1      -9.196   8.228  67.539  1.00  0.00    -0.155 A  
HETATM   16  H   UNL     1     -11.655   8.737  67.912  1.00  0.00     0.000 HD 
HETATM   17  C   UNL     1     -11.313   8.845  70.497  1.00  0.00    -0.268 A  
HETATM   18  C   UNL     1      -7.801   8.210  67.354  1.00  0.00    -0.106 A  
HETATM   19  C   UNL     1     -11.448   8.624  71.872  1.00  0.00    -0.419 A  
HETATM   20  C   UNL     1      -7.199   7.297  66.486  1.00  0.00    -0.079 A  
HETATM   21  C   UNL     1      -7.977   6.370  65.801  1.00  0.00    -0.117 A  
HETATM   22  C   UNL     1     -10.319   8.454  72.668  1.00  0.00    -0.314 A  
HETATM   23  C   UNL     1      -9.057   8.475  72.086  1.00  0.00    -0.319 A  
HETATM   24  C   UNL     1      -9.353   6.334  66.008  1.00  0.00    -0.068 A  
HETATM   25  C   UNL     1      -9.956   7.240  66.882  1.00  0.00    -0.302 A  
HETATM   26  C   UNL     1      -8.923   8.685  70.709  1.00  0.00    -0.209 A  
ENDBRANCH   9  10
ENDBRANCH   7   9
TORSDOF 2
ENDMDL
MODEL       60
REMARK 921   NORMALIZED FREE ENERGY PREDICTED BY IDOCK:   -5.23 KCAL/MOL
REMARK 922        TOTAL FREE ENERGY PREDICTED BY IDOCK:   -6.36 KCAL/MOL
REMARK 923 INTER-LIGAND FREE ENERGY PREDICTED BY IDOCK:   -5.93 KCAL/MOL
REMARK 924 INTRA-LIGAND FREE ENERGY PREDICTED BY IDOCK:   -0.43 KCAL/MOL
REMARK 927      BINDING AFFINITY PREDICTED BY RF-SCORE:    0.00 PKD
ROOT
HETATM    1  C   UNL     1     -14.105  15.549  71.872  1.00  0.00    -0.486 C  
HETATM    2  N   UNL     1     -13.107  14.388  71.781  1.00  0.00    -0.335 N  
HETATM    3  C   UNL     1     -13.711  13.193  72.535  1.00  0.00    -0.459 C  
HETATM    4  C   UNL     1     -11.808  14.854  72.447  1.00  0.00    -0.263 C  
HETATM    5  C   UNL     1     -12.914  11.916  72.316  1.00  0.00    -0.009 C  
HETATM    6  C   UNL     1     -12.764  11.604  70.840  1.00  0.00    -0.351 C  
HETATM    7  C   UNL     1     -12.069  12.752  70.112  1.00  0.00    -0.298 C  
HETATM    8  C   UNL     1     -12.876  14.049  70.285  1.00  0.00    -0.107 C  
ENDROOT
BRANCH   7   9
HETATM    9  O   UNL     1     -11.953  12.375  68.730  1.00  0.00    -0.302 OA 
BRANCH   9  10
HETATM   10  C   UNL     1     -10.666  12.541  68.249  1.00  0.00    -0.228 C  
HETATM   11  O   UNL     1      -9.914  13.398  68.700  1.00  0.00    -0.216 OA 
HETATM   12  C   UNL     1     -10.328  11.537  67.090  1.00  0.00    -0.216 C  
HETATM   13  C   UNL     1      -8.841  11.140  67.162  1.00  0.00    -0.143 A  
HETATM   14  O   UNL     1     -11.130  10.361  67.365  1.00  0.00    -0.299 OA 
HETATM   15  C   UNL     1     -10.766  12.110  65.734  1.00  0.00    -0.303 A  
HETATM   16  H   UNL     1     -10.925   9.753  66.664  1.00  0.00     0.000 HD 
HETATM   17  C   UNL     1      -8.440   9.823  67.457  1.00  0.00    -0.122 A  
HETATM   18  C   UNL     1     -10.723  13.492  65.471  1.00  0.00    -0.293 A  
HETATM   19  C   UNL     1      -7.093   9.502  67.658  1.00  0.00    -0.081 A  
HETATM   20  C   UNL     1     -11.215  14.016  64.274  1.00  0.00    -0.236 A  
HETATM   21  C   UNL     1     -11.743  13.167  63.307  1.00  0.00    -0.266 A  
HETATM   22  C   UNL     1      -6.116  10.489  67.568  1.00  0.00    -0.052 A  
HETATM   23  C   UNL     1      -6.481  11.791  67.247  1.00  0.00    -0.131 A  
HETATM   24  C   UNL     1     -11.749  11.791  63.523  1.00  0.00    -0.485 A  
HETATM   25  C   UNL     1     -11.248  11.265  64.715  1.00  0.00    -0.128 A  
HETATM   26  C   UNL     1      -7.826  12.110  67.034  1.00  0.00    -0.123 A  
ENDBRANCH   9  10
ENDBRANCH   7   9
TORSDOF 2
ENDMDL
MODEL       61
REMARK 921   NORMALIZED FREE ENERGY PREDICTED BY IDOCK:   -5.20 KCAL/MOL
REMARK 922        TOTAL FREE ENERGY PREDICTED BY IDOCK:   -6.33 KCAL/MOL
REMARK 923 INTER-LIGAND FREE ENERGY PREDICTED BY IDOCK:   -6.06 KCAL/MOL
REMARK 924 INTRA-LIGAND FREE ENERGY PREDICTED BY IDOCK:   -0.27 KCAL/MOL
REMARK 927      BINDING AFFINITY PREDICTED BY RF-SCORE:    0.00 PKD
ROOT
HETATM    1  C   UNL     1     -11.830  13.910  64.165  1.00  0.00    -0.385 C  
HETATM    2  N   UNL     1     -11.283  13.580  65.559  1.00  0.00    -0.291 N  
HETATM    3  C   UNL     1     -12.411  13.828  66.574  1.00  0.00    -0.386 C  
HETATM    4  C   UNL     1     -10.101  14.520  65.817  1.00  0.00    -0.342 C  
HETATM    5  C   UNL     1     -12.056  13.314  67.961  1.00  0.00    -0.260 C  
HETATM    6  C   UNL     1     -11.673  11.848  67.927  1.00  0.00    -0.368 C  
HETATM    7  C   UNL     1     -10.484  11.622  66.996  1.00  0.00    -0.224 C  
HETATM    8  C   UNL     1     -10.830  12.097  65.576  1.00  0.00    -0.283 C  
ENDROOT
BRANCH   7   9
HETATM    9  O   UNL     1     -10.175  10.218  67.030  1.00  0.00    -0.207 OA 
BRANCH   9  10
HETATM   10  C   UNL     1      -9.670   9.823  68.257  1.00  0.00    -0.145 C  
HETATM   11  O   UNL     1      -9.087  10.607  68.998  1.00  0.00    -0.174 OA 
HETATM   12  C   UNL     1      -9.925   8.300  68.543  1.00  0.00    -0.190 C  
HETATM   13  C   UNL     1     -10.163   8.088  70.051  1.00  0.00    -0.205 A  
HETATM   14  O   UNL     1     -11.151   7.984  67.837  1.00  0.00    -0.470 OA 
HETATM   15  C   UNL     1      -8.796   7.444  67.953  1.00  0.00    -0.132 A  
HETATM   16  H   UNL     1     -11.306   7.063  68.011  1.00  0.00     0.000 HD 
HETATM   17  C   UNL     1     -11.407   7.656  70.550  1.00  0.00    -0.266 A  
HETATM   18  C   UNL     1      -7.470   7.912  67.895  1.00  0.00    -0.104 A  
HETATM   19  C   UNL     1     -11.658   7.600  71.926  1.00  0.00    -0.321 A  
HETATM   20  C   UNL     1      -6.468   7.170  67.267  1.00  0.00    -0.057 A  
HETATM   21  C   UNL     1      -6.766   5.935  66.703  1.00  0.00    -0.057 A  
HETATM   22  C   UNL     1     -10.671   7.972  72.833  1.00  0.00    -0.403 A  
HETATM   23  C   UNL     1      -9.423   8.370  72.368  1.00  0.00    -0.365 A  
HETATM   24  C   UNL     1      -8.059   5.426  66.793  1.00  0.00    -0.105 A  
HETATM   25  C   UNL     1      -9.060   6.163  67.428  1.00  0.00    -0.110 A  
HETATM   26  C   UNL     1      -9.169   8.416  70.994  1.00  0.00    -0.206 A  
ENDBRANCH   9  10
ENDBRANCH   7   9
TORSDOF 2
ENDMDL
MODEL       62
REMARK 921   NORMALIZED FREE ENERGY PREDICTED BY IDOCK:   -5.17 KCAL/MOL
REMARK 922        TOTAL FREE ENERGY PREDICTED BY IDOCK:   -6.29 KCAL/MOL
REMARK 923 INTER-LIGAND FREE ENERGY PREDICTED BY IDOCK:   -5.86 KCAL/MOL
REMARK 924 INTRA-LIGAND FREE ENERGY PREDICTED BY IDOCK:   -0.43 KCAL/MOL
REMARK 927      BINDING AFFINITY PREDICTED BY RF-SCORE:    0.00 PKD
ROOT
HETATM    1  C   UNL     1     -10.674   9.866  67.405  1.00  0.00    -0.260 C  
HETATM    2  N   UNL     1      -9.854  10.971  68.082  1.00  0.00    -0.170 N  
HETATM    3  C   UNL     1      -8.440  10.420  68.327  1.00  0.00    -0.123 C  
HETATM    4  C   UNL     1     -10.547  11.303  69.407  1.00  0.00    -0.099 C  
HETATM    5  C   UNL     1      -7.474  11.503  68.783  1.00  0.00    -0.119 C  
HETATM    6  C   UNL     1      -7.441  12.661  67.805  1.00  0.00    -0.131 C  
HETATM    7  C   UNL     1      -8.830  13.273  67.643  1.00  0.00    -0.200 C  
HETATM    8  C   UNL     1      -9.819  12.206  67.145  1.00  0.00    -0.197 C  
ENDROOT
BRANCH   7   9
HETATM    9  O   UNL     1      -8.711  14.367  66.718  1.00  0.00    -0.223 OA 
BRANCH   9  10
HETATM   10  C   UNL     1      -8.706  15.594  67.357  1.00  0.00    -0.179 C  
HETATM   11  O   UNL     1      -7.672  16.094  67.787  1.00  0.00    -0.133 OA 
HETATM   12  C   UNL     1     -10.144  16.217  67.462  1.00  0.00    -0.258 C  
HETATM   13  C   UNL     1     -10.054  17.752  67.351  1.00  0.00    -0.338 A  
HETATM   14  O   UNL     1     -10.857  15.715  66.304  1.00  0.00    -0.315 OA 
HETATM   15  C   UNL     1     -10.860  15.713  68.723  1.00  0.00    -0.262 A  
HETATM   16  H   UNL     1     -11.727  16.093  66.368  1.00  0.00     0.000 HD 
HETATM   17  C   UNL     1     -10.609  18.449  66.261  1.00  0.00    -0.343 A  
HETATM   18  C   UNL     1     -10.153  15.430  69.907  1.00  0.00    -0.253 A  
HETATM   19  C   UNL     1     -10.403  19.823  66.096  1.00  0.00    -0.627 A  
HETATM   20  C   UNL     1     -10.795  14.878  71.018  1.00  0.00     0.070 A  
HETATM   21  C   UNL     1     -12.160  14.617  70.975  1.00  0.00    -0.393 A  
HETATM   22  C   UNL     1      -9.641  20.532  67.019  1.00  0.00    -0.540 A  
HETATM   23  C   UNL     1      -9.109  19.875  68.123  1.00  0.00    -0.349 A  
HETATM   24  C   UNL     1     -12.891  14.937  69.833  1.00  0.00    -0.035 A  
HETATM   25  C   UNL     1     -12.252  15.498  68.725  1.00  0.00    -0.032 A  
HETATM   26  C   UNL     1      -9.323  18.504  68.293  1.00  0.00    -0.350 A  
ENDBRANCH   9  10
ENDBRANCH   7   9
TORSDOF 2
ENDMDL
MODEL       63
REMARK 921   NORMALIZED FREE ENERGY PREDICTED BY IDOCK:   -5.09 KCAL/MOL
REMARK 922        TOTAL FREE ENERGY PREDICTED BY IDOCK:   -6.20 KCAL/MOL
REMARK 923 INTER-LIGAND FREE ENERGY PREDICTED BY IDOCK:   -5.99 KCAL/MOL
REMARK 924 INTRA-LIGAND FREE ENERGY PREDICTED BY IDOCK:   -0.21 KCAL/MOL
REMARK 927      BINDING AFFINITY PREDICTED BY RF-SCORE:    0.00 PKD
ROOT
HETATM    1  C   UNL     1     -12.414  15.766  72.640  1.00  0.00    -0.448 C  
HETATM    2  N   UNL     1     -12.692  14.961  71.364  1.00  0.00    -0.311 N  
HETATM    3  C   UNL     1     -11.921  15.627  70.214  1.00  0.00    -0.374 C  
HETATM    4  C   UNL     1     -14.203  15.018  71.113  1.00  0.00    -0.308 C  
HETATM    5  C   UNL     1     -11.937  14.782  68.949  1.00  0.00    -0.298 C  
HETATM    6  C   UNL     1     -11.415  13.383  69.212  1.00  0.00    -0.345 C  
HETATM    7  C   UNL     1     -12.250  12.687  70.283  1.00  0.00    -0.271 C  
HETATM    8  C   UNL     1     -12.218  13.501  71.586  1.00  0.00     0.164 C  
ENDROOT
BRANCH   7   9
HETATM    9  O   UNL     1     -11.704  11.369  70.462  1.00  0.00    -0.320 OA 
BRANCH   9  10
HETATM   10  C   UNL     1     -11.494  10.721  69.257  1.00  0.00    -0.298 C  
HETATM   11  O   UNL     1     -12.330  10.740  68.360  1.00  0.00    -0.396 OA 
HETATM   12  C   UNL     1     -10.109   9.982  69.211  1.00  0.00    -0.213 C  
HETATM   13  C   UNL     1      -9.542  10.030  67.779  1.00  0.00    -0.168 A  
HETATM   14  O   UNL     1      -9.240  10.757  70.074  1.00  0.00    -0.174 OA 
HETATM   15  C   UNL     1     -10.232   8.568  69.798  1.00  0.00    -0.206 A  
HETATM   16  H   UNL     1      -8.402  10.311  70.045  1.00  0.00     0.000 HD 
HETATM   17  C   UNL     1      -8.367  10.741  67.472  1.00  0.00    -0.115 A  
HETATM   18  C   UNL     1     -11.411   7.813  69.657  1.00  0.00     0.146 A  
HETATM   19  C   UNL     1      -7.936  10.896  66.149  1.00  0.00    -0.155 A  
HETATM   20  C   UNL     1     -11.551   6.570  70.277  1.00  0.00    -0.473 A  
HETATM   21  C   UNL     1     -10.508   6.047  71.034  1.00  0.00    -0.285 A  
HETATM   22  C   UNL     1      -8.669  10.342  65.105  1.00  0.00    -0.189 A  
HETATM   23  C   UNL     1      -9.816   9.607  65.382  1.00  0.00    -0.322 A  
HETATM   24  C   UNL     1      -9.312   6.752  71.145  1.00  0.00    -0.159 A  
HETATM   25  C   UNL     1      -9.167   7.991  70.518  1.00  0.00    -0.154 A  
HETATM   26  C   UNL     1     -10.240   9.443  66.704  1.00  0.00    -0.319 A  
ENDBRANCH   9  10
ENDBRANCH   7   9
TORSDOF 2
ENDMDL
MODEL       64
REMARK 921   NORMALIZED FREE ENERGY PREDICTED BY IDOCK:   -5.07 KCAL/MOL
REMARK 922        TOTAL FREE ENERGY PREDICTED BY IDOCK:   -6.18 KCAL/MOL
REMARK 923 INTER-LIGAND FREE ENERGY PREDICTED BY IDOCK:   -5.62 KCAL/MOL
REMARK 924 INTRA-LIGAND FREE ENERGY PREDICTED BY IDOCK:   -0.56 KCAL/MOL
REMARK 927      BINDING AFFINITY PREDICTED BY RF-SCORE:    0.00 PKD
ROOT
HETATM    1  C   UNL     1     -10.950   7.634  72.996  1.00  0.00    -0.400 C  
HETATM    2  N   UNL     1     -11.594   8.328  71.790  1.00  0.00    -0.280 N  
HETATM    3  C   UNL     1     -12.613   9.346  72.325  1.00  0.00    -0.306 C  
HETATM    4  C   UNL     1     -12.289   7.243  70.961  1.00  0.00    -0.297 C  
HETATM    5  C   UNL     1     -13.146  10.255  71.227  1.00  0.00    -0.492 C  
HETATM    6  C   UNL     1     -12.019  10.954  70.493  1.00  0.00    -0.466 C  
HETATM    7  C   UNL     1     -11.064   9.936  69.874  1.00  0.00    -0.275 C  
HETATM    8  C   UNL     1     -10.480   9.028  70.968  1.00  0.00    -0.269 C  
ENDROOT
BRANCH   7   9
HETATM    9  O   UNL     1     -10.038  10.674  69.187  1.00  0.00    -0.206 OA 
BRANCH   9  10
HETATM   10  C   UNL     1      -9.968  10.345  67.844  1.00  0.00    -0.167 C  
HETATM   11  O   UNL     1     -10.762  10.796  67.026  1.00  0.00    -0.251 OA 
HETATM   12  C   UNL     1      -8.793   9.350  67.536  1.00  0.00    -0.118 C  
HETATM   13  C   UNL     1      -8.208   9.652  66.142  1.00  0.00    -0.115 A  
HETATM   14  O   UNL     1      -7.779   9.643  68.530  1.00  0.00    -0.080 OA 
HETATM   15  C   UNL     1      -9.251   7.897  67.730  1.00  0.00    -0.144 A  
HETATM   16  H   UNL     1      -7.069   9.041  68.343  1.00  0.00     0.000 HD 
HETATM   17  C   UNL     1      -6.895  10.131  65.978  1.00  0.00    -0.112 A  
HETATM   18  C   UNL     1     -10.571   7.499  67.451  1.00  0.00    -0.364 A  
HETATM   19  C   UNL     1      -6.419  10.535  64.725  1.00  0.00     0.012 A  
HETATM   20  C   UNL     1     -11.007   6.201  67.724  1.00  0.00    -0.400 A  
HETATM   21  C   UNL     1     -10.127   5.269  68.263  1.00  0.00    -0.219 A  
HETATM   22  C   UNL     1      -7.245  10.466  63.608  1.00  0.00    -0.002 A  
HETATM   23  C   UNL     1      -8.536   9.966  63.735  1.00  0.00    -0.182 A  
HETATM   24  C   UNL     1      -8.802   5.625  68.499  1.00  0.00    -0.108 A  
HETATM   25  C   UNL     1      -8.361   6.919  68.218  1.00  0.00    -0.123 A  
HETATM   26  C   UNL     1      -9.008   9.553  64.986  1.00  0.00    -0.258 A  
ENDBRANCH   9  10
ENDBRANCH   7   9
TORSDOF 2
ENDMDL
MODEL       65
REMARK 921   NORMALIZED FREE ENERGY PREDICTED BY IDOCK:   -5.06 KCAL/MOL
REMARK 922        TOTAL FREE ENERGY PREDICTED BY IDOCK:   -6.17 KCAL/MOL
REMARK 923 INTER-LIGAND FREE ENERGY PREDICTED BY IDOCK:   -6.48 KCAL/MOL
REMARK 924 INTRA-LIGAND FREE ENERGY PREDICTED BY IDOCK:    0.31 KCAL/MOL
REMARK 927      BINDING AFFINITY PREDICTED BY RF-SCORE:    0.00 PKD
ROOT
HETATM    1  C   UNL     1     -11.120  10.497  66.737  1.00  0.00     0.011 C  
HETATM    2  N   UNL     1     -10.858  11.699  65.820  1.00  0.00    -0.284 N  
HETATM    3  C   UNL     1     -11.900  11.662  64.692  1.00  0.00    -0.024 C  
HETATM    4  C   UNL     1      -9.441  11.541  65.260  1.00  0.00    -0.184 C  
HETATM    5  C   UNL     1     -11.883  12.932  63.854  1.00  0.00    -0.541 C  
HETATM    6  C   UNL     1     -12.064  14.165  64.716  1.00  0.00    -0.454 C  
HETATM    7  C   UNL     1     -10.964  14.253  65.771  1.00  0.00    -0.305 C  
HETATM    8  C   UNL     1     -10.985  12.998  66.659  1.00  0.00    -0.279 C  
ENDROOT
BRANCH   7   9
HETATM    9  O   UNL     1     -11.196  15.450  66.533  1.00  0.00    -0.278 OA 
BRANCH   9  10
HETATM   10  C   UNL     1     -10.304  15.584  67.583  1.00  0.00    -0.269 C  
HETATM   11  O   UNL     1     -10.548  15.140  68.699  1.00  0.00    -0.223 OA 
HETATM   12  C   UNL     1      -9.004  16.360  67.164  1.00  0.00    -0.202 C  
HETATM   13  C   UNL     1      -7.793  15.798  67.933  1.00  0.00    -0.149 A  
HETATM   14  O   UNL     1      -8.828  16.068  65.755  1.00  0.00    -0.312 OA 
HETATM   15  C   UNL     1      -9.207  17.874  67.319  1.00  0.00    -0.254 A  
HETATM   16  H   UNL     1      -8.042  16.537  65.502  1.00  0.00     0.000 HD 
HETATM   17  C   UNL     1      -6.744  15.128  67.275  1.00  0.00    -0.025 A  
HETATM   18  C   UNL     1     -10.020  18.408  68.336  1.00  0.00    -0.406 A  
HETATM   19  C   UNL     1      -5.720  14.499  67.992  1.00  0.00    -0.140 A  
HETATM   20  C   UNL     1     -10.280  19.778  68.410  1.00  0.00    -0.568 A  
HETATM   21  C   UNL     1      -9.715  20.645  67.481  1.00  0.00    -0.509 A  
HETATM   22  C   UNL     1      -5.719  14.530  69.383  1.00  0.00    -0.095 A  
HETATM   23  C   UNL     1      -6.724  15.212  70.058  1.00  0.00    -0.129 A  
HETATM   24  C   UNL     1      -8.865  20.147  66.497  1.00  0.00    -0.370 A  
HETATM   25  C   UNL     1      -8.597  18.779  66.427  1.00  0.00    -0.294 A  
HETATM   26  C   UNL     1      -7.742  15.850  69.341  1.00  0.00    -0.199 A  
ENDBRANCH   9  10
ENDBRANCH   7   9
TORSDOF 2
ENDMDL
MODEL       66
REMARK 921   NORMALIZED FREE ENERGY PREDICTED BY IDOCK:   -5.06 KCAL/MOL
REMARK 922        TOTAL FREE ENERGY PREDICTED BY IDOCK:   -6.17 KCAL/MOL
REMARK 923 INTER-LIGAND FREE ENERGY PREDICTED BY IDOCK:   -5.76 KCAL/MOL
REMARK 924 INTRA-LIGAND FREE ENERGY PREDICTED BY IDOCK:   -0.41 KCAL/MOL
REMARK 927      BINDING AFFINITY PREDICTED BY RF-SCORE:    0.00 PKD
ROOT
HETATM    1  C   UNL     1     -12.080  14.181  64.649  1.00  0.00    -0.452 C  
HETATM    2  N   UNL     1     -11.655  12.708  64.603  1.00  0.00    -0.326 N  
HETATM    3  C   UNL     1     -10.298  12.636  63.885  1.00  0.00    -0.377 C  
HETATM    4  C   UNL     1     -12.729  11.950  63.817  1.00  0.00    -0.350 C  
HETATM    5  C   UNL     1      -9.670  11.254  63.984  1.00  0.00    -0.301 C  
HETATM    6  C   UNL     1      -9.542  10.808  65.427  1.00  0.00    -0.272 C  
HETATM    7  C   UNL     1     -10.908  10.781  66.109  1.00  0.00    -0.054 C  
HETATM    8  C   UNL     1     -11.549  12.177  66.056  1.00  0.00    -0.358 C  
ENDROOT
BRANCH   7   9
HETATM    9  O   UNL     1     -10.704  10.336  67.460  1.00  0.00    -0.255 OA 
BRANCH   9  10
HETATM   10  C   UNL     1     -10.280   9.020  67.520  1.00  0.00    -0.241 C  
HETATM   11  O   UNL     1     -10.701   8.170  66.742  1.00  0.00    -0.278 OA 
HETATM   12  C   UNL     1      -9.247   8.778  68.677  1.00  0.00    -0.141 C  
HETATM   13  C   UNL     1      -8.223   7.710  68.245  1.00  0.00    -0.125 A  
HETATM   14  O   UNL     1      -8.553  10.042  68.832  1.00  0.00    -0.122 OA 
HETATM   15  C   UNL     1      -9.973   8.464  69.993  1.00  0.00    -0.188 A  
HETATM   16  H   UNL     1      -7.927   9.895  69.532  1.00  0.00     0.000 HD 
HETATM   17  C   UNL     1      -6.862   8.022  68.060  1.00  0.00    -0.072 A  
HETATM   18  C   UNL     1     -11.191   7.760  70.011  1.00  0.00    -0.126 A  
HETATM   19  C   UNL     1      -5.967   7.083  67.534  1.00  0.00    -0.025 A  
HETATM   20  C   UNL     1     -11.896   7.565  71.200  1.00  0.00    -0.324 A  
HETATM   21  C   UNL     1     -11.387   8.052  72.399  1.00  0.00    -0.443 A  
HETATM   22  C   UNL     1      -6.412   5.812  67.184  1.00  0.00    -0.047 A  
HETATM   23  C   UNL     1      -7.742   5.468  67.386  1.00  0.00    -0.100 A  
HETATM   24  C   UNL     1     -10.158   8.707  72.415  1.00  0.00    -0.321 A  
HETATM   25  C   UNL     1      -9.448   8.895  71.227  1.00  0.00    -0.343 A  
HETATM   26  C   UNL     1      -8.635   6.402  67.922  1.00  0.00    -0.116 A  
ENDBRANCH   9  10
ENDBRANCH   7   9
TORSDOF 2
ENDMDL
MODEL       67
REMARK 921   NORMALIZED FREE ENERGY PREDICTED BY IDOCK:   -5.00 KCAL/MOL
REMARK 922        TOTAL FREE ENERGY PREDICTED BY IDOCK:   -6.10 KCAL/MOL
REMARK 923 INTER-LIGAND FREE ENERGY PREDICTED BY IDOCK:   -5.79 KCAL/MOL
REMARK 924 INTRA-LIGAND FREE ENERGY PREDICTED BY IDOCK:   -0.31 KCAL/MOL
REMARK 927      BINDING AFFINITY PREDICTED BY RF-SCORE:    0.00 PKD
ROOT
HETATM    1  C   UNL     1      -6.749   5.858  68.571  1.00  0.00    -0.057 C  
HETATM    2  N   UNL     1      -8.251   6.043  68.322  1.00  0.00    -0.110 N  
HETATM    3  C   UNL     1      -9.002   5.396  69.496  1.00  0.00    -0.105 C  
HETATM    4  C   UNL     1      -8.583   5.336  67.005  1.00  0.00    -0.105 C  
HETATM    5  C   UNL     1     -10.489   5.720  69.473  1.00  0.00    -0.364 C  
HETATM    6  C   UNL     1     -10.728   7.216  69.439  1.00  0.00    -0.246 C  
HETATM    7  C   UNL     1     -10.066   7.841  68.213  1.00  0.00    -0.192 C  
HETATM    8  C   UNL     1      -8.554   7.562  68.232  1.00  0.00    -0.124 C  
ENDROOT
BRANCH   7   9
HETATM    9  O   UNL     1     -10.350   9.250  68.245  1.00  0.00    -0.200 OA 
BRANCH   9  10
HETATM   10  C   UNL     1     -10.170   9.848  67.010  1.00  0.00    -0.233 C  
HETATM   11  O   UNL     1     -10.005   9.187  65.991  1.00  0.00    -0.291 OA 
HETATM   12  C   UNL     1     -10.193  11.416  67.098  1.00  0.00    -0.202 C  
HETATM   13  C   UNL     1     -10.827  11.999  65.820  1.00  0.00    -0.329 A  
HETATM   14  O   UNL     1     -11.061  11.718  68.219  1.00  0.00    -0.207 OA 
HETATM   15  C   UNL     1      -8.792  11.959  67.415  1.00  0.00    -0.171 A  
HETATM   16  H   UNL     1     -11.075  12.666  68.272  1.00  0.00     0.000 HD 
HETATM   17  C   UNL     1     -12.052  12.692  65.852  1.00  0.00    -0.459 A  
HETATM   18  C   UNL     1      -7.631  11.321  66.941  1.00  0.00    -0.148 A  
HETATM   19  C   UNL     1     -12.690  13.096  64.673  1.00  0.00    -0.326 A  
HETATM   20  C   UNL     1      -6.360  11.762  67.315  1.00  0.00    -0.132 A  
HETATM   21  C   UNL     1      -6.224  12.862  68.155  1.00  0.00    -0.093 A  
HETATM   22  C   UNL     1     -12.116  12.818  63.437  1.00  0.00    -0.619 A  
HETATM   23  C   UNL     1     -10.891  12.164  63.377  1.00  0.00    -0.474 A  
HETATM   24  C   UNL     1      -7.356  13.542  68.595  1.00  0.00    -0.112 A  
HETATM   25  C   UNL     1      -8.628  13.108  68.214  1.00  0.00    -0.166 A  
HETATM   26  C   UNL     1     -10.249  11.770  64.556  1.00  0.00    -0.327 A  
ENDBRANCH   9  10
ENDBRANCH   7   9
TORSDOF 2
ENDMDL
MODEL       68
REMARK 921   NORMALIZED FREE ENERGY PREDICTED BY IDOCK:   -4.98 KCAL/MOL
REMARK 922        TOTAL FREE ENERGY PREDICTED BY IDOCK:   -6.07 KCAL/MOL
REMARK 923 INTER-LIGAND FREE ENERGY PREDICTED BY IDOCK:   -5.76 KCAL/MOL
REMARK 924 INTRA-LIGAND FREE ENERGY PREDICTED BY IDOCK:   -0.31 KCAL/MOL
REMARK 927      BINDING AFFINITY PREDICTED BY RF-SCORE:    0.00 PKD
ROOT
HETATM    1  C   UNL     1      -7.656   5.469  65.813  1.00  0.00    -0.083 C  
HETATM    2  N   UNL     1      -7.874   6.974  66.011  1.00  0.00    -0.099 N  
HETATM    3  C   UNL     1      -7.795   7.643  64.629  1.00  0.00    -0.126 C  
HETATM    4  C   UNL     1      -6.753   7.477  66.925  1.00  0.00    -0.066 C  
HETATM    5  C   UNL     1      -8.224   9.102  64.674  1.00  0.00    -0.152 C  
HETATM    6  C   UNL     1      -9.610   9.252  65.269  1.00  0.00    -0.175 C  
HETATM    7  C   UNL     1      -9.657   8.679  66.683  1.00  0.00    -0.221 C  
HETATM    8  C   UNL     1      -9.265   7.192  66.661  1.00  0.00    -0.160 C  
ENDROOT
BRANCH   7   9
HETATM    9  O   UNL     1     -10.992   8.872  67.180  1.00  0.00    -0.110 OA 
BRANCH   9  10
HETATM   10  C   UNL     1     -11.116  10.045  67.905  1.00  0.00    -0.195 C  
HETATM   11  O   UNL     1     -11.486  11.091  67.384  1.00  0.00    -0.475 OA 
HETATM   12  C   UNL     1     -10.719   9.857  69.413  1.00  0.00    -0.232 C  
HETATM   13  C   UNL     1     -11.596  10.764  70.298  1.00  0.00    -0.427 A  
HETATM   14  O   UNL     1     -11.036   8.475  69.717  1.00  0.00    -0.402 OA 
HETATM   15  C   UNL     1      -9.208  10.055  69.602  1.00  0.00    -0.236 A  
HETATM   16  H   UNL     1     -10.797   8.362  70.629  1.00  0.00     0.000 HD 
HETATM   17  C   UNL     1     -12.521  10.231  71.216  1.00  0.00    -0.514 A  
HETATM   18  C   UNL     1      -8.482  10.969  68.817  1.00  0.00    -0.144 A  
HETATM   19  C   UNL     1     -13.410  11.056  71.913  1.00  0.00    -0.423 A  
HETATM   20  C   UNL     1      -7.094  11.073  68.926  1.00  0.00    -0.098 A  
HETATM   21  C   UNL     1      -6.405  10.279  69.836  1.00  0.00    -0.082 A  
HETATM   22  C   UNL     1     -13.393  12.433  71.710  1.00  0.00    -0.368 A  
HETATM   23  C   UNL     1     -12.468  12.988  70.835  1.00  0.00    -0.396 A  
HETATM   24  C   UNL     1      -7.107   9.404  70.661  1.00  0.00    -0.127 A  
HETATM   25  C   UNL     1      -8.496   9.306  70.560  1.00  0.00    -0.251 A  
HETATM   26  C   UNL     1     -11.572  12.165  70.146  1.00  0.00    -0.202 A  
ENDBRANCH   9  10
ENDBRANCH   7   9
TORSDOF 2
ENDMDL
MODEL       69
REMARK 921   NORMALIZED FREE ENERGY PREDICTED BY IDOCK:   -4.95 KCAL/MOL
REMARK 922        TOTAL FREE ENERGY PREDICTED BY IDOCK:   -6.04 KCAL/MOL
REMARK 923 INTER-LIGAND FREE ENERGY PREDICTED BY IDOCK:   -6.27 KCAL/MOL
REMARK 924 INTRA-LIGAND FREE ENERGY PREDICTED BY IDOCK:    0.23 KCAL/MOL
REMARK 927      BINDING AFFINITY PREDICTED BY RF-SCORE:    0.00 PKD
ROOT
HETATM    1  C   UNL     1      -6.563   7.897  67.918  1.00  0.00    -0.056 C  
HETATM    2  N   UNL     1      -7.832   7.713  67.076  1.00  0.00    -0.110 N  
HETATM    3  C   UNL     1      -8.805   6.839  67.883  1.00  0.00    -0.118 C  
HETATM    4  C   UNL     1      -7.417   7.011  65.778  1.00  0.00    -0.081 C  
HETATM    5  C   UNL     1     -10.186   6.782  67.246  1.00  0.00    -0.271 C  
HETATM    6  C   UNL     1     -10.755   8.170  67.033  1.00  0.00    -0.247 C  
HETATM    7  C   UNL     1      -9.834   9.002  66.144  1.00  0.00    -0.278 C  
HETATM    8  C   UNL     1      -8.441   9.109  66.785  1.00  0.00    -0.123 C  
ENDROOT
BRANCH   7   9
HETATM    9  O   UNL     1     -10.448  10.292  65.979  1.00  0.00    -0.200 OA 
BRANCH   9  10
HETATM   10  C   UNL     1      -9.840  11.263  66.755  1.00  0.00    -0.199 C  
HETATM   11  O   UNL     1      -8.676  11.603  66.570  1.00  0.00    -0.184 OA 
HETATM   12  C   UNL     1     -10.800  11.830  67.861  1.00  0.00    -0.211 C  
HETATM   13  C   UNL     1     -10.501  13.323  68.094  1.00  0.00    -0.251 A  
HETATM   14  O   UNL     1     -12.132  11.710  67.301  1.00  0.00    -0.595 OA 
HETATM   15  C   UNL     1     -10.732  10.965  69.128  1.00  0.00    -0.265 A  
HETATM   16  H   UNL     1     -12.712  12.053  67.970  1.00  0.00     0.000 HD 
HETATM   17  C   UNL     1     -11.440  14.324  67.777  1.00  0.00    -0.354 A  
HETATM   18  C   UNL     1      -9.541  10.329  69.523  1.00  0.00    -0.225 A  
HETATM   19  C   UNL     1     -11.111  15.681  67.859  1.00  0.00    -0.324 A  
HETATM   20  C   UNL     1      -9.511   9.465  70.619  1.00  0.00    -0.325 A  
HETATM   21  C   UNL     1     -10.668   9.234  71.356  1.00  0.00    -0.432 A  
HETATM   22  C   UNL     1      -9.837  16.069  68.262  1.00  0.00    -0.219 A  
HETATM   23  C   UNL     1      -8.901  15.104  68.612  1.00  0.00    -0.186 A  
HETATM   24  C   UNL     1     -11.847   9.893  71.017  1.00  0.00    -0.463 A  
HETATM   25  C   UNL     1     -11.876  10.764  69.927  1.00  0.00    -0.413 A  
HETATM   26  C   UNL     1      -9.233  13.747  68.541  1.00  0.00    -0.138 A  
ENDBRANCH   9  10
ENDBRANCH   7   9
TORSDOF 2
ENDMDL
MODEL       70
REMARK 921   NORMALIZED FREE ENERGY PREDICTED BY IDOCK:   -4.95 KCAL/MOL
REMARK 922        TOTAL FREE ENERGY PREDICTED BY IDOCK:   -6.04 KCAL/MOL
REMARK 923 INTER-LIGAND FREE ENERGY PREDICTED BY IDOCK:   -5.43 KCAL/MOL
REMARK 924 INTRA-LIGAND FREE ENERGY PREDICTED BY IDOCK:   -0.61 KCAL/MOL
REMARK 927      BINDING AFFINITY PREDICTED BY RF-SCORE:    0.00 PKD
ROOT
HETATM    1  C   UNL     1      -9.906   3.032  71.976  1.00  0.00    -0.171 C  
HETATM    2  N   UNL     1      -9.355   3.725  70.724  1.00  0.00    -0.133 N  
HETATM    3  C   UNL     1      -9.363   2.699  69.580  1.00  0.00    -0.114 C  
HETATM    4  C   UNL     1      -7.926   4.172  71.045  1.00  0.00    -0.071 C  
HETATM    5  C   UNL     1      -9.055   3.338  68.234  1.00  0.00    -0.211 C  
HETATM    6  C   UNL     1     -10.000   4.485  67.938  1.00  0.00    -0.116 C  
HETATM    7  C   UNL     1      -9.912   5.553  69.025  1.00  0.00    -0.181 C  
HETATM    8  C   UNL     1     -10.259   4.941  70.392  1.00  0.00    -0.222 C  
ENDROOT
BRANCH   7   9
HETATM    9  O   UNL     1     -10.822   6.607  68.665  1.00  0.00    -0.240 OA 
BRANCH   9  10
HETATM   10  C   UNL     1     -10.191   7.835  68.577  1.00  0.00    -0.204 C  
HETATM   11  O   UNL     1      -9.477   8.128  67.624  1.00  0.00    -0.141 OA 
HETATM   12  C   UNL     1     -10.492   8.750  69.818  1.00  0.00    -0.219 C  
HETATM   13  C   UNL     1     -10.551  10.224  69.375  1.00  0.00    -0.262 A  
HETATM   14  O   UNL     1     -11.812   8.353  70.267  1.00  0.00    -0.477 OA 
HETATM   15  C   UNL     1      -9.495   8.467  70.951  1.00  0.00    -0.221 A  
HETATM   16  H   UNL     1     -11.995   8.906  71.017  1.00  0.00     0.000 HD 
HETATM   17  C   UNL     1     -11.745  10.969  69.437  1.00  0.00    -0.394 A  
HETATM   18  C   UNL     1      -8.163   8.100  70.684  1.00  0.00    -0.114 A  
HETATM   19  C   UNL     1     -11.825  12.260  68.904  1.00  0.00    -0.355 A  
HETATM   20  C   UNL     1      -7.290   7.749  71.716  1.00  0.00    -0.068 A  
HETATM   21  C   UNL     1      -7.724   7.777  73.036  1.00  0.00    -0.149 A  
HETATM   22  C   UNL     1     -10.713  12.837  68.299  1.00  0.00    -0.257 A  
HETATM   23  C   UNL     1      -9.513  12.138  68.253  1.00  0.00    -0.204 A  
HETATM   24  C   UNL     1      -9.022   8.187  73.329  1.00  0.00    -0.332 A  
HETATM   25  C   UNL     1      -9.894   8.548  72.300  1.00  0.00    -0.383 A  
HETATM   26  C   UNL     1      -9.430  10.851  68.796  1.00  0.00    -0.196 A  
ENDBRANCH   9  10
ENDBRANCH   7   9
TORSDOF 2
ENDMDL
MODEL       71
REMARK 921   NORMALIZED FREE ENERGY PREDICTED BY IDOCK:   -4.94 KCAL/MOL
REMARK 922        TOTAL FREE ENERGY PREDICTED BY IDOCK:   -6.04 KCAL/MOL
REMARK 923 INTER-LIGAND FREE ENERGY PREDICTED BY IDOCK:   -5.62 KCAL/MOL
REMARK 924 INTRA-LIGAND FREE ENERGY PREDICTED BY IDOCK:   -0.42 KCAL/MOL
REMARK 927      BINDING AFFINITY PREDICTED BY RF-SCORE:    0.00 PKD
ROOT
HETATM    1  C   UNL     1     -11.908  15.542  68.597  1.00  0.00    -0.300 C  
HETATM    2  N   UNL     1     -11.006  14.627  67.760  1.00  0.00    -0.278 N  
HETATM    3  C   UNL     1      -9.697  15.384  67.487  1.00  0.00    -0.208 C  
HETATM    4  C   UNL     1     -11.747  14.331  66.452  1.00  0.00    -0.391 C  
HETATM    5  C   UNL     1      -8.636  14.489  66.863  1.00  0.00    -0.207 C  
HETATM    6  C   UNL     1      -8.383  13.258  67.711  1.00  0.00    -0.171 C  
HETATM    7  C   UNL     1      -9.666  12.453  67.893  1.00  0.00    -0.204 C  
HETATM    8  C   UNL     1     -10.744  13.323  68.559  1.00  0.00    -0.262 C  
ENDROOT
BRANCH   7   9
HETATM    9  O   UNL     1      -9.340  11.302  68.691  1.00  0.00    -0.180 OA 
BRANCH   9  10
HETATM   10  C   UNL     1      -9.954  10.152  68.226  1.00  0.00    -0.148 C  
HETATM   11  O   UNL     1     -10.717  10.170  67.266  1.00  0.00    -0.261 OA 
HETATM   12  C   UNL     1      -9.567   8.886  69.071  1.00  0.00    -0.158 C  
HETATM   13  C   UNL     1      -9.508   7.648  68.155  1.00  0.00    -0.150 A  
HETATM   14  O   UNL     1      -8.230   9.156  69.563  1.00  0.00    -0.109 OA 
HETATM   15  C   UNL     1     -10.502   8.737  70.280  1.00  0.00    -0.231 A  
HETATM   16  H   UNL     1      -7.995   8.390  70.073  1.00  0.00     0.000 HD 
HETATM   17  C   UNL     1      -8.301   6.968  67.906  1.00  0.00    -0.118 A  
HETATM   18  C   UNL     1     -11.853   9.126  70.217  1.00  0.00     0.032 A  
HETATM   19  C   UNL     1      -8.230   5.934  66.966  1.00  0.00    -0.105 A  
HETATM   20  C   UNL     1     -12.672   9.080  71.347  1.00  0.00    -0.361 A  
HETATM   21  C   UNL     1     -12.161   8.627  72.559  1.00  0.00    -0.374 A  
HETATM   22  C   UNL     1      -9.365   5.553  66.257  1.00  0.00    -0.166 A  
HETATM   23  C   UNL     1     -10.577   6.185  66.507  1.00  0.00    -0.214 A  
HETATM   24  C   UNL     1     -10.842   8.188  72.634  1.00  0.00    -0.429 A  
HETATM   25  C   UNL     1     -10.025   8.224  71.502  1.00  0.00    -0.260 A  
HETATM   26  C   UNL     1     -10.650   7.212  67.454  1.00  0.00    -0.372 A  
ENDBRANCH   9  10
ENDBRANCH   7   9
TORSDOF 2
ENDMDL
MODEL       72
REMARK 921   NORMALIZED FREE ENERGY PREDICTED BY IDOCK:   -4.92 KCAL/MOL
REMARK 922        TOTAL FREE ENERGY PREDICTED BY IDOCK:   -6.01 KCAL/MOL
REMARK 923 INTER-LIGAND FREE ENERGY PREDICTED BY IDOCK:   -5.85 KCAL/MOL
REMARK 924 INTRA-LIGAND FREE ENERGY PREDICTED BY IDOCK:   -0.16 KCAL/MOL
REMARK 927      BINDING AFFINITY PREDICTED BY RF-SCORE:    0.00 PKD
ROOT
HETATM    1  C   UNL     1      -6.446   8.485  64.536  1.00  0.00    -0.066 C  
HETATM    2  N   UNL     1      -7.454   9.175  65.463  1.00  0.00    -0.089 N  
HETATM    3  C   UNL     1      -8.691   9.531  64.625  1.00  0.00    -0.205 C  
HETATM    4  C   UNL     1      -6.780  10.439  66.005  1.00  0.00    -0.124 C  
HETATM    5  C   UNL     1      -9.849  10.011  65.488  1.00  0.00    -0.373 C  
HETATM    6  C   UNL     1     -10.196   8.997  66.560  1.00  0.00    -0.318 C  
HETATM    7  C   UNL     1      -8.991   8.723  67.456  1.00  0.00    -0.134 C  
HETATM    8  C   UNL     1      -7.817   8.199  66.613  1.00  0.00    -0.094 C  
ENDROOT
BRANCH   7   9
HETATM    9  O   UNL     1      -9.404   7.770  68.450  1.00  0.00    -0.144 OA 
BRANCH   9  10
HETATM   10  C   UNL     1     -10.084   8.367  69.497  1.00  0.00    -0.200 C  
HETATM   11  O   UNL     1     -10.301   9.573  69.522  1.00  0.00    -0.195 OA 
HETATM   12  C   UNL     1     -10.503   7.332  70.601  1.00  0.00    -0.214 C  
HETATM   13  C   UNL     1     -11.852   7.750  71.219  1.00  0.00    -0.318 A  
HETATM   14  O   UNL     1     -10.691   6.081  69.894  1.00  0.00    -0.260 OA 
HETATM   15  C   UNL     1      -9.370   7.142  71.621  1.00  0.00    -0.158 A  
HETATM   16  H   UNL     1     -10.946   5.455  70.562  1.00  0.00     0.000 HD 
HETATM   17  C   UNL     1     -13.013   6.969  71.059  1.00  0.00    -0.213 A  
HETATM   18  C   UNL     1      -8.510   8.199  71.971  1.00  0.00    -0.206 A  
HETATM   19  C   UNL     1     -14.260   7.423  71.502  1.00  0.00    -0.571 A  
HETATM   20  C   UNL     1      -7.422   7.994  72.822  1.00  0.00    -0.145 A  
HETATM   21  C   UNL     1      -7.184   6.733  73.356  1.00  0.00    -0.075 A  
HETATM   22  C   UNL     1     -14.375   8.665  72.117  1.00  0.00    -0.518 A  
HETATM   23  C   UNL     1     -13.240   9.442  72.318  1.00  0.00    -0.528 A  
HETATM   24  C   UNL     1      -8.051   5.683  73.066  1.00  0.00    -0.118 A  
HETATM   25  C   UNL     1      -9.145   5.888  72.223  1.00  0.00    -0.142 A  
HETATM   26  C   UNL     1     -11.991   8.984  71.885  1.00  0.00    -0.445 A  
ENDBRANCH   9  10
ENDBRANCH   7   9
TORSDOF 2
ENDMDL
MODEL       73
REMARK 921   NORMALIZED FREE ENERGY PREDICTED BY IDOCK:   -4.86 KCAL/MOL
REMARK 922        TOTAL FREE ENERGY PREDICTED BY IDOCK:   -5.95 KCAL/MOL
REMARK 923 INTER-LIGAND FREE ENERGY PREDICTED BY IDOCK:   -5.44 KCAL/MOL
REMARK 924 INTRA-LIGAND FREE ENERGY PREDICTED BY IDOCK:   -0.51 KCAL/MOL
REMARK 927      BINDING AFFINITY PREDICTED BY RF-SCORE:    0.00 PKD
ROOT
HETATM    1  C   UNL     1      -6.783   5.224  65.066  1.00  0.00    -0.048 C  
HETATM    2  N   UNL     1      -8.098   5.730  65.672  1.00  0.00    -0.113 N  
HETATM    3  C   UNL     1      -9.188   4.697  65.347  1.00  0.00    -0.155 C  
HETATM    4  C   UNL     1      -8.410   7.078  65.016  1.00  0.00    -0.046 C  
HETATM    5  C   UNL     1     -10.484   4.978  66.094  1.00  0.00    -0.334 C  
HETATM    6  C   UNL     1     -10.252   5.066  67.589  1.00  0.00    -0.168 C  
HETATM    7  C   UNL     1      -9.244   6.165  67.916  1.00  0.00    -0.115 C  
HETATM    8  C   UNL     1      -7.911   5.884  67.204  1.00  0.00    -0.102 C  
ENDROOT
BRANCH   7   9
HETATM    9  O   UNL     1      -9.091   6.195  69.345  1.00  0.00    -0.133 OA 
BRANCH   9  10
HETATM   10  C   UNL     1      -9.704   7.298  69.914  1.00  0.00    -0.174 C  
HETATM   11  O   UNL     1      -9.727   8.386  69.350  1.00  0.00    -0.173 OA 
HETATM   12  C   UNL     1     -10.322   6.976  71.321  1.00  0.00    -0.202 C  
HETATM   13  C   UNL     1     -11.608   7.801  71.525  1.00  0.00    -0.303 A  
HETATM   14  O   UNL     1     -10.682   5.573  71.263  1.00  0.00    -0.251 OA 
HETATM   15  C   UNL     1      -9.271   7.157  72.426  1.00  0.00    -0.154 A  
HETATM   16  H   UNL     1     -11.057   5.379  72.114  1.00  0.00     0.000 HD 
HETATM   17  C   UNL     1     -12.872   7.188  71.624  1.00  0.00    -0.420 A  
HETATM   18  C   UNL     1      -8.266   8.137  72.333  1.00  0.00    -0.206 A  
HETATM   19  C   UNL     1     -14.046   7.949  71.668  1.00  0.00    -0.528 A  
HETATM   20  C   UNL     1      -7.256   8.231  73.292  1.00  0.00    -0.149 A  
HETATM   21  C   UNL     1      -7.240   7.358  74.374  1.00  0.00    -0.128 A  
HETATM   22  C   UNL     1     -13.983   9.338  71.617  1.00  0.00    -0.299 A  
HETATM   23  C   UNL     1     -12.746   9.969  71.553  1.00  0.00    -0.532 A  
HETATM   24  C   UNL     1      -8.253   6.414  74.517  1.00  0.00    -0.134 A  
HETATM   25  C   UNL     1      -9.270   6.325  73.564  1.00  0.00    -0.137 A  
HETATM   26  C   UNL     1     -11.572   9.210  71.519  1.00  0.00    -0.439 A  
ENDBRANCH   9  10
ENDBRANCH   7   9
TORSDOF 2
ENDMDL
MODEL       74
REMARK 921   NORMALIZED FREE ENERGY PREDICTED BY IDOCK:   -4.86 KCAL/MOL
REMARK 922        TOTAL FREE ENERGY PREDICTED BY IDOCK:   -5.95 KCAL/MOL
REMARK 923 INTER-LIGAND FREE ENERGY PREDICTED BY IDOCK:   -6.19 KCAL/MOL
REMARK 924 INTRA-LIGAND FREE ENERGY PREDICTED BY IDOCK:    0.25 KCAL/MOL
REMARK 927      BINDING AFFINITY PREDICTED BY RF-SCORE:    0.00 PKD
ROOT
HETATM    1  C   UNL     1      -8.567   5.860  69.134  1.00  0.00    -0.115 C  
HETATM    2  N   UNL     1      -9.673   6.544  69.947  1.00  0.00    -0.163 N  
HETATM    3  C   UNL     1      -9.289   6.446  71.432  1.00  0.00    -0.152 C  
HETATM    4  C   UNL     1     -10.975   5.786  69.669  1.00  0.00    -0.315 C  
HETATM    5  C   UNL     1     -10.195   7.291  72.315  1.00  0.00    -0.225 C  
HETATM    6  C   UNL     1     -10.222   8.736  71.858  1.00  0.00    -0.415 C  
HETATM    7  C   UNL     1     -10.704   8.837  70.413  1.00  0.00    -0.225 C  
HETATM    8  C   UNL     1      -9.780   8.023  69.492  1.00  0.00    -0.170 C  
ENDROOT
BRANCH   7   9
HETATM    9  O   UNL     1     -10.714  10.231  70.062  1.00  0.00    -0.272 OA 
BRANCH   9  10
HETATM   10  C   UNL     1      -9.746  10.542  69.123  1.00  0.00    -0.211 C  
HETATM   11  O   UNL     1      -8.550  10.484  69.386  1.00  0.00    -0.154 OA 
HETATM   12  C   UNL     1     -10.367  10.971  67.746  1.00  0.00    -0.188 C  
HETATM   13  C   UNL     1      -9.459  10.498  66.595  1.00  0.00    -0.199 A  
HETATM   14  O   UNL     1     -11.626  10.256  67.661  1.00  0.00    -0.602 OA 
HETATM   15  C   UNL     1     -10.670  12.477  67.737  1.00  0.00    -0.242 A  
HETATM   16  H   UNL     1     -12.001  10.516  66.828  1.00  0.00     0.000 HD 
HETATM   17  C   UNL     1      -9.882   9.524  65.671  1.00  0.00    -0.343 A  
HETATM   18  C   UNL     1      -9.862  13.394  68.435  1.00  0.00    -0.216 A  
HETATM   19  C   UNL     1      -9.004   8.998  64.716  1.00  0.00    -0.146 A  
HETATM   20  C   UNL     1     -10.198  14.747  68.504  1.00  0.00    -0.232 A  
HETATM   21  C   UNL     1     -11.339  15.215  67.861  1.00  0.00    -0.346 A  
HETATM   22  C   UNL     1      -7.685   9.436  64.662  1.00  0.00    -0.117 A  
HETATM   23  C   UNL     1      -7.249  10.420  65.541  1.00  0.00    -0.138 A  
HETATM   24  C   UNL     1     -12.126  14.337  67.121  1.00  0.00    -0.412 A  
HETATM   25  C   UNL     1     -11.786  12.985  67.043  1.00  0.00    -0.441 A  
HETATM   26  C   UNL     1      -8.129  10.954  66.489  1.00  0.00    -0.154 A  
ENDBRANCH   9  10
ENDBRANCH   7   9
TORSDOF 2
ENDMDL
MODEL       75
REMARK 921   NORMALIZED FREE ENERGY PREDICTED BY IDOCK:   -4.84 KCAL/MOL
REMARK 922        TOTAL FREE ENERGY PREDICTED BY IDOCK:   -5.92 KCAL/MOL
REMARK 923 INTER-LIGAND FREE ENERGY PREDICTED BY IDOCK:   -5.65 KCAL/MOL
REMARK 924 INTRA-LIGAND FREE ENERGY PREDICTED BY IDOCK:   -0.27 KCAL/MOL
REMARK 927      BINDING AFFINITY PREDICTED BY RF-SCORE:    0.00 PKD
ROOT
HETATM    1  C   UNL     1     -10.046  15.446  69.256  1.00  0.00    -0.253 C  
HETATM    2  N   UNL     1     -10.775  14.270  68.595  1.00  0.00    -0.242 N  
HETATM    3  C   UNL     1     -11.278  14.743  67.223  1.00  0.00    -0.346 C  
HETATM    4  C   UNL     1     -11.948  13.895  69.507  1.00  0.00    -0.343 C  
HETATM    5  C   UNL     1     -11.814  13.594  66.382  1.00  0.00    -0.433 C  
HETATM    6  C   UNL     1     -10.784  12.492  66.230  1.00  0.00    -0.288 C  
HETATM    7  C   UNL     1     -10.363  11.953  67.595  1.00  0.00    -0.200 C  
HETATM    8  C   UNL     1      -9.780  13.088  68.452  1.00  0.00    -0.192 C  
ENDROOT
BRANCH   7   9
HETATM    9  O   UNL     1      -9.402  10.909  67.365  1.00  0.00    -0.154 OA 
BRANCH   9  10
HETATM   10  C   UNL     1      -9.994   9.660  67.294  1.00  0.00    -0.197 C  
HETATM   11  O   UNL     1     -11.033   9.472  66.670  1.00  0.00     0.009 OA 
HETATM   12  C   UNL     1      -9.194   8.574  68.099  1.00  0.00    -0.137 C  
HETATM   13  C   UNL     1      -9.300   7.213  67.384  1.00  0.00    -0.144 A  
HETATM   14  O   UNL     1      -7.812   9.011  68.050  1.00  0.00    -0.099 OA 
HETATM   15  C   UNL     1      -9.639   8.555  69.568  1.00  0.00    -0.170 A  
HETATM   16  H   UNL     1      -7.328   8.355  68.536  1.00  0.00     0.000 HD 
HETATM   17  C   UNL     1      -8.176   6.589  66.811  1.00  0.00    -0.110 A  
HETATM   18  C   UNL     1     -10.968   8.833  69.938  1.00  0.00    -0.184 A  
HETATM   19  C   UNL     1      -8.303   5.425  66.044  1.00  0.00    -0.120 A  
HETATM   20  C   UNL     1     -11.344   8.912  71.281  1.00  0.00    -0.371 A  
HETATM   21  C   UNL     1     -10.402   8.693  72.281  1.00  0.00    -0.376 A  
HETATM   22  C   UNL     1      -9.556   4.859  65.834  1.00  0.00    -0.185 A  
HETATM   23  C   UNL     1     -10.679   5.436  66.415  1.00  0.00    -0.284 A  
HETATM   24  C   UNL     1      -9.093   8.365  71.940  1.00  0.00    -0.288 A  
HETATM   25  C   UNL     1      -8.718   8.277  70.598  1.00  0.00    -0.144 A  
HETATM   26  C   UNL     1     -10.551   6.593  67.191  1.00  0.00    -0.401 A  
ENDBRANCH   9  10
ENDBRANCH   7   9
TORSDOF 2
ENDMDL
MODEL       76
REMARK 921   NORMALIZED FREE ENERGY PREDICTED BY IDOCK:   -4.82 KCAL/MOL
REMARK 922        TOTAL FREE ENERGY PREDICTED BY IDOCK:   -5.90 KCAL/MOL
REMARK 923 INTER-LIGAND FREE ENERGY PREDICTED BY IDOCK:   -5.43 KCAL/MOL
REMARK 924 INTRA-LIGAND FREE ENERGY PREDICTED BY IDOCK:   -0.47 KCAL/MOL
REMARK 927      BINDING AFFINITY PREDICTED BY RF-SCORE:    0.00 PKD
ROOT
HETATM    1  C   UNL     1      -9.985  10.382  66.650  1.00  0.00    -0.210 C  
HETATM    2  N   UNL     1      -9.271  11.255  67.689  1.00  0.00    -0.154 N  
HETATM    3  C   UNL     1      -8.201  10.389  68.371  1.00  0.00    -0.114 C  
HETATM    4  C   UNL     1     -10.328  11.712  68.699  1.00  0.00    -0.215 C  
HETATM    5  C   UNL     1      -7.276  11.211  69.257  1.00  0.00    -0.112 C  
HETATM    6  C   UNL     1      -6.639  12.349  68.484  1.00  0.00    -0.073 C  
HETATM    7  C   UNL     1      -7.707  13.267  67.894  1.00  0.00    -0.152 C  
HETATM    8  C   UNL     1      -8.632  12.468  66.963  1.00  0.00    -0.188 C  
ENDROOT
BRANCH   7   9
HETATM    9  O   UNL     1      -7.026  14.322  67.194  1.00  0.00    -0.159 OA 
BRANCH   9  10
HETATM   10  C   UNL     1      -7.130  15.537  67.849  1.00  0.00    -0.139 C  
HETATM   11  O   UNL     1      -6.331  15.874  68.717  1.00  0.00    -0.110 OA 
HETATM   12  C   UNL     1      -8.364  16.375  67.358  1.00  0.00    -0.164 C  
HETATM   13  C   UNL     1      -8.021  17.877  67.396  1.00  0.00    -0.221 A  
HETATM   14  O   UNL     1      -8.559  15.984  65.976  1.00  0.00    -0.322 OA 
HETATM   15  C   UNL     1      -9.624  15.992  68.148  1.00  0.00    -0.209 A  
HETATM   16  H   UNL     1      -9.305  16.491  65.679  1.00  0.00     0.000 HD 
HETATM   17  C   UNL     1      -7.937  18.646  66.220  1.00  0.00    -0.276 A  
HETATM   18  C   UNL     1      -9.557  15.608  69.500  1.00  0.00    -0.279 A  
HETATM   19  C   UNL     1      -7.489  19.972  66.250  1.00  0.00    -0.323 A  
HETATM   20  C   UNL     1     -10.692  15.166  70.184  1.00  0.00    -0.245 A  
HETATM   21  C   UNL     1     -11.921  15.118  69.535  1.00  0.00    -0.351 A  
HETATM   22  C   UNL     1      -7.119  20.559  67.456  1.00  0.00    -0.370 A  
HETATM   23  C   UNL     1      -7.224  19.832  68.636  1.00  0.00    -0.358 A  
HETATM   24  C   UNL     1     -12.023  15.542  68.213  1.00  0.00    -0.059 A  
HETATM   25  C   UNL     1     -10.891  15.993  67.531  1.00  0.00    -0.292 A  
HETATM   26  C   UNL     1      -7.681  18.511  68.608  1.00  0.00    -0.332 A  
ENDBRANCH   9  10
ENDBRANCH   7   9
TORSDOF 2
ENDMDL
MODEL       77
REMARK 921   NORMALIZED FREE ENERGY PREDICTED BY IDOCK:   -4.80 KCAL/MOL
REMARK 922        TOTAL FREE ENERGY PREDICTED BY IDOCK:   -5.88 KCAL/MOL
REMARK 923 INTER-LIGAND FREE ENERGY PREDICTED BY IDOCK:   -5.46 KCAL/MOL
REMARK 924 INTRA-LIGAND FREE ENERGY PREDICTED BY IDOCK:   -0.42 KCAL/MOL
REMARK 927      BINDING AFFINITY PREDICTED BY RF-SCORE:    0.00 PKD
ROOT
HETATM    1  C   UNL     1     -10.484  15.549  65.640  1.00  0.00    -0.374 C  
HETATM    2  N   UNL     1     -11.062  14.134  65.514  1.00  0.00    -0.302 N  
HETATM    3  C   UNL     1     -11.672  14.001  64.110  1.00  0.00    -0.315 C  
HETATM    4  C   UNL     1     -12.140  13.987  66.593  1.00  0.00    -0.456 C  
HETATM    5  C   UNL     1     -12.069  12.568  63.790  1.00  0.00    -0.615 C  
HETATM    6  C   UNL     1     -10.900  11.619  63.964  1.00  0.00    -0.455 C  
HETATM    7  C   UNL     1     -10.362  11.677  65.391  1.00  0.00    -0.267 C  
HETATM    8  C   UNL     1      -9.917  13.110  65.727  1.00  0.00    -0.252 C  
ENDROOT
BRANCH   7   9
HETATM    9  O   UNL     1      -9.272  10.744  65.477  1.00  0.00    -0.186 OA 
BRANCH   9  10
HETATM   10  C   UNL     1      -9.616   9.602  66.179  1.00  0.00    -0.233 C  
HETATM   11  O   UNL     1     -10.764   9.398  66.559  1.00  0.00    -0.107 OA 
HETATM   12  C   UNL     1      -8.384   8.658  66.420  1.00  0.00    -0.113 C  
HETATM   13  C   UNL     1      -8.842   7.187  66.386  1.00  0.00    -0.161 A  
HETATM   14  O   UNL     1      -7.504   8.890  65.292  1.00  0.00    -0.087 OA 
HETATM   15  C   UNL     1      -7.639   9.060  67.702  1.00  0.00    -0.093 A  
HETATM   16  H   UNL     1      -6.760   8.319  65.438  1.00  0.00     0.000 HD 
HETATM   17  C   UNL     1      -8.415   6.302  65.377  1.00  0.00    -0.131 A  
HETATM   18  C   UNL     1      -8.320   9.587  68.814  1.00  0.00    -0.117 A  
HETATM   19  C   UNL     1      -8.943   5.011  65.271  1.00  0.00    -0.151 A  
HETATM   20  C   UNL     1      -7.627  10.043  69.937  1.00  0.00    -0.177 A  
HETATM   21  C   UNL     1      -6.239   9.962  69.979  1.00  0.00    -0.065 A  
HETATM   22  C   UNL     1      -9.908   4.573  66.174  1.00  0.00    -0.243 A  
HETATM   23  C   UNL     1     -10.324   5.414  67.199  1.00  0.00    -0.288 A  
HETATM   24  C   UNL     1      -5.546   9.396  68.912  1.00  0.00    -0.036 A  
HETATM   25  C   UNL     1      -6.239   8.931  67.792  1.00  0.00    -0.055 A  
HETATM   26  C   UNL     1      -9.788   6.701  67.311  1.00  0.00    -0.184 A  
ENDBRANCH   9  10
ENDBRANCH   7   9
TORSDOF 2
ENDMDL
MODEL       78
REMARK 921   NORMALIZED FREE ENERGY PREDICTED BY IDOCK:   -4.80 KCAL/MOL
REMARK 922        TOTAL FREE ENERGY PREDICTED BY IDOCK:   -5.88 KCAL/MOL
REMARK 923 INTER-LIGAND FREE ENERGY PREDICTED BY IDOCK:   -6.31 KCAL/MOL
REMARK 924 INTRA-LIGAND FREE ENERGY PREDICTED BY IDOCK:    0.43 KCAL/MOL
REMARK 927      BINDING AFFINITY PREDICTED BY RF-SCORE:    0.00 PKD
ROOT
HETATM    1  C   UNL     1     -10.456  19.819  68.158  1.00  0.00    -0.360 C  
HETATM    2  N   UNL     1     -10.055  18.959  66.953  1.00  0.00    -0.340 N  
HETATM    3  C   UNL     1      -8.527  18.793  66.986  1.00  0.00    -0.281 C  
HETATM    4  C   UNL     1     -10.495  19.711  65.693  1.00  0.00    -0.349 C  
HETATM    5  C   UNL     1      -8.041  17.769  65.971  1.00  0.00    -0.136 C  
HETATM    6  C   UNL     1      -8.734  16.434  66.159  1.00  0.00    -0.347 C  
HETATM    7  C   UNL     1     -10.247  16.585  66.022  1.00  0.00    -0.356 C  
HETATM    8  C   UNL     1     -10.771  17.588  67.064  1.00  0.00    -0.157 C  
ENDROOT
BRANCH   7   9
HETATM    9  O   UNL     1     -10.826  15.281  66.197  1.00  0.00    -0.316 OA 
BRANCH   9  10
HETATM   10  C   UNL     1     -11.100  15.004  67.525  1.00  0.00    -0.317 C  
HETATM   11  O   UNL     1     -11.891  15.677  68.175  1.00  0.00    -0.286 OA 
HETATM   12  C   UNL     1     -10.280  13.774  68.057  1.00  0.00    -0.248 C  
HETATM   13  C   UNL     1     -11.122  12.995  69.087  1.00  0.00    -0.245 A  
HETATM   14  O   UNL     1     -10.075  12.928  66.899  1.00  0.00    -0.234 OA 
HETATM   15  C   UNL     1      -8.906  14.225  68.573  1.00  0.00    -0.176 A  
HETATM   16  H   UNL     1      -9.580  12.184  67.221  1.00  0.00     0.000 HD 
HETATM   17  C   UNL     1     -11.566  11.683  68.838  1.00  0.00    -0.377 A  
HETATM   18  C   UNL     1      -8.724  15.479  69.183  1.00  0.00    -0.247 A  
HETATM   19  C   UNL     1     -12.445  11.035  69.713  1.00  0.00    -0.251 A  
HETATM   20  C   UNL     1      -7.454  15.923  69.560  1.00  0.00    -0.157 A  
HETATM   21  C   UNL     1      -6.344  15.113  69.352  1.00  0.00    -0.129 A  
HETATM   22  C   UNL     1     -12.897  11.683  70.858  1.00  0.00    -0.264 A  
HETATM   23  C   UNL     1     -12.449  12.967  71.145  1.00  0.00    -0.344 A  
HETATM   24  C   UNL     1      -6.505  13.845  68.798  1.00  0.00    -0.094 A  
HETATM   25  C   UNL     1      -7.775  13.397  68.429  1.00  0.00    -0.138 A  
HETATM   26  C   UNL     1     -11.562  13.611  70.276  1.00  0.00    -0.162 A  
ENDBRANCH   9  10
ENDBRANCH   7   9
TORSDOF 2
ENDMDL
MODEL       79
REMARK 921   NORMALIZED FREE ENERGY PREDICTED BY IDOCK:   -4.77 KCAL/MOL
REMARK 922        TOTAL FREE ENERGY PREDICTED BY IDOCK:   -5.85 KCAL/MOL
REMARK 923 INTER-LIGAND FREE ENERGY PREDICTED BY IDOCK:   -5.22 KCAL/MOL
REMARK 924 INTRA-LIGAND FREE ENERGY PREDICTED BY IDOCK:   -0.63 KCAL/MOL
REMARK 927      BINDING AFFINITY PREDICTED BY RF-SCORE:    0.00 PKD
ROOT
HETATM    1  C   UNL     1      -8.478   3.961  71.922  1.00  0.00    -0.098 C  
HETATM    2  N   UNL     1      -9.164   5.266  72.345  1.00  0.00    -0.140 N  
HETATM    3  C   UNL     1      -8.760   5.557  73.798  1.00  0.00    -0.118 C  
HETATM    4  C   UNL     1     -10.675   5.041  72.233  1.00  0.00    -0.180 C  
HETATM    5  C   UNL     1      -9.194   6.944  74.248  1.00  0.00    -0.255 C  
HETATM    6  C   UNL     1      -8.667   8.017  73.316  1.00  0.00    -0.308 C  
HETATM    7  C   UNL     1      -9.157   7.783  71.889  1.00  0.00    -0.134 C  
HETATM    8  C   UNL     1      -8.697   6.401  71.395  1.00  0.00    -0.131 C  
ENDROOT
BRANCH   7   9
HETATM    9  O   UNL     1      -8.630   8.844  71.075  1.00  0.00    -0.172 OA 
BRANCH   9  10
HETATM   10  C   UNL     1      -9.609   9.450  70.307  1.00  0.00    -0.249 C  
HETATM   11  O   UNL     1     -10.665   9.837  70.795  1.00  0.00    -0.303 OA 
HETATM   12  C   UNL     1      -9.200   9.553  68.794  1.00  0.00    -0.140 C  
HETATM   13  C   UNL     1      -9.775  10.848  68.188  1.00  0.00    -0.174 A  
HETATM   14  O   UNL     1      -7.754   9.653  68.800  1.00  0.00    -0.078 OA 
HETATM   15  C   UNL     1      -9.590   8.272  68.042  1.00  0.00    -0.171 A  
HETATM   16  H   UNL     1      -7.507   9.716  67.885  1.00  0.00     0.000 HD 
HETATM   17  C   UNL     1      -8.941  11.892  67.745  1.00  0.00    -0.173 A  
HETATM   18  C   UNL     1     -10.739   7.536  68.388  1.00  0.00    -0.115 A  
HETATM   19  C   UNL     1      -9.471  13.118  67.327  1.00  0.00    -0.225 A  
HETATM   20  C   UNL     1     -11.033   6.321  67.766  1.00  0.00    -0.427 A  
HETATM   21  C   UNL     1     -10.196   5.827  66.772  1.00  0.00    -0.269 A  
HETATM   22  C   UNL     1     -10.846  13.326  67.338  1.00  0.00    -0.279 A  
HETATM   23  C   UNL     1     -11.695  12.301  67.738  1.00  0.00    -0.403 A  
HETATM   24  C   UNL     1      -9.082   6.563  66.375  1.00  0.00    -0.172 A  
HETATM   25  C   UNL     1      -8.791   7.782  66.989  1.00  0.00    -0.136 A  
HETATM   26  C   UNL     1     -11.166  11.072  68.147  1.00  0.00    -0.364 A  
ENDBRANCH   9  10
ENDBRANCH   7   9
TORSDOF 2
ENDMDL
MODEL       80
REMARK 921   NORMALIZED FREE ENERGY PREDICTED BY IDOCK:   -4.74 KCAL/MOL
REMARK 922        TOTAL FREE ENERGY PREDICTED BY IDOCK:   -5.81 KCAL/MOL
REMARK 923 INTER-LIGAND FREE ENERGY PREDICTED BY IDOCK:   -5.14 KCAL/MOL
REMARK 924 INTRA-LIGAND FREE ENERGY PREDICTED BY IDOCK:   -0.67 KCAL/MOL
REMARK 927      BINDING AFFINITY PREDICTED BY RF-SCORE:    0.00 PKD
ROOT
HETATM    1  C   UNL     1      -6.083   6.182  70.926  1.00  0.00    -0.038 C  
HETATM    2  N   UNL     1      -6.446   7.672  70.957  1.00  0.00    -0.038 N  
HETATM    3  C   UNL     1      -5.214   8.442  71.458  1.00  0.00    -0.033 C  
HETATM    4  C   UNL     1      -7.621   7.831  71.927  1.00  0.00    -0.086 C  
HETATM    5  C   UNL     1      -5.381   9.947  71.310  1.00  0.00    -0.075 C  
HETATM    6  C   UNL     1      -5.714  10.329  69.882  1.00  0.00    -0.047 C  
HETATM    7  C   UNL     1      -6.997   9.642  69.423  1.00  0.00    -0.056 C  
HETATM    8  C   UNL     1      -6.841   8.116  69.525  1.00  0.00    -0.042 C  
ENDROOT
BRANCH   7   9
HETATM    9  O   UNL     1      -7.250  10.065  68.072  1.00  0.00    -0.081 OA 
BRANCH   9  10
HETATM   10  C   UNL     1      -8.510  10.620  67.926  1.00  0.00    -0.120 C  
HETATM   11  O   UNL     1      -8.834  11.648  68.508  1.00  0.00    -0.165 OA 
HETATM   12  C   UNL     1      -9.423   9.777  66.966  1.00  0.00    -0.157 C  
HETATM   13  C   UNL     1     -10.358  10.717  66.179  1.00  0.00    -0.300 A  
HETATM   14  O   UNL     1      -8.511   9.150  66.030  1.00  0.00    -0.122 OA 
HETATM   15  C   UNL     1     -10.148   8.670  67.745  1.00  0.00    -0.266 A  
HETATM   16  H   UNL     1      -9.064   8.641  65.449  1.00  0.00     0.000 HD 
HETATM   17  C   UNL     1     -10.252  10.867  64.783  1.00  0.00    -0.398 A  
HETATM   18  C   UNL     1     -10.551   8.852  69.081  1.00  0.00    -0.211 A  
HETATM   19  C   UNL     1     -11.008  11.824  64.096  1.00  0.00    -0.437 A  
HETATM   20  C   UNL     1     -11.119   7.809  69.814  1.00  0.00    -0.095 A  
HETATM   21  C   UNL     1     -11.315   6.567  69.221  1.00  0.00    -0.359 A  
HETATM   22  C   UNL     1     -11.887  12.650  64.788  1.00  0.00    -0.434 A  
HETATM   23  C   UNL     1     -12.034  12.502  66.162  1.00  0.00    -0.432 A  
HETATM   24  C   UNL     1     -10.973   6.376  67.884  1.00  0.00    -0.416 A  
HETATM   25  C   UNL     1     -10.413   7.421  67.147  1.00  0.00    -0.403 A  
HETATM   26  C   UNL     1     -11.288  11.538  66.848  1.00  0.00    -0.324 A  
ENDBRANCH   9  10
ENDBRANCH   7   9
TORSDOF 2
ENDMDL
MODEL       81
REMARK 921   NORMALIZED FREE ENERGY PREDICTED BY IDOCK:   -4.70 KCAL/MOL
REMARK 922        TOTAL FREE ENERGY PREDICTED BY IDOCK:   -5.77 KCAL/MOL
REMARK 923 INTER-LIGAND FREE ENERGY PREDICTED BY IDOCK:   -5.96 KCAL/MOL
REMARK 924 INTRA-LIGAND FREE ENERGY PREDICTED BY IDOCK:    0.19 KCAL/MOL
REMARK 927      BINDING AFFINITY PREDICTED BY RF-SCORE:    0.00 PKD
ROOT
HETATM    1  C   UNL     1     -10.504  15.231  67.483  1.00  0.00    -0.265 C  
HETATM    2  N   UNL     1     -11.187  13.896  67.163  1.00  0.00    -0.304 N  
HETATM    3  C   UNL     1     -11.989  14.082  65.865  1.00  0.00    -0.408 C  
HETATM    4  C   UNL     1     -12.116  13.570  68.337  1.00  0.00    -0.258 C  
HETATM    5  C   UNL     1     -12.521  12.761  65.327  1.00  0.00    -0.528 C  
HETATM    6  C   UNL     1     -11.405  11.754  65.134  1.00  0.00    -0.281 C  
HETATM    7  C   UNL     1     -10.677  11.494  66.450  1.00  0.00    -0.273 C  
HETATM    8  C   UNL     1     -10.094  12.808  66.997  1.00  0.00    -0.240 C  
ENDROOT
BRANCH   7   9
HETATM    9  O   UNL     1      -9.650  10.523  66.187  1.00  0.00    -0.176 OA 
BRANCH   9  10
HETATM   10  C   UNL     1      -9.158   9.954  67.350  1.00  0.00    -0.134 C  
HETATM   11  O   UNL     1      -8.155  10.386  67.906  1.00  0.00    -0.102 OA 
HETATM   12  C   UNL     1     -10.017   8.727  67.822  1.00  0.00    -0.194 C  
HETATM   13  C   UNL     1     -10.036   8.668  69.362  1.00  0.00    -0.204 A  
HETATM   14  O   UNL     1     -11.362   9.007  67.357  1.00  0.00    -0.199 OA 
HETATM   15  C   UNL     1      -9.534   7.437  67.144  1.00  0.00    -0.187 A  
HETATM   16  H   UNL     1     -11.881   8.265  67.644  1.00  0.00     0.000 HD 
HETATM   17  C   UNL     1     -11.221   8.869  70.095  1.00  0.00    -0.175 A  
HETATM   18  C   UNL     1      -8.178   7.236  66.827  1.00  0.00    -0.121 A  
HETATM   19  C   UNL     1     -11.205   8.953  71.492  1.00  0.00    -0.396 A  
HETATM   20  C   UNL     1      -7.760   6.105  66.122  1.00  0.00    -0.099 A  
HETATM   21  C   UNL     1      -8.687   5.143  65.737  1.00  0.00    -0.139 A  
HETATM   22  C   UNL     1     -10.006   8.836  72.187  1.00  0.00    -0.359 A  
HETATM   23  C   UNL     1      -8.826   8.604  71.490  1.00  0.00    -0.285 A  
HETATM   24  C   UNL     1     -10.026   5.293  66.085  1.00  0.00    -0.191 A  
HETATM   25  C   UNL     1     -10.444   6.419  66.798  1.00  0.00    -0.304 A  
HETATM   26  C   UNL     1      -8.843   8.509  70.095  1.00  0.00    -0.138 A  
ENDBRANCH   9  10
ENDBRANCH   7   9
TORSDOF 2
ENDMDL
MODEL       82
REMARK 921   NORMALIZED FREE ENERGY PREDICTED BY IDOCK:   -4.70 KCAL/MOL
REMARK 922        TOTAL FREE ENERGY PREDICTED BY IDOCK:   -5.76 KCAL/MOL
REMARK 923 INTER-LIGAND FREE ENERGY PREDICTED BY IDOCK:   -5.22 KCAL/MOL
REMARK 924 INTRA-LIGAND FREE ENERGY PREDICTED BY IDOCK:   -0.54 KCAL/MOL
REMARK 927      BINDING AFFINITY PREDICTED BY RF-SCORE:    0.00 PKD
ROOT
HETATM    1  C   UNL     1      -9.690  10.230  63.245  1.00  0.00    -0.174 C  
HETATM    2  N   UNL     1      -9.589  10.927  64.608  1.00  0.00    -0.237 N  
HETATM    3  C   UNL     1     -10.085  12.371  64.431  1.00  0.00    -0.267 C  
HETATM    4  C   UNL     1      -8.114  10.903  65.021  1.00  0.00     0.130 C  
HETATM    5  C   UNL     1     -10.247  13.087  65.764  1.00  0.00    -0.297 C  
HETATM    6  C   UNL     1     -11.154  12.315  66.700  1.00  0.00    -0.344 C  
HETATM    7  C   UNL     1     -10.603  10.915  66.955  1.00  0.00    -0.257 C  
HETATM    8  C   UNL     1     -10.466  10.153  65.627  1.00  0.00    -0.033 C  
ENDROOT
BRANCH   7   9
HETATM    9  O   UNL     1     -11.507  10.256  67.858  1.00  0.00    -0.346 OA 
BRANCH   9  10
HETATM   10  C   UNL     1     -10.895   9.910  69.051  1.00  0.00    -0.215 C  
HETATM   11  O   UNL     1     -10.742  10.721  69.957  1.00  0.00    -0.220 OA 
HETATM   12  C   UNL     1     -10.435   8.408  69.070  1.00  0.00    -0.201 C  
HETATM   13  C   UNL     1     -10.571   7.842  70.497  1.00  0.00    -0.226 A  
HETATM   14  O   UNL     1     -11.373   7.715  68.210  1.00  0.00    -0.227 OA 
HETATM   15  C   UNL     1      -9.031   8.266  68.463  1.00  0.00    -0.137 A  
HETATM   16  H   UNL     1     -11.095   6.807  68.222  1.00  0.00     0.000 HD 
HETATM   17  C   UNL     1     -11.490   6.819  70.802  1.00  0.00    -0.392 A  
HETATM   18  C   UNL     1      -8.062   9.277  68.605  1.00  0.00    -0.105 A  
HETATM   19  C   UNL     1     -11.708   6.408  72.122  1.00  0.00    -0.366 A  
HETATM   20  C   UNL     1      -6.823   9.185  67.968  1.00  0.00    -0.069 A  
HETATM   21  C   UNL     1      -6.521   8.072  67.191  1.00  0.00    -0.057 A  
HETATM   22  C   UNL     1     -11.009   7.007  73.166  1.00  0.00    -0.315 A  
HETATM   23  C   UNL     1     -10.073   7.996  72.890  1.00  0.00    -0.376 A  
HETATM   24  C   UNL     1      -7.443   7.035  67.078  1.00  0.00    -0.094 A  
HETATM   25  C   UNL     1      -8.678   7.121  67.722  1.00  0.00    -0.125 A  
HETATM   26  C   UNL     1      -9.847   8.399  71.570  1.00  0.00    -0.274 A  
ENDBRANCH   9  10
ENDBRANCH   7   9
TORSDOF 2
ENDMDL
MODEL       83
REMARK 921   NORMALIZED FREE ENERGY PREDICTED BY IDOCK:   -4.68 KCAL/MOL
REMARK 922        TOTAL FREE ENERGY PREDICTED BY IDOCK:   -5.75 KCAL/MOL
REMARK 923 INTER-LIGAND FREE ENERGY PREDICTED BY IDOCK:   -5.46 KCAL/MOL
REMARK 924 INTRA-LIGAND FREE ENERGY PREDICTED BY IDOCK:   -0.29 KCAL/MOL
REMARK 927      BINDING AFFINITY PREDICTED BY RF-SCORE:    0.00 PKD
ROOT
HETATM    1  C   UNL     1      -9.010   3.956  64.492  1.00  0.00    -0.132 C  
HETATM    2  N   UNL     1      -8.595   5.051  65.482  1.00  0.00    -0.133 N  
HETATM    3  C   UNL     1      -8.316   6.329  64.676  1.00  0.00    -0.026 C  
HETATM    4  C   UNL     1      -7.326   4.565  66.190  1.00  0.00    -0.077 C  
HETATM    5  C   UNL     1      -8.120   7.542  65.573  1.00  0.00    -0.131 C  
HETATM    6  C   UNL     1      -9.301   7.737  66.504  1.00  0.00    -0.243 C  
HETATM    7  C   UNL     1      -9.511   6.503  67.377  1.00  0.00    -0.124 C  
HETATM    8  C   UNL     1      -9.750   5.268  66.494  1.00  0.00    -0.167 C  
ENDROOT
BRANCH   7   9
HETATM    9  O   UNL     1     -10.632   6.772  68.236  1.00  0.00    -0.196 OA 
BRANCH   9  10
HETATM   10  C   UNL     1     -10.454   6.252  69.507  1.00  0.00    -0.237 C  
HETATM   11  O   UNL     1     -10.425   5.044  69.712  1.00  0.00    -0.263 OA 
HETATM   12  C   UNL     1     -10.318   7.375  70.596  1.00  0.00    -0.212 C  
HETATM   13  C   UNL     1      -9.345   6.914  71.699  1.00  0.00    -0.154 A  
HETATM   14  O   UNL     1      -9.724   8.502  69.903  1.00  0.00    -0.176 OA 
HETATM   15  C   UNL     1     -11.701   7.801  71.108  1.00  0.00    -0.304 A  
HETATM   16  H   UNL     1      -9.641   9.181  70.563  1.00  0.00     0.000 HD 
HETATM   17  C   UNL     1      -8.109   7.554  71.910  1.00  0.00    -0.103 A  
HETATM   18  C   UNL     1     -12.764   6.884  71.206  1.00  0.00    -0.368 A  
HETATM   19  C   UNL     1      -7.172   7.044  72.817  1.00  0.00    -0.073 A  
HETATM   20  C   UNL     1     -14.044   7.298  71.578  1.00  0.00    -0.515 A  
HETATM   21  C   UNL     1     -14.284   8.634  71.879  1.00  0.00    -0.507 A  
HETATM   22  C   UNL     1      -7.452   5.885  73.534  1.00  0.00    -0.093 A  
HETATM   23  C   UNL     1      -8.678   5.252  73.369  1.00  0.00    -0.115 A  
HETATM   24  C   UNL     1     -13.237   9.551  71.840  1.00  0.00    -0.524 A  
HETATM   25  C   UNL     1     -11.954   9.137  71.477  1.00  0.00    -0.422 A  
HETATM   26  C   UNL     1      -9.618   5.767  72.471  1.00  0.00    -0.168 A  
ENDBRANCH   9  10
ENDBRANCH   7   9
TORSDOF 2
ENDMDL
MODEL       84
REMARK 921   NORMALIZED FREE ENERGY PREDICTED BY IDOCK:   -4.68 KCAL/MOL
REMARK 922        TOTAL FREE ENERGY PREDICTED BY IDOCK:   -5.74 KCAL/MOL
REMARK 923 INTER-LIGAND FREE ENERGY PREDICTED BY IDOCK:   -6.39 KCAL/MOL
REMARK 924 INTRA-LIGAND FREE ENERGY PREDICTED BY IDOCK:    0.65 KCAL/MOL
REMARK 927      BINDING AFFINITY PREDICTED BY RF-SCORE:    0.00 PKD
ROOT
HETATM    1  C   UNL     1      -8.157   8.781  67.469  1.00  0.00    -0.106 C  
HETATM    2  N   UNL     1      -9.618   8.932  67.910  1.00  0.00    -0.145 N  
HETATM    3  C   UNL     1      -9.675   8.696  69.427  1.00  0.00    -0.176 C  
HETATM    4  C   UNL     1     -10.430   7.870  67.162  1.00  0.00    -0.344 C  
HETATM    5  C   UNL     1     -11.035   9.048  70.011  1.00  0.00    -0.230 C  
HETATM    6  C   UNL     1     -11.432  10.471  69.670  1.00  0.00    -0.349 C  
HETATM    7  C   UNL     1     -11.475  10.672  68.157  1.00  0.00    -0.228 C  
HETATM    8  C   UNL     1     -10.099  10.361  67.546  1.00  0.00    -0.192 C  
ENDROOT
BRANCH   7   9
HETATM    9  O   UNL     1     -11.871  12.034  67.918  1.00  0.00    -0.457 OA 
BRANCH   9  10
HETATM   10  C   UNL     1     -10.998  12.941  68.491  1.00  0.00    -0.259 C  
HETATM   11  O   UNL     1      -9.856  12.627  68.809  1.00  0.00    -0.116 OA 
HETATM   12  C   UNL     1     -11.651  14.357  68.682  1.00  0.00    -0.314 C  
HETATM   13  C   UNL     1     -10.584  15.452  68.487  1.00  0.00    -0.240 A  
HETATM   14  O   UNL     1     -12.624  14.470  67.614  1.00  0.00    -0.513 OA 
HETATM   15  C   UNL     1     -12.398  14.431  70.022  1.00  0.00    -0.391 A  
HETATM   16  H   UNL     1     -13.019  15.327  67.729  1.00  0.00     0.000 HD 
HETATM   17  C   UNL     1     -10.643  16.359  67.412  1.00  0.00    -0.306 A  
HETATM   18  C   UNL     1     -11.944  13.732  71.156  1.00  0.00    -0.139 A  
HETATM   19  C   UNL     1      -9.600  17.257  67.161  1.00  0.00    -0.257 A  
HETATM   20  C   UNL     1     -12.681  13.724  72.342  1.00  0.00    -0.254 A  
HETATM   21  C   UNL     1     -13.876  14.430  72.425  1.00  0.00    -0.595 A  
HETATM   22  C   UNL     1      -8.476  17.271  67.981  1.00  0.00    -0.229 A  
HETATM   23  C   UNL     1      -8.406  16.409  69.069  1.00  0.00    -0.225 A  
HETATM   24  C   UNL     1     -14.319  15.171  71.333  1.00  0.00    -0.601 A  
HETATM   25  C   UNL     1     -13.579  15.188  70.149  1.00  0.00     0.534 A  
HETATM   26  C   UNL     1      -9.454  15.518  69.326  1.00  0.00    -0.263 A  
ENDBRANCH   9  10
ENDBRANCH   7   9
TORSDOF 2
ENDMDL
MODEL       85
REMARK 921   NORMALIZED FREE ENERGY PREDICTED BY IDOCK:   -4.67 KCAL/MOL
REMARK 922        TOTAL FREE ENERGY PREDICTED BY IDOCK:   -5.74 KCAL/MOL
REMARK 923 INTER-LIGAND FREE ENERGY PREDICTED BY IDOCK:   -5.69 KCAL/MOL
REMARK 924 INTRA-LIGAND FREE ENERGY PREDICTED BY IDOCK:   -0.05 KCAL/MOL
REMARK 927      BINDING AFFINITY PREDICTED BY RF-SCORE:    0.00 PKD
ROOT
HETATM    1  C   UNL     1     -10.672   6.989  70.996  1.00  0.00    -0.233 C  
HETATM    2  N   UNL     1     -10.167   7.801  69.797  1.00  0.00    -0.206 N  
HETATM    3  C   UNL     1     -10.182   6.878  68.569  1.00  0.00    -0.177 C  
HETATM    4  C   UNL     1      -8.740   8.252  70.124  1.00  0.00    -0.133 C  
HETATM    5  C   UNL     1      -9.921   7.639  67.277  1.00  0.00    -0.273 C  
HETATM    6  C   UNL     1     -10.898   8.785  67.104  1.00  0.00    -0.062 C  
HETATM    7  C   UNL     1     -10.807   9.756  68.278  1.00  0.00    -0.210 C  
HETATM    8  C   UNL     1     -11.105   9.020  69.594  1.00  0.00    -0.067 C  
ENDROOT
BRANCH   7   9
HETATM    9  O   UNL     1     -11.748  10.815  68.033  1.00  0.00    -0.528 OA 
BRANCH   9  10
HETATM   10  C   UNL     1     -11.250  11.765  67.158  1.00  0.00    -0.316 C  
HETATM   11  O   UNL     1     -11.659  11.860  66.006  1.00  0.00    -0.391 OA 
HETATM   12  C   UNL     1     -10.131  12.650  67.814  1.00  0.00    -0.220 C  
HETATM   13  C   UNL     1     -10.207  14.084  67.255  1.00  0.00    -0.260 A  
HETATM   14  O   UNL     1     -10.461  12.691  69.225  1.00  0.00    -0.436 OA 
HETATM   15  C   UNL     1      -8.756  11.983  67.662  1.00  0.00    -0.166 A  
HETATM   16  H   UNL     1      -9.785  13.227  69.622  1.00  0.00     0.000 HD 
HETATM   17  C   UNL     1     -10.553  15.179  68.070  1.00  0.00    -0.258 A  
HETATM   18  C   UNL     1      -8.436  11.208  66.532  1.00  0.00    -0.165 A  
HETATM   19  C   UNL     1     -10.757  16.453  67.527  1.00  0.00    -0.298 A  
HETATM   20  C   UNL     1      -7.222  10.523  66.445  1.00  0.00    -0.129 A  
HETATM   21  C   UNL     1      -6.296  10.615  67.478  1.00  0.00    -0.057 A  
HETATM   22  C   UNL     1     -10.617  16.661  66.159  1.00  0.00    -0.218 A  
HETATM   23  C   UNL     1     -10.245  15.605  65.336  1.00  0.00    -0.401 A  
HETATM   24  C   UNL     1      -6.568  11.417  68.584  1.00  0.00    -0.062 A  
HETATM   25  C   UNL     1      -7.777  12.110  68.667  1.00  0.00    -0.089 A  
HETATM   26  C   UNL     1     -10.031  14.334  65.879  1.00  0.00    -0.340 A  
ENDBRANCH   9  10
ENDBRANCH   7   9
TORSDOF 2
ENDMDL
MODEL       86
REMARK 921   NORMALIZED FREE ENERGY PREDICTED BY IDOCK:   -4.64 KCAL/MOL
REMARK 922        TOTAL FREE ENERGY PREDICTED BY IDOCK:   -5.71 KCAL/MOL
REMARK 923 INTER-LIGAND FREE ENERGY PREDICTED BY IDOCK:   -5.93 KCAL/MOL
REMARK 924 INTRA-LIGAND FREE ENERGY PREDICTED BY IDOCK:    0.22 KCAL/MOL
REMARK 927      BINDING AFFINITY PREDICTED BY RF-SCORE:    0.00 PKD
ROOT
HETATM    1  C   UNL     1      -6.759   5.620  67.443  1.00  0.00    -0.059 C  
HETATM    2  N   UNL     1      -8.291   5.561  67.425  1.00  0.00    -0.104 N  
HETATM    3  C   UNL     1      -8.764   5.284  68.860  1.00  0.00    -0.090 C  
HETATM    4  C   UNL     1      -8.690   4.417  66.488  1.00  0.00    -0.112 C  
HETATM    5  C   UNL     1     -10.272   5.433  69.006  1.00  0.00    -0.291 C  
HETATM    6  C   UNL     1     -10.740   6.796  68.536  1.00  0.00    -0.280 C  
HETATM    7  C   UNL     1     -10.358   7.026  67.076  1.00  0.00    -0.290 C  
HETATM    8  C   UNL     1      -8.833   6.920  66.909  1.00  0.00    -0.120 C  
ENDROOT
BRANCH   7   9
HETATM    9  O   UNL     1     -10.847   8.326  66.705  1.00  0.00    -0.188 OA 
BRANCH   9  10
HETATM   10  C   UNL     1      -9.935   9.328  66.986  1.00  0.00    -0.224 C  
HETATM   11  O   UNL     1      -9.547   9.548  68.128  1.00  0.00    -0.137 OA 
HETATM   12  C   UNL     1      -9.499  10.115  65.698  1.00  0.00    -0.220 C  
HETATM   13  C   UNL     1      -8.025  10.547  65.826  1.00  0.00    -0.158 A  
HETATM   14  O   UNL     1      -9.603   9.155  64.617  1.00  0.00    -0.376 OA 
HETATM   15  C   UNL     1     -10.475  11.266  65.414  1.00  0.00    -0.326 A  
HETATM   16  H   UNL     1      -9.339   9.631  63.838  1.00  0.00     0.000 HD 
HETATM   17  C   UNL     1      -7.026  10.029  64.980  1.00  0.00    -0.135 A  
HETATM   18  C   UNL     1     -11.111  11.966  66.455  1.00  0.00    -0.357 A  
HETATM   19  C   UNL     1      -5.674  10.318  65.192  1.00  0.00    -0.124 A  
HETATM   20  C   UNL     1     -12.071  12.944  66.189  1.00  0.00    -0.458 A  
HETATM   21  C   UNL     1     -12.400  13.257  64.874  1.00  0.00    -0.476 A  
HETATM   22  C   UNL     1      -5.289  11.132  66.252  1.00  0.00    -0.136 A  
HETATM   23  C   UNL     1      -6.257  11.683  67.083  1.00  0.00    -0.133 A  
HETATM   24  C   UNL     1     -11.746  12.615  63.825  1.00  0.00    -0.566 A  
HETATM   25  C   UNL     1     -10.779  11.644  64.091  1.00  0.00    -0.418 A  
HETATM   26  C   UNL     1      -7.610  11.403  66.865  1.00  0.00    -0.151 A  
ENDBRANCH   9  10
ENDBRANCH   7   9
TORSDOF 2
ENDMDL
MODEL       87
REMARK 921   NORMALIZED FREE ENERGY PREDICTED BY IDOCK:   -4.64 KCAL/MOL
REMARK 922        TOTAL FREE ENERGY PREDICTED BY IDOCK:   -5.71 KCAL/MOL
REMARK 923 INTER-LIGAND FREE ENERGY PREDICTED BY IDOCK:   -5.10 KCAL/MOL
REMARK 924 INTRA-LIGAND FREE ENERGY PREDICTED BY IDOCK:   -0.60 KCAL/MOL
REMARK 927      BINDING AFFINITY PREDICTED BY RF-SCORE:    0.00 PKD
ROOT
HETATM    1  C   UNL     1      -9.266   9.876  63.089  1.00  0.00    -0.249 C  
HETATM    2  N   UNL     1      -9.073  10.379  64.525  1.00  0.00    -0.210 N  
HETATM    3  C   UNL     1      -9.718  11.770  64.623  1.00  0.00    -0.149 C  
HETATM    4  C   UNL     1      -7.564  10.457  64.778  1.00  0.00    -0.058 C  
HETATM    5  C   UNL     1      -9.790  12.267  66.060  1.00  0.00    -0.263 C  
HETATM    6  C   UNL     1     -10.507  11.274  66.953  1.00  0.00    -0.286 C  
HETATM    7  C   UNL     1      -9.802   9.921  66.933  1.00  0.00    -0.199 C  
HETATM    8  C   UNL     1      -9.750   9.376  65.496  1.00  0.00    -0.230 C  
ENDROOT
BRANCH   7   9
HETATM    9  O   UNL     1     -10.530   9.045  67.810  1.00  0.00    -0.237 OA 
BRANCH   9  10
HETATM   10  C   UNL     1      -9.693   8.199  68.517  1.00  0.00    -0.162 C  
HETATM   11  O   UNL     1      -8.669   8.605  69.055  1.00  0.00    -0.131 OA 
HETATM   12  C   UNL     1     -10.210   6.716  68.520  1.00  0.00    -0.171 C  
HETATM   13  C   UNL     1      -9.854   6.044  69.860  1.00  0.00    -0.213 A  
HETATM   14  O   UNL     1     -11.653   6.819  68.427  1.00  0.00    -0.514 OA 
HETATM   15  C   UNL     1      -9.701   5.966  67.280  1.00  0.00    -0.137 A  
HETATM   16  H   UNL     1     -11.965   5.922  68.429  1.00  0.00     0.000 HD 
HETATM   17  C   UNL     1     -10.848   5.638  70.771  1.00  0.00    -0.294 A  
HETATM   18  C   UNL     1      -8.444   6.248  66.713  1.00  0.00    -0.111 A  
HETATM   19  C   UNL     1     -10.516   5.158  72.043  1.00  0.00    -0.278 A  
HETATM   20  C   UNL     1      -8.031   5.633  65.530  1.00  0.00    -0.113 A  
HETATM   21  C   UNL     1      -8.857   4.709  64.899  1.00  0.00    -0.151 A  
HETATM   22  C   UNL     1      -9.184   5.071  72.432  1.00  0.00    -0.150 A  
HETATM   23  C   UNL     1      -8.181   5.434  71.541  1.00  0.00    -0.118 A  
HETATM   24  C   UNL     1     -10.083   4.374  65.468  1.00  0.00    -0.251 A  
HETATM   25  C   UNL     1     -10.494   4.981  66.657  1.00  0.00    -0.301 A  
HETATM   26  C   UNL     1      -8.512   5.903  70.266  1.00  0.00    -0.127 A  
ENDBRANCH   9  10
ENDBRANCH   7   9
TORSDOF 2
ENDMDL
MODEL       88
REMARK 921   NORMALIZED FREE ENERGY PREDICTED BY IDOCK:   -4.63 KCAL/MOL
REMARK 922        TOTAL FREE ENERGY PREDICTED BY IDOCK:   -5.69 KCAL/MOL
REMARK 923 INTER-LIGAND FREE ENERGY PREDICTED BY IDOCK:   -6.47 KCAL/MOL
REMARK 924 INTRA-LIGAND FREE ENERGY PREDICTED BY IDOCK:    0.78 KCAL/MOL
REMARK 927      BINDING AFFINITY PREDICTED BY RF-SCORE:    0.00 PKD
ROOT
HETATM    1  C   UNL     1     -11.666  14.591  66.555  1.00  0.00    -0.368 C  
HETATM    2  N   UNL     1     -11.307  13.102  66.481  1.00  0.00    -0.303 N  
HETATM    3  C   UNL     1      -9.783  12.997  66.317  1.00  0.00    -0.263 C  
HETATM    4  C   UNL     1     -12.028  12.522  65.259  1.00  0.00    -0.438 C  
HETATM    5  C   UNL     1      -9.288  11.565  66.464  1.00  0.00    -0.210 C  
HETATM    6  C   UNL     1      -9.734  10.958  67.779  1.00  0.00    -0.183 C  
HETATM    7  C   UNL     1     -11.256  10.970  67.892  1.00  0.00    -0.310 C  
HETATM    8  C   UNL     1     -11.780  12.412  67.787  1.00  0.00    -0.350 C  
ENDROOT
BRANCH   7   9
HETATM    9  O   UNL     1     -11.597  10.368  69.153  1.00  0.00    -0.232 OA 
BRANCH   9  10
HETATM   10  C   UNL     1     -10.500   9.794  69.772  1.00  0.00    -0.250 C  
HETATM   11  O   UNL     1      -9.500  10.446  70.049  1.00  0.00    -0.038 OA 
HETATM   12  C   UNL     1     -10.704   8.260  70.041  1.00  0.00    -0.239 C  
HETATM   13  C   UNL     1      -9.997   7.865  71.352  1.00  0.00    -0.208 A  
HETATM   14  O   UNL     1     -12.133   8.096  70.222  1.00  0.00    -0.434 OA 
HETATM   15  C   UNL     1     -10.277   7.436  68.817  1.00  0.00    -0.199 A  
HETATM   16  H   UNL     1     -12.256   7.168  70.386  1.00  0.00     0.000 HD 
HETATM   17  C   UNL     1     -10.720   7.430  72.480  1.00  0.00    -0.315 A  
HETATM   18  C   UNL     1      -9.218   7.846  67.987  1.00  0.00    -0.134 A  
HETATM   19  C   UNL     1     -10.085   7.207  73.707  1.00  0.00    -0.391 A  
HETATM   20  C   UNL     1      -8.900   7.146  66.821  1.00  0.00    -0.137 A  
HETATM   21  C   UNL     1      -9.622   6.010  66.472  1.00  0.00    -0.182 A  
HETATM   22  C   UNL     1      -8.715   7.411  73.834  1.00  0.00    -0.258 A  
HETATM   23  C   UNL     1      -7.973   7.808  72.729  1.00  0.00    -0.153 A  
HETATM   24  C   UNL     1     -10.641   5.555  67.305  1.00  0.00    -0.294 A  
HETATM   25  C   UNL     1     -10.954   6.248  68.476  1.00  0.00    -0.421 A  
HETATM   26  C   UNL     1      -8.605   8.021  71.499  1.00  0.00    -0.157 A  
ENDBRANCH   9  10
ENDBRANCH   7   9
TORSDOF 2
ENDMDL
MODEL       89
REMARK 921   NORMALIZED FREE ENERGY PREDICTED BY IDOCK:   -4.62 KCAL/MOL
REMARK 922        TOTAL FREE ENERGY PREDICTED BY IDOCK:   -5.68 KCAL/MOL
REMARK 923 INTER-LIGAND FREE ENERGY PREDICTED BY IDOCK:   -5.77 KCAL/MOL
REMARK 924 INTRA-LIGAND FREE ENERGY PREDICTED BY IDOCK:    0.09 KCAL/MOL
REMARK 927      BINDING AFFINITY PREDICTED BY RF-SCORE:    0.00 PKD
ROOT
HETATM    1  C   UNL     1      -9.768  15.297  68.153  1.00  0.00    -0.212 C  
HETATM    2  N   UNL     1     -10.956  14.482  67.627  1.00  0.00    -0.280 N  
HETATM    3  C   UNL     1     -11.285  14.993  66.216  1.00  0.00    -0.309 C  
HETATM    4  C   UNL     1     -12.129  14.724  68.583  1.00  0.00    -0.188 C  
HETATM    5  C   UNL     1     -12.297  14.105  65.507  1.00  0.00    -0.472 C  
HETATM    6  C   UNL     1     -11.832  12.663  65.465  1.00  0.00    -0.479 C  
HETATM    7  C   UNL     1     -11.606  12.126  66.875  1.00  0.00    -0.341 C  
HETATM    8  C   UNL     1     -10.557  12.983  67.602  1.00  0.00    -0.224 C  
ENDROOT
BRANCH   7   9
HETATM    9  O   UNL     1     -11.184  10.757  66.751  1.00  0.00    -0.217 OA 
BRANCH   9  10
HETATM   10  C   UNL     1     -10.814  10.210  67.967  1.00  0.00    -0.270 C  
HETATM   11  O   UNL     1     -11.129  10.731  69.031  1.00  0.00    -0.216 OA 
HETATM   12  C   UNL     1      -9.964   8.901  67.798  1.00  0.00    -0.192 C  
HETATM   13  C   UNL     1     -10.282   7.923  68.946  1.00  0.00    -0.215 A  
HETATM   14  O   UNL     1     -10.422   8.312  66.555  1.00  0.00    -0.403 OA 
HETATM   15  C   UNL     1      -8.474   9.241  67.649  1.00  0.00    -0.116 A  
HETATM   16  H   UNL     1      -9.908   7.520  66.453  1.00  0.00     0.000 HD 
HETATM   17  C   UNL     1     -10.916   6.688  68.711  1.00  0.00    -0.322 A  
HETATM   18  C   UNL     1      -7.901  10.343  68.309  1.00  0.00    -0.105 A  
HETATM   19  C   UNL     1     -11.327   5.870  69.770  1.00  0.00    -0.184 A  
HETATM   20  C   UNL     1      -6.570  10.705  68.091  1.00  0.00    -0.063 A  
HETATM   21  C   UNL     1      -5.779   9.960  67.223  1.00  0.00    -0.046 A  
HETATM   22  C   UNL     1     -11.110   6.266  71.086  1.00  0.00    -0.356 A  
HETATM   23  C   UNL     1     -10.457   7.465  71.345  1.00  0.00    -0.218 A  
HETATM   24  C   UNL     1      -6.308   8.833  66.599  1.00  0.00    -0.059 A  
HETATM   25  C   UNL     1      -7.636   8.465  66.823  1.00  0.00    -0.090 A  
HETATM   26  C   UNL     1     -10.037   8.278  70.287  1.00  0.00    -0.195 A  
ENDBRANCH   9  10
ENDBRANCH   7   9
TORSDOF 2
ENDMDL
MODEL       90
REMARK 921   NORMALIZED FREE ENERGY PREDICTED BY IDOCK:   -4.62 KCAL/MOL
REMARK 922        TOTAL FREE ENERGY PREDICTED BY IDOCK:   -5.68 KCAL/MOL
REMARK 923 INTER-LIGAND FREE ENERGY PREDICTED BY IDOCK:   -5.05 KCAL/MOL
REMARK 924 INTRA-LIGAND FREE ENERGY PREDICTED BY IDOCK:   -0.63 KCAL/MOL
REMARK 927      BINDING AFFINITY PREDICTED BY RF-SCORE:    0.00 PKD
ROOT
HETATM    1  C   UNL     1      -8.694   5.338  68.305  1.00  0.00    -0.101 C  
HETATM    2  N   UNL     1      -9.904   6.279  68.358  1.00  0.00    -0.127 N  
HETATM    3  C   UNL     1     -10.720   5.921  69.609  1.00  0.00    -0.345 C  
HETATM    4  C   UNL     1     -10.722   6.039  67.085  1.00  0.00    -0.330 C  
HETATM    5  C   UNL     1     -11.816   6.939  69.890  1.00  0.00    -0.137 C  
HETATM    6  C   UNL     1     -11.252   8.342  69.996  1.00  0.00    -0.081 C  
HETATM    7  C   UNL     1     -10.529   8.734  68.710  1.00  0.00    -0.191 C  
HETATM    8  C   UNL     1      -9.390   7.742  68.423  1.00  0.00    -0.143 C  
ENDROOT
BRANCH   7   9
HETATM    9  O   UNL     1     -10.040  10.074  68.885  1.00  0.00    -0.173 OA 
BRANCH   9  10
HETATM   10  C   UNL     1     -10.265  10.863  67.770  1.00  0.00    -0.180 C  
HETATM   11  O   UNL     1     -11.359  10.902  67.217  1.00  0.00    -0.415 OA 
HETATM   12  C   UNL     1      -8.980  11.650  67.327  1.00  0.00    -0.169 C  
HETATM   13  C   UNL     1      -9.383  13.022  66.753  1.00  0.00    -0.244 A  
HETATM   14  O   UNL     1      -8.231  11.866  68.549  1.00  0.00    -0.154 OA 
HETATM   15  C   UNL     1      -8.122  10.794  66.384  1.00  0.00    -0.153 A  
HETATM   16  H   UNL     1      -7.454  12.343  68.282  1.00  0.00     0.000 HD 
HETATM   17  C   UNL     1      -9.029  14.225  67.393  1.00  0.00    -0.205 A  
HETATM   18  C   UNL     1      -8.704   9.881  65.485  1.00  0.00    -0.170 A  
HETATM   19  C   UNL     1      -9.516  15.457  66.943  1.00  0.00    -0.246 A  
HETATM   20  C   UNL     1      -7.916   9.036  64.702  1.00  0.00    -0.128 A  
HETATM   21  C   UNL     1      -6.529   9.100  64.786  1.00  0.00    -0.071 A  
HETATM   22  C   UNL     1     -10.364  15.515  65.842  1.00  0.00    -0.365 A  
HETATM   23  C   UNL     1     -10.703  14.346  65.172  1.00  0.00    -0.413 A  
HETATM   24  C   UNL     1      -5.929  10.032  65.629  1.00  0.00    -0.080 A  
HETATM   25  C   UNL     1      -6.716  10.884  66.406  1.00  0.00    -0.134 A  
HETATM   26  C   UNL     1     -10.208  13.115  65.614  1.00  0.00    -0.294 A  
ENDBRANCH   9  10
ENDBRANCH   7   9
TORSDOF 2
ENDMDL
MODEL       91
REMARK 921   NORMALIZED FREE ENERGY PREDICTED BY IDOCK:   -4.62 KCAL/MOL
REMARK 922        TOTAL FREE ENERGY PREDICTED BY IDOCK:   -5.67 KCAL/MOL
REMARK 923 INTER-LIGAND FREE ENERGY PREDICTED BY IDOCK:   -5.27 KCAL/MOL
REMARK 924 INTRA-LIGAND FREE ENERGY PREDICTED BY IDOCK:   -0.40 KCAL/MOL
REMARK 927      BINDING AFFINITY PREDICTED BY RF-SCORE:    0.00 PKD
ROOT
HETATM    1  C   UNL     1     -13.366  14.590  73.190  1.00  0.00    -0.270 C  
HETATM    2  N   UNL     1     -12.921  14.908  71.757  1.00  0.00    -0.316 N  
HETATM    3  C   UNL     1     -11.951  16.097  71.821  1.00  0.00    -0.489 C  
HETATM    4  C   UNL     1     -14.180  15.273  70.963  1.00  0.00    -0.175 C  
HETATM    5  C   UNL     1     -11.267  16.353  70.486  1.00  0.00    -0.230 C  
HETATM    6  C   UNL     1     -10.566  15.109  69.978  1.00  0.00    -0.237 C  
HETATM    7  C   UNL     1     -11.554  13.958  69.815  1.00  0.00    -0.270 C  
HETATM    8  C   UNL     1     -12.231  13.653  71.162  1.00  0.00    -0.239 C  
ENDROOT
BRANCH   7   9
HETATM    9  O   UNL     1     -10.818  12.827  69.319  1.00  0.00    -0.133 OA 
BRANCH   9  10
HETATM   10  C   UNL     1     -11.345  12.339  68.136  1.00  0.00    -0.295 C  
HETATM   11  O   UNL     1     -12.496  11.924  68.064  1.00  0.00    -0.148 OA 
HETATM   12  C   UNL     1     -10.305  12.377  66.960  1.00  0.00    -0.220 C  
HETATM   13  C   UNL     1     -11.032  12.665  65.632  1.00  0.00    -0.313 A  
HETATM   14  O   UNL     1      -9.437  13.499  67.260  1.00  0.00    -0.215 OA 
HETATM   15  C   UNL     1      -9.452  11.100  66.952  1.00  0.00    -0.203 A  
HETATM   16  H   UNL     1      -8.809  13.522  66.548  1.00  0.00     0.000 HD 
HETATM   17  C   UNL     1     -10.814  13.855  64.912  1.00  0.00    -0.413 A  
HETATM   18  C   UNL     1      -9.982   9.859  67.352  1.00  0.00    -0.235 A  
HETATM   19  C   UNL     1     -11.579  14.172  63.784  1.00  0.00     0.142 A  
HETATM   20  C   UNL     1      -9.176   8.722  67.438  1.00  0.00    -0.158 A  
HETATM   21  C   UNL     1      -7.827   8.798  67.106  1.00  0.00    -0.096 A  
HETATM   22  C   UNL     1     -12.576  13.304  63.348  1.00  0.00    -0.129 A  
HETATM   23  C   UNL     1     -12.790  12.107  64.020  1.00  0.00    -0.383 A  
HETATM   24  C   UNL     1      -7.291  10.003  66.658  1.00  0.00    -0.103 A  
HETATM   25  C   UNL     1      -8.099  11.138  66.563  1.00  0.00    -0.163 A  
HETATM   26  C   UNL     1     -12.018  11.786  65.142  1.00  0.00     0.023 A  
ENDBRANCH   9  10
ENDBRANCH   7   9
TORSDOF 2
ENDMDL
MODEL       92
REMARK 921   NORMALIZED FREE ENERGY PREDICTED BY IDOCK:   -4.59 KCAL/MOL
REMARK 922        TOTAL FREE ENERGY PREDICTED BY IDOCK:   -5.65 KCAL/MOL
REMARK 923 INTER-LIGAND FREE ENERGY PREDICTED BY IDOCK:   -6.04 KCAL/MOL
REMARK 924 INTRA-LIGAND FREE ENERGY PREDICTED BY IDOCK:    0.39 KCAL/MOL
REMARK 927      BINDING AFFINITY PREDICTED BY RF-SCORE:    0.00 PKD
ROOT
HETATM    1  C   UNL     1      -6.503  18.981  64.913  1.00  0.00    -0.112 C  
HETATM    2  N   UNL     1      -6.761  18.637  66.385  1.00  0.00    -0.197 N  
HETATM    3  C   UNL     1      -6.422  19.880  67.222  1.00  0.00    -0.198 C  
HETATM    4  C   UNL     1      -5.837  17.468  66.746  1.00  0.00    -0.177 C  
HETATM    5  C   UNL     1      -6.858  19.731  68.672  1.00  0.00    -0.357 C  
HETATM    6  C   UNL     1      -8.333  19.396  68.774  1.00  0.00    -0.379 C  
HETATM    7  C   UNL     1      -8.647  18.103  68.027  1.00  0.00    -0.265 C  
HETATM    8  C   UNL     1      -8.251  18.240  66.548  1.00  0.00    -0.268 C  
ENDROOT
BRANCH   7   9
HETATM    9  O   UNL     1     -10.053  17.848  68.183  1.00  0.00    -0.325 OA 
BRANCH   9  10
HETATM   10  C   UNL     1     -10.395  16.557  67.819  1.00  0.00    -0.291 C  
HETATM   11  O   UNL     1     -10.960  16.314  66.759  1.00  0.00    -0.194 OA 
HETATM   12  C   UNL     1      -9.989  15.503  68.910  1.00  0.00    -0.218 C  
HETATM   13  C   UNL     1      -9.580  14.182  68.230  1.00  0.00    -0.226 A  
HETATM   14  O   UNL     1      -8.821  16.064  69.560  1.00  0.00    -0.215 OA 
HETATM   15  C   UNL     1     -11.100  15.359  69.960  1.00  0.00    -0.317 A  
HETATM   16  H   UNL     1      -8.575  15.427  70.220  1.00  0.00     0.000 HD 
HETATM   17  C   UNL     1      -8.261  13.695  68.293  1.00  0.00    -0.156 A  
HETATM   18  C   UNL     1     -12.458  15.495  69.618  1.00  0.00    -0.137 A  
HETATM   19  C   UNL     1      -7.866  12.571  67.559  1.00  0.00    -0.168 A  
HETATM   20  C   UNL     1     -13.457  15.461  70.594  1.00  0.00    -0.213 A  
HETATM   21  C   UNL     1     -13.119  15.271  71.929  1.00  0.00    -0.482 A  
HETATM   22  C   UNL     1      -8.781  11.908  66.747  1.00  0.00    -0.193 A  
HETATM   23  C   UNL     1     -10.098  12.348  66.692  1.00  0.00    -0.234 A  
HETATM   24  C   UNL     1     -11.787  15.081  72.286  1.00  0.00    -0.441 A  
HETATM   25  C   UNL     1     -10.788  15.105  71.311  1.00  0.00    -0.028 A  
HETATM   26  C   UNL     1     -10.496  13.465  67.435  1.00  0.00    -0.243 A  
ENDBRANCH   9  10
ENDBRANCH   7   9
TORSDOF 2
ENDMDL
MODEL       93
REMARK 921   NORMALIZED FREE ENERGY PREDICTED BY IDOCK:   -4.58 KCAL/MOL
REMARK 922        TOTAL FREE ENERGY PREDICTED BY IDOCK:   -5.63 KCAL/MOL
REMARK 923 INTER-LIGAND FREE ENERGY PREDICTED BY IDOCK:   -4.97 KCAL/MOL
REMARK 924 INTRA-LIGAND FREE ENERGY PREDICTED BY IDOCK:   -0.65 KCAL/MOL
REMARK 927      BINDING AFFINITY PREDICTED BY RF-SCORE:    0.00 PKD
ROOT
HETATM    1  C   UNL     1     -13.324   7.260  71.590  1.00  0.00    -0.358 C  
HETATM    2  N   UNL     1     -11.824   6.946  71.524  1.00  0.00    -0.304 N  
HETATM    3  C   UNL     1     -11.571   5.694  72.378  1.00  0.00    -0.221 C  
HETATM    4  C   UNL     1     -11.082   8.158  72.098  1.00  0.00    -0.321 C  
HETATM    5  C   UNL     1     -10.159   5.155  72.201  1.00  0.00    -0.247 C  
HETATM    6  C   UNL     1      -9.850   4.886  70.742  1.00  0.00    -0.285 C  
HETATM    7  C   UNL     1     -10.002   6.158  69.913  1.00  0.00    -0.172 C  
HETATM    8  C   UNL     1     -11.433   6.703  70.043  1.00  0.00    -0.375 C  
ENDROOT
BRANCH   7   9
HETATM    9  O   UNL     1      -9.678   5.825  68.552  1.00  0.00    -0.121 OA 
BRANCH   9  10
HETATM   10  C   UNL     1      -8.662   6.617  68.046  1.00  0.00    -0.117 C  
HETATM   11  O   UNL     1      -7.506   6.513  68.438  1.00  0.00    -0.085 OA 
HETATM   12  C   UNL     1      -9.180   7.629  66.963  1.00  0.00    -0.138 C  
HETATM   13  C   UNL     1      -8.095   7.842  65.890  1.00  0.00    -0.121 A  
HETATM   14  O   UNL     1     -10.314   6.972  66.344  1.00  0.00    -0.472 OA 
HETATM   15  C   UNL     1      -9.678   8.922  67.626  1.00  0.00    -0.202 A  
HETATM   16  H   UNL     1     -10.627   7.584  65.689  1.00  0.00     0.000 HD 
HETATM   17  C   UNL     1      -8.281   7.425  64.557  1.00  0.00    -0.023 A  
HETATM   18  C   UNL     1      -9.081   9.425  68.797  1.00  0.00    -0.132 A  
HETATM   19  C   UNL     1      -7.241   7.494  63.623  1.00  0.00    -0.079 A  
HETATM   20  C   UNL     1      -9.601  10.544  69.450  1.00  0.00    -0.170 A  
HETATM   21  C   UNL     1     -10.716  11.196  68.935  1.00  0.00    -0.246 A  
HETATM   22  C   UNL     1      -5.994   7.983  63.999  1.00  0.00    -0.058 A  
HETATM   23  C   UNL     1      -5.793   8.432  65.299  1.00  0.00    -0.044 A  
HETATM   24  C   UNL     1     -11.292  10.749  67.749  1.00  0.00    -0.354 A  
HETATM   25  C   UNL     1     -10.768   9.635  67.090  1.00  0.00    -0.258 A  
HETATM   26  C   UNL     1      -6.835   8.373  66.230  1.00  0.00    -0.073 A  
ENDBRANCH   9  10
ENDBRANCH   7   9
TORSDOF 2
ENDMDL
MODEL       94
REMARK 921   NORMALIZED FREE ENERGY PREDICTED BY IDOCK:   -4.58 KCAL/MOL
REMARK 922        TOTAL FREE ENERGY PREDICTED BY IDOCK:   -5.63 KCAL/MOL
REMARK 923 INTER-LIGAND FREE ENERGY PREDICTED BY IDOCK:   -5.21 KCAL/MOL
REMARK 924 INTRA-LIGAND FREE ENERGY PREDICTED BY IDOCK:   -0.42 KCAL/MOL
REMARK 927      BINDING AFFINITY PREDICTED BY RF-SCORE:    0.00 PKD
ROOT
HETATM    1  C   UNL     1     -12.306   8.699  72.580  1.00  0.00    -0.309 C  
HETATM    2  N   UNL     1     -12.598   9.623  71.391  1.00  0.00    -0.346 N  
HETATM    3  C   UNL     1     -12.715  11.057  71.932  1.00  0.00    -0.204 C  
HETATM    4  C   UNL     1     -13.923   9.164  70.774  1.00  0.00     0.366 C  
HETATM    5  C   UNL     1     -12.774  12.088  70.814  1.00  0.00    -0.231 C  
HETATM    6  C   UNL     1     -11.588  11.958  69.879  1.00  0.00    -0.333 C  
HETATM    7  C   UNL     1     -11.536  10.562  69.263  1.00  0.00    -0.256 C  
HETATM    8  C   UNL     1     -11.436   9.501  70.372  1.00  0.00    -0.242 C  
ENDROOT
BRANCH   7   9
HETATM    9  O   UNL     1     -10.399  10.524  68.383  1.00  0.00    -0.162 OA 
BRANCH   9  10
HETATM   10  C   UNL     1     -10.591  11.294  67.249  1.00  0.00    -0.233 C  
HETATM   11  O   UNL     1     -11.693  11.410  66.725  1.00  0.00    -0.474 OA 
HETATM   12  C   UNL     1      -9.257  11.952  66.744  1.00  0.00    -0.194 C  
HETATM   13  C   UNL     1      -9.559  13.335  66.134  1.00  0.00    -0.211 A  
HETATM   14  O   UNL     1      -8.456  12.142  67.936  1.00  0.00    -0.145 OA 
HETATM   15  C   UNL     1      -8.505  10.996  65.806  1.00  0.00    -0.119 A  
HETATM   16  H   UNL     1      -7.649  12.541  67.631  1.00  0.00     0.000 HD 
HETATM   17  C   UNL     1      -9.084  14.523  66.722  1.00  0.00    -0.283 A  
HETATM   18  C   UNL     1      -9.190  10.108  64.956  1.00  0.00    -0.266 A  
HETATM   19  C   UNL     1      -9.477  15.778  66.244  1.00  0.00    -0.349 A  
HETATM   20  C   UNL     1      -8.501   9.174  64.180  1.00  0.00    -0.198 A  
HETATM   21  C   UNL     1      -7.112   9.121  64.224  1.00  0.00    -0.095 A  
HETATM   22  C   UNL     1     -10.351  15.874  65.166  1.00  0.00    -0.284 A  
HETATM   23  C   UNL     1     -10.809  14.718  64.546  1.00  0.00    -0.181 A  
HETATM   24  C   UNL     1      -6.410  10.024  65.017  1.00  0.00    -0.116 A  
HETATM   25  C   UNL     1      -7.096  10.965  65.787  1.00  0.00     0.014 A  
HETATM   26  C   UNL     1     -10.408  13.463  65.016  1.00  0.00    -0.361 A  
ENDBRANCH   9  10
ENDBRANCH   7   9
TORSDOF 2
ENDMDL
MODEL       95
REMARK 921   NORMALIZED FREE ENERGY PREDICTED BY IDOCK:   -4.57 KCAL/MOL
REMARK 922        TOTAL FREE ENERGY PREDICTED BY IDOCK:   -5.62 KCAL/MOL
REMARK 923 INTER-LIGAND FREE ENERGY PREDICTED BY IDOCK:   -5.16 KCAL/MOL
REMARK 924 INTRA-LIGAND FREE ENERGY PREDICTED BY IDOCK:   -0.46 KCAL/MOL
REMARK 927      BINDING AFFINITY PREDICTED BY RF-SCORE:    0.00 PKD
ROOT
HETATM    1  C   UNL     1      -5.905   7.974  65.619  1.00  0.00    -0.037 C  
HETATM    2  N   UNL     1      -7.371   7.532  65.551  1.00  0.00    -0.068 N  
HETATM    3  C   UNL     1      -7.405   6.117  64.953  1.00  0.00    -0.074 C  
HETATM    4  C   UNL     1      -8.103   8.525  64.643  1.00  0.00    -0.153 C  
HETATM    5  C   UNL     1      -8.786   5.486  65.051  1.00  0.00    -0.096 C  
HETATM    6  C   UNL     1      -9.291   5.480  66.481  1.00  0.00    -0.154 C  
HETATM    7  C   UNL     1      -9.354   6.900  67.037  1.00  0.00    -0.145 C  
HETATM    8  C   UNL     1      -7.961   7.548  66.986  1.00  0.00    -0.116 C  
ENDROOT
BRANCH   7   9
HETATM    9  O   UNL     1      -9.853   6.811  68.383  1.00  0.00    -0.134 OA 
BRANCH   9  10
HETATM   10  C   UNL     1     -10.287   8.035  68.862  1.00  0.00    -0.209 C  
HETATM   11  O   UNL     1     -10.738   8.898  68.116  1.00  0.00    -0.187 OA 
HETATM   12  C   UNL     1     -10.115   8.161  70.417  1.00  0.00    -0.194 C  
HETATM   13  C   UNL     1     -11.263   9.007  71.001  1.00  0.00    -0.361 A  
HETATM   14  O   UNL     1     -10.242   6.807  70.921  1.00  0.00    -0.194 OA 
HETATM   15  C   UNL     1      -8.710   8.673  70.765  1.00  0.00    -0.202 A  
HETATM   16  H   UNL     1     -10.138   6.884  71.863  1.00  0.00     0.000 HD 
HETATM   17  C   UNL     1     -12.223   8.454  71.870  1.00  0.00    -0.395 A  
HETATM   18  C   UNL     1      -8.029   9.578  69.930  1.00  0.00    -0.154 A  
HETATM   19  C   UNL     1     -13.339   9.190  72.284  1.00  0.00    -0.540 A  
HETATM   20  C   UNL     1      -6.714   9.963  70.200  1.00  0.00    -0.112 A  
HETATM   21  C   UNL     1      -6.060   9.466  71.321  1.00  0.00    -0.072 A  
HETATM   22  C   UNL     1     -13.520  10.496  71.840  1.00  0.00    -0.358 A  
HETATM   23  C   UNL     1     -12.571  11.078  71.007  1.00  0.00    -0.512 A  
HETATM   24  C   UNL     1      -6.730   8.609  72.191  1.00  0.00    -0.072 A  
HETATM   25  C   UNL     1      -8.048   8.231  71.928  1.00  0.00    -0.184 A  
HETATM   26  C   UNL     1     -11.450  10.346  70.603  1.00  0.00    -0.438 A  
ENDBRANCH   9  10
ENDBRANCH   7   9
TORSDOF 2
ENDMDL
MODEL       96
REMARK 921   NORMALIZED FREE ENERGY PREDICTED BY IDOCK:   -4.55 KCAL/MOL
REMARK 922        TOTAL FREE ENERGY PREDICTED BY IDOCK:   -5.60 KCAL/MOL
REMARK 923 INTER-LIGAND FREE ENERGY PREDICTED BY IDOCK:   -5.11 KCAL/MOL
REMARK 924 INTRA-LIGAND FREE ENERGY PREDICTED BY IDOCK:   -0.49 KCAL/MOL
REMARK 927      BINDING AFFINITY PREDICTED BY RF-SCORE:    0.00 PKD
ROOT
HETATM    1  C   UNL     1     -11.019  15.342  67.846  1.00  0.00    -0.310 C  
HETATM    2  N   UNL     1     -11.373  14.046  67.107  1.00  0.00    -0.316 N  
HETATM    3  C   UNL     1     -12.504  14.367  66.117  1.00  0.00    -0.252 C  
HETATM    4  C   UNL     1     -11.841  13.037  68.160  1.00  0.00    -0.340 C  
HETATM    5  C   UNL     1     -12.778  13.211  65.166  1.00  0.00    -0.468 C  
HETATM    6  C   UNL     1     -11.521  12.788  64.433  1.00  0.00    -0.404 C  
HETATM    7  C   UNL     1     -10.433  12.370  65.420  1.00  0.00    -0.277 C  
HETATM    8  C   UNL     1     -10.109  13.536  66.368  1.00  0.00    -0.294 C  
ENDROOT
BRANCH   7   9
HETATM    9  O   UNL     1      -9.286  11.971  64.650  1.00  0.00     0.052 OA 
BRANCH   9  10
HETATM   10  C   UNL     1      -9.129  10.597  64.620  1.00  0.00    -0.211 C  
HETATM   11  O   UNL     1      -9.765   9.890  63.847  1.00  0.00    -0.186 OA 
HETATM   12  C   UNL     1      -8.081  10.095  65.677  1.00  0.00    -0.149 C  
HETATM   13  C   UNL     1      -7.323   8.875  65.119  1.00  0.00    -0.092 A  
HETATM   14  O   UNL     1      -7.142  11.189  65.826  1.00  0.00    -0.364 OA 
HETATM   15  C   UNL     1      -8.757   9.854  67.035  1.00  0.00    -0.137 A  
HETATM   16  H   UNL     1      -6.508  10.885  66.465  1.00  0.00     0.000 HD 
HETATM   17  C   UNL     1      -5.945   8.926  64.835  1.00  0.00    -0.064 A  
HETATM   18  C   UNL     1     -10.086   9.400  67.125  1.00  0.00    -0.292 A  
HETATM   19  C   UNL     1      -5.294   7.863  64.199  1.00  0.00    -0.040 A  
HETATM   20  C   UNL     1     -10.726   9.278  68.360  1.00  0.00    -0.192 A  
HETATM   21  C   UNL     1     -10.045   9.590  69.531  1.00  0.00    -0.218 A  
HETATM   22  C   UNL     1      -6.005   6.724  63.836  1.00  0.00    -0.035 A  
HETATM   23  C   UNL     1      -7.360   6.633  64.133  1.00  0.00    -0.078 A  
HETATM   24  C   UNL     1      -8.713   9.992  69.472  1.00  0.00    -0.205 A  
HETATM   25  C   UNL     1      -8.069  10.105  68.239  1.00  0.00    -0.102 A  
HETATM   26  C   UNL     1      -8.008   7.691  64.779  1.00  0.00    -0.137 A  
ENDBRANCH   9  10
ENDBRANCH   7   9
TORSDOF 2
ENDMDL
MODEL       97
REMARK 921   NORMALIZED FREE ENERGY PREDICTED BY IDOCK:   -4.54 KCAL/MOL
REMARK 922        TOTAL FREE ENERGY PREDICTED BY IDOCK:   -5.59 KCAL/MOL
REMARK 923 INTER-LIGAND FREE ENERGY PREDICTED BY IDOCK:   -6.25 KCAL/MOL
REMARK 924 INTRA-LIGAND FREE ENERGY PREDICTED BY IDOCK:    0.66 KCAL/MOL
REMARK 927      BINDING AFFINITY PREDICTED BY RF-SCORE:    0.00 PKD
ROOT
HETATM    1  C   UNL     1      -6.219   9.674  64.378  1.00  0.00    -0.098 C  
HETATM    2  N   UNL     1      -7.676   9.219  64.530  1.00  0.00    -0.109 N  
HETATM    3  C   UNL     1      -7.727   8.188  65.669  1.00  0.00    -0.090 C  
HETATM    4  C   UNL     1      -8.094   8.584  63.200  1.00  0.00    -0.165 C  
HETATM    5  C   UNL     1      -9.154   7.839  66.063  1.00  0.00    -0.169 C  
HETATM    6  C   UNL     1      -9.947   9.080  66.422  1.00  0.00    -0.370 C  
HETATM    7  C   UNL     1      -9.982  10.058  65.250  1.00  0.00    -0.298 C  
HETATM    8  C   UNL     1      -8.550  10.458  64.856  1.00  0.00    -0.182 C  
ENDROOT
BRANCH   7   9
HETATM    9  O   UNL     1     -10.760  11.194  65.663  1.00  0.00    -0.250 OA 
BRANCH   9  10
HETATM   10  C   UNL     1     -10.078  11.998  66.559  1.00  0.00    -0.201 C  
HETATM   11  O   UNL     1      -8.882  12.238  66.431  1.00  0.00    -0.172 OA 
HETATM   12  C   UNL     1     -11.003  12.520  67.715  1.00  0.00    -0.234 C  
HETATM   13  C   UNL     1     -10.564  13.937  68.133  1.00  0.00    -0.258 A  
HETATM   14  O   UNL     1     -12.327  12.605  67.129  1.00  0.00    -0.370 OA 
HETATM   15  C   UNL     1     -11.052  11.505  68.867  1.00  0.00    -0.288 A  
HETATM   16  H   UNL     1     -12.886  12.921  67.829  1.00  0.00     0.000 HD 
HETATM   17  C   UNL     1     -11.391  15.058  67.931  1.00  0.00    -0.344 A  
HETATM   18  C   UNL     1      -9.939  10.709  69.194  1.00  0.00    -0.228 A  
HETATM   19  C   UNL     1     -10.931  16.355  68.183  1.00  0.00    -0.339 A  
HETATM   20  C   UNL     1     -10.021   9.720  70.176  1.00  0.00    -0.315 A  
HETATM   21  C   UNL     1     -11.212   9.520  70.865  1.00  0.00    -0.411 A  
HETATM   22  C   UNL     1      -9.635  16.561  68.646  1.00  0.00    -0.241 A  
HETATM   23  C   UNL     1      -8.808  15.470  68.885  1.00  0.00    -0.217 A  
HETATM   24  C   UNL     1     -12.312  10.331  70.596  1.00  0.00    -0.416 A  
HETATM   25  C   UNL     1     -12.229  11.326  69.621  1.00  0.00    -0.340 A  
HETATM   26  C   UNL     1      -9.272  14.172  68.643  1.00  0.00    -0.146 A  
ENDBRANCH   9  10
ENDBRANCH   7   9
TORSDOF 2
ENDMDL
MODEL       98
REMARK 921   NORMALIZED FREE ENERGY PREDICTED BY IDOCK:   -4.51 KCAL/MOL
REMARK 922        TOTAL FREE ENERGY PREDICTED BY IDOCK:   -5.55 KCAL/MOL
REMARK 923 INTER-LIGAND FREE ENERGY PREDICTED BY IDOCK:   -5.77 KCAL/MOL
REMARK 924 INTRA-LIGAND FREE ENERGY PREDICTED BY IDOCK:    0.22 KCAL/MOL
REMARK 927      BINDING AFFINITY PREDICTED BY RF-SCORE:    0.00 PKD
ROOT
HETATM    1  C   UNL     1     -11.884   9.699  71.567  1.00  0.00    -0.407 C  
HETATM    2  N   UNL     1     -11.014   8.496  71.185  1.00  0.00    -0.242 N  
HETATM    3  C   UNL     1     -11.949   7.298  70.957  1.00  0.00    -0.327 C  
HETATM    4  C   UNL     1     -10.065   8.232  72.358  1.00  0.00    -0.312 C  
HETATM    5  C   UNL     1     -11.219   6.109  70.349  1.00  0.00    -0.423 C  
HETATM    6  C   UNL     1     -10.509   6.493  69.066  1.00  0.00    -0.252 C  
HETATM    7  C   UNL     1      -9.505   7.615  69.318  1.00  0.00    -0.158 C  
HETATM    8  C   UNL     1     -10.224   8.844  69.896  1.00  0.00    -0.200 C  
ENDROOT
BRANCH   7   9
HETATM    9  O   UNL     1      -8.868   7.909  68.063  1.00  0.00    -0.125 OA 
BRANCH   9  10
HETATM   10  C   UNL     1      -9.604   8.797  67.298  1.00  0.00    -0.165 C  
HETATM   11  O   UNL     1     -10.759   8.559  66.965  1.00  0.00    -0.275 OA 
HETATM   12  C   UNL     1      -8.783  10.083  66.924  1.00  0.00    -0.128 C  
HETATM   13  C   UNL     1      -9.723  11.303  66.874  1.00  0.00    -0.215 A  
HETATM   14  O   UNL     1      -7.851  10.267  68.019  1.00  0.00    -0.098 OA 
HETATM   15  C   UNL     1      -7.975   9.852  65.639  1.00  0.00    -0.130 A  
HETATM   16  H   UNL     1      -7.355  11.045  67.793  1.00  0.00     0.000 HD 
HETATM   17  C   UNL     1      -9.606  12.365  67.792  1.00  0.00    -0.202 A  
HETATM   18  C   UNL     1      -8.456   9.027  64.605  1.00  0.00    -0.194 A  
HETATM   19  C   UNL     1     -10.548  13.399  67.829  1.00  0.00    -0.252 A  
HETATM   20  C   UNL     1      -7.674   8.743  63.484  1.00  0.00    -0.132 A  
HETATM   21  C   UNL     1      -6.403   9.293  63.364  1.00  0.00    -0.091 A  
HETATM   22  C   UNL     1     -11.625  13.397  66.949  1.00  0.00    -0.404 A  
HETATM   23  C   UNL     1     -11.747  12.379  66.012  1.00  0.00    -0.469 A  
HETATM   24  C   UNL     1      -5.925  10.153  64.349  1.00  0.00    -0.138 A  
HETATM   25  C   UNL     1      -6.709  10.447  65.466  1.00  0.00    -0.121 A  
HETATM   26  C   UNL     1     -10.800  11.350  65.967  1.00  0.00    -0.306 A  
ENDBRANCH   9  10
ENDBRANCH   7   9
TORSDOF 2
ENDMDL
MODEL       99
REMARK 921   NORMALIZED FREE ENERGY PREDICTED BY IDOCK:   -4.48 KCAL/MOL
REMARK 922        TOTAL FREE ENERGY PREDICTED BY IDOCK:   -5.52 KCAL/MOL
REMARK 923 INTER-LIGAND FREE ENERGY PREDICTED BY IDOCK:   -5.70 KCAL/MOL
REMARK 924 INTRA-LIGAND FREE ENERGY PREDICTED BY IDOCK:    0.18 KCAL/MOL
REMARK 927      BINDING AFFINITY PREDICTED BY RF-SCORE:    0.00 PKD
ROOT
HETATM    1  C   UNL     1      -8.572   5.460  65.299  1.00  0.00    -0.151 C  
HETATM    2  N   UNL     1      -8.977   4.869  66.655  1.00  0.00    -0.110 N  
HETATM    3  C   UNL     1      -7.699   4.703  67.492  1.00  0.00    -0.089 C  
HETATM    4  C   UNL     1      -9.630   3.511  66.382  1.00  0.00    -0.094 C  
HETATM    5  C   UNL     1      -8.004   4.342  68.939  1.00  0.00    -0.073 C  
HETATM    6  C   UNL     1      -8.940   5.351  69.574  1.00  0.00    -0.125 C  
HETATM    7  C   UNL     1     -10.251   5.437  68.798  1.00  0.00    -0.182 C  
HETATM    8  C   UNL     1      -9.974   5.840  67.340  1.00  0.00    -0.150 C  
ENDROOT
BRANCH   7   9
HETATM    9  O   UNL     1     -11.084   6.398  69.469  1.00  0.00    -0.325 OA 
BRANCH   9  10
HETATM   10  C   UNL     1     -10.714   6.580  70.790  1.00  0.00    -0.241 C  
HETATM   11  O   UNL     1     -10.755   5.664  71.604  1.00  0.00    -0.244 OA 
HETATM   12  C   UNL     1     -10.269   8.056  71.087  1.00  0.00    -0.193 C  
HETATM   13  C   UNL     1      -9.149   8.059  72.145  1.00  0.00    -0.227 A  
HETATM   14  O   UNL     1      -9.720   8.543  69.836  1.00  0.00    -0.176 OA 
HETATM   15  C   UNL     1     -11.485   8.923  71.447  1.00  0.00    -0.381 A  
HETATM   16  H   UNL     1      -9.451   9.436  70.016  1.00  0.00     0.000 HD 
HETATM   17  C   UNL     1      -7.842   8.485  71.838  1.00  0.00    -0.157 A  
HETATM   18  C   UNL     1     -12.587   8.392  72.142  1.00  0.00    -0.412 A  
HETATM   19  C   UNL     1      -6.800   8.353  72.762  1.00  0.00    -0.099 A  
HETATM   20  C   UNL     1     -13.730   9.159  72.379  1.00  0.00    -0.543 A  
HETATM   21  C   UNL     1     -13.785  10.479  71.944  1.00  0.00    -0.085 A  
HETATM   22  C   UNL     1      -7.040   7.797  74.014  1.00  0.00    -0.139 A  
HETATM   23  C   UNL     1      -8.327   7.399  74.355  1.00  0.00    -0.244 A  
HETATM   24  C   UNL     1     -12.687  11.043  71.301  1.00  0.00    -0.537 A  
HETATM   25  C   UNL     1     -11.540  10.280  71.071  1.00  0.00    -0.430 A  
HETATM   26  C   UNL     1      -9.372   7.540  73.436  1.00  0.00    -0.291 A  
ENDBRANCH   9  10
ENDBRANCH   7   9
TORSDOF 2
ENDMDL
MODEL      100
REMARK 921   NORMALIZED FREE ENERGY PREDICTED BY IDOCK:   -4.47 KCAL/MOL
REMARK 922        TOTAL FREE ENERGY PREDICTED BY IDOCK:   -5.51 KCAL/MOL
REMARK 923 INTER-LIGAND FREE ENERGY PREDICTED BY IDOCK:   -4.91 KCAL/MOL
REMARK 924 INTRA-LIGAND FREE ENERGY PREDICTED BY IDOCK:   -0.59 KCAL/MOL
REMARK 927      BINDING AFFINITY PREDICTED BY RF-SCORE:    0.00 PKD
ROOT
HETATM    1  C   UNL     1     -11.066  15.255  66.265  1.00  0.00    -0.273 C  
HETATM    2  N   UNL     1     -11.431  13.799  65.948  1.00  0.00    -0.315 N  
HETATM    3  C   UNL     1     -12.489  13.815  64.834  1.00  0.00    -0.386 C  
HETATM    4  C   UNL     1     -11.999  13.185  67.232  1.00  0.00    -0.335 C  
HETATM    5  C   UNL     1     -12.757  12.424  64.279  1.00  0.00    -0.437 C  
HETATM    6  C   UNL     1     -11.479  11.764  63.801  1.00  0.00    -0.510 C  
HETATM    7  C   UNL     1     -10.467  11.657  64.939  1.00  0.00    -0.288 C  
HETATM    8  C   UNL     1     -10.149  13.055  65.493  1.00  0.00    -0.259 C  
ENDROOT
BRANCH   7   9
HETATM    9  O   UNL     1      -9.296  11.011  64.412  1.00  0.00    -0.208 OA 
BRANCH   9  10
HETATM   10  C   UNL     1      -8.915   9.918  65.170  1.00  0.00    -0.198 C  
HETATM   11  O   UNL     1      -9.734   9.114  65.603  1.00  0.00    -0.270 OA 
HETATM   12  C   UNL     1      -7.363   9.865  65.400  1.00  0.00    -0.128 C  
HETATM   13  C   UNL     1      -6.893   8.398  65.441  1.00  0.00    -0.066 A  
HETATM   14  O   UNL     1      -6.786  10.498  64.231  1.00  0.00    -0.328 OA 
HETATM   15  C   UNL     1      -6.972  10.691  66.635  1.00  0.00    -0.119 A  
HETATM   16  H   UNL     1      -5.847  10.465  64.369  1.00  0.00     0.000 HD 
HETATM   17  C   UNL     1      -6.045   7.864  64.452  1.00  0.00    -0.052 A  
HETATM   18  C   UNL     1      -7.822  10.792  67.752  1.00  0.00    -0.109 A  
HETATM   19  C   UNL     1      -5.737   6.500  64.418  1.00  0.00    -0.030 A  
HETATM   20  C   UNL     1      -7.505  11.623  68.828  1.00  0.00    -0.114 A  
HETATM   21  C   UNL     1      -6.322  12.355  68.819  1.00  0.00    -0.078 A  
HETATM   22  C   UNL     1      -6.267   5.638  65.374  1.00  0.00    -0.030 A  
HETATM   23  C   UNL     1      -7.080   6.144  66.381  1.00  0.00    -0.068 A  
HETATM   24  C   UNL     1      -5.440  12.231  67.749  1.00  0.00    -0.087 A  
HETATM   25  C   UNL     1      -5.751  11.393  66.676  1.00  0.00    -0.142 A  
HETATM   26  C   UNL     1      -7.380   7.509  66.421  1.00  0.00    -0.083 A  
ENDBRANCH   9  10
ENDBRANCH   7   9
TORSDOF 2
ENDMDL
MODEL      101
REMARK 921   NORMALIZED FREE ENERGY PREDICTED BY IDOCK:   -4.46 KCAL/MOL
REMARK 922        TOTAL FREE ENERGY PREDICTED BY IDOCK:   -5.49 KCAL/MOL
REMARK 923 INTER-LIGAND FREE ENERGY PREDICTED BY IDOCK:   -5.04 KCAL/MOL
REMARK 924 INTRA-LIGAND FREE ENERGY PREDICTED BY IDOCK:   -0.46 KCAL/MOL
REMARK 927      BINDING AFFINITY PREDICTED BY RF-SCORE:    0.00 PKD
ROOT
HETATM    1  C   UNL     1     -10.218  10.220  67.336  1.00  0.00    -0.218 C  
HETATM    2  N   UNL     1      -9.692  11.087  66.186  1.00  0.00    -0.209 N  
HETATM    3  C   UNL     1     -10.237  10.502  64.873  1.00  0.00    -0.300 C  
HETATM    4  C   UNL     1      -8.163  11.011  66.223  1.00  0.00    -0.164 C  
HETATM    5  C   UNL     1      -9.971  11.415  63.685  1.00  0.00    -0.402 C  
HETATM    6  C   UNL     1     -10.518  12.808  63.925  1.00  0.00    -0.402 C  
HETATM    7  C   UNL     1      -9.895  13.427  65.174  1.00  0.00    -0.068 C  
HETATM    8  C   UNL     1     -10.184  12.543  66.398  1.00  0.00    -0.244 C  
ENDROOT
BRANCH   7   9
HETATM    9  O   UNL     1     -10.451  14.744  65.322  1.00  0.00    -0.346 OA 
BRANCH   9  10
HETATM   10  C   UNL     1      -9.696  15.538  66.167  1.00  0.00    -0.319 C  
HETATM   11  O   UNL     1      -8.471  15.490  66.176  1.00  0.00    -0.212 OA 
HETATM   12  C   UNL     1     -10.588  16.454  67.080  1.00  0.00    -0.260 C  
HETATM   13  C   UNL     1      -9.873  17.797  67.325  1.00  0.00    -0.312 A  
HETATM   14  O   UNL     1     -11.786  16.707  66.304  1.00  0.00     0.980 OA 
HETATM   15  C   UNL     1     -10.993  15.709  68.360  1.00  0.00    -0.308 A  
HETATM   16  H   UNL     1     -12.325  17.261  66.855  1.00  0.00     0.000 HD 
HETATM   17  C   UNL     1     -10.388  19.010  66.829  1.00  0.00    -0.486 A  
HETATM   18  C   UNL     1     -10.139  14.770  68.967  1.00  0.00    -0.232 A  
HETATM   19  C   UNL     1      -9.665  20.204  66.934  1.00  0.00    -0.582 A  
HETATM   20  C   UNL     1     -10.552  14.024  70.072  1.00  0.00     0.513 A  
HETATM   21  C   UNL     1     -11.822  14.216  70.606  1.00  0.00    -0.333 A  
HETATM   22  C   UNL     1      -8.412  20.212  67.539  1.00  0.00    -0.394 A  
HETATM   23  C   UNL     1      -7.895  19.035  68.067  1.00  0.00    -0.319 A  
HETATM   24  C   UNL     1     -12.667  15.177  70.055  1.00  0.00    -0.200 A  
HETATM   25  C   UNL     1     -12.251  15.930  68.956  1.00  0.00     0.036 A  
HETATM   26  C   UNL     1      -8.622  17.844  67.971  1.00  0.00    -0.256 A  
ENDBRANCH   9  10
ENDBRANCH   7   9
TORSDOF 2
ENDMDL
MODEL      102
REMARK 921   NORMALIZED FREE ENERGY PREDICTED BY IDOCK:   -4.45 KCAL/MOL
REMARK 922        TOTAL FREE ENERGY PREDICTED BY IDOCK:   -5.49 KCAL/MOL
REMARK 923 INTER-LIGAND FREE ENERGY PREDICTED BY IDOCK:   -5.09 KCAL/MOL
REMARK 924 INTRA-LIGAND FREE ENERGY PREDICTED BY IDOCK:   -0.40 KCAL/MOL
REMARK 927      BINDING AFFINITY PREDICTED BY RF-SCORE:    0.00 PKD
ROOT
HETATM    1  C   UNL     1     -12.012  13.404  66.584  1.00  0.00    -0.399 C  
HETATM    2  N   UNL     1     -10.843  12.423  66.434  1.00  0.00    -0.250 N  
HETATM    3  C   UNL     1      -9.541  13.216  66.626  1.00  0.00    -0.260 C  
HETATM    4  C   UNL     1     -10.922  11.837  65.021  1.00  0.00    -0.300 C  
HETATM    5  C   UNL     1      -8.326  12.306  66.728  1.00  0.00    -0.087 C  
HETATM    6  C   UNL     1      -8.498  11.275  67.826  1.00  0.00    -0.126 C  
HETATM    7  C   UNL     1      -9.738  10.420  67.576  1.00  0.00    -0.169 C  
HETATM    8  C   UNL     1     -10.987  11.313  67.507  1.00  0.00    -0.265 C  
ENDROOT
BRANCH   7   9
HETATM    9  O   UNL     1      -9.822   9.463  68.646  1.00  0.00    -0.156 OA 
BRANCH   9  10
HETATM   10  C   UNL     1     -10.123   8.192  68.189  1.00  0.00    -0.198 C  
HETATM   11  O   UNL     1     -10.937   8.005  67.292  1.00  0.00    -0.175 OA 
HETATM   12  C   UNL     1      -9.324   7.079  68.956  1.00  0.00    -0.136 C  
HETATM   13  C   UNL     1      -8.996   5.920  67.995  1.00  0.00    -0.118 A  
HETATM   14  O   UNL     1      -8.082   7.712  69.353  1.00  0.00    -0.123 OA 
HETATM   15  C   UNL     1     -10.075   6.655  70.228  1.00  0.00    -0.201 A  
HETATM   16  H   UNL     1      -7.598   7.038  69.816  1.00  0.00     0.000 HD 
HETATM   17  C   UNL     1      -7.671   5.615  67.630  1.00  0.00    -0.097 A  
HETATM   18  C   UNL     1     -11.481   6.644  70.283  1.00  0.00    -0.449 A  
HETATM   19  C   UNL     1      -7.390   4.654  66.651  1.00  0.00    -0.081 A  
HETATM   20  C   UNL     1     -12.155   6.354  71.471  1.00  0.00    -0.289 A  
HETATM   21  C   UNL     1     -11.438   6.050  72.622  1.00  0.00    -0.297 A  
HETATM   22  C   UNL     1      -8.427   3.976  66.019  1.00  0.00    -0.109 A  
HETATM   23  C   UNL     1      -9.742   4.234  66.384  1.00  0.00    -0.228 A  
HETATM   24  C   UNL     1     -10.047   6.003  72.580  1.00  0.00    -0.200 A  
HETATM   25  C   UNL     1      -9.371   6.284  71.390  1.00  0.00    -0.160 A  
HETATM   26  C   UNL     1     -10.023   5.186  67.369  1.00  0.00    -0.215 A  
ENDBRANCH   9  10
ENDBRANCH   7   9
TORSDOF 2
ENDMDL
MODEL      103
REMARK 921   NORMALIZED FREE ENERGY PREDICTED BY IDOCK:   -4.43 KCAL/MOL
REMARK 922        TOTAL FREE ENERGY PREDICTED BY IDOCK:   -5.47 KCAL/MOL
REMARK 923 INTER-LIGAND FREE ENERGY PREDICTED BY IDOCK:   -5.88 KCAL/MOL
REMARK 924 INTRA-LIGAND FREE ENERGY PREDICTED BY IDOCK:    0.42 KCAL/MOL
REMARK 927      BINDING AFFINITY PREDICTED BY RF-SCORE:    0.00 PKD
ROOT
HETATM    1  C   UNL     1     -11.767  11.772  64.211  1.00  0.00    -0.245 C  
HETATM    2  N   UNL     1     -11.228  12.616  65.373  1.00  0.00    -0.290 N  
HETATM    3  C   UNL     1     -12.375  13.504  65.877  1.00  0.00    -0.456 C  
HETATM    4  C   UNL     1     -10.080  13.467  64.821  1.00  0.00    -0.240 C  
HETATM    5  C   UNL     1     -12.022  14.215  67.176  1.00  0.00    -0.460 C  
HETATM    6  C   UNL     1     -11.590  13.231  68.245  1.00  0.00    -0.369 C  
HETATM    7  C   UNL     1     -10.383  12.421  67.779  1.00  0.00    -0.216 C  
HETATM    8  C   UNL     1     -10.727  11.660  66.488  1.00  0.00    -0.272 C  
ENDROOT
BRANCH   7   9
HETATM    9  O   UNL     1     -10.029  11.527  68.848  1.00  0.00    -0.187 OA 
BRANCH   9  10
HETATM   10  C   UNL     1     -10.473  10.236  68.619  1.00  0.00    -0.193 C  
HETATM   11  O   UNL     1     -11.615  10.004  68.238  1.00  0.00    -0.110 OA 
HETATM   12  C   UNL     1      -9.365   9.164  68.917  1.00  0.00    -0.146 C  
HETATM   13  C   UNL     1      -9.509   7.982  67.939  1.00  0.00    -0.161 A  
HETATM   14  O   UNL     1      -8.109   9.834  68.645  1.00  0.00    -0.100 OA 
HETATM   15  C   UNL     1      -9.385   8.766  70.401  1.00  0.00    -0.205 A  
HETATM   16  H   UNL     1      -7.439   9.185  68.824  1.00  0.00     0.000 HD 
HETATM   17  C   UNL     1      -8.522   7.692  66.978  1.00  0.00    -0.125 A  
HETATM   18  C   UNL     1     -10.583   8.728  71.137  1.00  0.00    -0.310 A  
HETATM   19  C   UNL     1      -8.723   6.707  66.004  1.00  0.00    -0.155 A  
HETATM   20  C   UNL     1     -10.582   8.462  72.507  1.00  0.00    -0.368 A  
HETATM   21  C   UNL     1      -9.384   8.209  73.166  1.00  0.00    -0.328 A  
HETATM   22  C   UNL     1      -9.913   5.988  65.972  1.00  0.00     0.091 A  
HETATM   23  C   UNL     1     -10.891   6.231  66.929  1.00  0.00    -0.428 A  
HETATM   24  C   UNL     1      -8.190   8.189  72.450  1.00  0.00    -0.206 A  
HETATM   25  C   UNL     1      -8.191   8.445  71.078  1.00  0.00    -0.145 A  
HETATM   26  C   UNL     1     -10.686   7.208  67.908  1.00  0.00    -0.258 A  
ENDBRANCH   9  10
ENDBRANCH   7   9
TORSDOF 2
ENDMDL
MODEL      104
REMARK 921   NORMALIZED FREE ENERGY PREDICTED BY IDOCK:   -4.42 KCAL/MOL
REMARK 922        TOTAL FREE ENERGY PREDICTED BY IDOCK:   -5.46 KCAL/MOL
REMARK 923 INTER-LIGAND FREE ENERGY PREDICTED BY IDOCK:   -5.87 KCAL/MOL
REMARK 924 INTRA-LIGAND FREE ENERGY PREDICTED BY IDOCK:    0.41 KCAL/MOL
REMARK 927      BINDING AFFINITY PREDICTED BY RF-SCORE:    0.00 PKD
ROOT
HETATM    1  C   UNL     1      -6.143  19.314  67.106  1.00  0.00    -0.182 C  
HETATM    2  N   UNL     1      -7.251  18.848  68.058  1.00  0.00    -0.239 N  
HETATM    3  C   UNL     1      -8.600  19.205  67.415  1.00  0.00    -0.286 C  
HETATM    4  C   UNL     1      -7.060  19.599  69.380  1.00  0.00    -0.291 C  
HETATM    5  C   UNL     1      -9.773  18.585  68.160  1.00  0.00    -0.367 C  
HETATM    6  C   UNL     1      -9.615  17.082  68.285  1.00  0.00    -0.273 C  
HETATM    7  C   UNL     1      -8.322  16.733  69.018  1.00  0.00    -0.163 C  
HETATM    8  C   UNL     1      -7.116  17.316  68.263  1.00  0.00    -0.197 C  
ENDROOT
BRANCH   7   9
HETATM    9  O   UNL     1      -8.254  15.300  69.108  1.00  0.00    -0.200 OA 
BRANCH   9  10
HETATM   10  C   UNL     1      -9.396  14.690  68.617  1.00  0.00    -0.206 C  
HETATM   11  O   UNL     1     -10.481  14.806  69.176  1.00  0.00    -0.234 OA 
HETATM   12  C   UNL     1      -9.115  13.858  67.316  1.00  0.00    -0.228 C  
HETATM   13  C   UNL     1     -10.338  13.926  66.380  1.00  0.00    -0.289 A  
HETATM   14  O   UNL     1      -8.005  14.532  66.670  1.00  0.00    -0.313 OA 
HETATM   15  C   UNL     1      -8.668  12.432  67.673  1.00  0.00    -0.178 A  
HETATM   16  H   UNL     1      -7.836  14.028  65.882  1.00  0.00     0.000 HD 
HETATM   17  C   UNL     1     -10.276  14.564  65.127  1.00  0.00    -0.420 A  
HETATM   18  C   UNL     1      -9.164  11.769  68.810  1.00  0.00    -0.009 A  
HETATM   19  C   UNL     1     -11.423  14.745  64.346  1.00  0.00    -0.261 A  
HETATM   20  C   UNL     1      -8.681  10.514  69.184  1.00  0.00    -0.155 A  
HETATM   21  C   UNL     1      -7.705   9.887  68.416  1.00  0.00    -0.084 A  
HETATM   22  C   UNL     1     -12.657  14.288  64.799  1.00  0.00    -0.310 A  
HETATM   23  C   UNL     1     -12.741  13.626  66.018  1.00  0.00    -0.366 A  
HETATM   24  C   UNL     1      -7.236  10.500  67.257  1.00  0.00    -0.090 A  
HETATM   25  C   UNL     1      -7.725  11.751  66.877  1.00  0.00    -0.129 A  
HETATM   26  C   UNL     1     -11.593  13.436  66.793  1.00  0.00    -0.404 A  
ENDBRANCH   9  10
ENDBRANCH   7   9
TORSDOF 2
ENDMDL
MODEL      105
REMARK 921   NORMALIZED FREE ENERGY PREDICTED BY IDOCK:   -4.36 KCAL/MOL
REMARK 922        TOTAL FREE ENERGY PREDICTED BY IDOCK:   -5.39 KCAL/MOL
REMARK 923 INTER-LIGAND FREE ENERGY PREDICTED BY IDOCK:   -4.87 KCAL/MOL
REMARK 924 INTRA-LIGAND FREE ENERGY PREDICTED BY IDOCK:   -0.52 KCAL/MOL
REMARK 927      BINDING AFFINITY PREDICTED BY RF-SCORE:    0.00 PKD
ROOT
HETATM    1  C   UNL     1     -11.914  15.169  70.500  1.00  0.00    -0.325 C  
HETATM    2  N   UNL     1     -11.099  14.838  69.244  1.00  0.00    -0.255 N  
HETATM    3  C   UNL     1      -9.736  15.536  69.373  1.00  0.00    -0.283 C  
HETATM    4  C   UNL     1     -11.878  15.380  68.041  1.00  0.00    -0.110 C  
HETATM    5  C   UNL     1      -8.759  15.091  68.295  1.00  0.00    -0.166 C  
HETATM    6  C   UNL     1      -8.595  13.584  68.285  1.00  0.00    -0.168 C  
HETATM    7  C   UNL     1      -9.937  12.896  68.052  1.00  0.00    -0.236 C  
HETATM    8  C   UNL     1     -10.933  13.298  69.153  1.00  0.00    -0.161 C  
ENDROOT
BRANCH   7   9
HETATM    9  O   UNL     1      -9.696  11.478  68.042  1.00  0.00    -0.174 OA 
BRANCH   9  10
HETATM   10  C   UNL     1      -9.727  10.952  66.763  1.00  0.00    -0.190 C  
HETATM   11  O   UNL     1     -10.541  11.330  65.928  1.00  0.00    -0.258 OA 
HETATM   12  C   UNL     1      -8.635   9.844  66.548  1.00  0.00    -0.124 C  
HETATM   13  C   UNL     1      -8.120   9.896  65.096  1.00  0.00    -0.138 A  
HETATM   14  O   UNL     1      -7.547  10.210  67.434  1.00  0.00    -0.094 OA 
HETATM   15  C   UNL     1      -9.167   8.470  66.983  1.00  0.00    -0.187 A  
HETATM   16  H   UNL     1      -6.886   9.540  67.303  1.00  0.00     0.000 HD 
HETATM   17  C   UNL     1      -6.792  10.254  64.795  1.00  0.00    -0.087 A  
HETATM   18  C   UNL     1     -10.523   8.126  66.835  1.00  0.00    -0.379 A  
HETATM   19  C   UNL     1      -6.370  10.436  63.473  1.00  0.00    -0.069 A  
HETATM   20  C   UNL     1     -11.019   6.915  67.323  1.00  0.00    -0.406 A  
HETATM   21  C   UNL     1     -10.165   6.015  67.950  1.00  0.00    -0.217 A  
HETATM   22  C   UNL     1      -7.266  10.260  62.423  1.00  0.00    -0.153 A  
HETATM   23  C   UNL     1      -8.574   9.874  62.690  1.00  0.00    -0.194 A  
HETATM   24  C   UNL     1      -8.809   6.310  68.062  1.00  0.00    -0.112 A  
HETATM   25  C   UNL     1      -8.310   7.516  67.566  1.00  0.00    -0.117 A  
HETATM   26  C   UNL     1      -8.992   9.683  64.011  1.00  0.00    -0.261 A  
ENDBRANCH   9  10
ENDBRANCH   7   9
TORSDOF 2
ENDMDL
MODEL      106
REMARK 921   NORMALIZED FREE ENERGY PREDICTED BY IDOCK:   -4.31 KCAL/MOL
REMARK 922        TOTAL FREE ENERGY PREDICTED BY IDOCK:   -5.33 KCAL/MOL
REMARK 923 INTER-LIGAND FREE ENERGY PREDICTED BY IDOCK:   -6.07 KCAL/MOL
REMARK 924 INTRA-LIGAND FREE ENERGY PREDICTED BY IDOCK:    0.75 KCAL/MOL
REMARK 927      BINDING AFFINITY PREDICTED BY RF-SCORE:    0.00 PKD
ROOT
HETATM    1  C   UNL     1      -7.498   4.970  66.794  1.00  0.00    -0.087 C  
HETATM    2  N   UNL     1      -8.969   5.298  67.077  1.00  0.00    -0.113 N  
HETATM    3  C   UNL     1      -9.201   5.137  68.587  1.00  0.00    -0.119 C  
HETATM    4  C   UNL     1      -9.817   4.299  66.285  1.00  0.00    -0.220 C  
HETATM    5  C   UNL     1     -10.564   5.660  69.017  1.00  0.00    -0.316 C  
HETATM    6  C   UNL     1     -10.762   7.101  68.590  1.00  0.00    -0.198 C  
HETATM    7  C   UNL     1     -10.633   7.239  67.076  1.00  0.00    -0.344 C  
HETATM    8  C   UNL     1      -9.248   6.754  66.619  1.00  0.00    -0.159 C  
ENDROOT
BRANCH   7   9
HETATM    9  O   UNL     1     -10.848   8.624  66.752  1.00  0.00    -0.145 OA 
BRANCH   9  10
HETATM   10  C   UNL     1      -9.936   9.455  67.379  1.00  0.00    -0.199 C  
HETATM   11  O   UNL     1      -8.745   9.172  67.447  1.00  0.00    -0.115 OA 
HETATM   12  C   UNL     1     -10.613  10.742  67.972  1.00  0.00    -0.207 C  
HETATM   13  C   UNL     1      -9.642  11.934  67.871  1.00  0.00    -0.193 A  
HETATM   14  O   UNL     1     -11.749  11.002  67.111  1.00  0.00    -0.456 OA 
HETATM   15  C   UNL     1     -11.138  10.470  69.390  1.00  0.00    -0.310 A  
HETATM   16  H   UNL     1     -12.158  11.780  67.469  1.00  0.00     0.000 HD 
HETATM   17  C   UNL     1      -9.913  13.041  67.045  1.00  0.00    -0.242 A  
HETATM   18  C   UNL     1     -10.478   9.585  70.262  1.00  0.00    -0.319 A  
HETATM   19  C   UNL     1      -8.965  14.052  66.850  1.00  0.00    -0.243 A  
HETATM   20  C   UNL     1     -11.013   9.266  71.511  1.00  0.00    -0.446 A  
HETATM   21  C   UNL     1     -12.210   9.842  71.923  1.00  0.00    -0.333 A  
HETATM   22  C   UNL     1      -7.726  13.980  67.479  1.00  0.00    -0.197 A  
HETATM   23  C   UNL     1      -7.444  12.915  68.326  1.00  0.00    -0.125 A  
HETATM   24  C   UNL     1     -12.856  10.761  71.099  1.00  0.00    -0.513 A  
HETATM   25  C   UNL     1     -12.316  11.088  69.854  1.00  0.00    -0.356 A  
HETATM   26  C   UNL     1      -8.396  11.910  68.529  1.00  0.00    -0.118 A  
ENDBRANCH   9  10
ENDBRANCH   7   9
TORSDOF 2
ENDMDL
MODEL      107
REMARK 921   NORMALIZED FREE ENERGY PREDICTED BY IDOCK:   -4.27 KCAL/MOL
REMARK 922        TOTAL FREE ENERGY PREDICTED BY IDOCK:   -5.29 KCAL/MOL
REMARK 923 INTER-LIGAND FREE ENERGY PREDICTED BY IDOCK:   -4.77 KCAL/MOL
REMARK 924 INTRA-LIGAND FREE ENERGY PREDICTED BY IDOCK:   -0.53 KCAL/MOL
REMARK 927      BINDING AFFINITY PREDICTED BY RF-SCORE:    0.00 PKD
ROOT
HETATM    1  C   UNL     1      -8.196   4.915  63.457  1.00  0.00    -0.111 C  
HETATM    2  N   UNL     1      -7.738   6.333  63.821  1.00  0.00    -0.102 N  
HETATM    3  C   UNL     1      -7.972   7.229  62.595  1.00  0.00    -0.123 C  
HETATM    4  C   UNL     1      -6.247   6.254  64.163  1.00  0.00    -0.030 C  
HETATM    5  C   UNL     1      -7.770   8.702  62.915  1.00  0.00    -0.124 C  
HETATM    6  C   UNL     1      -8.639   9.140  64.077  1.00  0.00    -0.186 C  
HETATM    7  C   UNL     1      -8.330   8.315  65.324  1.00  0.00    -0.166 C  
HETATM    8  C   UNL     1      -8.564   6.823  65.039  1.00  0.00     0.100 C  
ENDROOT
BRANCH   7   9
HETATM    9  O   UNL     1      -9.180   8.798  66.378  1.00  0.00    -0.161 OA 
BRANCH   9  10
HETATM   10  C   UNL     1      -8.606   9.850  67.072  1.00  0.00    -0.128 C  
HETATM   11  O   UNL     1      -7.397   9.917  67.260  1.00  0.00    -0.086 OA 
HETATM   12  C   UNL     1      -9.675  10.887  67.572  1.00  0.00    -0.167 C  
HETATM   13  C   UNL     1      -9.077  12.307  67.539  1.00  0.00    -0.182 A  
HETATM   14  O   UNL     1     -10.749  10.819  66.600  1.00  0.00    -0.249 OA 
HETATM   15  C   UNL     1     -10.236  10.467  68.938  1.00  0.00    -0.220 A  
HETATM   16  H   UNL     1     -11.395  11.447  66.902  1.00  0.00     0.000 HD 
HETATM   17  C   UNL     1      -9.569  13.297  66.668  1.00  0.00    -0.262 A  
HETATM   18  C   UNL     1      -9.440   9.799  69.887  1.00  0.00    -0.264 A  
HETATM   19  C   UNL     1      -8.933  14.537  66.543  1.00  0.00    -0.211 A  
HETATM   20  C   UNL     1      -9.983   9.333  71.086  1.00  0.00    -0.356 A  
HETATM   21  C   UNL     1     -11.328   9.541  71.369  1.00  0.00    -0.462 A  
HETATM   22  C   UNL     1      -7.792  14.816  67.289  1.00  0.00    -0.223 A  
HETATM   23  C   UNL     1      -7.303  13.869  68.181  1.00  0.00    -0.123 A  
HETATM   24  C   UNL     1     -12.124  10.245  70.469  1.00  0.00    -0.401 A  
HETATM   25  C   UNL     1     -11.581  10.720  69.274  1.00  0.00    -0.376 A  
HETATM   26  C   UNL     1      -7.945  12.633  68.313  1.00  0.00    -0.153 A  
ENDBRANCH   9  10
ENDBRANCH   7   9
TORSDOF 2
ENDMDL
MODEL      108
REMARK 921   NORMALIZED FREE ENERGY PREDICTED BY IDOCK:   -4.26 KCAL/MOL
REMARK 922        TOTAL FREE ENERGY PREDICTED BY IDOCK:   -5.28 KCAL/MOL
REMARK 923 INTER-LIGAND FREE ENERGY PREDICTED BY IDOCK:   -5.58 KCAL/MOL
REMARK 924 INTRA-LIGAND FREE ENERGY PREDICTED BY IDOCK:    0.30 KCAL/MOL
REMARK 927      BINDING AFFINITY PREDICTED BY RF-SCORE:    0.00 PKD
ROOT
HETATM    1  C   UNL     1      -7.993   6.871  73.037  1.00  0.00    -0.106 C  
HETATM    2  N   UNL     1      -9.468   7.146  72.719  1.00  0.00    -0.142 N  
HETATM    3  C   UNL     1      -9.615   8.651  72.451  1.00  0.00    -0.235 C  
HETATM    4  C   UNL     1     -10.281   6.728  73.948  1.00  0.00    -0.367 C  
HETATM    5  C   UNL     1     -10.989   9.003  71.899  1.00  0.00    -0.423 C  
HETATM    6  C   UNL     1     -11.308   8.199  70.655  1.00  0.00    -0.256 C  
HETATM    7  C   UNL     1     -11.262   6.702  70.952  1.00  0.00    -0.302 C  
HETATM    8  C   UNL     1      -9.869   6.312  71.474  1.00  0.00    -0.173 C  
ENDROOT
BRANCH   7   9
HETATM    9  O   UNL     1     -11.588   6.014  69.733  1.00  0.00    -0.325 OA 
BRANCH   9  10
HETATM   10  C   UNL     1     -10.459   5.612  69.040  1.00  0.00    -0.251 C  
HETATM   11  O   UNL     1      -9.620   4.874  69.545  1.00  0.00    -0.137 OA 
HETATM   12  C   UNL     1     -10.400   6.219  67.593  1.00  0.00    -0.195 C  
HETATM   13  C   UNL     1      -9.742   5.210  66.632  1.00  0.00    -0.181 A  
HETATM   14  O   UNL     1     -11.785   6.391  67.200  1.00  0.00    -0.602 OA 
HETATM   15  C   UNL     1      -9.733   7.602  67.615  1.00  0.00    -0.189 A  
HETATM   16  H   UNL     1     -11.749   6.757  66.324  1.00  0.00     0.000 HD 
HETATM   17  C   UNL     1     -10.462   4.613  65.580  1.00  0.00    -0.260 A  
HETATM   18  C   UNL     1      -8.702   7.908  68.523  1.00  0.00    -0.131 A  
HETATM   19  C   UNL     1      -9.899   3.595  64.801  1.00  0.00    -0.175 A  
HETATM   20  C   UNL     1      -8.168   9.195  68.605  1.00  0.00    -0.114 A  
HETATM   21  C   UNL     1      -8.640  10.199  67.766  1.00  0.00    -0.118 A  
HETATM   22  C   UNL     1      -8.604   3.155  65.054  1.00  0.00    -0.106 A  
HETATM   23  C   UNL     1      -7.860   3.750  66.065  1.00  0.00    -0.090 A  
HETATM   24  C   UNL     1      -9.623   9.909  66.823  1.00  0.00    -0.231 A  
HETATM   25  C   UNL     1     -10.151   8.619  66.734  1.00  0.00    -0.366 A  
HETATM   26  C   UNL     1      -8.418   4.774  66.837  1.00  0.00    -0.105 A  
ENDBRANCH   9  10
ENDBRANCH   7   9
TORSDOF 2
ENDMDL
MODEL      109
REMARK 921   NORMALIZED FREE ENERGY PREDICTED BY IDOCK:   -4.20 KCAL/MOL
REMARK 922        TOTAL FREE ENERGY PREDICTED BY IDOCK:   -5.21 KCAL/MOL
REMARK 923 INTER-LIGAND FREE ENERGY PREDICTED BY IDOCK:   -4.71 KCAL/MOL
REMARK 924 INTRA-LIGAND FREE ENERGY PREDICTED BY IDOCK:   -0.49 KCAL/MOL
REMARK 927      BINDING AFFINITY PREDICTED BY RF-SCORE:    0.00 PKD
ROOT
HETATM    1  C   UNL     1      -9.885  10.382  65.351  1.00  0.00    -0.283 C  
HETATM    2  N   UNL     1     -10.421  11.800  65.122  1.00  0.00    -0.271 N  
HETATM    3  C   UNL     1     -11.955  11.734  65.179  1.00  0.00     0.095 C  
HETATM    4  C   UNL     1      -9.945  12.246  63.736  1.00  0.00    -0.276 C  
HETATM    5  C   UNL     1     -12.588  13.118  65.196  1.00  0.00    -0.525 C  
HETATM    6  C   UNL     1     -12.040  13.963  66.329  1.00  0.00    -0.484 C  
HETATM    7  C   UNL     1     -10.525  14.112  66.210  1.00  0.00    -0.286 C  
HETATM    8  C   UNL     1      -9.857  12.727  66.230  1.00  0.00    -0.267 C  
ENDROOT
BRANCH   7   9
HETATM    9  O   UNL     1     -10.088  14.933  67.306  1.00  0.00    -0.234 OA 
BRANCH   9  10
HETATM   10  C   UNL     1      -8.857  15.517  67.063  1.00  0.00    -0.230 C  
HETATM   11  O   UNL     1      -8.554  15.950  65.957  1.00  0.00    -0.307 OA 
HETATM   12  C   UNL     1      -7.942  15.531  68.340  1.00  0.00    -0.127 C  
HETATM   13  C   UNL     1      -7.072  16.803  68.342  1.00  0.00    -0.173 A  
HETATM   14  O   UNL     1      -8.860  15.601  69.460  1.00  0.00    -0.264 OA 
HETATM   15  C   UNL     1      -7.150  14.220  68.450  1.00  0.00    -0.105 A  
HETATM   16  H   UNL     1      -8.306  15.610  70.232  1.00  0.00     0.000 HD 
HETATM   17  C   UNL     1      -7.228  17.805  69.319  1.00  0.00    -0.067 A  
HETATM   18  C   UNL     1      -6.711  13.527  67.306  1.00  0.00     0.136 A  
HETATM   19  C   UNL     1      -6.534  19.017  69.234  1.00  0.00    -0.321 A  
HETATM   20  C   UNL     1      -6.079  12.287  67.411  1.00  0.00    -0.153 A  
HETATM   21  C   UNL     1      -5.854  11.723  68.662  1.00  0.00    -0.049 A  
HETATM   22  C   UNL     1      -5.666  19.253  68.172  1.00  0.00    -0.211 A  
HETATM   23  C   UNL     1      -5.468  18.268  67.212  1.00  0.00    -0.145 A  
HETATM   24  C   UNL     1      -6.231  12.414  69.811  1.00  0.00    -0.119 A  
HETATM   25  C   UNL     1      -6.856  13.658  69.708  1.00  0.00     0.138 A  
HETATM   26  C   UNL     1      -6.154  17.053  67.303  1.00  0.00    -0.184 A  
ENDBRANCH   9  10
ENDBRANCH   7   9
TORSDOF 2
ENDMDL
MODEL      110
REMARK 921   NORMALIZED FREE ENERGY PREDICTED BY IDOCK:   -4.19 KCAL/MOL
REMARK 922        TOTAL FREE ENERGY PREDICTED BY IDOCK:   -5.20 KCAL/MOL
REMARK 923 INTER-LIGAND FREE ENERGY PREDICTED BY IDOCK:   -4.70 KCAL/MOL
REMARK 924 INTRA-LIGAND FREE ENERGY PREDICTED BY IDOCK:   -0.50 KCAL/MOL
REMARK 927      BINDING AFFINITY PREDICTED BY RF-SCORE:    0.00 PKD
ROOT
HETATM    1  C   UNL     1      -6.800   5.285  71.046  1.00  0.00    -0.048 C  
HETATM    2  N   UNL     1      -7.808   6.403  70.754  1.00  0.00    -0.104 N  
HETATM    3  C   UNL     1      -7.971   7.232  72.037  1.00  0.00    -0.091 C  
HETATM    4  C   UNL     1      -9.129   5.732  70.366  1.00  0.00    -0.146 C  
HETATM    5  C   UNL     1      -8.769   8.505  71.799  1.00  0.00    -0.266 C  
HETATM    6  C   UNL     1      -8.161   9.340  70.689  1.00  0.00    -0.224 C  
HETATM    7  C   UNL     1      -8.097   8.545  69.388  1.00  0.00    -0.112 C  
HETATM    8  C   UNL     1      -7.261   7.271  69.591  1.00  0.00    -0.079 C  
ENDROOT
BRANCH   7   9
HETATM    9  O   UNL     1      -7.525   9.406  68.388  1.00  0.00    -0.077 OA 
BRANCH   9  10
HETATM   10  C   UNL     1      -8.432   9.722  67.391  1.00  0.00    -0.121 C  
HETATM   11  O   UNL     1      -9.221  10.653  67.507  1.00  0.00    -0.142 OA 
HETATM   12  C   UNL     1      -8.320   8.757  66.157  1.00  0.00    -0.123 C  
HETATM   13  C   UNL     1      -8.624   9.534  64.861  1.00  0.00    -0.191 A  
HETATM   14  O   UNL     1      -6.932   8.342  66.127  1.00  0.00    -0.060 OA 
HETATM   15  C   UNL     1      -9.191   7.510  66.367  1.00  0.00    -0.212 A  
HETATM   16  H   UNL     1      -6.865   7.758  65.380  1.00  0.00     0.000 HD 
HETATM   17  C   UNL     1      -7.639   9.746  63.877  1.00  0.00    -0.133 A  
HETATM   18  C   UNL     1     -10.405   7.571  67.076  1.00  0.00    -0.395 A  
HETATM   19  C   UNL     1      -7.882  10.569  62.772  1.00  0.00    -0.135 A  
HETATM   20  C   UNL     1     -11.141   6.416  67.349  1.00  0.00    -0.412 A  
HETATM   21  C   UNL     1     -10.689   5.180  66.902  1.00  0.00    -0.148 A  
HETATM   22  C   UNL     1      -9.116  11.195  62.623  1.00  0.00    -0.366 A  
HETATM   23  C   UNL     1     -10.117  10.977  63.561  1.00  0.00    -0.428 A  
HETATM   24  C   UNL     1      -9.517   5.100  66.154  1.00  0.00    -0.168 A  
HETATM   25  C   UNL     1      -8.785   6.255  65.872  1.00  0.00    -0.154 A  
HETATM   26  C   UNL     1      -9.878  10.146  64.661  1.00  0.00    -0.361 A  
ENDBRANCH   9  10
ENDBRANCH   7   9
TORSDOF 2
ENDMDL
MODEL      111
REMARK 921   NORMALIZED FREE ENERGY PREDICTED BY IDOCK:   -4.15 KCAL/MOL
REMARK 922        TOTAL FREE ENERGY PREDICTED BY IDOCK:   -5.16 KCAL/MOL
REMARK 923 INTER-LIGAND FREE ENERGY PREDICTED BY IDOCK:   -4.76 KCAL/MOL
REMARK 924 INTRA-LIGAND FREE ENERGY PREDICTED BY IDOCK:   -0.40 KCAL/MOL
REMARK 927      BINDING AFFINITY PREDICTED BY RF-SCORE:    0.00 PKD
ROOT
HETATM    1  C   UNL     1      -9.528  12.459  68.194  1.00  0.00    -0.214 C  
HETATM    2  N   UNL     1      -9.931  11.025  67.826  1.00  0.00    -0.171 N  
HETATM    3  C   UNL     1      -9.871  10.901  66.296  1.00  0.00    -0.216 C  
HETATM    4  C   UNL     1     -11.359  10.811  68.336  1.00  0.00    -0.302 C  
HETATM    5  C   UNL     1     -10.026   9.461  65.831  1.00  0.00    -0.327 C  
HETATM    6  C   UNL     1      -9.003   8.555  66.487  1.00  0.00    -0.194 C  
HETATM    7  C   UNL     1      -9.134   8.602  68.007  1.00  0.00    -0.140 C  
HETATM    8  C   UNL     1      -8.942  10.043  68.508  1.00  0.00    -0.124 C  
ENDROOT
BRANCH   7   9
HETATM    9  O   UNL     1      -8.145   7.711  68.550  1.00  0.00    -0.121 OA 
BRANCH   9  10
HETATM   10  C   UNL     1      -8.668   6.462  68.838  1.00  0.00    -0.126 C  
HETATM   11  O   UNL     1      -9.071   5.712  67.957  1.00  0.00    -0.109 OA 
HETATM   12  C   UNL     1      -8.685   6.164  70.380  1.00  0.00    -0.142 C  
HETATM   13  C   UNL     1      -8.435   4.663  70.622  1.00  0.00    -0.108 A  
HETATM   14  O   UNL     1      -7.564   6.909  70.920  1.00  0.00    -0.084 OA 
HETATM   15  C   UNL     1      -9.973   6.704  71.020  1.00  0.00    -0.200 A  
HETATM   16  H   UNL     1      -7.574   6.728  71.853  1.00  0.00     0.000 HD 
HETATM   17  C   UNL     1      -7.274   4.202  71.271  1.00  0.00    -0.040 A  
HETATM   18  C   UNL     1     -11.192   6.723  70.317  1.00  0.00    -0.385 A  
HETATM   19  C   UNL     1      -6.987   2.835  71.362  1.00  0.00    -0.032 A  
HETATM   20  C   UNL     1     -12.335   7.305  70.868  1.00  0.00    -0.287 A  
HETATM   21  C   UNL     1     -12.288   7.863  72.141  1.00  0.00    -0.331 A  
HETATM   22  C   UNL     1      -7.856   1.899  70.811  1.00  0.00    -0.041 A  
HETATM   23  C   UNL     1      -9.026   2.326  70.194  1.00  0.00    -0.156 A  
HETATM   24  C   UNL     1     -11.107   7.811  72.877  1.00  0.00    -0.457 A  
HETATM   25  C   UNL     1      -9.965   7.220  72.331  1.00  0.00    -0.208 A  
HETATM   26  C   UNL     1      -9.318   3.691  70.112  1.00  0.00    -0.243 A  
ENDBRANCH   9  10
ENDBRANCH   7   9
TORSDOF 2
ENDMDL
MODEL      112
REMARK 921   NORMALIZED FREE ENERGY PREDICTED BY IDOCK:   -4.14 KCAL/MOL
REMARK 922        TOTAL FREE ENERGY PREDICTED BY IDOCK:   -5.14 KCAL/MOL
REMARK 923 INTER-LIGAND FREE ENERGY PREDICTED BY IDOCK:   -4.90 KCAL/MOL
REMARK 924 INTRA-LIGAND FREE ENERGY PREDICTED BY IDOCK:   -0.24 KCAL/MOL
REMARK 927      BINDING AFFINITY PREDICTED BY RF-SCORE:    0.00 PKD
ROOT
HETATM    1  C   UNL     1      -7.894   4.684  74.401  1.00  0.00    -0.095 C  
HETATM    2  N   UNL     1      -8.934   4.784  73.278  1.00  0.00    -0.113 N  
HETATM    3  C   UNL     1     -10.320   4.891  73.933  1.00  0.00    -0.244 C  
HETATM    4  C   UNL     1      -8.823   3.505  72.443  1.00  0.00    -0.088 C  
HETATM    5  C   UNL     1     -11.407   5.227  72.923  1.00  0.00    -0.368 C  
HETATM    6  C   UNL     1     -11.074   6.489  72.152  1.00  0.00    -0.296 C  
HETATM    7  C   UNL     1      -9.744   6.340  71.418  1.00  0.00    -0.173 C  
HETATM    8  C   UNL     1      -8.620   6.039  72.422  1.00  0.00    -0.120 C  
ENDROOT
BRANCH   7   9
HETATM    9  O   UNL     1      -9.509   7.566  70.704  1.00  0.00    -0.164 OA 
BRANCH   9  10
HETATM   10  C   UNL     1      -8.919   7.348  69.471  1.00  0.00    -0.144 C  
HETATM   11  O   UNL     1      -7.752   6.987  69.369  1.00  0.00    -0.103 OA 
HETATM   12  C   UNL     1      -9.904   7.629  68.281  1.00  0.00    -0.166 C  
HETATM   13  C   UNL     1      -9.611   6.656  67.122  1.00  0.00    -0.168 A  
HETATM   14  O   UNL     1     -11.223   7.333  68.805  1.00  0.00    -0.450 OA 
HETATM   15  C   UNL     1      -9.865   9.113  67.888  1.00  0.00    -0.204 A  
HETATM   16  H   UNL     1     -11.819   7.503  68.085  1.00  0.00     0.000 HD 
HETATM   17  C   UNL     1     -10.542   5.679  66.723  1.00  0.00    -0.372 A  
HETATM   18  C   UNL     1      -8.683   9.870  67.986  1.00  0.00    -0.125 A  
HETATM   19  C   UNL     1     -10.215   4.711  65.767  1.00  0.00    -0.283 A  
HETATM   20  C   UNL     1      -8.678  11.241  67.722  1.00  0.00    -0.134 A  
HETATM   21  C   UNL     1      -9.851  11.880  67.336  1.00  0.00    -0.192 A  
HETATM   22  C   UNL     1      -8.950   4.701  65.186  1.00  0.00    -0.150 A  
HETATM   23  C   UNL     1      -8.023   5.674  65.538  1.00  0.00    -0.113 A  
HETATM   24  C   UNL     1     -11.023  11.143  67.181  1.00  0.00    -0.350 A  
HETATM   25  C   UNL     1     -11.027   9.770  67.436  1.00  0.00    -0.176 A  
HETATM   26  C   UNL     1      -8.353   6.648  66.486  1.00  0.00    -0.117 A  
ENDBRANCH   9  10
ENDBRANCH   7   9
TORSDOF 2
ENDMDL
MODEL      113
REMARK 921   NORMALIZED FREE ENERGY PREDICTED BY IDOCK:   -4.13 KCAL/MOL
REMARK 922        TOTAL FREE ENERGY PREDICTED BY IDOCK:   -5.13 KCAL/MOL
REMARK 923 INTER-LIGAND FREE ENERGY PREDICTED BY IDOCK:   -6.14 KCAL/MOL
REMARK 924 INTRA-LIGAND FREE ENERGY PREDICTED BY IDOCK:    1.01 KCAL/MOL
REMARK 927      BINDING AFFINITY PREDICTED BY RF-SCORE:    0.00 PKD
ROOT
HETATM    1  C   UNL     1     -12.175  14.133  63.259  1.00  0.00     0.545 C  
HETATM    2  N   UNL     1     -11.858  12.853  64.042  1.00  0.00    -0.408 N  
HETATM    3  C   UNL     1     -10.334  12.654  64.015  1.00  0.00    -0.389 C  
HETATM    4  C   UNL     1     -12.571  11.698  63.332  1.00  0.00    -0.186 C  
HETATM    5  C   UNL     1      -9.884  11.544  64.954  1.00  0.00    -0.289 C  
HETATM    6  C   UNL     1     -10.373  11.784  66.368  1.00  0.00    -0.257 C  
HETATM    7  C   UNL     1     -11.896  11.878  66.406  1.00  0.00    -0.033 C  
HETATM    8  C   UNL     1     -12.376  13.020  65.495  1.00  0.00    -0.472 C  
ENDROOT
BRANCH   7   9
HETATM    9  O   UNL     1     -12.278  12.090  67.776  1.00  0.00    -0.474 OA 
BRANCH   9  10
HETATM   10  C   UNL     1     -11.275  12.697  68.511  1.00  0.00    -0.279 C  
HETATM   11  O   UNL     1     -10.244  12.105  68.809  1.00  0.00    -0.201 OA 
HETATM   12  C   UNL     1     -11.634  14.175  68.902  1.00  0.00    -0.310 C  
HETATM   13  C   UNL     1     -10.355  15.035  68.913  1.00  0.00    -0.244 A  
HETATM   14  O   UNL     1     -12.495  14.649  67.836  1.00  0.00    -0.586 OA 
HETATM   15  C   UNL     1     -12.432  14.208  70.213  1.00  0.00    -0.416 A  
HETATM   16  H   UNL     1     -12.712  15.543  68.072  1.00  0.00     0.000 HD 
HETATM   17  C   UNL     1     -10.160  16.083  67.992  1.00  0.00    -0.240 A  
HETATM   18  C   UNL     1     -12.203  13.270  71.237  1.00  0.00    -0.117 A  
HETATM   19  C   UNL     1      -8.941  16.766  67.918  1.00  0.00    -0.219 A  
HETATM   20  C   UNL     1     -12.999  13.244  72.384  1.00  0.00    -0.334 A  
HETATM   21  C   UNL     1     -14.026  14.167  72.540  1.00  0.00    -0.536 A  
HETATM   22  C   UNL     1      -7.892  16.420  68.763  1.00  0.00    -0.220 A  
HETATM   23  C   UNL     1      -8.069  15.413  69.704  1.00  0.00    -0.134 A  
HETATM   24  C   UNL     1     -14.239  15.138  71.565  1.00  0.00    -0.647 A  
HETATM   25  C   UNL     1     -13.438  15.172  70.422  1.00  0.00     0.020 A  
HETATM   26  C   UNL     1      -9.290  14.736  69.786  1.00  0.00     0.284 A  
ENDBRANCH   9  10
ENDBRANCH   7   9
TORSDOF 2
ENDMDL
MODEL      114
REMARK 921   NORMALIZED FREE ENERGY PREDICTED BY IDOCK:   -4.10 KCAL/MOL
REMARK 922        TOTAL FREE ENERGY PREDICTED BY IDOCK:   -5.09 KCAL/MOL
REMARK 923 INTER-LIGAND FREE ENERGY PREDICTED BY IDOCK:   -5.37 KCAL/MOL
REMARK 924 INTRA-LIGAND FREE ENERGY PREDICTED BY IDOCK:    0.27 KCAL/MOL
REMARK 927      BINDING AFFINITY PREDICTED BY RF-SCORE:    0.00 PKD
ROOT
HETATM    1  C   UNL     1     -11.339  13.768  63.847  1.00  0.00    -0.028 C  
HETATM    2  N   UNL     1     -11.235  12.238  63.859  1.00  0.00    -0.382 N  
HETATM    3  C   UNL     1     -10.084  11.841  62.922  1.00  0.00    -0.060 C  
HETATM    4  C   UNL     1     -12.570  11.689  63.346  1.00  0.00    -0.186 C  
HETATM    5  C   UNL     1      -9.739  10.363  63.034  1.00  0.00    -0.288 C  
HETATM    6  C   UNL     1      -9.429   9.974  64.466  1.00  0.00    -0.359 C  
HETATM    7  C   UNL     1     -10.617  10.275  65.377  1.00  0.00     0.068 C  
HETATM    8  C   UNL     1     -10.962  11.772  65.313  1.00  0.00    -0.295 C  
ENDROOT
BRANCH   7   9
HETATM    9  O   UNL     1     -10.251   9.866  66.706  1.00  0.00    -0.222 OA 
BRANCH   9  10
HETATM   10  C   UNL     1      -9.800  10.926  67.473  1.00  0.00    -0.168 C  
HETATM   11  O   UNL     1      -8.751  11.507  67.219  1.00  0.00    -0.143 OA 
HETATM   12  C   UNL     1     -10.768  11.252  68.666  1.00  0.00    -0.205 C  
HETATM   13  C   UNL     1     -10.770  12.769  68.935  1.00  0.00    -0.199 A  
HETATM   14  O   UNL     1     -12.086  10.868  68.198  1.00  0.00    -0.785 OA 
HETATM   15  C   UNL     1     -10.424  10.392  69.891  1.00  0.00    -0.266 A  
HETATM   16  H   UNL     1     -12.671  11.066  68.920  1.00  0.00     0.000 HD 
HETATM   17  C   UNL     1     -11.918  13.557  68.725  1.00  0.00    -0.374 A  
HETATM   18  C   UNL     1      -9.099  10.011  70.174  1.00  0.00    -0.063 A  
HETATM   19  C   UNL     1     -11.873  14.951  68.836  1.00  0.00    -0.334 A  
HETATM   20  C   UNL     1      -8.805   9.148  71.231  1.00  0.00    -0.182 A  
HETATM   21  C   UNL     1      -9.828   8.663  72.039  1.00  0.00    -0.396 A  
HETATM   22  C   UNL     1     -10.680  15.589  69.162  1.00  0.00    -0.250 A  
HETATM   23  C   UNL     1      -9.540  14.834  69.407  1.00  0.00    -0.013 A  
HETATM   24  C   UNL     1     -11.141   9.066  71.811  1.00  0.00    -0.444 A  
HETATM   25  C   UNL     1     -11.436   9.937  70.760  1.00  0.00    -0.433 A  
HETATM   26  C   UNL     1      -9.587  13.440  69.306  1.00  0.00     0.641 A  
ENDBRANCH   9  10
ENDBRANCH   7   9
TORSDOF 2
ENDMDL
MODEL      115
REMARK 921   NORMALIZED FREE ENERGY PREDICTED BY IDOCK:   -4.07 KCAL/MOL
REMARK 922        TOTAL FREE ENERGY PREDICTED BY IDOCK:   -5.06 KCAL/MOL
REMARK 923 INTER-LIGAND FREE ENERGY PREDICTED BY IDOCK:   -5.49 KCAL/MOL
REMARK 924 INTRA-LIGAND FREE ENERGY PREDICTED BY IDOCK:    0.43 KCAL/MOL
REMARK 927      BINDING AFFINITY PREDICTED BY RF-SCORE:    0.00 PKD
ROOT
HETATM    1  C   UNL     1     -11.817  13.438  69.607  1.00  0.00    -0.331 C  
HETATM    2  N   UNL     1     -11.174  13.276  68.225  1.00  0.00    -0.260 N  
HETATM    3  C   UNL     1      -9.866  14.082  68.220  1.00  0.00    -0.233 C  
HETATM    4  C   UNL     1     -12.163  13.834  67.196  1.00  0.00    -0.313 C  
HETATM    5  C   UNL     1      -9.028  13.808  66.980  1.00  0.00    -0.247 C  
HETATM    6  C   UNL     1      -8.751  12.327  66.817  1.00  0.00    -0.175 C  
HETATM    7  C   UNL     1     -10.055  11.540  66.717  1.00  0.00    -0.215 C  
HETATM    8  C   UNL     1     -10.905  11.768  67.977  1.00  0.00    -0.213 C  
ENDROOT
BRANCH   7   9
HETATM    9  O   UNL     1      -9.708  10.155  66.549  1.00  0.00    -0.182 OA 
BRANCH   9  10
HETATM   10  C   UNL     1      -9.114   9.624  67.681  1.00  0.00    -0.131 C  
HETATM   11  O   UNL     1      -8.084  10.094  68.150  1.00  0.00    -0.103 OA 
HETATM   12  C   UNL     1      -9.900   8.385  68.241  1.00  0.00    -0.169 C  
HETATM   13  C   UNL     1      -9.801   8.358  69.778  1.00  0.00    -0.187 A  
HETATM   14  O   UNL     1     -11.283   8.620  67.875  1.00  0.00    -0.379 OA 
HETATM   15  C   UNL     1      -9.435   7.094  67.552  1.00  0.00    -0.144 A  
HETATM   16  H   UNL     1     -11.759   7.871  68.215  1.00  0.00     0.000 HD 
HETATM   17  C   UNL     1     -10.931   8.544  70.597  1.00  0.00    -0.268 A  
HETATM   18  C   UNL     1      -8.101   6.922  67.136  1.00  0.00    -0.117 A  
HETATM   19  C   UNL     1     -10.812   8.658  71.986  1.00  0.00    -0.430 A  
HETATM   20  C   UNL     1      -7.708   5.788  66.423  1.00  0.00    -0.099 A  
HETATM   21  C   UNL     1      -8.634   4.793  66.129  1.00  0.00    -0.115 A  
HETATM   22  C   UNL     1      -9.560   8.586  72.589  1.00  0.00    -0.294 A  
HETATM   23  C   UNL     1      -8.431   8.370  71.808  1.00  0.00    -0.220 A  
HETATM   24  C   UNL     1      -9.947   4.916  66.575  1.00  0.00    -0.256 A  
HETATM   25  C   UNL     1     -10.341   6.045  67.297  1.00  0.00    -0.275 A  
HETATM   26  C   UNL     1      -8.551   8.246  70.420  1.00  0.00    -0.134 A  
ENDBRANCH   9  10
ENDBRANCH   7   9
TORSDOF 2
ENDMDL
MODEL      116
REMARK 921   NORMALIZED FREE ENERGY PREDICTED BY IDOCK:   -4.06 KCAL/MOL
REMARK 922        TOTAL FREE ENERGY PREDICTED BY IDOCK:   -5.05 KCAL/MOL
REMARK 923 INTER-LIGAND FREE ENERGY PREDICTED BY IDOCK:   -4.42 KCAL/MOL
REMARK 924 INTRA-LIGAND FREE ENERGY PREDICTED BY IDOCK:   -0.63 KCAL/MOL
REMARK 927      BINDING AFFINITY PREDICTED BY RF-SCORE:    0.00 PKD
ROOT
HETATM    1  C   UNL     1      -8.838   2.602  72.240  1.00  0.00    -0.074 C  
HETATM    2  N   UNL     1      -7.966   3.320  71.203  1.00  0.00    -0.057 N  
HETATM    3  C   UNL     1      -7.388   2.254  70.259  1.00  0.00    -0.033 C  
HETATM    4  C   UNL     1      -6.848   4.035  71.968  1.00  0.00    -0.037 C  
HETATM    5  C   UNL     1      -6.695   2.871  69.053  1.00  0.00    -0.037 C  
HETATM    6  C   UNL     1      -7.619   3.811  68.306  1.00  0.00    -0.061 C  
HETATM    7  C   UNL     1      -8.109   4.930  69.221  1.00  0.00    -0.078 C  
HETATM    8  C   UNL     1      -8.849   4.334  70.430  1.00  0.00    -0.085 C  
ENDROOT
BRANCH   7   9
HETATM    9  O   UNL     1      -8.963   5.782  68.438  1.00  0.00    -0.113 OA 
BRANCH   9  10
HETATM   10  C   UNL     1      -8.702   7.124  68.653  1.00  0.00    -0.127 C  
HETATM   11  O   UNL     1      -7.561   7.572  68.627  1.00  0.00    -0.104 OA 
HETATM   12  C   UNL     1     -10.009   7.947  68.936  1.00  0.00    -0.190 C  
HETATM   13  C   UNL     1      -9.868   9.365  68.348  1.00  0.00    -0.177 A  
HETATM   14  O   UNL     1     -11.055   7.253  68.211  1.00  0.00    -0.453 OA 
HETATM   15  C   UNL     1     -10.356   7.911  70.431  1.00  0.00    -0.212 A  
HETATM   16  H   UNL     1     -11.846   7.751  68.381  1.00  0.00     0.000 HD 
HETATM   17  C   UNL     1     -10.674   9.808  67.283  1.00  0.00    -0.296 A  
HETATM   18  C   UNL     1      -9.354   7.866  71.418  1.00  0.00    -0.174 A  
HETATM   19  C   UNL     1     -10.446  11.042  66.664  1.00  0.00    -0.307 A  
HETATM   20  C   UNL     1      -9.677   7.734  72.770  1.00  0.00    -0.292 A  
HETATM   21  C   UNL     1     -11.008   7.665  73.165  1.00  0.00    -0.411 A  
HETATM   22  C   UNL     1      -9.410  11.862  67.098  1.00  0.00    -0.180 A  
HETATM   23  C   UNL     1      -8.619  11.464  68.170  1.00  0.00    -0.153 A  
HETATM   24  C   UNL     1     -12.019   7.760  72.212  1.00  0.00    -0.356 A  
HETATM   25  C   UNL     1     -11.698   7.902  70.860  1.00  0.00    -0.271 A  
HETATM   26  C   UNL     1      -8.854  10.235  68.795  1.00  0.00    -0.148 A  
ENDBRANCH   9  10
ENDBRANCH   7   9
TORSDOF 2
ENDMDL
MODEL      117
REMARK 921   NORMALIZED FREE ENERGY PREDICTED BY IDOCK:   -4.04 KCAL/MOL
REMARK 922        TOTAL FREE ENERGY PREDICTED BY IDOCK:   -5.04 KCAL/MOL
REMARK 923 INTER-LIGAND FREE ENERGY PREDICTED BY IDOCK:   -4.66 KCAL/MOL
REMARK 924 INTRA-LIGAND FREE ENERGY PREDICTED BY IDOCK:   -0.38 KCAL/MOL
REMARK 927      BINDING AFFINITY PREDICTED BY RF-SCORE:    0.00 PKD
ROOT
HETATM    1  C   UNL     1     -12.828   9.362  71.964  1.00  0.00    -0.414 C  
HETATM    2  N   UNL     1     -11.758   8.339  71.567  1.00  0.00    -0.280 N  
HETATM    3  C   UNL     1     -12.469   7.009  71.273  1.00  0.00    -0.386 C  
HETATM    4  C   UNL     1     -10.803   8.197  72.757  1.00  0.00    -0.320 C  
HETATM    5  C   UNL     1     -11.533   5.985  70.647  1.00  0.00    -0.228 C  
HETATM    6  C   UNL     1     -10.872   6.532  69.398  1.00  0.00    -0.363 C  
HETATM    7  C   UNL     1     -10.080   7.798  69.714  1.00  0.00    -0.194 C  
HETATM    8  C   UNL     1     -11.011   8.865  70.313  1.00  0.00    -0.241 C  
ENDROOT
BRANCH   7   9
HETATM    9  O   UNL     1      -9.475   8.243  68.488  1.00  0.00    -0.145 OA 
BRANCH   9  10
HETATM   10  C   UNL     1      -8.636   7.287  67.942  1.00  0.00    -0.120 C  
HETATM   11  O   UNL     1      -7.818   6.680  68.624  1.00  0.00    -0.110 OA 
HETATM   12  C   UNL     1      -8.861   7.111  66.397  1.00  0.00    -0.145 C  
HETATM   13  C   UNL     1      -8.632   5.638  66.004  1.00  0.00    -0.137 A  
HETATM   14  O   UNL     1     -10.257   7.432  66.180  1.00  0.00    -0.430 OA 
HETATM   15  C   UNL     1      -8.008   8.117  65.610  1.00  0.00    -0.108 A  
HETATM   16  H   UNL     1     -10.393   7.325  65.246  1.00  0.00     0.000 HD 
HETATM   17  C   UNL     1      -9.681   4.829  65.525  1.00  0.00    -0.166 A  
HETATM   18  C   UNL     1      -6.745   8.530  66.071  1.00  0.00    -0.057 A  
HETATM   19  C   UNL     1      -9.498   3.460  65.303  1.00  0.00    -0.145 A  
HETATM   20  C   UNL     1      -6.019   9.519  65.403  1.00  0.00    -0.064 A  
HETATM   21  C   UNL     1      -6.533  10.099  64.249  1.00  0.00    -0.120 A  
HETATM   22  C   UNL     1      -8.264   2.869  65.552  1.00  0.00    -0.088 A  
HETATM   23  C   UNL     1      -7.203   3.650  65.994  1.00  0.00    -0.068 A  
HETATM   24  C   UNL     1      -7.758   9.670  63.744  1.00  0.00    -0.130 A  
HETATM   25  C   UNL     1      -8.480   8.675  64.405  1.00  0.00    -0.113 A  
HETATM   26  C   UNL     1      -7.382   5.021  66.206  1.00  0.00    -0.082 A  
ENDBRANCH   9  10
ENDBRANCH   7   9
TORSDOF 2
ENDMDL
MODEL      118
REMARK 921   NORMALIZED FREE ENERGY PREDICTED BY IDOCK:   -4.03 KCAL/MOL
REMARK 922        TOTAL FREE ENERGY PREDICTED BY IDOCK:   -5.02 KCAL/MOL
REMARK 923 INTER-LIGAND FREE ENERGY PREDICTED BY IDOCK:   -4.82 KCAL/MOL
REMARK 924 INTRA-LIGAND FREE ENERGY PREDICTED BY IDOCK:   -0.20 KCAL/MOL
REMARK 927      BINDING AFFINITY PREDICTED BY RF-SCORE:    0.00 PKD
ROOT
HETATM    1  C   UNL     1      -6.781   6.271  65.211  1.00  0.00    -0.047 C  
HETATM    2  N   UNL     1      -6.820   6.901  66.609  1.00  0.00    -0.062 N  
HETATM    3  C   UNL     1      -6.417   8.377  66.468  1.00  0.00    -0.055 C  
HETATM    4  C   UNL     1      -5.813   6.140  67.477  1.00  0.00    -0.017 C  
HETATM    5  C   UNL     1      -6.643   9.158  67.754  1.00  0.00    -0.060 C  
HETATM    6  C   UNL     1      -8.076   9.033  68.232  1.00  0.00    -0.109 C  
HETATM    7  C   UNL     1      -8.441   7.570  68.471  1.00  0.00    -0.129 C  
HETATM    8  C   UNL     1      -8.259   6.764  67.174  1.00  0.00    -0.121 C  
ENDROOT
BRANCH   7   9
HETATM    9  O   UNL     1      -9.802   7.537  68.933  1.00  0.00    -0.154 OA 
BRANCH   9  10
HETATM   10  C   UNL     1      -9.958   6.727  70.044  1.00  0.00    -0.176 C  
HETATM   11  O   UNL     1      -9.928   5.504  69.960  1.00  0.00    -0.183 OA 
HETATM   12  C   UNL     1     -10.183   7.555  71.359  1.00  0.00    -0.186 C  
HETATM   13  C   UNL     1      -9.532   6.825  72.550  1.00  0.00    -0.151 A  
HETATM   14  O   UNL     1      -9.476   8.802  71.144  1.00  0.00    -0.194 OA 
HETATM   15  C   UNL     1     -11.673   7.873  71.548  1.00  0.00    -0.317 A  
HETATM   16  H   UNL     1      -9.612   9.303  71.940  1.00  0.00     0.000 HD 
HETATM   17  C   UNL     1      -8.435   7.372  73.243  1.00  0.00    -0.173 A  
HETATM   18  C   UNL     1     -12.676   6.980  71.127  1.00  0.00    -0.361 A  
HETATM   19  C   UNL     1      -7.763   6.643  74.231  1.00  0.00    -0.106 A  
HETATM   20  C   UNL     1     -14.027   7.319  71.211  1.00  0.00    -0.342 A  
HETATM   21  C   UNL     1     -14.406   8.550  71.736  1.00  0.00    -0.522 A  
HETATM   22  C   UNL     1      -8.173   5.352  74.549  1.00  0.00    -0.103 A  
HETATM   23  C   UNL     1      -9.274   4.801  73.904  1.00  0.00    -0.114 A  
HETATM   24  C   UNL     1     -13.435   9.429  72.208  1.00  0.00    -0.539 A  
HETATM   25  C   UNL     1     -12.083   9.088  72.133  1.00  0.00    -0.412 A  
HETATM   26  C   UNL     1      -9.952   5.533  72.925  1.00  0.00    -0.191 A  
ENDBRANCH   9  10
ENDBRANCH   7   9
TORSDOF 2
ENDMDL
MODEL      119
REMARK 921   NORMALIZED FREE ENERGY PREDICTED BY IDOCK:   -4.03 KCAL/MOL
REMARK 922        TOTAL FREE ENERGY PREDICTED BY IDOCK:   -5.02 KCAL/MOL
REMARK 923 INTER-LIGAND FREE ENERGY PREDICTED BY IDOCK:   -4.56 KCAL/MOL
REMARK 924 INTRA-LIGAND FREE ENERGY PREDICTED BY IDOCK:   -0.46 KCAL/MOL
REMARK 927      BINDING AFFINITY PREDICTED BY RF-SCORE:    0.00 PKD
ROOT
HETATM    1  C   UNL     1      -6.770   8.389  66.417  1.00  0.00    -0.066 C  
HETATM    2  N   UNL     1      -8.057   9.132  66.797  1.00  0.00    -0.111 N  
HETATM    3  C   UNL     1      -8.477   8.652  68.195  1.00  0.00    -0.131 C  
HETATM    4  C   UNL     1      -9.117   8.766  65.753  1.00  0.00    -0.212 C  
HETATM    5  C   UNL     1      -9.610   9.489  68.771  1.00  0.00    -0.159 C  
HETATM    6  C   UNL     1      -9.255  10.962  68.789  1.00  0.00    -0.187 C  
HETATM    7  C   UNL     1      -8.939  11.460  67.381  1.00  0.00    -0.154 C  
HETATM    8  C   UNL     1      -7.769  10.656  66.790  1.00  0.00    -0.127 C  
ENDROOT
BRANCH   7   9
HETATM    9  O   UNL     1      -8.629  12.860  67.481  1.00  0.00    -0.166 OA 
BRANCH   9  10
HETATM   10  C   UNL     1      -9.750  13.626  67.752  1.00  0.00    -0.225 C  
HETATM   11  O   UNL     1     -10.845  13.362  67.267  1.00  0.00    -0.264 OA 
HETATM   12  C   UNL     1      -9.432  14.830  68.708  1.00  0.00    -0.206 C  
HETATM   13  C   UNL     1     -10.643  15.103  69.621  1.00  0.00    -0.274 A  
HETATM   14  O   UNL     1      -8.330  14.375  69.533  1.00  0.00    -0.363 OA 
HETATM   15  C   UNL     1      -8.958  16.048  67.903  1.00  0.00    -0.186 A  
HETATM   16  H   UNL     1      -8.138  15.103  70.112  1.00  0.00     0.000 HD 
HETATM   17  C   UNL     1     -10.579  14.907  71.014  1.00  0.00     0.378 A  
HETATM   18  C   UNL     1      -9.454  16.316  66.613  1.00  0.00    -0.269 A  
HETATM   19  C   UNL     1     -11.720  15.022  71.817  1.00  0.00    -0.452 A  
HETATM   20  C   UNL     1      -8.946  17.368  65.848  1.00  0.00     0.036 A  
HETATM   21  C   UNL     1      -7.946  18.185  66.363  1.00  0.00    -0.297 A  
HETATM   22  C   UNL     1     -12.949  15.337  71.246  1.00  0.00    -0.511 A  
HETATM   23  C   UNL     1     -13.034  15.567  69.878  1.00  0.00     0.186 A  
HETATM   24  C   UNL     1      -7.476  17.972  67.657  1.00  0.00    -0.215 A  
HETATM   25  C   UNL     1      -7.989  16.927  68.427  1.00  0.00    -0.232 A  
HETATM   26  C   UNL     1     -11.892  15.463  69.077  1.00  0.00    -0.357 A  
ENDBRANCH   9  10
ENDBRANCH   7   9
TORSDOF 2
ENDMDL
MODEL      120
REMARK 921   NORMALIZED FREE ENERGY PREDICTED BY IDOCK:   -4.03 KCAL/MOL
REMARK 922        TOTAL FREE ENERGY PREDICTED BY IDOCK:   -5.01 KCAL/MOL
REMARK 923 INTER-LIGAND FREE ENERGY PREDICTED BY IDOCK:   -5.24 KCAL/MOL
REMARK 924 INTRA-LIGAND FREE ENERGY PREDICTED BY IDOCK:    0.23 KCAL/MOL
REMARK 927      BINDING AFFINITY PREDICTED BY RF-SCORE:    0.00 PKD
ROOT
HETATM    1  C   UNL     1      -5.968   5.828  67.247  1.00  0.00    -0.018 C  
HETATM    2  N   UNL     1      -7.371   5.990  66.650  1.00  0.00    -0.077 N  
HETATM    3  C   UNL     1      -7.885   4.591  66.278  1.00  0.00    -0.099 C  
HETATM    4  C   UNL     1      -7.235   6.871  65.404  1.00  0.00    -0.073 C  
HETATM    5  C   UNL     1      -9.356   4.604  65.891  1.00  0.00    -0.155 C  
HETATM    6  C   UNL     1     -10.209   5.220  66.983  1.00  0.00    -0.274 C  
HETATM    7  C   UNL     1      -9.761   6.649  67.278  1.00  0.00    -0.134 C  
HETATM    8  C   UNL     1      -8.285   6.660  67.710  1.00  0.00    -0.119 C  
ENDROOT
BRANCH   7   9
HETATM    9  O   UNL     1     -10.623   7.165  68.307  1.00  0.00    -0.201 OA 
BRANCH   9  10
HETATM   10  C   UNL     1      -9.973   7.282  69.523  1.00  0.00    -0.170 C  
HETATM   11  O   UNL     1      -9.585   6.300  70.145  1.00  0.00    -0.161 OA 
HETATM   12  C   UNL     1      -9.825   8.778  69.978  1.00  0.00    -0.178 C  
HETATM   13  C   UNL     1      -8.500   8.960  70.743  1.00  0.00    -0.216 A  
HETATM   14  O   UNL     1      -9.751   9.540  68.747  1.00  0.00    -0.154 OA 
HETATM   15  C   UNL     1     -11.072   9.233  70.750  1.00  0.00    -0.349 A  
HETATM   16  H   UNL     1      -9.661  10.445  69.022  1.00  0.00     0.000 HD 
HETATM   17  C   UNL     1      -7.456   9.758  70.237  1.00  0.00    -0.173 A  
HETATM   18  C   UNL     1     -11.799   8.344  71.564  1.00  0.00    -0.345 A  
HETATM   19  C   UNL     1      -6.207   9.806  70.867  1.00  0.00    -0.084 A  
HETATM   20  C   UNL     1     -12.986   8.738  72.184  1.00  0.00    -0.457 A  
HETATM   21  C   UNL     1     -13.460  10.035  72.020  1.00  0.00    -0.448 A  
HETATM   22  C   UNL     1      -5.975   9.061  72.018  1.00  0.00    -0.068 A  
HETATM   23  C   UNL     1      -6.998   8.290  72.558  1.00  0.00    -0.110 A  
HETATM   24  C   UNL     1     -12.731  10.948  71.263  1.00  0.00    -0.542 A  
HETATM   25  C   UNL     1     -11.539  10.559  70.649  1.00  0.00    -0.445 A  
HETATM   26  C   UNL     1      -8.249   8.250  71.935  1.00  0.00    -0.195 A  
ENDBRANCH   9  10
ENDBRANCH   7   9
TORSDOF 2
ENDMDL
MODEL      121
REMARK 921   NORMALIZED FREE ENERGY PREDICTED BY IDOCK:   -4.01 KCAL/MOL
REMARK 922        TOTAL FREE ENERGY PREDICTED BY IDOCK:   -5.00 KCAL/MOL
REMARK 923 INTER-LIGAND FREE ENERGY PREDICTED BY IDOCK:   -4.40 KCAL/MOL
REMARK 924 INTRA-LIGAND FREE ENERGY PREDICTED BY IDOCK:   -0.60 KCAL/MOL
REMARK 927      BINDING AFFINITY PREDICTED BY RF-SCORE:    0.00 PKD
ROOT
HETATM    1  C   UNL     1      -8.868   6.854  72.978  1.00  0.00    -0.126 C  
HETATM    2  N   UNL     1      -9.215   6.619  71.503  1.00  0.00    -0.147 N  
HETATM    3  C   UNL     1     -10.208   5.448  71.437  1.00  0.00    -0.216 C  
HETATM    4  C   UNL     1      -7.910   6.270  70.780  1.00  0.00    -0.106 C  
HETATM    5  C   UNL     1     -10.799   5.276  70.046  1.00  0.00    -0.074 C  
HETATM    6  C   UNL     1     -11.443   6.558  69.556  1.00  0.00    -0.384 C  
HETATM    7  C   UNL     1     -10.426   7.696  69.524  1.00  0.00    -0.227 C  
HETATM    8  C   UNL     1      -9.840   7.917  70.928  1.00  0.00    -0.178 C  
ENDROOT
BRANCH   7   9
HETATM    9  O   UNL     1     -11.106   8.865  69.037  1.00  0.00    -0.017 OA 
BRANCH   9  10
HETATM   10  C   UNL     1     -10.597   9.300  67.826  1.00  0.00    -0.246 C  
HETATM   11  O   UNL     1     -10.856   8.728  66.773  1.00  0.00    -0.136 OA 
HETATM   12  C   UNL     1      -9.674  10.560  67.987  1.00  0.00    -0.147 C  
HETATM   13  C   UNL     1      -9.823  11.475  66.755  1.00  0.00    -0.227 A  
HETATM   14  O   UNL     1     -10.192  11.262  69.144  1.00  0.00    -0.340 OA 
HETATM   15  C   UNL     1      -8.229  10.135  68.290  1.00  0.00    -0.110 A  
HETATM   16  H   UNL     1      -9.633  12.025  69.241  1.00  0.00     0.000 HD 
HETATM   17  C   UNL     1     -10.385  12.762  66.853  1.00  0.00    -0.245 A  
HETATM   18  C   UNL     1      -7.682   8.955  67.755  1.00  0.00    -0.101 A  
HETATM   19  C   UNL     1     -10.646  13.529  65.712  1.00  0.00    -0.283 A  
HETATM   20  C   UNL     1      -6.403   8.523  68.113  1.00  0.00    -0.056 A  
HETATM   21  C   UNL     1      -5.638   9.274  68.998  1.00  0.00    -0.036 A  
HETATM   22  C   UNL     1     -10.348  13.029  64.449  1.00  0.00    -0.397 A  
HETATM   23  C   UNL     1      -9.761  11.775  64.326  1.00  0.00    -0.170 A  
HETATM   24  C   UNL     1      -6.137  10.473  69.501  1.00  0.00    -0.050 A  
HETATM   25  C   UNL     1      -7.412  10.911  69.136  1.00  0.00    -0.130 A  
HETATM   26  C   UNL     1      -9.491  11.012  65.466  1.00  0.00    -0.250 A  
ENDBRANCH   9  10
ENDBRANCH   7   9
TORSDOF 2
ENDMDL
MODEL      122
REMARK 921   NORMALIZED FREE ENERGY PREDICTED BY IDOCK:   -3.99 KCAL/MOL
REMARK 922        TOTAL FREE ENERGY PREDICTED BY IDOCK:   -4.98 KCAL/MOL
REMARK 923 INTER-LIGAND FREE ENERGY PREDICTED BY IDOCK:   -4.44 KCAL/MOL
REMARK 924 INTRA-LIGAND FREE ENERGY PREDICTED BY IDOCK:   -0.53 KCAL/MOL
REMARK 927      BINDING AFFINITY PREDICTED BY RF-SCORE:    0.00 PKD
ROOT
HETATM    1  C   UNL     1     -11.121  15.921  69.486  1.00  0.00    -0.315 C  
HETATM    2  N   UNL     1     -10.249  15.612  68.262  1.00  0.00    -0.221 N  
HETATM    3  C   UNL     1      -9.268  16.781  68.081  1.00  0.00    -0.224 C  
HETATM    4  C   UNL     1     -11.186  15.495  67.056  1.00  0.00    -0.177 C  
HETATM    5  C   UNL     1      -8.202  16.478  67.039  1.00  0.00    -0.227 C  
HETATM    6  C   UNL     1      -7.461  15.196  67.363  1.00  0.00    -0.239 C  
HETATM    7  C   UNL     1      -8.428  14.017  67.439  1.00  0.00    -0.200 C  
HETATM    8  C   UNL     1      -9.494  14.281  68.514  1.00  0.00    -0.206 C  
ENDROOT
BRANCH   7   9
HETATM    9  O   UNL     1      -7.650  12.844  67.733  1.00  0.00    -0.113 OA 
BRANCH   9  10
HETATM   10  C   UNL     1      -8.139  11.719  67.093  1.00  0.00    -0.169 C  
HETATM   11  O   UNL     1      -8.844  11.799  66.093  1.00  0.00    -0.188 OA 
HETATM   12  C   UNL     1      -7.697  10.390  67.803  1.00  0.00    -0.089 C  
HETATM   13  C   UNL     1      -7.483   9.284  66.752  1.00  0.00    -0.087 A  
HETATM   14  O   UNL     1      -6.418  10.696  68.413  1.00  0.00    -0.054 OA 
HETATM   15  C   UNL     1      -8.685  10.021  68.920  1.00  0.00    -0.146 A  
HETATM   16  H   UNL     1      -6.150   9.892  68.842  1.00  0.00     0.000 HD 
HETATM   17  C   UNL     1      -6.211   8.734  66.504  1.00  0.00    -0.061 A  
HETATM   18  C   UNL     1     -10.058  10.311  68.814  1.00  0.00    -0.198 A  
HETATM   19  C   UNL     1      -6.001   7.834  65.454  1.00  0.00    -0.038 A  
HETATM   20  C   UNL     1     -10.933  10.063  69.872  1.00  0.00    -0.339 A  
HETATM   21  C   UNL     1     -10.458   9.501  71.052  1.00  0.00    -0.377 A  
HETATM   22  C   UNL     1      -7.057   7.461  64.629  1.00  0.00    -0.057 A  
HETATM   23  C   UNL     1      -8.330   7.963  64.871  1.00  0.00    -0.087 A  
HETATM   24  C   UNL     1      -9.113   9.157  71.162  1.00  0.00    -0.275 A  
HETATM   25  C   UNL     1      -8.238   9.396  70.101  1.00  0.00    -0.180 A  
HETATM   26  C   UNL     1      -8.543   8.855  65.928  1.00  0.00    -0.177 A  
ENDBRANCH   9  10
ENDBRANCH   7   9
TORSDOF 2
ENDMDL
MODEL      123
REMARK 921   NORMALIZED FREE ENERGY PREDICTED BY IDOCK:   -3.99 KCAL/MOL
REMARK 922        TOTAL FREE ENERGY PREDICTED BY IDOCK:   -4.97 KCAL/MOL
REMARK 923 INTER-LIGAND FREE ENERGY PREDICTED BY IDOCK:   -6.53 KCAL/MOL
REMARK 924 INTRA-LIGAND FREE ENERGY PREDICTED BY IDOCK:    1.56 KCAL/MOL
REMARK 927      BINDING AFFINITY PREDICTED BY RF-SCORE:    0.00 PKD
ROOT
HETATM    1  C   UNL     1     -13.299  13.163  72.413  1.00  0.00    -0.490 C  
HETATM    2  N   UNL     1     -13.052  14.473  71.655  1.00  0.00    -0.324 N  
HETATM    3  C   UNL     1     -12.055  15.306  72.476  1.00  0.00    -0.407 C  
HETATM    4  C   UNL     1     -14.399  15.192  71.540  1.00  0.00    -0.559 C  
HETATM    5  C   UNL     1     -11.558  16.523  71.709  1.00  0.00    -0.207 C  
HETATM    6  C   UNL     1     -10.962  16.129  70.373  1.00  0.00    -0.320 C  
HETATM    7  C   UNL     1     -11.989  15.391  69.518  1.00  0.00    -0.334 C  
HETATM    8  C   UNL     1     -12.479  14.134  70.254  1.00  0.00    -0.353 C  
ENDROOT
BRANCH   7   9
HETATM    9  O   UNL     1     -11.354  15.067  68.270  1.00  0.00    -0.290 OA 
BRANCH   9  10
HETATM   10  C   UNL     1     -10.638  13.885  68.338  1.00  0.00    -0.255 C  
HETATM   11  O   UNL     1      -9.495  13.847  68.778  1.00  0.00    -0.158 OA 
HETATM   12  C   UNL     1     -11.453  12.662  67.785  1.00  0.00    -0.322 C  
HETATM   13  C   UNL     1     -11.092  11.393  68.581  1.00  0.00    -0.290 A  
HETATM   14  O   UNL     1     -12.842  12.986  68.045  1.00  0.00     0.618 OA 
HETATM   15  C   UNL     1     -11.267  12.532  66.266  1.00  0.00    -0.359 A  
HETATM   16  H   UNL     1     -13.335  12.246  67.711  1.00  0.00     0.000 HD 
HETATM   17  C   UNL     1     -12.034  10.738  69.397  1.00  0.00    -0.353 A  
HETATM   18  C   UNL     1     -10.055  12.881  65.641  1.00  0.00    -0.282 A  
HETATM   19  C   UNL     1     -11.662   9.673  70.224  1.00  0.00    -0.213 A  
HETATM   20  C   UNL     1      -9.925  12.854  64.251  1.00  0.00    -0.135 A  
HETATM   21  C   UNL     1     -10.997  12.460  63.459  1.00  0.00    -0.506 A  
HETATM   22  C   UNL     1     -10.342   9.236  70.252  1.00  0.00    -0.272 A  
HETATM   23  C   UNL     1      -9.398   9.843  69.433  1.00  0.00    -0.226 A  
HETATM   24  C   UNL     1     -12.190  12.060  64.056  1.00  0.00    -0.505 A  
HETATM   25  C   UNL     1     -12.318  12.077  65.446  1.00  0.00     0.198 A  
HETATM   26  C   UNL     1      -9.771  10.901  68.598  1.00  0.00    -0.188 A  
ENDBRANCH   9  10
ENDBRANCH   7   9
TORSDOF 2
ENDMDL
MODEL      124
REMARK 921   NORMALIZED FREE ENERGY PREDICTED BY IDOCK:   -3.98 KCAL/MOL
REMARK 922        TOTAL FREE ENERGY PREDICTED BY IDOCK:   -4.96 KCAL/MOL
REMARK 923 INTER-LIGAND FREE ENERGY PREDICTED BY IDOCK:   -4.88 KCAL/MOL
REMARK 924 INTRA-LIGAND FREE ENERGY PREDICTED BY IDOCK:   -0.09 KCAL/MOL
REMARK 927      BINDING AFFINITY PREDICTED BY RF-SCORE:    0.00 PKD
ROOT
HETATM    1  C   UNL     1      -5.954   4.656  64.485  1.00  0.00    -0.018 C  
HETATM    2  N   UNL     1      -7.392   5.048  64.845  1.00  0.00    -0.066 N  
HETATM    3  C   UNL     1      -8.283   3.818  64.614  1.00  0.00    -0.093 C  
HETATM    4  C   UNL     1      -7.795   6.197  63.915  1.00  0.00    -0.113 C  
HETATM    5  C   UNL     1      -9.690   4.020  65.157  1.00  0.00    -0.196 C  
HETATM    6  C   UNL     1      -9.667   4.403  66.624  1.00  0.00    -0.233 C  
HETATM    7  C   UNL     1      -8.866   5.685  66.836  1.00  0.00    -0.113 C  
HETATM    8  C   UNL     1      -7.426   5.495  66.330  1.00  0.00    -0.087 C  
ENDROOT
BRANCH   7   9
HETATM    9  O   UNL     1      -8.904   5.987  68.241  1.00  0.00    -0.113 OA 
BRANCH   9  10
HETATM   10  C   UNL     1      -8.748   7.340  68.489  1.00  0.00    -0.123 C  
HETATM   11  O   UNL     1      -7.648   7.880  68.453  1.00  0.00    -0.103 OA 
HETATM   12  C   UNL     1     -10.111   8.046  68.822  1.00  0.00    -0.195 C  
HETATM   13  C   UNL     1     -10.098   9.486  68.274  1.00  0.00    -0.210 A  
HETATM   14  O   UNL     1     -11.114   7.289  68.099  1.00  0.00    -0.464 OA 
HETATM   15  C   UNL     1     -10.420   7.941  70.323  1.00  0.00    -0.225 A  
HETATM   16  H   UNL     1     -11.938   7.716  68.300  1.00  0.00     0.000 HD 
HETATM   17  C   UNL     1     -10.962   9.891  67.238  1.00  0.00    -0.187 A  
HETATM   18  C   UNL     1      -9.395   7.950  71.288  1.00  0.00    -0.172 A  
HETATM   19  C   UNL     1     -10.849  11.156  66.651  1.00  0.00    -0.308 A  
HETATM   20  C   UNL     1      -9.675   7.756  72.642  1.00  0.00    -0.278 A  
HETATM   21  C   UNL     1     -10.988   7.567  73.061  1.00  0.00    -0.443 A  
HETATM   22  C   UNL     1      -9.872  12.046  67.088  1.00  0.00    -0.205 A  
HETATM   23  C   UNL     1      -9.028  11.684  68.131  1.00  0.00    -0.182 A  
HETATM   24  C   UNL     1     -12.024   7.606  72.132  1.00  0.00    -0.344 A  
HETATM   25  C   UNL     1     -11.747   7.810  70.779  1.00  0.00    -0.242 A  
HETATM   26  C   UNL     1      -9.148  10.423  68.725  1.00  0.00    -0.165 A  
ENDBRANCH   9  10
ENDBRANCH   7   9
TORSDOF 2
ENDMDL
MODEL      125
REMARK 921   NORMALIZED FREE ENERGY PREDICTED BY IDOCK:   -3.91 KCAL/MOL
REMARK 922        TOTAL FREE ENERGY PREDICTED BY IDOCK:   -4.89 KCAL/MOL
REMARK 923 INTER-LIGAND FREE ENERGY PREDICTED BY IDOCK:   -4.96 KCAL/MOL
REMARK 924 INTRA-LIGAND FREE ENERGY PREDICTED BY IDOCK:    0.07 KCAL/MOL
REMARK 927      BINDING AFFINITY PREDICTED BY RF-SCORE:    0.00 PKD
ROOT
HETATM    1  C   UNL     1      -6.471  11.661  66.789  1.00  0.00    -0.106 C  
HETATM    2  N   UNL     1      -6.723  10.180  67.094  1.00  0.00    -0.073 N  
HETATM    3  C   UNL     1      -5.633   9.712  68.071  1.00  0.00    -0.040 C  
HETATM    4  C   UNL     1      -6.627   9.421  65.766  1.00  0.00    -0.073 C  
HETATM    5  C   UNL     1      -5.917   8.323  68.624  1.00  0.00    -0.044 C  
HETATM    6  C   UNL     1      -7.287   8.253  69.268  1.00  0.00    -0.076 C  
HETATM    7  C   UNL     1      -8.376   8.618  68.263  1.00  0.00    -0.127 C  
HETATM    8  C   UNL     1      -8.136  10.036  67.718  1.00  0.00    -0.109 C  
ENDROOT
BRANCH   7   9
HETATM    9  O   UNL     1      -9.639   8.514  68.943  1.00  0.00    -0.157 OA 
BRANCH   9  10
HETATM   10  C   UNL     1      -9.601   7.597  69.979  1.00  0.00    -0.164 C  
HETATM   11  O   UNL     1      -9.278   6.429  69.796  1.00  0.00    -0.143 OA 
HETATM   12  C   UNL     1     -10.024   8.232  71.352  1.00  0.00    -0.194 C  
HETATM   13  C   UNL     1      -9.223   7.579  72.495  1.00  0.00    -0.192 A  
HETATM   14  O   UNL     1      -9.636   9.626  71.259  1.00  0.00    -0.290 OA 
HETATM   15  C   UNL     1     -11.548   8.168  71.529  1.00  0.00    -0.315 A  
HETATM   16  H   UNL     1      -9.891  10.009  72.090  1.00  0.00     0.000 HD 
HETATM   17  C   UNL     1      -8.292   8.310  73.258  1.00  0.00    -0.251 A  
HETATM   18  C   UNL     1     -12.305   7.102  71.011  1.00  0.00    -0.376 A  
HETATM   19  C   UNL     1      -7.469   7.680  74.199  1.00  0.00    -0.161 A  
HETATM   20  C   UNL     1     -13.699   7.100  71.089  1.00  0.00    -0.190 A  
HETATM   21  C   UNL     1     -14.364   8.155  71.704  1.00  0.00    -0.570 A  
HETATM   22  C   UNL     1      -7.560   6.306  74.399  1.00  0.00    -0.092 A  
HETATM   23  C   UNL     1      -8.492   5.566  73.684  1.00  0.00    -0.111 A  
HETATM   24  C   UNL     1     -13.634   9.197  72.271  1.00  0.00    -0.548 A  
HETATM   25  C   UNL     1     -12.239   9.195  72.202  1.00  0.00    -0.408 A  
HETATM   26  C   UNL     1      -9.323   6.197  72.751  1.00  0.00    -0.148 A  
ENDBRANCH   9  10
ENDBRANCH   7   9
TORSDOF 2
ENDMDL
MODEL      126
REMARK 921   NORMALIZED FREE ENERGY PREDICTED BY IDOCK:   -3.90 KCAL/MOL
REMARK 922        TOTAL FREE ENERGY PREDICTED BY IDOCK:   -4.88 KCAL/MOL
REMARK 923 INTER-LIGAND FREE ENERGY PREDICTED BY IDOCK:   -4.24 KCAL/MOL
REMARK 924 INTRA-LIGAND FREE ENERGY PREDICTED BY IDOCK:   -0.63 KCAL/MOL
REMARK 927      BINDING AFFINITY PREDICTED BY RF-SCORE:    0.00 PKD
ROOT
HETATM    1  C   UNL     1      -9.257   8.015  73.144  1.00  0.00    -0.279 C  
HETATM    2  N   UNL     1     -10.348   7.998  72.066  1.00  0.00    -0.218 N  
HETATM    3  C   UNL     1     -11.155   9.299  72.199  1.00  0.00     0.076 C  
HETATM    4  C   UNL     1     -11.233   6.777  72.336  1.00  0.00    -0.264 C  
HETATM    5  C   UNL     1     -12.116   9.498  71.037  1.00  0.00    -0.398 C  
HETATM    6  C   UNL     1     -11.393   9.444  69.706  1.00  0.00    -0.071 C  
HETATM    7  C   UNL     1     -10.677   8.107  69.533  1.00  0.00    -0.175 C  
HETATM    8  C   UNL     1      -9.669   7.898  70.675  1.00  0.00    -0.173 C  
ENDROOT
BRANCH   7   9
HETATM    9  O   UNL     1     -10.032   8.129  68.248  1.00  0.00    -0.174 OA 
BRANCH   9  10
HETATM   10  C   UNL     1     -10.271   6.975  67.523  1.00  0.00    -0.199 C  
HETATM   11  O   UNL     1     -11.392   6.687  67.119  1.00  0.00    -0.343 OA 
HETATM   12  C   UNL     1      -8.969   6.123  67.314  1.00  0.00    -0.112 C  
HETATM   13  C   UNL     1      -9.019   5.425  65.941  1.00  0.00    -0.151 A  
HETATM   14  O   UNL     1      -7.886   7.086  67.299  1.00  0.00    -0.107 OA 
HETATM   15  C   UNL     1      -8.750   5.172  68.500  1.00  0.00    -0.101 A  
HETATM   16  H   UNL     1      -7.098   6.570  67.172  1.00  0.00     0.000 HD 
HETATM   17  C   UNL     1      -8.114   5.749  64.912  1.00  0.00    -0.131 A  
HETATM   18  C   UNL     1      -9.833   4.602  69.196  1.00  0.00    -0.242 A  
HETATM   19  C   UNL     1      -8.253   5.214  63.627  1.00  0.00    -0.118 A  
HETATM   20  C   UNL     1      -9.629   3.819  70.334  1.00  0.00    -0.262 A  
HETATM   21  C   UNL     1      -8.338   3.574  70.788  1.00  0.00    -0.090 A  
HETATM   22  C   UNL     1      -9.298   4.342  63.341  1.00  0.00    -0.133 A  
HETATM   23  C   UNL     1     -10.187   3.979  64.345  1.00  0.00    -0.210 A  
HETATM   24  C   UNL     1      -7.248   4.084  70.087  1.00  0.00    -0.042 A  
HETATM   25  C   UNL     1      -7.450   4.859  68.943  1.00  0.00    -0.065 A  
HETATM   26  C   UNL     1     -10.042   4.505  65.633  1.00  0.00    -0.261 A  
ENDBRANCH   9  10
ENDBRANCH   7   9
TORSDOF 2
ENDMDL
MODEL      127
REMARK 921   NORMALIZED FREE ENERGY PREDICTED BY IDOCK:   -3.89 KCAL/MOL
REMARK 922        TOTAL FREE ENERGY PREDICTED BY IDOCK:   -4.86 KCAL/MOL
REMARK 923 INTER-LIGAND FREE ENERGY PREDICTED BY IDOCK:   -4.63 KCAL/MOL
REMARK 924 INTRA-LIGAND FREE ENERGY PREDICTED BY IDOCK:   -0.24 KCAL/MOL
REMARK 927      BINDING AFFINITY PREDICTED BY RF-SCORE:    0.00 PKD
ROOT
HETATM    1  C   UNL     1      -8.890   3.233  71.251  1.00  0.00    -0.086 C  
HETATM    2  N   UNL     1      -8.714   4.037  69.958  1.00  0.00    -0.068 N  
HETATM    3  C   UNL     1      -9.019   3.099  68.780  1.00  0.00    -0.133 C  
HETATM    4  C   UNL     1      -7.258   4.511  69.914  1.00  0.00    -0.050 C  
HETATM    5  C   UNL     1      -9.101   3.847  67.457  1.00  0.00    -0.176 C  
HETATM    6  C   UNL     1     -10.108   4.978  67.524  1.00  0.00    -0.201 C  
HETATM    7  C   UNL     1      -9.743   5.964  68.629  1.00  0.00    -0.127 C  
HETATM    8  C   UNL     1      -9.692   5.240  69.985  1.00  0.00    -0.196 C  
ENDROOT
BRANCH   7   9
HETATM    9  O   UNL     1     -10.732   7.008  68.617  1.00  0.00    -0.215 OA 
BRANCH   9  10
HETATM   10  C   UNL     1     -10.437   7.998  67.696  1.00  0.00    -0.232 C  
HETATM   11  O   UNL     1     -10.533   7.806  66.489  1.00  0.00    -0.227 OA 
HETATM   12  C   UNL     1      -9.970   9.330  68.383  1.00  0.00    -0.176 C  
HETATM   13  C   UNL     1     -10.454  10.538  67.557  1.00  0.00    -0.284 A  
HETATM   14  O   UNL     1     -10.646   9.351  69.665  1.00  0.00    -0.210 OA 
HETATM   15  C   UNL     1      -8.456   9.303  68.639  1.00  0.00    -0.123 A  
HETATM   16  H   UNL     1     -10.364  10.158  70.080  1.00  0.00     0.000 HD 
HETATM   17  C   UNL     1     -11.401  11.448  68.063  1.00  0.00    -0.372 A  
HETATM   18  C   UNL     1      -7.573   8.643  67.765  1.00  0.00    -0.098 A  
HETATM   19  C   UNL     1     -11.939  12.459  67.258  1.00  0.00    -0.246 A  
HETATM   20  C   UNL     1      -6.211   8.537  68.055  1.00  0.00    -0.052 A  
HETATM   21  C   UNL     1      -5.701   9.107  69.217  1.00  0.00    -0.035 A  
HETATM   22  C   UNL     1     -11.540  12.584  65.932  1.00  0.00    -0.454 A  
HETATM   23  C   UNL     1     -10.582  11.720  65.416  1.00  0.00    -0.325 A  
HETATM   24  C   UNL     1      -6.545   9.810  70.072  1.00  0.00    -0.081 A  
HETATM   25  C   UNL     1      -7.906   9.925  69.778  1.00  0.00    -0.169 A  
HETATM   26  C   UNL     1     -10.036  10.716  66.223  1.00  0.00    -0.291 A  
ENDBRANCH   9  10
ENDBRANCH   7   9
TORSDOF 2
ENDMDL
MODEL      128
REMARK 921   NORMALIZED FREE ENERGY PREDICTED BY IDOCK:   -3.88 KCAL/MOL
REMARK 922        TOTAL FREE ENERGY PREDICTED BY IDOCK:   -4.85 KCAL/MOL
REMARK 923 INTER-LIGAND FREE ENERGY PREDICTED BY IDOCK:   -5.01 KCAL/MOL
REMARK 924 INTRA-LIGAND FREE ENERGY PREDICTED BY IDOCK:    0.15 KCAL/MOL
REMARK 927      BINDING AFFINITY PREDICTED BY RF-SCORE:    0.00 PKD
ROOT
HETATM    1  C   UNL     1     -10.772   7.583  73.293  1.00  0.00    -0.382 C  
HETATM    2  N   UNL     1     -11.296   8.073  71.938  1.00  0.00    -0.267 N  
HETATM    3  C   UNL     1     -12.144   9.329  72.191  1.00  0.00    -0.283 C  
HETATM    4  C   UNL     1     -12.151   6.947  71.348  1.00  0.00    -0.364 C  
HETATM    5  C   UNL     1     -12.525  10.035  70.898  1.00  0.00    -0.431 C  
HETATM    6  C   UNL     1     -11.300  10.368  70.069  1.00  0.00    -0.384 C  
HETATM    7  C   UNL     1     -10.515   9.103  69.731  1.00  0.00    -0.223 C  
HETATM    8  C   UNL     1     -10.084   8.390  71.023  1.00  0.00    -0.196 C  
ENDROOT
BRANCH   7   9
HETATM    9  O   UNL     1      -9.385   9.499  68.936  1.00  0.00    -0.144 OA 
BRANCH   9  10
HETATM   10  C   UNL     1      -8.792   8.425  68.297  1.00  0.00    -0.139 C  
HETATM   11  O   UNL     1      -7.863   7.805  68.802  1.00  0.00    -0.117 OA 
HETATM   12  C   UNL     1      -9.437   8.136  66.894  1.00  0.00    -0.191 C  
HETATM   13  C   UNL     1      -9.425   6.620  66.618  1.00  0.00    -0.201 A  
HETATM   14  O   UNL     1     -10.815   8.568  67.017  1.00  0.00    -0.371 OA 
HETATM   15  C   UNL     1      -8.763   8.984  65.806  1.00  0.00    -0.197 A  
HETATM   16  H   UNL     1     -11.206   8.393  66.169  1.00  0.00     0.000 HD 
HETATM   17  C   UNL     1     -10.616   5.875  66.522  1.00  0.00    -0.266 A  
HETATM   18  C   UNL     1      -7.397   9.315  65.871  1.00  0.00    -0.094 A  
HETATM   19  C   UNL     1     -10.594   4.481  66.412  1.00  0.00     0.041 A  
HETATM   20  C   UNL     1      -6.814  10.168  64.932  1.00  0.00    -0.129 A  
HETATM   21  C   UNL     1      -7.580  10.692  63.897  1.00  0.00     0.181 A  
HETATM   22  C   UNL     1      -9.381   3.799  66.392  1.00  0.00    -0.197 A  
HETATM   23  C   UNL     1      -8.189   4.512  66.452  1.00  0.00    -0.106 A  
HETATM   24  C   UNL     1      -8.922  10.338  63.780  1.00  0.00    -0.260 A  
HETATM   25  C   UNL     1      -9.504   9.478  64.713  1.00  0.00    -0.178 A  
HETATM   26  C   UNL     1      -8.211   5.907  66.551  1.00  0.00    -0.110 A  
ENDBRANCH   9  10
ENDBRANCH   7   9
TORSDOF 2
ENDMDL
MODEL      129
REMARK 921   NORMALIZED FREE ENERGY PREDICTED BY IDOCK:   -3.87 KCAL/MOL
REMARK 922        TOTAL FREE ENERGY PREDICTED BY IDOCK:   -4.85 KCAL/MOL
REMARK 923 INTER-LIGAND FREE ENERGY PREDICTED BY IDOCK:   -4.69 KCAL/MOL
REMARK 924 INTRA-LIGAND FREE ENERGY PREDICTED BY IDOCK:   -0.16 KCAL/MOL
REMARK 927      BINDING AFFINITY PREDICTED BY RF-SCORE:    0.00 PKD
ROOT
HETATM    1  C   UNL     1     -12.110  13.348  66.369  1.00  0.00    -0.409 C  
HETATM    2  N   UNL     1     -11.514  13.002  67.739  1.00  0.00    -0.295 N  
HETATM    3  C   UNL     1     -12.377  13.686  68.811  1.00  0.00     0.023 C  
HETATM    4  C   UNL     1     -10.082  13.547  67.762  1.00  0.00    -0.236 C  
HETATM    5  C   UNL     1     -12.018  13.225  70.216  1.00  0.00    -0.372 C  
HETATM    6  C   UNL     1     -12.097  11.716  70.340  1.00  0.00    -0.462 C  
HETATM    7  C   UNL     1     -11.159  11.041  69.343  1.00  0.00    -0.262 C  
HETATM    8  C   UNL     1     -11.526  11.460  67.909  1.00  0.00    -0.291 C  
ENDROOT
BRANCH   7   9
HETATM    9  O   UNL     1     -11.282   9.621  69.533  1.00  0.00    -0.205 OA 
BRANCH   9  10
HETATM   10  C   UNL     1     -10.075   8.965  69.363  1.00  0.00    -0.202 C  
HETATM   11  O   UNL     1      -9.187   9.017  70.207  1.00  0.00    -0.171 OA 
HETATM   12  C   UNL     1     -10.003   8.196  67.996  1.00  0.00    -0.184 C  
HETATM   13  C   UNL     1      -9.177   6.906  68.168  1.00  0.00    -0.126 A  
HETATM   14  O   UNL     1     -11.372   7.826  67.698  1.00  0.00    -0.266 OA 
HETATM   15  C   UNL     1      -9.502   9.125  66.880  1.00  0.00    -0.222 A  
HETATM   16  H   UNL     1     -11.328   7.361  66.871  1.00  0.00     0.000 HD 
HETATM   17  C   UNL     1      -9.760   5.631  68.037  1.00  0.00    -0.149 A  
HETATM   18  C   UNL     1      -8.569  10.146  67.136  1.00  0.00    -0.125 A  
HETATM   19  C   UNL     1      -9.038   4.469  68.332  1.00  0.00    -0.161 A  
HETATM   20  C   UNL     1      -8.194  11.049  66.139  1.00  0.00    -0.155 A  
HETATM   21  C   UNL     1      -8.729  10.937  64.861  1.00  0.00    -0.075 A  
HETATM   22  C   UNL     1      -7.718   4.555  68.762  1.00  0.00    -0.071 A  
HETATM   23  C   UNL     1      -7.108   5.798  68.868  1.00  0.00    -0.073 A  
HETATM   24  C   UNL     1      -9.615   9.903  64.569  1.00  0.00    -0.290 A  
HETATM   25  C   UNL     1      -9.984   8.994  65.562  1.00  0.00     0.208 A  
HETATM   26  C   UNL     1      -7.825   6.960  68.563  1.00  0.00    -0.118 A  
ENDBRANCH   9  10
ENDBRANCH   7   9
TORSDOF 2
ENDMDL
MODEL      130
REMARK 921   NORMALIZED FREE ENERGY PREDICTED BY IDOCK:   -3.87 KCAL/MOL
REMARK 922        TOTAL FREE ENERGY PREDICTED BY IDOCK:   -4.84 KCAL/MOL
REMARK 923 INTER-LIGAND FREE ENERGY PREDICTED BY IDOCK:   -4.28 KCAL/MOL
REMARK 924 INTRA-LIGAND FREE ENERGY PREDICTED BY IDOCK:   -0.56 KCAL/MOL
REMARK 927      BINDING AFFINITY PREDICTED BY RF-SCORE:    0.00 PKD
ROOT
HETATM    1  C   UNL     1     -11.265  16.425  68.664  1.00  0.00    -0.332 C  
HETATM    2  N   UNL     1      -9.869  16.299  68.043  1.00  0.00    -0.233 N  
HETATM    3  C   UNL     1      -9.077  17.562  68.414  1.00  0.00    -0.276 C  
HETATM    4  C   UNL     1     -10.055  16.197  66.526  1.00  0.00    -0.291 C  
HETATM    5  C   UNL     1      -7.605  17.443  68.048  1.00  0.00    -0.206 C  
HETATM    6  C   UNL     1      -6.978  16.211  68.669  1.00  0.00    -0.141 C  
HETATM    7  C   UNL     1      -7.704  14.947  68.215  1.00  0.00    -0.113 C  
HETATM    8  C   UNL     1      -9.189  15.024  68.608  1.00  0.00    -0.198 C  
ENDROOT
BRANCH   7   9
HETATM    9  O   UNL     1      -7.045  13.829  68.831  1.00  0.00    -0.107 OA 
BRANCH   9  10
HETATM   10  C   UNL     1      -6.976  12.733  67.989  1.00  0.00    -0.107 C  
HETATM   11  O   UNL     1      -6.486  12.809  66.868  1.00  0.00    -0.112 OA 
HETATM   12  C   UNL     1      -7.599  11.444  68.636  1.00  0.00    -0.130 C  
HETATM   13  C   UNL     1      -6.822  10.199  68.166  1.00  0.00    -0.066 A  
HETATM   14  O   UNL     1      -7.393  11.602  70.062  1.00  0.00    -0.241 OA 
HETATM   15  C   UNL     1      -9.111  11.385  68.373  1.00  0.00    -0.179 A  
HETATM   16  H   UNL     1      -7.770  10.822  70.454  1.00  0.00     0.000 HD 
HETATM   17  C   UNL     1      -6.068   9.417  69.062  1.00  0.00    -0.042 A  
HETATM   18  C   UNL     1      -9.671  11.888  67.183  1.00  0.00    -0.194 A  
HETATM   19  C   UNL     1      -5.254   8.373  68.606  1.00  0.00    -0.032 A  
HETATM   20  C   UNL     1     -11.053  11.921  66.993  1.00  0.00    -0.354 A  
HETATM   21  C   UNL     1     -11.904  11.434  67.979  1.00  0.00    -0.273 A  
HETATM   22  C   UNL     1      -5.178   8.086  67.247  1.00  0.00    -0.032 A  
HETATM   23  C   UNL     1      -5.938   8.822  66.345  1.00  0.00    -0.055 A  
HETATM   24  C   UNL     1     -11.372  10.884  69.143  1.00  0.00    -0.350 A  
HETATM   25  C   UNL     1      -9.989  10.841  69.331  1.00  0.00    -0.137 A  
HETATM   26  C   UNL     1      -6.759   9.858  66.801  1.00  0.00    -0.079 A  
ENDBRANCH   9  10
ENDBRANCH   7   9
TORSDOF 2
ENDMDL
MODEL      131
REMARK 921   NORMALIZED FREE ENERGY PREDICTED BY IDOCK:   -3.86 KCAL/MOL
REMARK 922        TOTAL FREE ENERGY PREDICTED BY IDOCK:   -4.83 KCAL/MOL
REMARK 923 INTER-LIGAND FREE ENERGY PREDICTED BY IDOCK:   -5.36 KCAL/MOL
REMARK 924 INTRA-LIGAND FREE ENERGY PREDICTED BY IDOCK:    0.53 KCAL/MOL
REMARK 927      BINDING AFFINITY PREDICTED BY RF-SCORE:    0.00 PKD
ROOT
HETATM    1  C   UNL     1      -5.991   4.278  69.754  1.00  0.00    -0.018 C  
HETATM    2  N   UNL     1      -6.874   4.143  71.001  1.00  0.00    -0.031 N  
HETATM    3  C   UNL     1      -5.945   4.046  72.222  1.00  0.00    -0.009 C  
HETATM    4  C   UNL     1      -7.696   2.861  70.838  1.00  0.00    -0.039 C  
HETATM    5  C   UNL     1      -6.711   4.141  73.533  1.00  0.00    -0.053 C  
HETATM    6  C   UNL     1      -7.552   5.401  73.591  1.00  0.00    -0.095 C  
HETATM    7  C   UNL     1      -8.546   5.443  72.433  1.00  0.00    -0.122 C  
HETATM    8  C   UNL     1      -7.794   5.388  71.093  1.00  0.00    -0.104 C  
ENDROOT
BRANCH   7   9
HETATM    9  O   UNL     1      -9.310   6.653  72.568  1.00  0.00    -0.139 OA 
BRANCH   9  10
HETATM   10  C   UNL     1      -9.511   7.284  71.352  1.00  0.00    -0.160 C  
HETATM   11  O   UNL     1      -8.702   8.086  70.900  1.00  0.00    -0.131 OA 
HETATM   12  C   UNL     1     -10.862   6.857  70.676  1.00  0.00    -0.245 C  
HETATM   13  C   UNL     1     -10.693   6.834  69.145  1.00  0.00    -0.287 A  
HETATM   14  O   UNL     1     -11.100   5.501  71.131  1.00  0.00    -0.185 OA 
HETATM   15  C   UNL     1     -12.016   7.740  71.173  1.00  0.00    -0.312 A  
HETATM   16  H   UNL     1     -11.918   5.243  70.722  1.00  0.00     0.000 HD 
HETATM   17  C   UNL     1     -10.774   5.636  68.409  1.00  0.00    -0.229 A  
HETATM   18  C   UNL     1     -11.818   9.094  71.503  1.00  0.00    -0.428 A  
HETATM   19  C   UNL     1     -10.481   5.602  67.041  1.00  0.00    -0.344 A  
HETATM   20  C   UNL     1     -12.848   9.863  72.048  1.00  0.00    -0.488 A  
HETATM   21  C   UNL     1     -14.102   9.301  72.256  1.00  0.00    -0.374 A  
HETATM   22  C   UNL     1     -10.103   6.765  66.377  1.00  0.00    -0.048 A  
HETATM   23  C   UNL     1     -10.047   7.967  67.072  1.00  0.00    -0.350 A  
HETATM   24  C   UNL     1     -14.338   7.979  71.889  1.00  0.00    -0.559 A  
HETATM   25  C   UNL     1     -13.312   7.210  71.335  1.00  0.00    -0.380 A  
HETATM   26  C   UNL     1     -10.350   8.004  68.437  1.00  0.00    -0.236 A  
ENDBRANCH   9  10
ENDBRANCH   7   9
TORSDOF 2
ENDMDL
MODEL      132
REMARK 921   NORMALIZED FREE ENERGY PREDICTED BY IDOCK:   -3.86 KCAL/MOL
REMARK 922        TOTAL FREE ENERGY PREDICTED BY IDOCK:   -4.83 KCAL/MOL
REMARK 923 INTER-LIGAND FREE ENERGY PREDICTED BY IDOCK:   -4.73 KCAL/MOL
REMARK 924 INTRA-LIGAND FREE ENERGY PREDICTED BY IDOCK:   -0.10 KCAL/MOL
REMARK 927      BINDING AFFINITY PREDICTED BY RF-SCORE:    0.00 PKD
ROOT
HETATM    1  C   UNL     1     -10.888   7.722  72.771  1.00  0.00    -0.379 C  
HETATM    2  N   UNL     1     -11.606   8.173  71.493  1.00  0.00    -0.265 N  
HETATM    3  C   UNL     1     -12.937   8.818  71.908  1.00  0.00    -0.376 C  
HETATM    4  C   UNL     1     -11.849   6.921  70.643  1.00  0.00    -0.368 C  
HETATM    5  C   UNL     1     -13.628   9.509  70.742  1.00  0.00     0.068 C  
HETATM    6  C   UNL     1     -12.716  10.526  70.083  1.00  0.00    -0.191 C  
HETATM    7  C   UNL     1     -11.439   9.860  69.578  1.00  0.00    -0.068 C  
HETATM    8  C   UNL     1     -10.700   9.186  70.746  1.00  0.00    -0.263 C  
ENDROOT
BRANCH   7   9
HETATM    9  O   UNL     1     -10.640  10.881  68.958  1.00  0.00    -0.195 OA 
BRANCH   9  10
HETATM   10  C   UNL     1      -9.748  10.360  68.037  1.00  0.00    -0.150 C  
HETATM   11  O   UNL     1      -9.398   9.185  68.070  1.00  0.00    -0.137 OA 
HETATM   12  C   UNL     1      -9.260  11.438  67.004  1.00  0.00    -0.169 C  
HETATM   13  C   UNL     1      -9.031  10.776  65.631  1.00  0.00    -0.205 A  
HETATM   14  O   UNL     1     -10.363  12.371  66.884  1.00  0.00    -0.222 OA 
HETATM   15  C   UNL     1      -8.044  12.199  67.552  1.00  0.00    -0.163 A  
HETATM   16  H   UNL     1     -10.068  13.023  66.259  1.00  0.00     0.000 HD 
HETATM   17  C   UNL     1      -9.822  11.099  64.513  1.00  0.00    -0.330 A  
HETATM   18  C   UNL     1      -7.094  11.571  68.380  1.00  0.00    -0.081 A  
HETATM   19  C   UNL     1      -9.701  10.395  63.309  1.00  0.00    -0.308 A  
HETATM   20  C   UNL     1      -6.047  12.293  68.954  1.00  0.00    -0.073 A  
HETATM   21  C   UNL     1      -5.915  13.653  68.698  1.00  0.00    -0.086 A  
HETATM   22  C   UNL     1      -8.784   9.354  63.196  1.00  0.00    -0.222 A  
HETATM   23  C   UNL     1      -7.967   9.036  64.275  1.00  0.00    -0.142 A  
HETATM   24  C   UNL     1      -6.811  14.286  67.841  1.00  0.00    -0.174 A  
HETATM   25  C   UNL     1      -7.854  13.564  67.258  1.00  0.00    -0.106 A  
HETATM   26  C   UNL     1      -8.081   9.747  65.474  1.00  0.00    -0.125 A  
ENDBRANCH   9  10
ENDBRANCH   7   9
TORSDOF 2
ENDMDL
MODEL      133
REMARK 921   NORMALIZED FREE ENERGY PREDICTED BY IDOCK:   -3.85 KCAL/MOL
REMARK 922        TOTAL FREE ENERGY PREDICTED BY IDOCK:   -4.82 KCAL/MOL
REMARK 923 INTER-LIGAND FREE ENERGY PREDICTED BY IDOCK:   -4.28 KCAL/MOL
REMARK 924 INTRA-LIGAND FREE ENERGY PREDICTED BY IDOCK:   -0.54 KCAL/MOL
REMARK 927      BINDING AFFINITY PREDICTED BY RF-SCORE:    0.00 PKD
ROOT
HETATM    1  C   UNL     1     -10.741   5.316  73.644  1.00  0.00    -0.294 C  
HETATM    2  N   UNL     1      -9.812   5.565  72.449  1.00  0.00    -0.161 N  
HETATM    3  C   UNL     1      -9.929   4.356  71.507  1.00  0.00    -0.180 C  
HETATM    4  C   UNL     1      -8.388   5.691  73.001  1.00  0.00    -0.118 C  
HETATM    5  C   UNL     1      -9.229   4.596  70.178  1.00  0.00    -0.188 C  
HETATM    6  C   UNL     1      -9.736   5.856  69.506  1.00  0.00    -0.190 C  
HETATM    7  C   UNL     1      -9.523   7.072  70.404  1.00  0.00    -0.162 C  
HETATM    8  C   UNL     1     -10.254   6.872  71.742  1.00  0.00    -0.189 C  
ENDROOT
BRANCH   7   9
HETATM    9  O   UNL     1     -10.013   8.222  69.693  1.00  0.00    -0.185 OA 
BRANCH   9  10
HETATM   10  C   UNL     1      -9.077   8.728  68.809  1.00  0.00    -0.138 C  
HETATM   11  O   UNL     1      -7.889   8.807  69.102  1.00  0.00    -0.094 OA 
HETATM   12  C   UNL     1      -9.723   9.180  67.451  1.00  0.00    -0.162 C  
HETATM   13  C   UNL     1      -8.737   8.920  66.295  1.00  0.00    -0.162 A  
HETATM   14  O   UNL     1     -10.873   8.315  67.275  1.00  0.00    -0.471 OA 
HETATM   15  C   UNL     1     -10.222  10.629  67.546  1.00  0.00    -0.236 A  
HETATM   16  H   UNL     1     -11.264   8.588  66.453  1.00  0.00     0.000 HD 
HETATM   17  C   UNL     1      -9.010   7.975  65.288  1.00  0.00     0.086 A  
HETATM   18  C   UNL     1      -9.556  11.586  68.333  1.00  0.00    -0.195 A  
HETATM   19  C   UNL     1      -8.053   7.645  64.322  1.00  0.00    -0.071 A  
HETATM   20  C   UNL     1     -10.070  12.874  68.494  1.00  0.00    -0.193 A  
HETATM   21  C   UNL     1     -11.250  13.238  67.855  1.00  0.00    -0.302 A  
HETATM   22  C   UNL     1      -6.802   8.254  64.340  1.00  0.00    -0.069 A  
HETATM   23  C   UNL     1      -6.518   9.214  65.303  1.00  0.00    -0.068 A  
HETATM   24  C   UNL     1     -11.899  12.325  67.028  1.00  0.00    -0.329 A  
HETATM   25  C   UNL     1     -11.382  11.039  66.859  1.00  0.00    -0.112 A  
HETATM   26  C   UNL     1      -7.479   9.553  66.262  1.00  0.00    -0.097 A  
ENDBRANCH   9  10
ENDBRANCH   7   9
TORSDOF 2
ENDMDL
MODEL      134
REMARK 921   NORMALIZED FREE ENERGY PREDICTED BY IDOCK:   -3.83 KCAL/MOL
REMARK 922        TOTAL FREE ENERGY PREDICTED BY IDOCK:   -4.79 KCAL/MOL
REMARK 923 INTER-LIGAND FREE ENERGY PREDICTED BY IDOCK:   -4.20 KCAL/MOL
REMARK 924 INTRA-LIGAND FREE ENERGY PREDICTED BY IDOCK:   -0.59 KCAL/MOL
REMARK 927      BINDING AFFINITY PREDICTED BY RF-SCORE:    0.00 PKD
ROOT
HETATM    1  C   UNL     1      -9.376  10.350  64.036  1.00  0.00    -0.277 C  
HETATM    2  N   UNL     1      -9.477  10.570  65.551  1.00  0.00    -0.200 N  
HETATM    3  C   UNL     1     -10.438  11.744  65.790  1.00  0.00    -0.260 C  
HETATM    4  C   UNL     1      -8.069  10.905  66.055  1.00  0.00    -0.142 C  
HETATM    5  C   UNL     1     -10.794  11.903  67.261  1.00  0.00    -0.294 C  
HETATM    6  C   UNL     1     -11.357  10.619  67.835  1.00  0.00    -0.342 C  
HETATM    7  C   UNL     1     -10.355   9.476  67.689  1.00  0.00    -0.244 C  
HETATM    8  C   UNL     1     -10.008   9.268  66.206  1.00  0.00    -0.286 C  
ENDROOT
BRANCH   7   9
HETATM    9  O   UNL     1     -10.954   8.304  68.267  1.00  0.00     0.022 OA 
BRANCH   9  10
HETATM   10  C   UNL     1     -10.253   7.849  69.371  1.00  0.00    -0.206 C  
HETATM   11  O   UNL     1     -10.352   8.389  70.467  1.00  0.00    -0.194 OA 
HETATM   12  C   UNL     1      -9.347   6.612  69.031  1.00  0.00    -0.133 C  
HETATM   13  C   UNL     1      -9.285   5.664  70.245  1.00  0.00    -0.178 A  
HETATM   14  O   UNL     1     -10.030   5.929  67.950  1.00  0.00    -0.118 OA 
HETATM   15  C   UNL     1      -7.975   7.073  68.516  1.00  0.00    -0.123 A  
HETATM   16  H   UNL     1      -9.482   5.181  67.746  1.00  0.00     0.000 HD 
HETATM   17  C   UNL     1      -9.835   4.369  70.201  1.00  0.00    -0.288 A  
HETATM   18  C   UNL     1      -7.369   8.251  68.991  1.00  0.00    -0.089 A  
HETATM   19  C   UNL     1      -9.900   3.568  71.346  1.00  0.00    -0.214 A  
HETATM   20  C   UNL     1      -6.170   8.717  68.448  1.00  0.00    -0.054 A  
HETATM   21  C   UNL     1      -5.542   8.004  67.433  1.00  0.00    -0.038 A  
HETATM   22  C   UNL     1      -9.414   4.042  72.560  1.00  0.00    -0.178 A  
HETATM   23  C   UNL     1      -8.835   5.304  72.625  1.00  0.00    -0.123 A  
HETATM   24  C   UNL     1      -6.095   6.808  66.982  1.00  0.00    -0.032 A  
HETATM   25  C   UNL     1      -7.289   6.336  67.530  1.00  0.00    -0.080 A  
HETATM   26  C   UNL     1      -8.761   6.101  71.478  1.00  0.00    -0.135 A  
ENDBRANCH   9  10
ENDBRANCH   7   9
TORSDOF 2
ENDMDL
MODEL      135
REMARK 921   NORMALIZED FREE ENERGY PREDICTED BY IDOCK:   -3.82 KCAL/MOL
REMARK 922        TOTAL FREE ENERGY PREDICTED BY IDOCK:   -4.79 KCAL/MOL
REMARK 923 INTER-LIGAND FREE ENERGY PREDICTED BY IDOCK:   -5.06 KCAL/MOL
REMARK 924 INTRA-LIGAND FREE ENERGY PREDICTED BY IDOCK:    0.27 KCAL/MOL
REMARK 927      BINDING AFFINITY PREDICTED BY RF-SCORE:    0.00 PKD
ROOT
HETATM    1  C   UNL     1     -10.247   8.605  67.621  1.00  0.00    -0.239 C  
HETATM    2  N   UNL     1      -9.192   9.287  68.501  1.00  0.00    -0.135 N  
HETATM    3  C   UNL     1      -7.809   8.827  68.013  1.00  0.00    -0.102 C  
HETATM    4  C   UNL     1      -9.441   8.833  69.942  1.00  0.00    -0.169 C  
HETATM    5  C   UNL     1      -6.681   9.617  68.661  1.00  0.00    -0.052 C  
HETATM    6  C   UNL     1      -6.859  11.108  68.453  1.00  0.00    -0.066 C  
HETATM    7  C   UNL     1      -8.190  11.579  69.032  1.00  0.00     0.067 C  
HETATM    8  C   UNL     1      -9.352  10.824  68.365  1.00  0.00    -0.167 C  
ENDROOT
BRANCH   7   9
HETATM    9  O   UNL     1      -8.276  12.997  68.809  1.00  0.00    -0.038 OA 
BRANCH   9  10
HETATM   10  C   UNL     1      -8.653  13.301  67.512  1.00  0.00    -0.200 C  
HETATM   11  O   UNL     1      -7.992  12.937  66.546  1.00  0.00     0.243 OA 
HETATM   12  C   UNL     1      -9.974  14.148  67.458  1.00  0.00    -0.236 C  
HETATM   13  C   UNL     1     -10.787  13.765  66.206  1.00  0.00    -0.283 A  
HETATM   14  O   UNL     1     -10.726  13.750  68.632  1.00  0.00    -0.246 OA 
HETATM   15  C   UNL     1      -9.658  15.647  67.576  1.00  0.00    -0.224 A  
HETATM   16  H   UNL     1     -11.525  14.262  68.599  1.00  0.00     0.000 HD 
HETATM   17  C   UNL     1     -12.042  13.135  66.303  1.00  0.00    -0.460 A  
HETATM   18  C   UNL     1      -8.477  16.194  67.043  1.00  0.00    -0.238 A  
HETATM   19  C   UNL     1     -12.708  12.665  65.166  1.00  0.00    -0.329 A  
HETATM   20  C   UNL     1      -8.149  17.537  67.239  1.00  0.00    -0.219 A  
HETATM   21  C   UNL     1      -9.006  18.365  67.956  1.00  0.00    -0.305 A  
HETATM   22  C   UNL     1     -12.137  12.817  63.907  1.00  0.00    -0.562 A  
HETATM   23  C   UNL     1     -10.915  13.465  63.779  1.00  0.00     0.001 A  
HETATM   24  C   UNL     1     -10.206  17.860  68.449  1.00  0.00    -0.398 A  
HETATM   25  C   UNL     1     -10.540  16.519  68.245  1.00  0.00    -0.326 A  
HETATM   26  C   UNL     1     -10.253  13.945  64.914  1.00  0.00    -0.378 A  
ENDBRANCH   9  10
ENDBRANCH   7   9
TORSDOF 2
ENDMDL
MODEL      136
REMARK 921   NORMALIZED FREE ENERGY PREDICTED BY IDOCK:   -3.79 KCAL/MOL
REMARK 922        TOTAL FREE ENERGY PREDICTED BY IDOCK:   -4.75 KCAL/MOL
REMARK 923 INTER-LIGAND FREE ENERGY PREDICTED BY IDOCK:   -4.07 KCAL/MOL
REMARK 924 INTRA-LIGAND FREE ENERGY PREDICTED BY IDOCK:   -0.68 KCAL/MOL
REMARK 927      BINDING AFFINITY PREDICTED BY RF-SCORE:    0.00 PKD
ROOT
HETATM    1  C   UNL     1      -9.728   8.045  73.098  1.00  0.00    -0.270 C  
HETATM    2  N   UNL     1      -9.476   7.099  71.918  1.00  0.00    -0.146 N  
HETATM    3  C   UNL     1     -10.288   5.818  72.165  1.00  0.00    -0.205 C  
HETATM    4  C   UNL     1      -7.974   6.796  71.893  1.00  0.00    -0.101 C  
HETATM    5  C   UNL     1     -10.297   4.902  70.950  1.00  0.00    -0.225 C  
HETATM    6  C   UNL     1     -10.794   5.627  69.715  1.00  0.00    -0.370 C  
HETATM    7  C   UNL     1      -9.920   6.842  69.413  1.00  0.00    -0.157 C  
HETATM    8  C   UNL     1      -9.925   7.804  70.612  1.00  0.00    -0.186 C  
ENDROOT
BRANCH   7   9
HETATM    9  O   UNL     1     -10.445   7.462  68.227  1.00  0.00    -0.197 OA 
BRANCH   9  10
HETATM   10  C   UNL     1      -9.467   7.669  67.269  1.00  0.00    -0.148 C  
HETATM   11  O   UNL     1      -8.847   6.738  66.768  1.00  0.00    -0.116 OA 
HETATM   12  C   UNL     1      -9.266   9.192  66.942  1.00  0.00    -0.148 C  
HETATM   13  C   UNL     1      -8.906   9.361  65.454  1.00  0.00    -0.220 A  
HETATM   14  O   UNL     1     -10.562   9.801  67.172  1.00  0.00    -0.252 OA 
HETATM   15  C   UNL     1      -8.260   9.824  67.915  1.00  0.00    -0.113 A  
HETATM   16  H   UNL     1     -10.440  10.722  66.974  1.00  0.00     0.000 HD 
HETATM   17  C   UNL     1      -9.768  10.016  64.553  1.00  0.00    -0.310 A  
HETATM   18  C   UNL     1      -7.176   9.091  68.432  1.00  0.00    -0.077 A  
HETATM   19  C   UNL     1      -9.500  10.043  63.180  1.00  0.00    -0.229 A  
HETATM   20  C   UNL     1      -6.322   9.640  69.390  1.00  0.00    -0.040 A  
HETATM   21  C   UNL     1      -6.523  10.941  69.837  1.00  0.00    -0.144 A  
HETATM   22  C   UNL     1      -8.363   9.419  62.677  1.00  0.00    -0.178 A  
HETATM   23  C   UNL     1      -7.478   8.794  63.547  1.00  0.00    -0.108 A  
HETATM   24  C   UNL     1      -7.557  11.705  69.303  1.00  0.00     0.121 A  
HETATM   25  C   UNL     1      -8.406  11.161  68.337  1.00  0.00    -0.149 A  
HETATM   26  C   UNL     1      -7.740   8.776  64.921  1.00  0.00    -0.104 A  
ENDBRANCH   9  10
ENDBRANCH   7   9
TORSDOF 2
ENDMDL
MODEL      137
REMARK 921   NORMALIZED FREE ENERGY PREDICTED BY IDOCK:   -3.79 KCAL/MOL
REMARK 922        TOTAL FREE ENERGY PREDICTED BY IDOCK:   -4.75 KCAL/MOL
REMARK 923 INTER-LIGAND FREE ENERGY PREDICTED BY IDOCK:   -4.36 KCAL/MOL
REMARK 924 INTRA-LIGAND FREE ENERGY PREDICTED BY IDOCK:   -0.39 KCAL/MOL
REMARK 927      BINDING AFFINITY PREDICTED BY RF-SCORE:    0.00 PKD
ROOT
HETATM    1  C   UNL     1      -8.436   4.838  63.679  1.00  0.00    -0.128 C  
HETATM    2  N   UNL     1      -7.997   6.089  64.451  1.00  0.00    -0.120 N  
HETATM    3  C   UNL     1      -8.158   7.296  63.513  1.00  0.00    -0.002 C  
HETATM    4  C   UNL     1      -6.528   5.891  64.838  1.00  0.00    -0.038 C  
HETATM    5  C   UNL     1      -7.973   8.618  64.244  1.00  0.00    -0.148 C  
HETATM    6  C   UNL     1      -8.907   8.728  65.433  1.00  0.00    -0.221 C  
HETATM    7  C   UNL     1      -8.672   7.582  66.414  1.00  0.00    -0.145 C  
HETATM    8  C   UNL     1      -8.892   6.234  65.710  1.00  0.00    -0.111 C  
ENDROOT
BRANCH   7   9
HETATM    9  O   UNL     1      -9.581   7.766  67.513  1.00  0.00    -0.140 OA 
BRANCH   9  10
HETATM   10  C   UNL     1      -8.924   7.832  68.729  1.00  0.00    -0.141 C  
HETATM   11  O   UNL     1      -8.248   6.900  69.150  1.00  0.00    -0.119 OA 
HETATM   12  C   UNL     1      -9.167   9.198  69.464  1.00  0.00    -0.159 C  
HETATM   13  C   UNL     1      -7.903   9.598  70.251  1.00  0.00    -0.193 A  
HETATM   14  O   UNL     1      -9.371  10.166  68.404  1.00  0.00    -0.132 OA 
HETATM   15  C   UNL     1     -10.447   9.135  70.310  1.00  0.00    -0.257 A  
HETATM   16  H   UNL     1      -9.518  10.992  68.849  1.00  0.00     0.000 HD 
HETATM   17  C   UNL     1      -7.147  10.735  69.909  1.00  0.00    -0.099 A  
HETATM   18  C   UNL     1     -10.858   7.944  70.936  1.00  0.00    -0.245 A  
HETATM   19  C   UNL     1      -5.927  11.012  70.536  1.00  0.00    -0.116 A  
HETATM   20  C   UNL     1     -12.073   7.868  71.620  1.00  0.00    -0.333 A  
HETATM   21  C   UNL     1     -12.892   8.988  71.710  1.00  0.00    -0.437 A  
HETATM   22  C   UNL     1      -5.438  10.161  71.522  1.00  0.00    -0.016 A  
HETATM   23  C   UNL     1      -6.180   9.049  71.902  1.00  0.00    -0.048 A  
HETATM   24  C   UNL     1     -12.483  10.192  71.144  1.00  0.00    -0.490 A  
HETATM   25  C   UNL     1     -11.265  10.272  70.467  1.00  0.00    -0.408 A  
HETATM   26  C   UNL     1      -7.404   8.778  71.283  1.00  0.00    -0.112 A  
ENDBRANCH   9  10
ENDBRANCH   7   9
TORSDOF 2
ENDMDL
MODEL      138
REMARK 921   NORMALIZED FREE ENERGY PREDICTED BY IDOCK:   -3.75 KCAL/MOL
REMARK 922        TOTAL FREE ENERGY PREDICTED BY IDOCK:   -4.70 KCAL/MOL
REMARK 923 INTER-LIGAND FREE ENERGY PREDICTED BY IDOCK:   -4.08 KCAL/MOL
REMARK 924 INTRA-LIGAND FREE ENERGY PREDICTED BY IDOCK:   -0.62 KCAL/MOL
REMARK 927      BINDING AFFINITY PREDICTED BY RF-SCORE:    0.00 PKD
ROOT
HETATM    1  C   UNL     1      -8.348   4.009  63.975  1.00  0.00    -0.094 C  
HETATM    2  N   UNL     1      -7.368   5.158  64.242  1.00  0.00    -0.054 N  
HETATM    3  C   UNL     1      -6.176   4.987  63.288  1.00  0.00    -0.022 C  
HETATM    4  C   UNL     1      -6.920   5.042  65.702  1.00  0.00    -0.063 C  
HETATM    5  C   UNL     1      -5.252   6.196  63.302  1.00  0.00    -0.018 C  
HETATM    6  C   UNL     1      -6.009   7.473  62.997  1.00  0.00    -0.054 C  
HETATM    7  C   UNL     1      -7.130   7.694  64.010  1.00  0.00    -0.068 C  
HETATM    8  C   UNL     1      -8.101   6.502  63.988  1.00  0.00    -0.029 C  
ENDROOT
BRANCH   7   9
HETATM    9  O   UNL     1      -7.786   8.925  63.662  1.00  0.00    -0.117 OA 
BRANCH   9  10
HETATM   10  C   UNL     1      -7.754   9.844  64.696  1.00  0.00    -0.142 C  
HETATM   11  O   UNL     1      -6.733  10.458  64.984  1.00  0.00    -0.122 OA 
HETATM   12  C   UNL     1      -9.141   9.973  65.421  1.00  0.00    -0.193 C  
HETATM   13  C   UNL     1      -9.350  11.427  65.888  1.00  0.00    -0.247 A  
HETATM   14  O   UNL     1     -10.128   9.673  64.402  1.00  0.00    -0.343 OA 
HETATM   15  C   UNL     1      -9.267   8.924  66.535  1.00  0.00    -0.231 A  
HETATM   16  H   UNL     1     -10.967   9.751  64.841  1.00  0.00     0.000 HD 
HETATM   17  C   UNL     1     -10.364  12.240  65.346  1.00  0.00    -0.298 A  
HETATM   18  C   UNL     1      -8.148   8.501  67.277  1.00  0.00    -0.105 A  
HETATM   19  C   UNL     1     -10.459  13.597  65.673  1.00  0.00    -0.304 A  
HETATM   20  C   UNL     1      -8.252   7.477  68.220  1.00  0.00    -0.125 A  
HETATM   21  C   UNL     1      -9.480   6.868  68.455  1.00  0.00    -0.133 A  
HETATM   22  C   UNL     1      -9.545  14.172  66.550  1.00  0.00    -0.310 A  
HETATM   23  C   UNL     1      -8.555  13.385  67.125  1.00  0.00    -0.201 A  
HETATM   24  C   UNL     1     -10.611   7.305  67.772  1.00  0.00    -0.289 A  
HETATM   25  C   UNL     1     -10.511   8.336  66.835  1.00  0.00    -0.365 A  
HETATM   26  C   UNL     1      -8.466  12.026  66.807  1.00  0.00    -0.155 A  
ENDBRANCH   9  10
ENDBRANCH   7   9
TORSDOF 2
ENDMDL
MODEL      139
REMARK 921   NORMALIZED FREE ENERGY PREDICTED BY IDOCK:   -3.71 KCAL/MOL
REMARK 922        TOTAL FREE ENERGY PREDICTED BY IDOCK:   -4.66 KCAL/MOL
REMARK 923 INTER-LIGAND FREE ENERGY PREDICTED BY IDOCK:   -4.32 KCAL/MOL
REMARK 924 INTRA-LIGAND FREE ENERGY PREDICTED BY IDOCK:   -0.34 KCAL/MOL
REMARK 927      BINDING AFFINITY PREDICTED BY RF-SCORE:    0.00 PKD
ROOT
HETATM    1  C   UNL     1     -13.599   7.999  71.945  1.00  0.00    -0.313 C  
HETATM    2  N   UNL     1     -12.141   8.280  71.562  1.00  0.00    -0.290 N  
HETATM    3  C   UNL     1     -11.277   8.050  72.811  1.00  0.00    -0.382 C  
HETATM    4  C   UNL     1     -12.065   9.742  71.108  1.00  0.00    -0.370 C  
HETATM    5  C   UNL     1      -9.790   8.074  72.492  1.00  0.00    -0.330 C  
HETATM    6  C   UNL     1      -9.442   7.079  71.403  1.00  0.00    -0.159 C  
HETATM    7  C   UNL     1     -10.227   7.375  70.128  1.00  0.00    -0.205 C  
HETATM    8  C   UNL     1     -11.737   7.318  70.414  1.00  0.00    -0.182 C  
ENDROOT
BRANCH   7   9
HETATM    9  O   UNL     1      -9.832   6.403  69.145  1.00  0.00    -0.138 OA 
BRANCH   9  10
HETATM   10  C   UNL     1      -9.723   6.953  67.880  1.00  0.00    -0.122 C  
HETATM   11  O   UNL     1     -10.633   7.602  67.376  1.00  0.00    -0.274 OA 
HETATM   12  C   UNL     1      -8.341   6.630  67.207  1.00  0.00    -0.120 C  
HETATM   13  C   UNL     1      -7.901   7.816  66.328  1.00  0.00    -0.091 A  
HETATM   14  O   UNL     1      -7.406   6.505  68.308  1.00  0.00    -0.082 OA 
HETATM   15  C   UNL     1      -8.400   5.283  66.472  1.00  0.00    -0.108 A  
HETATM   16  H   UNL     1      -6.570   6.310  67.902  1.00  0.00     0.000 HD 
HETATM   17  C   UNL     1      -6.763   8.585  66.637  1.00  0.00    -0.068 A  
HETATM   18  C   UNL     1      -9.580   4.835  65.850  1.00  0.00    -0.188 A  
HETATM   19  C   UNL     1      -6.450   9.743  65.916  1.00  0.00    -0.082 A  
HETATM   20  C   UNL     1      -9.655   3.568  65.270  1.00  0.00    -0.140 A  
HETATM   21  C   UNL     1      -8.546   2.729  65.282  1.00  0.00    -0.107 A  
HETATM   22  C   UNL     1      -7.266  10.157  64.868  1.00  0.00    -0.131 A  
HETATM   23  C   UNL     1      -8.378   9.399  64.520  1.00  0.00    -0.167 A  
HETATM   24  C   UNL     1      -7.351   3.170  65.845  1.00  0.00    -0.072 A  
HETATM   25  C   UNL     1      -7.272   4.441  66.418  1.00  0.00    -0.076 A  
HETATM   26  C   UNL     1      -8.685   8.236  65.234  1.00  0.00    -0.121 A  
ENDBRANCH   9  10
ENDBRANCH   7   9
TORSDOF 2
ENDMDL
MODEL      140
REMARK 921   NORMALIZED FREE ENERGY PREDICTED BY IDOCK:   -3.68 KCAL/MOL
REMARK 922        TOTAL FREE ENERGY PREDICTED BY IDOCK:   -4.63 KCAL/MOL
REMARK 923 INTER-LIGAND FREE ENERGY PREDICTED BY IDOCK:   -4.57 KCAL/MOL
REMARK 924 INTRA-LIGAND FREE ENERGY PREDICTED BY IDOCK:   -0.06 KCAL/MOL
REMARK 927      BINDING AFFINITY PREDICTED BY RF-SCORE:    0.00 PKD
ROOT
HETATM    1  C   UNL     1      -8.682   6.364  70.528  1.00  0.00    -0.144 C  
HETATM    2  N   UNL     1      -8.291   7.776  70.983  1.00  0.00    -0.112 N  
HETATM    3  C   UNL     1      -6.891   7.692  71.612  1.00  0.00    -0.053 C  
HETATM    4  C   UNL     1      -9.328   8.222  72.018  1.00  0.00    -0.230 C  
HETATM    5  C   UNL     1      -6.305   9.069  71.890  1.00  0.00    -0.029 C  
HETATM    6  C   UNL     1      -6.285   9.924  70.638  1.00  0.00    -0.102 C  
HETATM    7  C   UNL     1      -7.694  10.090  70.074  1.00  0.00    -0.169 C  
HETATM    8  C   UNL     1      -8.295   8.713  69.747  1.00  0.00    -0.123 C  
ENDROOT
BRANCH   7   9
HETATM    9  O   UNL     1      -7.592  10.920  68.905  1.00  0.00    -0.110 OA 
BRANCH   9  10
HETATM   10  C   UNL     1      -8.810  11.078  68.268  1.00  0.00    -0.144 C  
HETATM   11  O   UNL     1      -9.873  10.894  68.851  1.00  0.00    -0.191 OA 
HETATM   12  C   UNL     1      -8.646  11.494  66.762  1.00  0.00    -0.170 C  
HETATM   13  C   UNL     1      -9.798  12.431  66.353  1.00  0.00    -0.249 A  
HETATM   14  O   UNL     1      -7.406  12.242  66.711  1.00  0.00    -0.370 OA 
HETATM   15  C   UNL     1      -8.494  10.250  65.873  1.00  0.00    -0.154 A  
HETATM   16  H   UNL     1      -7.307  12.494  65.800  1.00  0.00     0.000 HD 
HETATM   17  C   UNL     1      -9.570  13.777  66.006  1.00  0.00    -0.197 A  
HETATM   18  C   UNL     1      -9.149   9.043  66.178  1.00  0.00    -0.246 A  
HETATM   19  C   UNL     1     -10.632  14.657  65.772  1.00  0.00    -0.330 A  
HETATM   20  C   UNL     1      -8.928   7.890  65.423  1.00  0.00     0.056 A  
HETATM   21  C   UNL     1      -8.063   7.925  64.335  1.00  0.00    -0.103 A  
HETATM   22  C   UNL     1     -11.946  14.212  65.876  1.00  0.00    -0.420 A  
HETATM   23  C   UNL     1     -12.200  12.881  66.184  1.00  0.00    -0.385 A  
HETATM   24  C   UNL     1      -7.443   9.121  63.981  1.00  0.00    -0.110 A  
HETATM   25  C   UNL     1      -7.670  10.277  64.730  1.00  0.00    -0.119 A  
HETATM   26  C   UNL     1     -11.138  11.998  66.408  1.00  0.00    -0.365 A  
ENDBRANCH   9  10
ENDBRANCH   7   9
TORSDOF 2
ENDMDL
MODEL      141
REMARK 921   NORMALIZED FREE ENERGY PREDICTED BY IDOCK:   -3.68 KCAL/MOL
REMARK 922        TOTAL FREE ENERGY PREDICTED BY IDOCK:   -4.62 KCAL/MOL
REMARK 923 INTER-LIGAND FREE ENERGY PREDICTED BY IDOCK:   -4.35 KCAL/MOL
REMARK 924 INTRA-LIGAND FREE ENERGY PREDICTED BY IDOCK:   -0.27 KCAL/MOL
REMARK 927      BINDING AFFINITY PREDICTED BY RF-SCORE:    0.00 PKD
ROOT
HETATM    1  C   UNL     1      -9.685  12.774  68.200  1.00  0.00    -0.223 C  
HETATM    2  N   UNL     1     -10.076  11.523  67.405  1.00  0.00    -0.189 N  
HETATM    3  C   UNL     1     -10.131  11.912  65.919  1.00  0.00    -0.234 C  
HETATM    4  C   UNL     1     -11.455  11.080  67.904  1.00  0.00    -0.282 C  
HETATM    5  C   UNL     1     -10.282  10.698  65.014  1.00  0.00    -0.380 C  
HETATM    6  C   UNL     1      -9.187   9.681  65.266  1.00  0.00    -0.295 C  
HETATM    7  C   UNL     1      -9.202   9.218  66.721  1.00  0.00    -0.147 C  
HETATM    8  C   UNL     1      -9.012  10.423  67.657  1.00  0.00    -0.138 C  
ENDROOT
BRANCH   7   9
HETATM    9  O   UNL     1      -8.151   8.250  66.874  1.00  0.00    -0.101 OA 
BRANCH   9  10
HETATM   10  C   UNL     1      -8.595   6.957  66.659  1.00  0.00    -0.124 C  
HETATM   11  O   UNL     1      -9.263   6.659  65.675  1.00  0.00     0.009 OA 
HETATM   12  C   UNL     1      -8.156   5.978  67.805  1.00  0.00    -0.109 C  
HETATM   13  C   UNL     1      -7.883   4.579  67.217  1.00  0.00    -0.097 A  
HETATM   14  O   UNL     1      -6.906   6.517  68.303  1.00  0.00    -0.065 OA 
HETATM   15  C   UNL     1      -9.177   5.995  68.951  1.00  0.00    -0.125 A  
HETATM   16  H   UNL     1      -6.640   5.924  68.996  1.00  0.00     0.000 HD 
HETATM   17  C   UNL     1      -6.592   4.016  67.216  1.00  0.00    -0.046 A  
HETATM   18  C   UNL     1     -10.550   6.188  68.710  1.00  0.00    -0.330 A  
HETATM   19  C   UNL     1      -6.327   2.810  66.558  1.00  0.00    -0.028 A  
HETATM   20  C   UNL     1     -11.460   6.302  69.763  1.00  0.00    -0.449 A  
HETATM   21  C   UNL     1     -11.019   6.207  71.078  1.00  0.00    -0.354 A  
HETATM   22  C   UNL     1      -7.345   2.139  65.888  1.00  0.00    -0.065 A  
HETATM   23  C   UNL     1      -8.635   2.656  65.901  1.00  0.00    -0.114 A  
HETATM   24  C   UNL     1      -9.673   5.964  71.341  1.00  0.00    -0.196 A  
HETATM   25  C   UNL     1      -8.764   5.840  70.289  1.00  0.00    -0.137 A  
HETATM   26  C   UNL     1      -8.903   3.856  66.568  1.00  0.00    -0.125 A  
ENDBRANCH   9  10
ENDBRANCH   7   9
TORSDOF 2
ENDMDL
MODEL      142
REMARK 921   NORMALIZED FREE ENERGY PREDICTED BY IDOCK:   -3.64 KCAL/MOL
REMARK 922        TOTAL FREE ENERGY PREDICTED BY IDOCK:   -4.58 KCAL/MOL
REMARK 923 INTER-LIGAND FREE ENERGY PREDICTED BY IDOCK:   -3.98 KCAL/MOL
REMARK 924 INTRA-LIGAND FREE ENERGY PREDICTED BY IDOCK:   -0.61 KCAL/MOL
REMARK 927      BINDING AFFINITY PREDICTED BY RF-SCORE:    0.00 PKD
ROOT
HETATM    1  C   UNL     1      -9.395   4.607  67.349  1.00  0.00    -0.143 C  
HETATM    2  N   UNL     1      -9.861   5.929  67.972  1.00  0.00    -0.119 N  
HETATM    3  C   UNL     1     -10.425   5.616  69.366  1.00  0.00    -0.297 C  
HETATM    4  C   UNL     1     -10.950   6.502  67.059  1.00  0.00    -0.396 C  
HETATM    5  C   UNL     1     -10.704   6.878  70.169  1.00  0.00    -0.270 C  
HETATM    6  C   UNL     1      -9.471   7.754  70.269  1.00  0.00    -0.160 C  
HETATM    7  C   UNL     1      -8.974   8.149  68.881  1.00  0.00    -0.141 C  
HETATM    8  C   UNL     1      -8.646   6.890  68.061  1.00  0.00    -0.123 C  
ENDROOT
BRANCH   7   9
HETATM    9  O   UNL     1      -7.818   8.985  69.061  1.00  0.00    -0.088 OA 
BRANCH   9  10
HETATM   10  C   UNL     1      -8.031  10.276  68.609  1.00  0.00    -0.111 C  
HETATM   11  O   UNL     1      -8.922  10.982  69.067  1.00  0.00    -0.148 OA 
HETATM   12  C   UNL     1      -7.027  10.681  67.471  1.00  0.00    -0.083 C  
HETATM   13  C   UNL     1      -6.692  12.181  67.584  1.00  0.00    -0.118 A  
HETATM   14  O   UNL     1      -5.823   9.921  67.742  1.00  0.00    -0.040 OA 
HETATM   15  C   UNL     1      -7.567  10.254  66.098  1.00  0.00    -0.124 A  
HETATM   16  H   UNL     1      -5.216  10.166  67.054  1.00  0.00     0.000 HD 
HETATM   17  C   UNL     1      -5.395  12.627  67.904  1.00  0.00    -0.098 A  
HETATM   18  C   UNL     1      -8.946  10.248  65.819  1.00  0.00    -0.185 A  
HETATM   19  C   UNL     1      -5.131  13.981  68.143  1.00  0.00    -0.112 A  
HETATM   20  C   UNL     1      -9.435   9.765  64.604  1.00  0.00    -0.295 A  
HETATM   21  C   UNL     1      -8.555   9.295  63.636  1.00  0.00    -0.208 A  
HETATM   22  C   UNL     1      -6.155  14.918  68.063  1.00  0.00    -0.163 A  
HETATM   23  C   UNL     1      -7.438  14.510  67.717  1.00  0.00    -0.182 A  
HETATM   24  C   UNL     1      -7.183   9.339  63.868  1.00  0.00    -0.098 A  
HETATM   25  C   UNL     1      -6.691   9.831  65.079  1.00  0.00    -0.107 A  
HETATM   26  C   UNL     1      -7.700  13.159  67.468  1.00  0.00    -0.168 A  
ENDBRANCH   9  10
ENDBRANCH   7   9
TORSDOF 2
ENDMDL
MODEL      143
REMARK 921   NORMALIZED FREE ENERGY PREDICTED BY IDOCK:   -3.63 KCAL/MOL
REMARK 922        TOTAL FREE ENERGY PREDICTED BY IDOCK:   -4.57 KCAL/MOL
REMARK 923 INTER-LIGAND FREE ENERGY PREDICTED BY IDOCK:   -4.20 KCAL/MOL
REMARK 924 INTRA-LIGAND FREE ENERGY PREDICTED BY IDOCK:   -0.37 KCAL/MOL
REMARK 927      BINDING AFFINITY PREDICTED BY RF-SCORE:    0.00 PKD
ROOT
HETATM    1  C   UNL     1      -7.915   7.528  65.022  1.00  0.00    -0.132 C  
HETATM    2  N   UNL     1      -8.400   8.017  66.392  1.00  0.00    -0.118 N  
HETATM    3  C   UNL     1      -9.747   8.726  66.184  1.00  0.00    -0.250 C  
HETATM    4  C   UNL     1      -7.346   8.994  66.923  1.00  0.00    -0.086 C  
HETATM    5  C   UNL     1     -10.433   9.050  67.503  1.00  0.00    -0.338 C  
HETATM    6  C   UNL     1     -10.601   7.810  68.358  1.00  0.00    -0.157 C  
HETATM    7  C   UNL     1      -9.248   7.166  68.649  1.00  0.00    -0.135 C  
HETATM    8  C   UNL     1      -8.549   6.793  67.331  1.00  0.00    -0.120 C  
ENDROOT
BRANCH   7   9
HETATM    9  O   UNL     1      -9.490   6.013  69.472  1.00  0.00    -0.137 OA 
BRANCH   9  10
HETATM   10  C   UNL     1      -8.563   5.894  70.493  1.00  0.00    -0.136 C  
HETATM   11  O   UNL     1      -7.364   5.783  70.267  1.00  0.00    -0.072 OA 
HETATM   12  C   UNL     1      -9.236   5.907  71.912  1.00  0.00    -0.147 C  
HETATM   13  C   UNL     1      -8.304   6.604  72.923  1.00  0.00    -0.121 A  
HETATM   14  O   UNL     1     -10.429   6.716  71.757  1.00  0.00    -0.207 OA 
HETATM   15  C   UNL     1      -9.666   4.490  72.318  1.00  0.00    -0.217 A  
HETATM   16  H   UNL     1     -10.836   6.724  72.615  1.00  0.00     0.000 HD 
HETATM   17  C   UNL     1      -8.654   7.823  73.534  1.00  0.00    -0.279 A  
HETATM   18  C   UNL     1      -8.931   3.357  71.924  1.00  0.00    -0.147 A  
HETATM   19  C   UNL     1      -7.746   8.518  74.340  1.00  0.00    -0.196 A  
HETATM   20  C   UNL     1      -9.381   2.067  72.212  1.00  0.00    -0.142 A  
HETATM   21  C   UNL     1     -10.565   1.884  72.917  1.00  0.00    -0.235 A  
HETATM   22  C   UNL     1      -6.470   8.009  74.557  1.00  0.00    -0.126 A  
HETATM   23  C   UNL     1      -6.109   6.791  73.993  1.00  0.00    -0.064 A  
HETATM   24  C   UNL     1     -11.284   2.990  73.364  1.00  0.00    -0.254 A  
HETATM   25  C   UNL     1     -10.830   4.281  73.085  1.00  0.00    -0.303 A  
HETATM   26  C   UNL     1      -7.020   6.091  73.195  1.00  0.00    -0.084 A  
ENDBRANCH   9  10
ENDBRANCH   7   9
TORSDOF 2
ENDMDL
MODEL      144
REMARK 921   NORMALIZED FREE ENERGY PREDICTED BY IDOCK:   -3.56 KCAL/MOL
REMARK 922        TOTAL FREE ENERGY PREDICTED BY IDOCK:   -4.49 KCAL/MOL
REMARK 923 INTER-LIGAND FREE ENERGY PREDICTED BY IDOCK:   -3.84 KCAL/MOL
REMARK 924 INTRA-LIGAND FREE ENERGY PREDICTED BY IDOCK:   -0.65 KCAL/MOL
REMARK 927      BINDING AFFINITY PREDICTED BY RF-SCORE:    0.00 PKD
ROOT
HETATM    1  C   UNL     1      -5.849   4.999  64.649  1.00  0.00    -0.017 C  
HETATM    2  N   UNL     1      -7.350   5.014  64.962  1.00  0.00    -0.067 N  
HETATM    3  C   UNL     1      -7.942   3.682  64.477  1.00  0.00    -0.086 C  
HETATM    4  C   UNL     1      -7.961   6.193  64.196  1.00  0.00    -0.114 C  
HETATM    5  C   UNL     1      -9.378   3.489  64.942  1.00  0.00    -0.153 C  
HETATM    6  C   UNL     1      -9.492   3.615  66.448  1.00  0.00    -0.184 C  
HETATM    7  C   UNL     1      -9.000   4.982  66.916  1.00  0.00    -0.112 C  
HETATM    8  C   UNL     1      -7.536   5.187  66.492  1.00  0.00    -0.087 C  
ENDROOT
BRANCH   7   9
HETATM    9  O   UNL     1      -9.154   5.028  68.344  1.00  0.00    -0.108 OA 
BRANCH   9  10
HETATM   10  C   UNL     1     -10.002   6.046  68.747  1.00  0.00    -0.150 C  
HETATM   11  O   UNL     1     -11.207   6.008  68.524  1.00  0.00    -0.299 OA 
HETATM   12  C   UNL     1      -9.236   7.204  69.479  1.00  0.00    -0.149 C  
HETATM   13  C   UNL     1     -10.132   7.805  70.579  1.00  0.00    -0.192 A  
HETATM   14  O   UNL     1      -8.100   6.564  70.112  1.00  0.00    -0.116 OA 
HETATM   15  C   UNL     1      -8.707   8.228  68.463  1.00  0.00    -0.133 A  
HETATM   16  H   UNL     1      -7.637   7.265  70.555  1.00  0.00     0.000 HD 
HETATM   17  C   UNL     1      -9.805   7.691  71.944  1.00  0.00    -0.205 A  
HETATM   18  C   UNL     1      -9.407   8.518  67.278  1.00  0.00    -0.184 A  
HETATM   19  C   UNL     1     -10.691   8.115  72.941  1.00  0.00    -0.317 A  
HETATM   20  C   UNL     1      -8.872   9.374  66.313  1.00  0.00    -0.172 A  
HETATM   21  C   UNL     1      -7.635   9.972  66.523  1.00  0.00    -0.106 A  
HETATM   22  C   UNL     1     -11.922   8.665  72.597  1.00  0.00    -0.253 A  
HETATM   23  C   UNL     1     -12.256   8.820  71.257  1.00  0.00    -0.332 A  
HETATM   24  C   UNL     1      -6.946   9.742  67.711  1.00  0.00    -0.086 A  
HETATM   25  C   UNL     1      -7.484   8.894  68.681  1.00  0.00    -0.088 A  
HETATM   26  C   UNL     1     -11.366   8.406  70.260  1.00  0.00    -0.131 A  
ENDBRANCH   9  10
ENDBRANCH   7   9
TORSDOF 2
ENDMDL
MODEL      145
REMARK 921   NORMALIZED FREE ENERGY PREDICTED BY IDOCK:   -3.55 KCAL/MOL
REMARK 922        TOTAL FREE ENERGY PREDICTED BY IDOCK:   -4.49 KCAL/MOL
REMARK 923 INTER-LIGAND FREE ENERGY PREDICTED BY IDOCK:   -3.90 KCAL/MOL
REMARK 924 INTRA-LIGAND FREE ENERGY PREDICTED BY IDOCK:   -0.59 KCAL/MOL
REMARK 927      BINDING AFFINITY PREDICTED BY RF-SCORE:    0.00 PKD
ROOT
HETATM    1  C   UNL     1      -8.704   3.413  69.497  1.00  0.00    -0.076 C  
HETATM    2  N   UNL     1      -8.191   4.349  68.396  1.00  0.00    -0.085 N  
HETATM    3  C   UNL     1      -8.175   3.557  67.080  1.00  0.00    -0.091 C  
HETATM    4  C   UNL     1      -6.775   4.780  68.791  1.00  0.00    -0.050 C  
HETATM    5  C   UNL     1      -7.904   4.449  65.877  1.00  0.00    -0.095 C  
HETATM    6  C   UNL     1      -8.893   5.596  65.806  1.00  0.00    -0.156 C  
HETATM    7  C   UNL     1      -8.832   6.442  67.075  1.00  0.00    -0.115 C  
HETATM    8  C   UNL     1      -9.141   5.572  68.303  1.00  0.00    -0.108 C  
ENDROOT
BRANCH   7   9
HETATM    9  O   UNL     1      -9.782   7.511  66.923  1.00  0.00    -0.180 OA 
BRANCH   9  10
HETATM   10  C   UNL     1      -9.318   8.703  67.451  1.00  0.00    -0.144 C  
HETATM   11  O   UNL     1      -8.218   9.156  67.155  1.00  0.00    -0.112 OA 
HETATM   12  C   UNL     1     -10.344   9.352  68.447  1.00  0.00    -0.205 C  
HETATM   13  C   UNL     1     -10.266  10.888  68.346  1.00  0.00    -0.193 A  
HETATM   14  O   UNL     1     -11.648   8.928  67.975  1.00  0.00     0.270 OA 
HETATM   15  C   UNL     1     -10.144   8.799  69.866  1.00  0.00    -0.197 A  
HETATM   16  H   UNL     1     -12.268   9.321  68.577  1.00  0.00     0.000 HD 
HETATM   17  C   UNL     1     -11.342  11.653  67.859  1.00  0.00    -0.369 A  
HETATM   18  C   UNL     1      -8.869   8.438  70.341  1.00  0.00    -0.149 A  
HETATM   19  C   UNL     1     -11.215  13.029  67.638  1.00  0.00    -0.315 A  
HETATM   20  C   UNL     1      -8.707   7.844  71.594  1.00  0.00    -0.153 A  
HETATM   21  C   UNL     1      -9.813   7.617  72.406  1.00  0.00    -0.235 A  
HETATM   22  C   UNL     1     -10.009  13.672  67.902  1.00  0.00    -0.244 A  
HETATM   23  C   UNL     1      -8.940  12.946  68.414  1.00  0.00    -0.124 A  
HETATM   24  C   UNL     1     -11.078   8.013  71.979  1.00  0.00    -0.353 A  
HETATM   25  C   UNL     1     -11.241   8.616  70.730  1.00  0.00    -0.298 A  
HETATM   26  C   UNL     1      -9.071  11.573  68.645  1.00  0.00    -0.124 A  
ENDBRANCH   9  10
ENDBRANCH   7   9
TORSDOF 2
ENDMDL
MODEL      146
REMARK 921   NORMALIZED FREE ENERGY PREDICTED BY IDOCK:   -3.54 KCAL/MOL
REMARK 922        TOTAL FREE ENERGY PREDICTED BY IDOCK:   -4.47 KCAL/MOL
REMARK 923 INTER-LIGAND FREE ENERGY PREDICTED BY IDOCK:   -3.86 KCAL/MOL
REMARK 924 INTRA-LIGAND FREE ENERGY PREDICTED BY IDOCK:   -0.61 KCAL/MOL
REMARK 927      BINDING AFFINITY PREDICTED BY RF-SCORE:    0.00 PKD
ROOT
HETATM    1  C   UNL     1      -9.666   3.237  71.230  1.00  0.00    -0.151 C  
HETATM    2  N   UNL     1      -8.966   3.453  69.883  1.00  0.00    -0.093 N  
HETATM    3  C   UNL     1      -8.983   2.115  69.128  1.00  0.00    -0.107 C  
HETATM    4  C   UNL     1      -7.529   3.892  70.183  1.00  0.00    -0.045 C  
HETATM    5  C   UNL     1      -8.522   2.264  67.685  1.00  0.00    -0.098 C  
HETATM    6  C   UNL     1      -9.338   3.310  66.951  1.00  0.00    -0.184 C  
HETATM    7  C   UNL     1      -9.235   4.664  67.647  1.00  0.00    -0.129 C  
HETATM    8  C   UNL     1      -9.732   4.549  69.097  1.00  0.00    -0.179 C  
ENDROOT
BRANCH   7   9
HETATM    9  O   UNL     1     -10.019   5.598  66.885  1.00  0.00    -0.143 OA 
BRANCH   9  10
HETATM   10  C   UNL     1      -9.238   6.574  66.291  1.00  0.00    -0.133 C  
HETATM   11  O   UNL     1      -8.490   6.321  65.354  1.00  0.00    -0.148 OA 
HETATM   12  C   UNL     1      -9.426   7.980  66.965  1.00  0.00    -0.174 C  
HETATM   13  C   UNL     1      -9.298   9.088  65.902  1.00  0.00    -0.306 A  
HETATM   14  O   UNL     1     -10.788   7.979  67.464  1.00  0.00    -0.487 OA 
HETATM   15  C   UNL     1      -8.476   8.136  68.162  1.00  0.00    -0.126 A  
HETATM   16  H   UNL     1     -10.902   8.830  67.872  1.00  0.00     0.000 HD 
HETATM   17  C   UNL     1     -10.389   9.906  65.550  1.00  0.00    -0.060 A  
HETATM   18  C   UNL     1      -7.200   7.543  68.170  1.00  0.00    -0.090 A  
HETATM   19  C   UNL     1     -10.304  10.813  64.488  1.00  0.00    -0.401 A  
HETATM   20  C   UNL     1      -6.382   7.606  69.300  1.00  0.00    -0.035 A  
HETATM   21  C   UNL     1      -6.814   8.280  70.437  1.00  0.00    -0.036 A  
HETATM   22  C   UNL     1      -9.126  10.925  63.756  1.00  0.00    -0.186 A  
HETATM   23  C   UNL     1      -8.024  10.154  64.103  1.00  0.00    -0.154 A  
HETATM   24  C   UNL     1      -8.051   8.919  70.434  1.00  0.00    -0.133 A  
HETATM   25  C   UNL     1      -8.867   8.865  69.303  1.00  0.00    -0.139 A  
HETATM   26  C   UNL     1      -8.105   9.255  65.171  1.00  0.00    -0.124 A  
ENDBRANCH   9  10
ENDBRANCH   7   9
TORSDOF 2
ENDMDL
MODEL      147
REMARK 921   NORMALIZED FREE ENERGY PREDICTED BY IDOCK:   -3.53 KCAL/MOL
REMARK 922        TOTAL FREE ENERGY PREDICTED BY IDOCK:   -4.46 KCAL/MOL
REMARK 923 INTER-LIGAND FREE ENERGY PREDICTED BY IDOCK:   -4.85 KCAL/MOL
REMARK 924 INTRA-LIGAND FREE ENERGY PREDICTED BY IDOCK:    0.38 KCAL/MOL
REMARK 927      BINDING AFFINITY PREDICTED BY RF-SCORE:    0.00 PKD
ROOT
HETATM    1  C   UNL     1      -5.169   7.450  66.179  1.00  0.00    -0.024 C  
HETATM    2  N   UNL     1      -6.144   8.531  65.696  1.00  0.00    -0.048 N  
HETATM    3  C   UNL     1      -6.979   7.930  64.555  1.00  0.00    -0.071 C  
HETATM    4  C   UNL     1      -5.302   9.709  65.195  1.00  0.00    -0.046 C  
HETATM    5  C   UNL     1      -8.135   8.835  64.153  1.00  0.00    -0.162 C  
HETATM    6  C   UNL     1      -9.011   9.174  65.344  1.00  0.00    -0.255 C  
HETATM    7  C   UNL     1      -8.197   9.865  66.434  1.00  0.00    -0.117 C  
HETATM    8  C   UNL     1      -7.043   8.955  66.887  1.00  0.00    -0.082 C  
ENDROOT
BRANCH   7   9
HETATM    9  O   UNL     1      -9.096  10.166  67.515  1.00  0.00    -0.134 OA 
BRANCH   9  10
HETATM   10  C   UNL     1      -8.905   9.331  68.602  1.00  0.00    -0.132 C  
HETATM   11  O   UNL     1      -7.900   9.401  69.301  1.00  0.00    -0.078 OA 
HETATM   12  C   UNL     1     -10.093   8.322  68.794  1.00  0.00    -0.200 C  
HETATM   13  C   UNL     1     -10.311   8.056  70.296  1.00  0.00    -0.212 A  
HETATM   14  O   UNL     1     -11.259   9.010  68.276  1.00  0.00    -0.459 OA 
HETATM   15  C   UNL     1      -9.868   7.057  67.952  1.00  0.00    -0.161 A  
HETATM   16  H   UNL     1     -11.978   8.399  68.393  1.00  0.00     0.000 HD 
HETATM   17  C   UNL     1     -11.488   8.459  70.956  1.00  0.00    -0.302 A  
HETATM   18  C   UNL     1      -8.576   6.551  67.716  1.00  0.00    -0.117 A  
HETATM   19  C   UNL     1     -11.620   8.340  72.344  1.00  0.00    -0.464 A  
HETATM   20  C   UNL     1      -8.372   5.460  66.869  1.00  0.00    -0.108 A  
HETATM   21  C   UNL     1      -9.456   4.840  66.257  1.00  0.00    -0.160 A  
HETATM   22  C   UNL     1     -10.580   7.813  73.103  1.00  0.00    -0.415 A  
HETATM   23  C   UNL     1      -9.421   7.377  72.474  1.00  0.00    -0.192 A  
HETATM   24  C   UNL     1     -10.748   5.290  66.516  1.00  0.00    -0.290 A  
HETATM   25  C   UNL     1     -10.955   6.375  67.370  1.00  0.00    -0.463 A  
HETATM   26  C   UNL     1      -9.292   7.486  71.086  1.00  0.00    -0.155 A  
ENDBRANCH   9  10
ENDBRANCH   7   9
TORSDOF 2
ENDMDL
MODEL      148
REMARK 921   NORMALIZED FREE ENERGY PREDICTED BY IDOCK:   -3.49 KCAL/MOL
REMARK 922        TOTAL FREE ENERGY PREDICTED BY IDOCK:   -4.41 KCAL/MOL
REMARK 923 INTER-LIGAND FREE ENERGY PREDICTED BY IDOCK:   -3.79 KCAL/MOL
REMARK 924 INTRA-LIGAND FREE ENERGY PREDICTED BY IDOCK:   -0.62 KCAL/MOL
REMARK 927      BINDING AFFINITY PREDICTED BY RF-SCORE:    0.00 PKD
ROOT
HETATM    1  C   UNL     1     -10.374   8.913  72.042  1.00  0.00    -0.307 C  
HETATM    2  N   UNL     1      -9.667   7.595  71.704  1.00  0.00    -0.160 N  
HETATM    3  C   UNL     1     -10.301   6.491  72.563  1.00  0.00    -0.194 C  
HETATM    4  C   UNL     1      -8.185   7.773  72.051  1.00  0.00    -0.111 C  
HETATM    5  C   UNL     1      -9.838   5.103  72.146  1.00  0.00    -0.222 C  
HETATM    6  C   UNL     1     -10.093   4.855  70.673  1.00  0.00    -0.306 C  
HETATM    7  C   UNL     1      -9.375   5.895  69.817  1.00  0.00    -0.148 C  
HETATM    8  C   UNL     1      -9.854   7.306  70.192  1.00  0.00    -0.179 C  
ENDROOT
BRANCH   7   9
HETATM    9  O   UNL     1      -9.653   5.583  68.441  1.00  0.00    -0.114 OA 
BRANCH   9  10
HETATM   10  C   UNL     1      -8.539   5.737  67.634  1.00  0.00    -0.101 C  
HETATM   11  O   UNL     1      -7.435   5.324  67.972  1.00  0.00    -0.075 OA 
HETATM   12  C   UNL     1      -8.871   6.492  66.298  1.00  0.00    -0.146 C  
HETATM   13  C   UNL     1      -7.992   5.941  65.158  1.00  0.00    -0.121 A  
HETATM   14  O   UNL     1     -10.253   6.162  66.012  1.00  0.00    -0.404 OA 
HETATM   15  C   UNL     1      -8.771   8.011  66.497  1.00  0.00    -0.161 A  
HETATM   16  H   UNL     1     -10.453   6.618  65.203  1.00  0.00     0.000 HD 
HETATM   17  C   UNL     1      -8.547   5.245  64.066  1.00  0.00    -0.059 A  
HETATM   18  C   UNL     1      -7.837   8.578  67.385  1.00  0.00    -0.098 A  
HETATM   19  C   UNL     1      -7.733   4.628  63.109  1.00  0.00    -0.064 A  
HETATM   20  C   UNL     1      -7.819   9.951  67.636  1.00  0.00    -0.098 A  
HETATM   21  C   UNL     1      -8.721  10.789  66.990  1.00  0.00    -0.136 A  
HETATM   22  C   UNL     1      -6.348   4.695  63.220  1.00  0.00    -0.026 A  
HETATM   23  C   UNL     1      -5.774   5.403  64.269  1.00  0.00    -0.017 A  
HETATM   24  C   UNL     1      -9.620  10.259  66.068  1.00  0.00    -0.259 A  
HETATM   25  C   UNL     1      -9.634   8.887  65.809  1.00  0.00    -0.245 A  
HETATM   26  C   UNL     1      -6.587   6.029  65.220  1.00  0.00    -0.043 A  
ENDBRANCH   9  10
ENDBRANCH   7   9
TORSDOF 2
ENDMDL
MODEL      149
REMARK 921   NORMALIZED FREE ENERGY PREDICTED BY IDOCK:   -3.42 KCAL/MOL
REMARK 922        TOTAL FREE ENERGY PREDICTED BY IDOCK:   -4.33 KCAL/MOL
REMARK 923 INTER-LIGAND FREE ENERGY PREDICTED BY IDOCK:   -3.80 KCAL/MOL
REMARK 924 INTRA-LIGAND FREE ENERGY PREDICTED BY IDOCK:   -0.53 KCAL/MOL
REMARK 927      BINDING AFFINITY PREDICTED BY RF-SCORE:    0.00 PKD
ROOT
HETATM    1  C   UNL     1      -9.840  12.279  64.964  1.00  0.00    -0.137 C  
HETATM    2  N   UNL     1      -8.913  11.794  66.086  1.00  0.00    -0.182 N  
HETATM    3  C   UNL     1      -8.184  13.022  66.653  1.00  0.00     0.258 C  
HETATM    4  C   UNL     1      -7.919  10.811  65.460  1.00  0.00    -0.064 C  
HETATM    5  C   UNL     1      -7.413  12.695  67.923  1.00  0.00    -0.124 C  
HETATM    6  C   UNL     1      -8.312  12.068  68.970  1.00  0.00     0.279 C  
HETATM    7  C   UNL     1      -8.954  10.790  68.437  1.00  0.00    -0.153 C  
HETATM    8  C   UNL     1      -9.774  11.101  67.174  1.00  0.00    -0.177 C  
ENDROOT
BRANCH   7   9
HETATM    9  O   UNL     1      -9.775  10.252  69.488  1.00  0.00    -0.224 OA 
BRANCH   9  10
HETATM   10  C   UNL     1      -9.213   9.128  70.067  1.00  0.00    -0.192 C  
HETATM   11  O   UNL     1      -8.144   9.175  70.666  1.00  0.00    -0.139 OA 
HETATM   12  C   UNL     1     -10.089   7.843  69.846  1.00  0.00    -0.197 C  
HETATM   13  C   UNL     1      -9.976   6.919  71.074  1.00  0.00    -0.199 A  
HETATM   14  O   UNL     1     -11.453   8.327  69.760  1.00  0.00    -0.452 OA 
HETATM   15  C   UNL     1      -9.733   7.171  68.512  1.00  0.00    -0.143 A  
HETATM   16  H   UNL     1     -11.983   7.550  69.627  1.00  0.00     0.000 HD 
HETATM   17  C   UNL     1     -11.080   6.659  71.908  1.00  0.00    -0.289 A  
HETATM   18  C   UNL     1      -8.422   7.197  68.001  1.00  0.00    -0.122 A  
HETATM   19  C   UNL     1     -10.938   5.934  73.096  1.00  0.00    -0.286 A  
HETATM   20  C   UNL     1      -8.126   6.671  66.742  1.00  0.00    -0.113 A  
HETATM   21  C   UNL     1      -9.131   6.090  65.976  1.00  0.00    -0.143 A  
HETATM   22  C   UNL     1      -9.690   5.451  73.477  1.00  0.00    -0.154 A  
HETATM   23  C   UNL     1      -8.589   5.666  72.656  1.00  0.00    -0.120 A  
HETATM   24  C   UNL     1     -10.426   6.006  66.481  1.00  0.00    -0.227 A  
HETATM   25  C   UNL     1     -10.722   6.523  67.744  1.00  0.00    -0.368 A  
HETATM   26  C   UNL     1      -8.733   6.381  71.463  1.00  0.00    -0.134 A  
ENDBRANCH   9  10
ENDBRANCH   7   9
TORSDOF 2
ENDMDL
MODEL      150
REMARK 921   NORMALIZED FREE ENERGY PREDICTED BY IDOCK:   -3.39 KCAL/MOL
REMARK 922        TOTAL FREE ENERGY PREDICTED BY IDOCK:   -4.30 KCAL/MOL
REMARK 923 INTER-LIGAND FREE ENERGY PREDICTED BY IDOCK:   -3.77 KCAL/MOL
REMARK 924 INTRA-LIGAND FREE ENERGY PREDICTED BY IDOCK:   -0.53 KCAL/MOL
REMARK 927      BINDING AFFINITY PREDICTED BY RF-SCORE:    0.00 PKD
ROOT
HETATM    1  C   UNL     1      -9.726  12.675  67.595  1.00  0.00    -0.197 C  
HETATM    2  N   UNL     1      -9.352  11.352  68.273  1.00  0.00    -0.181 N  
HETATM    3  C   UNL     1     -10.323  11.136  69.444  1.00  0.00    -0.057 C  
HETATM    4  C   UNL     1      -7.912  11.491  68.777  1.00  0.00    -0.107 C  
HETATM    5  C   UNL     1     -10.196   9.745  70.046  1.00  0.00    -0.308 C  
HETATM    6  C   UNL     1     -10.371   8.669  68.993  1.00  0.00    -0.226 C  
HETATM    7  C   UNL     1      -9.336   8.824  67.882  1.00  0.00    -0.142 C  
HETATM    8  C   UNL     1      -9.470  10.210  67.229  1.00  0.00    -0.154 C  
ENDROOT
BRANCH   7   9
HETATM    9  O   UNL     1      -9.559   7.764  66.937  1.00  0.00    -0.170 OA 
BRANCH   9  10
HETATM   10  C   UNL     1      -8.715   6.688  67.149  1.00  0.00    -0.111 C  
HETATM   11  O   UNL     1      -7.522   6.840  67.384  1.00  0.00    -0.092 OA 
HETATM   12  C   UNL     1      -9.464   5.312  67.036  1.00  0.00    -0.134 C  
HETATM   13  C   UNL     1      -8.850   4.304  68.027  1.00  0.00    -0.129 A  
HETATM   14  O   UNL     1     -10.826   5.590  67.449  1.00  0.00    -0.266 OA 
HETATM   15  C   UNL     1      -9.493   4.832  65.578  1.00  0.00    -0.170 A  
HETATM   16  H   UNL     1     -11.279   4.757  67.382  1.00  0.00     0.000 HD 
HETATM   17  C   UNL     1      -9.583   3.801  69.119  1.00  0.00    -0.195 A  
HETATM   18  C   UNL     1      -8.434   5.104  64.692  1.00  0.00    -0.146 A  
HETATM   19  C   UNL     1      -8.977   2.997  70.091  1.00  0.00    -0.170 A  
HETATM   20  C   UNL     1      -8.510   4.751  63.344  1.00  0.00    -0.120 A  
HETATM   21  C   UNL     1      -9.639   4.100  62.857  1.00  0.00    -0.137 A  
HETATM   22  C   UNL     1      -7.627   2.675  69.992  1.00  0.00    -0.043 A  
HETATM   23  C   UNL     1      -6.889   3.131  68.906  1.00  0.00    -0.044 A  
HETATM   24  C   UNL     1     -10.677   3.773  63.725  1.00  0.00    -0.246 A  
HETATM   25  C   UNL     1     -10.598   4.117  65.076  1.00  0.00    -0.158 A  
HETATM   26  C   UNL     1      -7.496   3.926  67.929  1.00  0.00    -0.067 A  
ENDBRANCH   9  10
ENDBRANCH   7   9
TORSDOF 2
ENDMDL
MODEL      151
REMARK 921   NORMALIZED FREE ENERGY PREDICTED BY IDOCK:   -3.35 KCAL/MOL
REMARK 922        TOTAL FREE ENERGY PREDICTED BY IDOCK:   -4.25 KCAL/MOL
REMARK 923 INTER-LIGAND FREE ENERGY PREDICTED BY IDOCK:   -5.05 KCAL/MOL
REMARK 924 INTRA-LIGAND FREE ENERGY PREDICTED BY IDOCK:    0.80 KCAL/MOL
REMARK 927      BINDING AFFINITY PREDICTED BY RF-SCORE:    0.00 PKD
ROOT
HETATM    1  C   UNL     1     -10.866  15.239  70.636  1.00  0.00    -0.242 C  
HETATM    2  N   UNL     1     -10.510  15.306  69.146  1.00  0.00    -0.236 N  
HETATM    3  C   UNL     1      -9.805  16.648  68.895  1.00  0.00    -0.261 C  
HETATM    4  C   UNL     1     -11.824  15.225  68.362  1.00  0.00    -0.260 C  
HETATM    5  C   UNL     1      -9.201  16.725  67.501  1.00  0.00    -0.215 C  
HETATM    6  C   UNL     1      -8.262  15.564  67.239  1.00  0.00    -0.224 C  
HETATM    7  C   UNL     1      -8.994  14.233  67.389  1.00  0.00    -0.201 C  
HETATM    8  C   UNL     1      -9.582  14.111  68.804  1.00  0.00    -0.122 C  
ENDROOT
BRANCH   7   9
HETATM    9  O   UNL     1      -8.045  13.189  67.112  1.00  0.00    -0.168 OA 
BRANCH   9  10
HETATM   10  C   UNL     1      -8.129  12.151  68.024  1.00  0.00    -0.155 C  
HETATM   11  O   UNL     1      -7.431  12.118  69.031  1.00  0.00    -0.070 OA 
HETATM   12  C   UNL     1      -9.183  11.067  67.598  1.00  0.00    -0.149 C  
HETATM   13  C   UNL     1      -9.856  10.476  68.851  1.00  0.00    -0.209 A  
HETATM   14  O   UNL     1     -10.183  11.792  66.839  1.00  0.00    -0.205 OA 
HETATM   15  C   UNL     1      -8.540  10.025  66.671  1.00  0.00    -0.130 A  
HETATM   16  H   UNL     1     -10.821  11.137  66.582  1.00  0.00     0.000 HD 
HETATM   17  C   UNL     1     -11.225  10.670  69.118  1.00  0.00    -0.324 A  
HETATM   18  C   UNL     1      -7.193   9.644  66.814  1.00  0.00    -0.090 A  
HETATM   19  C   UNL     1     -11.797  10.251  70.324  1.00  0.00    -0.372 A  
HETATM   20  C   UNL     1      -6.588   8.771  65.908  1.00  0.00    -0.057 A  
HETATM   21  C   UNL     1      -7.324   8.245  64.851  1.00  0.00    -0.087 A  
HETATM   22  C   UNL     1     -11.015   9.625  71.289  1.00  0.00    -0.399 A  
HETATM   23  C   UNL     1      -9.668   9.391  71.039  1.00  0.00    -0.293 A  
HETATM   24  C   UNL     1      -8.672   8.565  64.719  1.00  0.00    -0.055 A  
HETATM   25  C   UNL     1      -9.281   9.431  65.630  1.00  0.00    -0.285 A  
HETATM   26  C   UNL     1      -9.098   9.800  69.829  1.00  0.00    -0.246 A  
ENDBRANCH   9  10
ENDBRANCH   7   9
TORSDOF 2
ENDMDL
MODEL      152
REMARK 921   NORMALIZED FREE ENERGY PREDICTED BY IDOCK:   -3.34 KCAL/MOL
REMARK 922        TOTAL FREE ENERGY PREDICTED BY IDOCK:   -4.25 KCAL/MOL
REMARK 923 INTER-LIGAND FREE ENERGY PREDICTED BY IDOCK:   -5.64 KCAL/MOL
REMARK 924 INTRA-LIGAND FREE ENERGY PREDICTED BY IDOCK:    1.40 KCAL/MOL
REMARK 927      BINDING AFFINITY PREDICTED BY RF-SCORE:    0.00 PKD
ROOT
HETATM    1  C   UNL     1      -5.291  13.425  68.768  1.00  0.00    -0.071 C  
HETATM    2  N   UNL     1      -6.095  14.731  68.775  1.00  0.00    -0.082 N  
HETATM    3  C   UNL     1      -6.364  15.121  67.314  1.00  0.00     0.187 C  
HETATM    4  C   UNL     1      -5.234  15.789  69.473  1.00  0.00    -0.105 C  
HETATM    5  C   UNL     1      -7.350  16.274  67.201  1.00  0.00    -0.244 C  
HETATM    6  C   UNL     1      -8.645  15.967  67.926  1.00  0.00    -0.165 C  
HETATM    7  C   UNL     1      -8.384  15.682  69.403  1.00  0.00    -0.238 C  
HETATM    8  C   UNL     1      -7.420  14.493  69.546  1.00  0.00    -0.027 C  
ENDROOT
BRANCH   7   9
HETATM    9  O   UNL     1      -9.656  15.416  70.019  1.00  0.00    -0.217 OA 
BRANCH   9  10
HETATM   10  C   UNL     1     -10.648  15.169  69.086  1.00  0.00    -0.256 C  
HETATM   11  O   UNL     1     -11.287  16.077  68.567  1.00  0.00    -0.360 OA 
HETATM   12  C   UNL     1     -10.839  13.634  68.812  1.00  0.00    -0.255 C  
HETATM   13  C   UNL     1     -11.224  13.414  67.337  1.00  0.00    -0.311 A  
HETATM   14  O   UNL     1      -9.533  13.046  69.038  1.00  0.00    -0.379 OA 
HETATM   15  C   UNL     1     -11.821  13.024  69.822  1.00  0.00    -0.381 A  
HETATM   16  H   UNL     1      -9.648  12.118  68.872  1.00  0.00     0.000 HD 
HETATM   17  C   UNL     1     -10.371  12.739  66.442  1.00  0.00    -0.271 A  
HETATM   18  C   UNL     1     -12.903  13.764  70.335  1.00  0.00    -0.160 A  
HETATM   19  C   UNL     1     -10.664  12.665  65.075  1.00  0.00    -0.321 A  
HETATM   20  C   UNL     1     -13.734  13.237  71.326  1.00  0.00     0.239 A  
HETATM   21  C   UNL     1     -13.511  11.953  71.811  1.00  0.00    -0.185 A  
HETATM   22  C   UNL     1     -11.816  13.262  64.573  1.00  0.00    -0.433 A  
HETATM   23  C   UNL     1     -12.692  13.906  65.439  1.00  0.00    -0.525 A  
HETATM   24  C   UNL     1     -12.479  11.182  71.283  1.00  0.00    -0.466 A  
HETATM   25  C   UNL     1     -11.654  11.704  70.285  1.00  0.00    -0.254 A  
HETATM   26  C   UNL     1     -12.405  13.970  66.806  1.00  0.00    -0.368 A  
ENDBRANCH   9  10
ENDBRANCH   7   9
TORSDOF 2
ENDMDL
MODEL      153
REMARK 921   NORMALIZED FREE ENERGY PREDICTED BY IDOCK:   -3.33 KCAL/MOL
REMARK 922        TOTAL FREE ENERGY PREDICTED BY IDOCK:   -4.24 KCAL/MOL
REMARK 923 INTER-LIGAND FREE ENERGY PREDICTED BY IDOCK:   -4.91 KCAL/MOL
REMARK 924 INTRA-LIGAND FREE ENERGY PREDICTED BY IDOCK:    0.67 KCAL/MOL
REMARK 927      BINDING AFFINITY PREDICTED BY RF-SCORE:    0.00 PKD
ROOT
HETATM    1  C   UNL     1     -10.740   6.026  68.717  1.00  0.00    -0.308 C  
HETATM    2  N   UNL     1     -10.612   7.177  69.723  1.00  0.00    -0.228 N  
HETATM    3  C   UNL     1      -9.353   6.921  70.567  1.00  0.00    -0.159 C  
HETATM    4  C   UNL     1     -11.869   7.156  70.598  1.00  0.00    -0.291 C  
HETATM    5  C   UNL     1      -8.998   8.115  71.441  1.00  0.00    -0.188 C  
HETATM    6  C   UNL     1      -8.850   9.379  70.618  1.00  0.00    -0.275 C  
HETATM    7  C   UNL     1     -10.139   9.686  69.861  1.00  0.00    -0.246 C  
HETATM    8  C   UNL     1     -10.500   8.510  68.939  1.00  0.00    -0.188 C  
ENDROOT
BRANCH   7   9
HETATM    9  O   UNL     1      -9.923  10.899  69.121  1.00  0.00    -0.210 OA 
BRANCH   9  10
HETATM   10  C   UNL     1      -9.117  10.700  68.014  1.00  0.00    -0.147 C  
HETATM   11  O   UNL     1      -8.297   9.791  67.967  1.00  0.00    -0.110 OA 
HETATM   12  C   UNL     1      -9.379  11.763  66.888  1.00  0.00    -0.192 C  
HETATM   13  C   UNL     1      -9.192  11.111  65.504  1.00  0.00    -0.236 A  
HETATM   14  O   UNL     1     -10.774  12.132  67.035  1.00  0.00    -0.226 OA 
HETATM   15  C   UNL     1      -8.524  13.017  67.119  1.00  0.00    -0.176 A  
HETATM   16  H   UNL     1     -10.933  12.774  66.353  1.00  0.00     0.000 HD 
HETATM   17  C   UNL     1     -10.267  10.949  64.610  1.00  0.00    -0.411 A  
HETATM   18  C   UNL     1      -7.242  12.938  67.694  1.00  0.00    -0.147 A  
HETATM   19  C   UNL     1     -10.119  10.233  63.417  1.00  0.00     0.181 A  
HETATM   20  C   UNL     1      -6.511  14.089  67.992  1.00  0.00    -0.152 A  
HETATM   21  C   UNL     1      -7.038  15.343  67.704  1.00  0.00    -0.204 A  
HETATM   22  C   UNL     1      -8.892   9.664  63.090  1.00  0.00    -0.254 A  
HETATM   23  C   UNL     1      -7.805   9.836  63.938  1.00  0.00    -0.144 A  
HETATM   24  C   UNL     1      -8.283  15.446  67.088  1.00  0.00    -0.250 A  
HETATM   25  C   UNL     1      -9.011  14.295  66.780  1.00  0.00    -0.249 A  
HETATM   26  C   UNL     1      -7.950  10.562  65.126  1.00  0.00    -0.094 A  
ENDBRANCH   9  10
ENDBRANCH   7   9
TORSDOF 2
ENDMDL
MODEL      154
REMARK 921   NORMALIZED FREE ENERGY PREDICTED BY IDOCK:   -3.32 KCAL/MOL
REMARK 922        TOTAL FREE ENERGY PREDICTED BY IDOCK:   -4.23 KCAL/MOL
REMARK 923 INTER-LIGAND FREE ENERGY PREDICTED BY IDOCK:   -4.98 KCAL/MOL
REMARK 924 INTRA-LIGAND FREE ENERGY PREDICTED BY IDOCK:    0.76 KCAL/MOL
REMARK 927      BINDING AFFINITY PREDICTED BY RF-SCORE:    0.00 PKD
ROOT
HETATM    1  C   UNL     1     -11.692  15.336  64.260  1.00  0.00    -0.215 C  
HETATM    2  N   UNL     1     -11.587  13.807  64.302  1.00  0.00    -0.385 N  
HETATM    3  C   UNL     1     -10.105  13.436  64.143  1.00  0.00     0.248 C  
HETATM    4  C   UNL     1     -12.415  13.263  63.133  1.00  0.00     0.031 C  
HETATM    5  C   UNL     1      -9.853  11.958  64.401  1.00  0.00    -0.203 C  
HETATM    6  C   UNL     1     -10.372  11.538  65.762  1.00  0.00    -0.295 C  
HETATM    7  C   UNL     1     -11.869  11.813  65.878  1.00  0.00     0.121 C  
HETATM    8  C   UNL     1     -12.147  13.309  65.660  1.00  0.00    -0.441 C  
ENDROOT
BRANCH   7   9
HETATM    9  O   UNL     1     -12.285  11.376  67.183  1.00  0.00    -0.140 OA 
BRANCH   9  10
HETATM   10  C   UNL     1     -11.906  12.262  68.177  1.00  0.00    -0.311 C  
HETATM   11  O   UNL     1     -11.693  13.446  67.940  1.00  0.00    -0.320 OA 
HETATM   12  C   UNL     1     -11.779  11.566  69.579  1.00  0.00    -0.346 C  
HETATM   13  C   UNL     1     -12.200  12.550  70.688  1.00  0.00    -0.365 A  
HETATM   14  O   UNL     1     -12.734  10.476  69.546  1.00  0.00    -0.659 OA 
HETATM   15  C   UNL     1     -10.375  10.970  69.760  1.00  0.00     0.112 A  
HETATM   16  H   UNL     1     -12.657  10.055  70.395  1.00  0.00     0.000 HD 
HETATM   17  C   UNL     1     -13.344  12.328  71.478  1.00  0.00    -0.138 A  
HETATM   18  C   UNL     1      -9.238  11.580  69.198  1.00  0.00     0.230 A  
HETATM   19  C   UNL     1     -13.798  13.292  72.385  1.00  0.00    -0.630 A  
HETATM   20  C   UNL     1      -7.980  10.980  69.282  1.00  0.00    -0.034 A  
HETATM   21  C   UNL     1      -7.829   9.768  69.947  1.00  0.00    -0.168 A  
HETATM   22  C   UNL     1     -13.118  14.498  72.525  1.00  0.00    -0.518 A  
HETATM   23  C   UNL     1     -11.967  14.729  71.780  1.00  0.00    -0.409 A  
HETATM   24  C   UNL     1      -8.930   9.172  70.557  1.00  0.00    -0.274 A  
HETATM   25  C   UNL     1     -10.187   9.774  70.482  1.00  0.00    -0.321 A  
HETATM   26  C   UNL     1     -11.507  13.762  70.882  1.00  0.00     0.445 A  
ENDBRANCH   9  10
ENDBRANCH   7   9
TORSDOF 2
ENDMDL
MODEL      155
REMARK 921   NORMALIZED FREE ENERGY PREDICTED BY IDOCK:   -3.32 KCAL/MOL
REMARK 922        TOTAL FREE ENERGY PREDICTED BY IDOCK:   -4.23 KCAL/MOL
REMARK 923 INTER-LIGAND FREE ENERGY PREDICTED BY IDOCK:   -4.66 KCAL/MOL
REMARK 924 INTRA-LIGAND FREE ENERGY PREDICTED BY IDOCK:    0.44 KCAL/MOL
REMARK 927      BINDING AFFINITY PREDICTED BY RF-SCORE:    0.00 PKD
ROOT
HETATM    1  C   UNL     1      -6.179   8.277  73.626  1.00  0.00    -0.112 C  
HETATM    2  N   UNL     1      -7.211   8.076  72.509  1.00  0.00    -0.090 N  
HETATM    3  C   UNL     1      -8.608   8.190  73.138  1.00  0.00    -0.233 C  
HETATM    4  C   UNL     1      -6.985   6.676  71.930  1.00  0.00    -0.071 C  
HETATM    5  C   UNL     1      -9.708   8.237  72.087  1.00  0.00    -0.344 C  
HETATM    6  C   UNL     1      -9.471   9.354  71.090  1.00  0.00    -0.186 C  
HETATM    7  C   UNL     1      -8.125   9.179  70.391  1.00  0.00    -0.152 C  
HETATM    8  C   UNL     1      -6.991   9.168  71.429  1.00  0.00    -0.014 C  
ENDROOT
BRANCH   7   9
HETATM    9  O   UNL     1      -7.984  10.263  69.457  1.00  0.00    -0.148 OA 
BRANCH   9  10
HETATM   10  C   UNL     1      -9.185  10.594  68.854  1.00  0.00    -0.183 C  
HETATM   11  O   UNL     1     -10.129  11.041  69.497  1.00  0.00    -0.110 OA 
HETATM   12  C   UNL     1      -9.173  10.315  67.309  1.00  0.00    -0.141 C  
HETATM   13  C   UNL     1     -10.027  11.373  66.583  1.00  0.00    -0.239 A  
HETATM   14  O   UNL     1      -7.791  10.487  66.906  1.00  0.00    -0.111 OA 
HETATM   15  C   UNL     1      -9.581   8.863  67.020  1.00  0.00    -0.232 A  
HETATM   16  H   UNL     1      -7.784  10.319  65.971  1.00  0.00     0.000 HD 
HETATM   17  C   UNL     1      -9.455  12.305  65.696  1.00  0.00    -0.078 A  
HETATM   18  C   UNL     1     -10.515   8.187  67.826  1.00  0.00    -0.279 A  
HETATM   19  C   UNL     1     -10.212  13.348  65.151  1.00  0.00    -0.316 A  
HETATM   20  C   UNL     1     -10.807   6.837  67.617  1.00  0.00    -0.361 A  
HETATM   21  C   UNL     1     -10.186   6.142  66.586  1.00  0.00    -0.237 A  
HETATM   22  C   UNL     1     -11.558  13.481  65.477  1.00  0.00    -0.337 A  
HETATM   23  C   UNL     1     -12.156  12.556  66.324  1.00  0.00    -0.315 A  
HETATM   24  C   UNL     1      -9.297   6.803  65.742  1.00  0.00     0.149 A  
HETATM   25  C   UNL     1      -9.011   8.155  65.943  1.00  0.00    -0.195 A  
HETATM   26  C   UNL     1     -11.402  11.507  66.861  1.00  0.00    -0.324 A  
ENDBRANCH   9  10
ENDBRANCH   7   9
TORSDOF 2
ENDMDL
MODEL      156
REMARK 921   NORMALIZED FREE ENERGY PREDICTED BY IDOCK:   -3.26 KCAL/MOL
REMARK 922        TOTAL FREE ENERGY PREDICTED BY IDOCK:   -4.16 KCAL/MOL
REMARK 923 INTER-LIGAND FREE ENERGY PREDICTED BY IDOCK:   -3.96 KCAL/MOL
REMARK 924 INTRA-LIGAND FREE ENERGY PREDICTED BY IDOCK:   -0.20 KCAL/MOL
REMARK 927      BINDING AFFINITY PREDICTED BY RF-SCORE:    0.00 PKD
ROOT
HETATM    1  C   UNL     1     -12.011  16.344  74.032  1.00  0.00    -0.200 C  
HETATM    2  N   UNL     1     -12.547  15.499  72.870  1.00  0.00    -0.383 N  
HETATM    3  C   UNL     1     -13.781  16.217  72.302  1.00  0.00     0.238 C  
HETATM    4  C   UNL     1     -12.927  14.130  73.443  1.00  0.00     0.231 C  
HETATM    5  C   UNL     1     -14.259  15.590  71.000  1.00  0.00    -0.027 C  
HETATM    6  C   UNL     1     -13.146  15.533  69.973  1.00  0.00     0.214 C  
HETATM    7  C   UNL     1     -11.961  14.730  70.503  1.00  0.00    -0.312 C  
HETATM    8  C   UNL     1     -11.433  15.366  71.799  1.00  0.00    -0.422 C  
ENDROOT
BRANCH   7   9
HETATM    9  O   UNL     1     -10.960  14.710  69.471  1.00  0.00    -0.250 OA 
BRANCH   9  10
HETATM   10  C   UNL     1     -11.165  13.686  68.563  1.00  0.00    -0.280 C  
HETATM   11  O   UNL     1     -12.149  12.958  68.623  1.00  0.00    -0.286 OA 
HETATM   12  C   UNL     1     -10.008  13.586  67.506  1.00  0.00    -0.230 C  
HETATM   13  C   UNL     1     -10.581  13.134  66.149  1.00  0.00    -0.288 A  
HETATM   14  O   UNL     1      -9.509  14.940  67.364  1.00  0.00    -0.201 OA 
HETATM   15  C   UNL     1      -8.867  12.707  68.038  1.00  0.00    -0.195 A  
HETATM   16  H   UNL     1      -8.809  14.879  66.725  1.00  0.00     0.000 HD 
HETATM   17  C   UNL     1     -10.570  13.978  65.022  1.00  0.00    -0.426 A  
HETATM   18  C   UNL     1      -9.116  11.607  68.880  1.00  0.00     0.060 A  
HETATM   19  C   UNL     1     -11.216  13.615  63.835  1.00  0.00    -0.067 A  
HETATM   20  C   UNL     1      -8.068  10.873  69.439  1.00  0.00     0.001 A  
HETATM   21  C   UNL     1      -6.750  11.210  69.152  1.00  0.00    -0.092 A  
HETATM   22  C   UNL     1     -11.884  12.397  63.747  1.00  0.00    -0.587 A  
HETATM   23  C   UNL     1     -11.882  11.530  64.832  1.00  0.00     0.117 A  
HETATM   24  C   UNL     1      -6.479  12.261  68.280  1.00  0.00    -0.056 A  
HETATM   25  C   UNL     1      -7.525  12.991  67.712  1.00  0.00    -0.146 A  
HETATM   26  C   UNL     1     -11.228  11.889  66.015  1.00  0.00    -0.377 A  
ENDBRANCH   9  10
ENDBRANCH   7   9
TORSDOF 2
ENDMDL
MODEL      157
REMARK 921   NORMALIZED FREE ENERGY PREDICTED BY IDOCK:   -3.25 KCAL/MOL
REMARK 922        TOTAL FREE ENERGY PREDICTED BY IDOCK:   -4.15 KCAL/MOL
REMARK 923 INTER-LIGAND FREE ENERGY PREDICTED BY IDOCK:   -4.12 KCAL/MOL
REMARK 924 INTRA-LIGAND FREE ENERGY PREDICTED BY IDOCK:   -0.03 KCAL/MOL
REMARK 927      BINDING AFFINITY PREDICTED BY RF-SCORE:    0.00 PKD
ROOT
HETATM    1  C   UNL     1      -6.680  20.237  64.503  1.00  0.00    -0.083 C  
HETATM    2  N   UNL     1      -6.755  19.642  65.914  1.00  0.00    -0.233 N  
HETATM    3  C   UNL     1      -8.029  20.181  66.581  1.00  0.00    -0.295 C  
HETATM    4  C   UNL     1      -5.505  20.107  66.669  1.00  0.00    -0.170 C  
HETATM    5  C   UNL     1      -8.328  19.479  67.898  1.00  0.00    -0.350 C  
HETATM    6  C   UNL     1      -8.407  17.976  67.717  1.00  0.00    -0.249 C  
HETATM    7  C   UNL     1      -7.099  17.430  67.150  1.00  0.00    -0.173 C  
HETATM    8  C   UNL     1      -6.793  18.096  65.798  1.00  0.00    -0.270 C  
ENDROOT
BRANCH   7   9
HETATM    9  O   UNL     1      -7.248  16.006  67.023  1.00  0.00    -0.207 OA 
BRANCH   9  10
HETATM   10  C   UNL     1      -7.942  15.456  68.088  1.00  0.00    -0.131 C  
HETATM   11  O   UNL     1      -7.549  15.572  69.243  1.00  0.00    -0.188 OA 
HETATM   12  C   UNL     1      -9.231  14.688  67.625  1.00  0.00    -0.193 C  
HETATM   13  C   UNL     1     -10.336  14.840  68.688  1.00  0.00    -0.245 A  
HETATM   14  O   UNL     1      -9.660  15.364  66.417  1.00  0.00    -0.252 OA 
HETATM   15  C   UNL     1      -8.892  13.233  67.266  1.00  0.00    -0.216 A  
HETATM   16  H   UNL     1     -10.440  14.900  66.137  1.00  0.00     0.000 HD 
HETATM   17  C   UNL     1     -11.527  15.543  68.421  1.00  0.00    -0.370 A  
HETATM   18  C   UNL     1      -7.884  12.524  67.944  1.00  0.00    -0.144 A  
HETATM   19  C   UNL     1     -12.462  15.797  69.431  1.00  0.00     0.101 A  
HETATM   20  C   UNL     1      -7.514  11.237  67.548  1.00  0.00    -0.106 A  
HETATM   21  C   UNL     1      -8.158  10.626  66.478  1.00  0.00    -0.140 A  
HETATM   22  C   UNL     1     -12.230  15.352  70.728  1.00  0.00    -0.430 A  
HETATM   23  C   UNL     1     -11.078  14.627  71.012  1.00  0.00     0.107 A  
HETATM   24  C   UNL     1      -9.195  11.287  65.824  1.00  0.00    -0.236 A  
HETATM   25  C   UNL     1      -9.573  12.570  66.226  1.00  0.00    -0.246 A  
HETATM   26  C   UNL     1     -10.149  14.364  70.001  1.00  0.00     0.603 A  
ENDBRANCH   9  10
ENDBRANCH   7   9
TORSDOF 2
ENDMDL
MODEL      158
REMARK 921   NORMALIZED FREE ENERGY PREDICTED BY IDOCK:   -3.25 KCAL/MOL
REMARK 922        TOTAL FREE ENERGY PREDICTED BY IDOCK:   -4.15 KCAL/MOL
REMARK 923 INTER-LIGAND FREE ENERGY PREDICTED BY IDOCK:   -4.30 KCAL/MOL
REMARK 924 INTRA-LIGAND FREE ENERGY PREDICTED BY IDOCK:    0.15 KCAL/MOL
REMARK 927      BINDING AFFINITY PREDICTED BY RF-SCORE:    0.00 PKD
ROOT
HETATM    1  C   UNL     1      -5.620  20.702  64.573  1.00  0.00    -0.225 C  
HETATM    2  N   UNL     1      -6.519  20.268  65.737  1.00  0.00    -0.223 N  
HETATM    3  C   UNL     1      -7.979  20.426  65.284  1.00  0.00     0.548 C  
HETATM    4  C   UNL     1      -6.210  21.193  66.918  1.00  0.00    -0.321 C  
HETATM    5  C   UNL     1      -8.956  19.807  66.273  1.00  0.00    -0.431 C  
HETATM    6  C   UNL     1      -8.627  18.352  66.537  1.00  0.00    -0.287 C  
HETATM    7  C   UNL     1      -7.210  18.208  67.086  1.00  0.00    -0.199 C  
HETATM    8  C   UNL     1      -6.197  18.791  66.086  1.00  0.00    -0.187 C  
ENDROOT
BRANCH   7   9
HETATM    9  O   UNL     1      -6.982  16.809  67.323  1.00  0.00    -0.147 OA 
BRANCH   9  10
HETATM   10  C   UNL     1      -7.975  16.242  68.103  1.00  0.00    -0.157 C  
HETATM   11  O   UNL     1      -8.694  16.921  68.828  1.00  0.00    -0.255 OA 
HETATM   12  C   UNL     1      -8.037  14.680  67.946  1.00  0.00    -0.145 C  
HETATM   13  C   UNL     1      -9.498  14.204  68.064  1.00  0.00    -0.213 A  
HETATM   14  O   UNL     1      -7.578  14.419  66.596  1.00  0.00    -0.197 OA 
HETATM   15  C   UNL     1      -7.067  14.001  68.923  1.00  0.00    -0.111 A  
HETATM   16  H   UNL     1      -7.616  13.474  66.500  1.00  0.00     0.000 HD 
HETATM   17  C   UNL     1     -10.178  13.624  66.976  1.00  0.00    -0.250 A  
HETATM   18  C   UNL     1      -6.798  14.547  70.192  1.00  0.00    -0.026 A  
HETATM   19  C   UNL     1     -11.543  13.324  67.049  1.00  0.00    -0.404 A  
HETATM   20  C   UNL     1      -5.841  13.978  71.035  1.00  0.00    -0.209 A  
HETATM   21  C   UNL     1      -5.148  12.841  70.635  1.00  0.00    -0.119 A  
HETATM   22  C   UNL     1     -12.257  13.592  68.213  1.00  0.00    -0.165 A  
HETATM   23  C   UNL     1     -11.604  14.133  69.313  1.00  0.00    -0.350 A  
HETATM   24  C   UNL     1      -5.434  12.252  69.406  1.00  0.00    -0.074 A  
HETATM   25  C   UNL     1      -6.397  12.814  68.566  1.00  0.00    -0.075 A  
HETATM   26  C   UNL     1     -10.237  14.424  69.244  1.00  0.00    -0.077 A  
ENDBRANCH   9  10
ENDBRANCH   7   9
TORSDOF 2
ENDMDL
MODEL      159
REMARK 921   NORMALIZED FREE ENERGY PREDICTED BY IDOCK:   -3.24 KCAL/MOL
REMARK 922        TOTAL FREE ENERGY PREDICTED BY IDOCK:   -4.13 KCAL/MOL
REMARK 923 INTER-LIGAND FREE ENERGY PREDICTED BY IDOCK:   -4.13 KCAL/MOL
REMARK 924 INTRA-LIGAND FREE ENERGY PREDICTED BY IDOCK:   -0.00 KCAL/MOL
REMARK 927      BINDING AFFINITY PREDICTED BY RF-SCORE:    0.00 PKD
ROOT
HETATM    1  C   UNL     1     -11.077  14.259  67.164  1.00  0.00    -0.311 C  
HETATM    2  N   UNL     1      -9.992  13.176  67.174  1.00  0.00    -0.233 N  
HETATM    3  C   UNL     1      -8.635  13.876  67.351  1.00  0.00    -0.200 C  
HETATM    4  C   UNL     1     -10.061  12.452  65.826  1.00  0.00    -0.253 C  
HETATM    5  C   UNL     1      -7.509  12.885  67.607  1.00  0.00    -0.148 C  
HETATM    6  C   UNL     1      -7.816  11.994  68.794  1.00  0.00    -0.033 C  
HETATM    7  C   UNL     1      -9.113  11.221  68.568  1.00  0.00    -0.173 C  
HETATM    8  C   UNL     1     -10.277  12.200  68.346  1.00  0.00    -0.210 C  
ENDROOT
BRANCH   7   9
HETATM    9  O   UNL     1      -9.324  10.392  69.724  1.00  0.00    -0.142 OA 
BRANCH   9  10
HETATM   10  C   UNL     1      -8.615   9.206  69.654  1.00  0.00    -0.143 C  
HETATM   11  O   UNL     1      -7.674   8.971  70.403  1.00  0.00    -0.080 OA 
HETATM   12  C   UNL     1      -9.153   8.257  68.525  1.00  0.00    -0.136 C  
HETATM   13  C   UNL     1      -9.010   6.788  68.968  1.00  0.00    -0.131 A  
HETATM   14  O   UNL     1     -10.565   8.566  68.413  1.00  0.00    -0.332 OA 
HETATM   15  C   UNL     1      -8.483   8.582  67.182  1.00  0.00    -0.118 A  
HETATM   16  H   UNL     1     -10.891   7.992  67.730  1.00  0.00     0.000 HD 
HETATM   17  C   UNL     1     -10.134   5.972  69.199  1.00  0.00    -0.229 A  
HETATM   18  C   UNL     1      -7.152   9.033  67.114  1.00  0.00    -0.079 A  
HETATM   19  C   UNL     1     -10.001   4.686  69.735  1.00  0.00    -0.295 A  
HETATM   20  C   UNL     1      -6.580   9.421  65.901  1.00  0.00    -0.076 A  
HETATM   21  C   UNL     1      -7.322   9.348  64.727  1.00  0.00    -0.107 A  
HETATM   22  C   UNL     1      -8.741   4.186  70.049  1.00  0.00    -0.114 A  
HETATM   23  C   UNL     1      -7.612   4.957  69.800  1.00  0.00    -0.056 A  
HETATM   24  C   UNL     1      -8.624   8.855  64.760  1.00  0.00    -0.184 A  
HETATM   25  C   UNL     1      -9.193   8.457  65.972  1.00  0.00    -0.247 A  
HETATM   26  C   UNL     1      -7.745   6.239  69.255  1.00  0.00    -0.100 A  
ENDBRANCH   9  10
ENDBRANCH   7   9
TORSDOF 2
ENDMDL
MODEL      160
REMARK 921   NORMALIZED FREE ENERGY PREDICTED BY IDOCK:   -3.22 KCAL/MOL
REMARK 922        TOTAL FREE ENERGY PREDICTED BY IDOCK:   -4.12 KCAL/MOL
REMARK 923 INTER-LIGAND FREE ENERGY PREDICTED BY IDOCK:   -4.52 KCAL/MOL
REMARK 924 INTRA-LIGAND FREE ENERGY PREDICTED BY IDOCK:    0.40 KCAL/MOL
REMARK 927      BINDING AFFINITY PREDICTED BY RF-SCORE:    0.00 PKD
ROOT
HETATM    1  C   UNL     1     -12.959   6.850  71.230  1.00  0.00    -0.244 C  
HETATM    2  N   UNL     1     -11.906   7.791  71.827  1.00  0.00    -0.279 N  
HETATM    3  C   UNL     1     -11.165   7.022  72.932  1.00  0.00    -0.236 C  
HETATM    4  C   UNL     1     -12.652   8.997  72.408  1.00  0.00    -0.333 C  
HETATM    5  C   UNL     1      -9.944   7.778  73.436  1.00  0.00    -0.348 C  
HETATM    6  C   UNL     1      -9.005   8.132  72.300  1.00  0.00    -0.252 C  
HETATM    7  C   UNL     1      -9.718   8.985  71.254  1.00  0.00    -0.301 C  
HETATM    8  C   UNL     1     -10.935   8.227  70.699  1.00  0.00    -0.240 C  
ENDROOT
BRANCH   7   9
HETATM    9  O   UNL     1      -8.762   9.289  70.225  1.00  0.00    -0.178 OA 
BRANCH   9  10
HETATM   10  C   UNL     1      -8.425   8.174  69.478  1.00  0.00    -0.127 C  
HETATM   11  O   UNL     1      -7.933   7.176  69.992  1.00  0.00    -0.113 OA 
HETATM   12  C   UNL     1      -8.734   8.365  67.950  1.00  0.00    -0.138 C  
HETATM   13  C   UNL     1      -9.167   7.021  67.335  1.00  0.00    -0.134 A  
HETATM   14  O   UNL     1      -9.861   9.275  67.904  1.00  0.00    -0.155 OA 
HETATM   15  C   UNL     1      -7.548   9.035  67.240  1.00  0.00    -0.088 A  
HETATM   16  H   UNL     1     -10.048   9.390  66.980  1.00  0.00     0.000 HD 
HETATM   17  C   UNL     1     -10.470   6.819  66.841  1.00  0.00    -0.350 A  
HETATM   18  C   UNL     1      -6.220   8.797  67.641  1.00  0.00    -0.052 A  
HETATM   19  C   UNL     1     -10.898   5.557  66.413  1.00  0.00    -0.195 A  
HETATM   20  C   UNL     1      -5.154   9.484  67.057  1.00  0.00    -0.035 A  
HETATM   21  C   UNL     1      -5.392  10.408  66.046  1.00  0.00    -0.070 A  
HETATM   22  C   UNL     1     -10.032   4.469  66.467  1.00  0.00    -0.263 A  
HETATM   23  C   UNL     1      -8.730   4.647  66.919  1.00  0.00    -0.107 A  
HETATM   24  C   UNL     1      -6.692  10.623  65.595  1.00  0.00    -0.072 A  
HETATM   25  C   UNL     1      -7.758   9.930  66.172  1.00  0.00    -0.107 A  
HETATM   26  C   UNL     1      -8.299   5.911  67.336  1.00  0.00    -0.105 A  
ENDBRANCH   9  10
ENDBRANCH   7   9
TORSDOF 2
ENDMDL
MODEL      161
REMARK 921   NORMALIZED FREE ENERGY PREDICTED BY IDOCK:   -3.21 KCAL/MOL
REMARK 922        TOTAL FREE ENERGY PREDICTED BY IDOCK:   -4.11 KCAL/MOL
REMARK 923 INTER-LIGAND FREE ENERGY PREDICTED BY IDOCK:   -3.90 KCAL/MOL
REMARK 924 INTRA-LIGAND FREE ENERGY PREDICTED BY IDOCK:   -0.21 KCAL/MOL
REMARK 927      BINDING AFFINITY PREDICTED BY RF-SCORE:    0.00 PKD
ROOT
HETATM    1  C   UNL     1     -10.976   2.686  73.728  1.00  0.00    -0.211 C  
HETATM    2  N   UNL     1      -9.844   2.942  72.726  1.00  0.00    -0.125 N  
HETATM    3  C   UNL     1      -9.898   1.831  71.666  1.00  0.00    -0.148 C  
HETATM    4  C   UNL     1      -8.527   2.888  73.506  1.00  0.00    -0.073 C  
HETATM    5  C   UNL     1      -8.969   2.111  70.494  1.00  0.00    -0.150 C  
HETATM    6  C   UNL     1      -9.255   3.464  69.873  1.00  0.00    -0.222 C  
HETATM    7  C   UNL     1      -9.098   4.577  70.906  1.00  0.00    -0.131 C  
HETATM    8  C   UNL     1     -10.056   4.339  72.085  1.00  0.00    -0.185 C  
ENDROOT
BRANCH   7   9
HETATM    9  O   UNL     1      -9.370   5.822  70.240  1.00  0.00    -0.152 OA 
BRANCH   9  10
HETATM   10  C   UNL     1      -8.724   5.913  69.019  1.00  0.00    -0.114 C  
HETATM   11  O   UNL     1      -7.534   5.646  68.896  1.00  0.00    -0.080 OA 
HETATM   12  C   UNL     1      -9.682   6.398  67.873  1.00  0.00    -0.121 C  
HETATM   13  C   UNL     1      -9.288   5.722  66.545  1.00  0.00    -0.162 A  
HETATM   14  O   UNL     1     -10.998   5.924  68.256  1.00  0.00    -0.274 OA 
HETATM   15  C   UNL     1      -9.722   7.932  67.816  1.00  0.00    -0.189 A  
HETATM   16  H   UNL     1     -11.577   6.217  67.562  1.00  0.00     0.000 HD 
HETATM   17  C   UNL     1     -10.143   4.809  65.898  1.00  0.00    -0.265 A  
HETATM   18  C   UNL     1      -8.593   8.710  68.134  1.00  0.00    -0.141 A  
HETATM   19  C   UNL     1      -9.722   4.095  64.770  1.00  0.00    -0.187 A  
HETATM   20  C   UNL     1      -8.664  10.103  68.177  1.00  0.00    -0.122 A  
HETATM   21  C   UNL     1      -9.860  10.749  67.884  1.00  0.00    -0.185 A  
HETATM   22  C   UNL     1      -8.440   4.280  64.262  1.00  0.00    -0.110 A  
HETATM   23  C   UNL     1      -7.588   5.199  64.862  1.00  0.00    -0.078 A  
HETATM   24  C   UNL     1     -10.977  10.004  67.516  1.00  0.00    -0.276 A  
HETATM   25  C   UNL     1     -10.905   8.611  67.463  1.00  0.00    -0.087 A  
HETATM   26  C   UNL     1      -8.011   5.921  65.983  1.00  0.00    -0.108 A  
ENDBRANCH   9  10
ENDBRANCH   7   9
TORSDOF 2
ENDMDL
MODEL      162
REMARK 921   NORMALIZED FREE ENERGY PREDICTED BY IDOCK:   -3.20 KCAL/MOL
REMARK 922        TOTAL FREE ENERGY PREDICTED BY IDOCK:   -4.09 KCAL/MOL
REMARK 923 INTER-LIGAND FREE ENERGY PREDICTED BY IDOCK:   -4.10 KCAL/MOL
REMARK 924 INTRA-LIGAND FREE ENERGY PREDICTED BY IDOCK:    0.01 KCAL/MOL
REMARK 927      BINDING AFFINITY PREDICTED BY RF-SCORE:    0.00 PKD
ROOT
HETATM    1  C   UNL     1      -8.392   4.485  64.031  1.00  0.00    -0.116 C  
HETATM    2  N   UNL     1      -7.827   4.789  65.424  1.00  0.00    -0.090 N  
HETATM    3  C   UNL     1      -6.467   5.480  65.235  1.00  0.00    -0.039 C  
HETATM    4  C   UNL     1      -7.662   3.449  66.148  1.00  0.00    -0.081 C  
HETATM    5  C   UNL     1      -5.920   6.035  66.542  1.00  0.00    -0.025 C  
HETATM    6  C   UNL     1      -6.914   6.968  67.205  1.00  0.00    -0.078 C  
HETATM    7  C   UNL     1      -8.230   6.247  67.485  1.00  0.00    -0.113 C  
HETATM    8  C   UNL     1      -8.825   5.710  66.173  1.00  0.00    -0.142 C  
ENDROOT
BRANCH   7   9
HETATM    9  O   UNL     1      -9.108   7.190  68.124  1.00  0.00    -0.134 OA 
BRANCH   9  10
HETATM   10  C   UNL     1      -8.425   8.057  68.959  1.00  0.00    -0.130 C  
HETATM   11  O   UNL     1      -7.579   7.659  69.752  1.00  0.00    -0.088 OA 
HETATM   12  C   UNL     1      -8.876   9.549  68.766  1.00  0.00    -0.132 C  
HETATM   13  C   UNL     1      -7.673  10.488  68.978  1.00  0.00    -0.125 A  
HETATM   14  O   UNL     1      -9.290   9.641  67.379  1.00  0.00    -0.133 OA 
HETATM   15  C   UNL     1     -10.091   9.864  69.651  1.00  0.00    -0.254 A  
HETATM   16  H   UNL     1      -9.562  10.543  67.262  1.00  0.00     0.000 HD 
HETATM   17  C   UNL     1      -7.143  11.261  67.928  1.00  0.00    -0.078 A  
HETATM   18  C   UNL     1     -10.260   9.260  70.911  1.00  0.00    -0.371 A  
HETATM   19  C   UNL     1      -5.968  12.002  68.093  1.00  0.00    -0.053 A  
HETATM   20  C   UNL     1     -11.414   9.475  71.666  1.00  0.00    -0.433 A  
HETATM   21  C   UNL     1     -12.414  10.313  71.187  1.00  0.00    -0.495 A  
HETATM   22  C   UNL     1      -5.297  11.990  69.312  1.00  0.00    -0.056 A  
HETATM   23  C   UNL     1      -5.816  11.261  70.375  1.00  0.00    -0.151 A  
HETATM   24  C   UNL     1     -12.247  10.964  69.967  1.00  0.00    -0.422 A  
HETATM   25  C   UNL     1     -11.089  10.757  69.215  1.00  0.00    -0.312 A  
HETATM   26  C   UNL     1      -6.997  10.529  70.214  1.00  0.00    -0.046 A  
ENDBRANCH   9  10
ENDBRANCH   7   9
TORSDOF 2
ENDMDL
MODEL      163
REMARK 921   NORMALIZED FREE ENERGY PREDICTED BY IDOCK:   -3.16 KCAL/MOL
REMARK 922        TOTAL FREE ENERGY PREDICTED BY IDOCK:   -4.05 KCAL/MOL
REMARK 923 INTER-LIGAND FREE ENERGY PREDICTED BY IDOCK:   -4.45 KCAL/MOL
REMARK 924 INTRA-LIGAND FREE ENERGY PREDICTED BY IDOCK:    0.40 KCAL/MOL
REMARK 927      BINDING AFFINITY PREDICTED BY RF-SCORE:    0.00 PKD
ROOT
HETATM    1  C   UNL     1      -9.657  11.980  68.434  1.00  0.00    -0.190 C  
HETATM    2  N   UNL     1     -10.047  10.968  67.350  1.00  0.00    -0.182 N  
HETATM    3  C   UNL     1      -9.162  11.234  66.122  1.00  0.00    -0.206 C  
HETATM    4  C   UNL     1     -11.524  11.203  67.019  1.00  0.00    -0.026 C  
HETATM    5  C   UNL     1      -9.299  10.144  65.069  1.00  0.00    -0.299 C  
HETATM    6  C   UNL     1      -9.016   8.774  65.652  1.00  0.00    -0.248 C  
HETATM    7  C   UNL     1      -9.968   8.470  66.807  1.00  0.00    -0.281 C  
HETATM    8  C   UNL     1      -9.821   9.537  67.904  1.00  0.00    -0.156 C  
ENDROOT
BRANCH   7   9
HETATM    9  O   UNL     1      -9.646   7.155  67.292  1.00  0.00    -0.132 OA 
BRANCH   9  10
HETATM   10  C   UNL     1      -8.976   7.194  68.503  1.00  0.00    -0.127 C  
HETATM   11  O   UNL     1      -8.000   7.916  68.677  1.00  0.00    -0.120 OA 
HETATM   12  C   UNL     1      -9.602   6.219  69.562  1.00  0.00    -0.147 C  
HETATM   13  C   UNL     1      -9.475   6.831  70.971  1.00  0.00    -0.165 A  
HETATM   14  O   UNL     1     -11.009   6.144  69.220  1.00  0.00    -0.313 OA 
HETATM   15  C   UNL     1      -9.000   4.813  69.425  1.00  0.00    -0.135 A  
HETATM   16  H   UNL     1     -11.388   5.555  69.861  1.00  0.00     0.000 HD 
HETATM   17  C   UNL     1     -10.607   7.219  71.714  1.00  0.00    -0.229 A  
HETATM   18  C   UNL     1      -7.662   4.621  69.031  1.00  0.00    -0.071 A  
HETATM   19  C   UNL     1     -10.479   7.901  72.929  1.00  0.00    -0.422 A  
HETATM   20  C   UNL     1      -7.150   3.341  68.812  1.00  0.00    -0.049 A  
HETATM   21  C   UNL     1      -7.958   2.226  69.002  1.00  0.00    -0.059 A  
HETATM   22  C   UNL     1      -9.218   8.207  73.430  1.00  0.00    -0.291 A  
HETATM   23  C   UNL     1      -8.084   7.807  72.734  1.00  0.00    -0.163 A  
HETATM   24  C   UNL     1      -9.269   2.387  69.442  1.00  0.00    -0.190 A  
HETATM   25  C   UNL     1      -9.780   3.666  69.670  1.00  0.00    -0.140 A  
HETATM   26  C   UNL     1      -8.211   7.116  71.524  1.00  0.00    -0.107 A  
ENDBRANCH   9  10
ENDBRANCH   7   9
TORSDOF 2
ENDMDL
MODEL      164
REMARK 921   NORMALIZED FREE ENERGY PREDICTED BY IDOCK:   -3.15 KCAL/MOL
REMARK 922        TOTAL FREE ENERGY PREDICTED BY IDOCK:   -4.03 KCAL/MOL
REMARK 923 INTER-LIGAND FREE ENERGY PREDICTED BY IDOCK:   -3.71 KCAL/MOL
REMARK 924 INTRA-LIGAND FREE ENERGY PREDICTED BY IDOCK:   -0.33 KCAL/MOL
REMARK 927      BINDING AFFINITY PREDICTED BY RF-SCORE:    0.00 PKD
ROOT
HETATM    1  C   UNL     1      -9.315  12.624  68.455  1.00  0.00    -0.148 C  
HETATM    2  N   UNL     1      -8.368  11.422  68.562  1.00  0.00    -0.152 N  
HETATM    3  C   UNL     1      -7.058  11.914  69.196  1.00  0.00    -0.053 C  
HETATM    4  C   UNL     1      -8.126  10.907  67.139  1.00  0.00    -0.127 C  
HETATM    5  C   UNL     1      -6.132  10.764  69.563  1.00  0.00    -0.057 C  
HETATM    6  C   UNL     1      -6.825   9.761  70.464  1.00  0.00    -0.129 C  
HETATM    7  C   UNL     1      -8.071   9.197  69.786  1.00  0.00    -0.111 C  
HETATM    8  C   UNL     1      -9.044  10.336  69.440  1.00  0.00    -0.187 C  
ENDROOT
BRANCH   7   9
HETATM    9  O   UNL     1      -8.660   8.248  70.693  1.00  0.00    -0.126 OA 
BRANCH   9  10
HETATM   10  C   UNL     1      -9.181   7.149  70.034  1.00  0.00    -0.144 C  
HETATM   11  O   UNL     1     -10.046   7.262  69.172  1.00  0.00    -0.173 OA 
HETATM   12  C   UNL     1      -8.549   5.801  70.534  1.00  0.00    -0.138 C  
HETATM   13  C   UNL     1      -8.448   4.807  69.360  1.00  0.00    -0.091 A  
HETATM   14  O   UNL     1      -7.207   6.147  70.957  1.00  0.00    -0.071 OA 
HETATM   15  C   UNL     1      -9.314   5.265  71.753  1.00  0.00    -0.175 A  
HETATM   16  H   UNL     1      -6.824   5.332  71.258  1.00  0.00     0.000 HD 
HETATM   17  C   UNL     1      -7.205   4.376  68.860  1.00  0.00    -0.052 A  
HETATM   18  C   UNL     1     -10.700   5.461  71.897  1.00  0.00    -0.275 A  
HETATM   19  C   UNL     1      -7.119   3.586  67.708  1.00  0.00    -0.051 A  
HETATM   20  C   UNL     1     -11.371   5.060  73.053  1.00  0.00    -0.374 A  
HETATM   21  C   UNL     1     -10.673   4.436  74.082  1.00  0.00    -0.313 A  
HETATM   22  C   UNL     1      -8.275   3.208  67.031  1.00  0.00    -0.084 A  
HETATM   23  C   UNL     1      -9.517   3.592  67.521  1.00  0.00    -0.237 A  
HETATM   24  C   UNL     1      -9.311   4.184  73.942  1.00  0.00    -0.107 A  
HETATM   25  C   UNL     1      -8.640   4.577  72.782  1.00  0.00    -0.113 A  
HETATM   26  C   UNL     1      -9.603   4.372  68.679  1.00  0.00    -0.216 A  
ENDBRANCH   9  10
ENDBRANCH   7   9
TORSDOF 2
ENDMDL
MODEL      165
REMARK 921   NORMALIZED FREE ENERGY PREDICTED BY IDOCK:   -3.12 KCAL/MOL
REMARK 922        TOTAL FREE ENERGY PREDICTED BY IDOCK:   -4.00 KCAL/MOL
REMARK 923 INTER-LIGAND FREE ENERGY PREDICTED BY IDOCK:   -4.24 KCAL/MOL
REMARK 924 INTRA-LIGAND FREE ENERGY PREDICTED BY IDOCK:    0.24 KCAL/MOL
REMARK 927      BINDING AFFINITY PREDICTED BY RF-SCORE:    0.00 PKD
ROOT
HETATM    1  C   UNL     1      -6.809   4.941  66.943  1.00  0.00    -0.056 C  
HETATM    2  N   UNL     1      -8.169   4.501  67.499  1.00  0.00    -0.100 N  
HETATM    3  C   UNL     1      -7.908   3.477  68.614  1.00  0.00    -0.055 C  
HETATM    4  C   UNL     1      -8.947   3.864  66.343  1.00  0.00    -0.133 C  
HETATM    5  C   UNL     1      -9.172   3.144  69.393  1.00  0.00    -0.219 C  
HETATM    6  C   UNL     1      -9.824   4.394  69.950  1.00  0.00    -0.290 C  
HETATM    7  C   UNL     1     -10.176   5.367  68.827  1.00  0.00    -0.182 C  
HETATM    8  C   UNL     1      -8.908   5.750  68.047  1.00  0.00    -0.109 C  
ENDROOT
BRANCH   7   9
HETATM    9  O   UNL     1     -10.799   6.512  69.432  1.00  0.00    -0.248 OA 
BRANCH   9  10
HETATM   10  C   UNL     1      -9.873   7.382  69.982  1.00  0.00    -0.179 C  
HETATM   11  O   UNL     1      -9.061   7.013  70.823  1.00  0.00    -0.153 OA 
HETATM   12  C   UNL     1     -10.014   8.839  69.414  1.00  0.00    -0.196 C  
HETATM   13  C   UNL     1      -8.625   9.500  69.327  1.00  0.00    -0.149 A  
HETATM   14  O   UNL     1     -10.526   8.671  68.068  1.00  0.00    -0.247 OA 
HETATM   15  C   UNL     1     -11.046   9.637  70.224  1.00  0.00    -0.327 A  
HETATM   16  H   UNL     1     -10.611   9.553  67.724  1.00  0.00     0.000 HD 
HETATM   17  C   UNL     1      -8.043   9.841  68.091  1.00  0.00    -0.108 A  
HETATM   18  C   UNL     1     -11.222   9.425  71.604  1.00  0.00    -0.431 A  
HETATM   19  C   UNL     1      -6.727  10.310  68.013  1.00  0.00    -0.066 A  
HETATM   20  C   UNL     1     -12.229  10.081  72.314  1.00  0.00     0.283 A  
HETATM   21  C   UNL     1     -13.068  10.978  71.663  1.00  0.00    -0.543 A  
HETATM   22  C   UNL     1      -5.964  10.452  69.167  1.00  0.00    -0.037 A  
HETATM   23  C   UNL     1      -6.524  10.153  70.404  1.00  0.00    -0.131 A  
HETATM   24  C   UNL     1     -12.881  11.244  70.309  1.00  0.00    -0.060 A  
HETATM   25  C   UNL     1     -11.869  10.596  69.600  1.00  0.00    -0.358 A  
HETATM   26  C   UNL     1      -7.843   9.695  70.484  1.00  0.00    -0.150 A  
ENDBRANCH   9  10
ENDBRANCH   7   9
TORSDOF 2
ENDMDL
MODEL      166
REMARK 921   NORMALIZED FREE ENERGY PREDICTED BY IDOCK:   -3.11 KCAL/MOL
REMARK 922        TOTAL FREE ENERGY PREDICTED BY IDOCK:   -3.99 KCAL/MOL
REMARK 923 INTER-LIGAND FREE ENERGY PREDICTED BY IDOCK:   -4.80 KCAL/MOL
REMARK 924 INTRA-LIGAND FREE ENERGY PREDICTED BY IDOCK:    0.80 KCAL/MOL
REMARK 927      BINDING AFFINITY PREDICTED BY RF-SCORE:    0.00 PKD
ROOT
HETATM    1  C   UNL     1      -9.286  10.025  62.974  1.00  0.00    -0.286 C  
HETATM    2  N   UNL     1      -9.261  10.396  64.462  1.00  0.00    -0.223 N  
HETATM    3  C   UNL     1     -10.065  11.695  64.633  1.00  0.00    -0.262 C  
HETATM    4  C   UNL     1      -7.795  10.607  64.852  1.00  0.00     0.045 C  
HETATM    5  C   UNL     1     -10.303  12.033  66.097  1.00  0.00    -0.257 C  
HETATM    6  C   UNL     1     -10.969  10.885  66.828  1.00  0.00    -0.248 C  
HETATM    7  C   UNL     1     -10.116   9.622  66.744  1.00  0.00    -0.236 C  
HETATM    8  C   UNL     1      -9.893   9.235  65.273  1.00  0.00     0.112 C  
ENDROOT
BRANCH   7   9
HETATM    9  O   UNL     1     -10.805   8.590  67.471  1.00  0.00    -0.198 OA 
BRANCH   9  10
HETATM   10  C   UNL     1     -11.179   9.003  68.738  1.00  0.00     0.323 C  
HETATM   11  O   UNL     1     -11.524  10.157  68.966  1.00  0.00    -0.183 OA 
HETATM   12  C   UNL     1     -11.088   7.843  69.793  1.00  0.00    -0.075 C  
HETATM   13  C   UNL     1     -12.205   8.005  70.841  1.00  0.00    -0.122 A  
HETATM   14  O   UNL     1     -11.337   6.629  69.041  1.00  0.00    -0.525 OA 
HETATM   15  C   UNL     1      -9.672   7.760  70.382  1.00  0.00    -0.179 A  
HETATM   16  H   UNL     1     -11.283   5.928  69.679  1.00  0.00     0.000 HD 
HETATM   17  C   UNL     1     -13.249   7.068  70.961  1.00  0.00    -0.124 A  
HETATM   18  C   UNL     1      -8.883   8.911  70.566  1.00  0.00    -0.221 A  
HETATM   19  C   UNL     1     -14.333   7.294  71.817  1.00  0.00    -0.560 A  
HETATM   20  C   UNL     1      -7.562   8.818  71.009  1.00  0.00    -0.124 A  
HETATM   21  C   UNL     1      -7.009   7.575  71.296  1.00  0.00    -0.050 A  
HETATM   22  C   UNL     1     -14.396   8.459  72.575  1.00  0.00    -0.283 A  
HETATM   23  C   UNL     1     -13.363   9.385  72.501  1.00  0.00    -0.420 A  
HETATM   24  C   UNL     1      -7.787   6.426  71.172  1.00  0.00    -0.114 A  
HETATM   25  C   UNL     1      -9.111   6.518  70.738  1.00  0.00    -0.154 A  
HETATM   26  C   UNL     1     -12.274   9.155  71.653  1.00  0.00    -0.433 A  
ENDBRANCH   9  10
ENDBRANCH   7   9
TORSDOF 2
ENDMDL
MODEL      167
REMARK 921   NORMALIZED FREE ENERGY PREDICTED BY IDOCK:   -3.09 KCAL/MOL
REMARK 922        TOTAL FREE ENERGY PREDICTED BY IDOCK:   -3.97 KCAL/MOL
REMARK 923 INTER-LIGAND FREE ENERGY PREDICTED BY IDOCK:   -4.00 KCAL/MOL
REMARK 924 INTRA-LIGAND FREE ENERGY PREDICTED BY IDOCK:    0.04 KCAL/MOL
REMARK 927      BINDING AFFINITY PREDICTED BY RF-SCORE:    0.00 PKD
ROOT
HETATM    1  C   UNL     1     -13.328   7.570  71.920  1.00  0.00    -0.240 C  
HETATM    2  N   UNL     1     -11.928   7.156  71.450  1.00  0.00    -0.308 N  
HETATM    3  C   UNL     1     -11.447   6.017  72.363  1.00  0.00    -0.308 C  
HETATM    4  C   UNL     1     -11.022   8.384  71.587  1.00  0.00    -0.278 C  
HETATM    5  C   UNL     1     -10.169   5.371  71.847  1.00  0.00    -0.258 C  
HETATM    6  C   UNL     1     -10.330   4.889  70.420  1.00  0.00    -0.248 C  
HETATM    7  C   UNL     1     -10.707   6.045  69.497  1.00  0.00    -0.335 C  
HETATM    8  C   UNL     1     -12.018   6.691  69.973  1.00  0.00    -0.123 C  
ENDROOT
BRANCH   7   9
HETATM    9  O   UNL     1     -10.826   5.511  68.168  1.00  0.00    -0.152 OA 
BRANCH   9  10
HETATM   10  C   UNL     1      -9.645   4.940  67.725  1.00  0.00    -0.148 C  
HETATM   11  O   UNL     1      -9.269   3.843  68.123  1.00  0.00    -0.131 OA 
HETATM   12  C   UNL     1      -8.886   5.860  66.704  1.00  0.00    -0.123 C  
HETATM   13  C   UNL     1      -8.162   4.988  65.659  1.00  0.00    -0.117 A  
HETATM   14  O   UNL     1      -9.925   6.614  66.031  1.00  0.00    -0.404 OA 
HETATM   15  C   UNL     1      -7.975   6.850  67.443  1.00  0.00    -0.112 A  
HETATM   16  H   UNL     1      -9.465   7.170  65.412  1.00  0.00     0.000 HD 
HETATM   17  C   UNL     1      -8.533   5.001  64.300  1.00  0.00    -0.138 A  
HETATM   18  C   UNL     1      -7.340   6.506  68.651  1.00  0.00    -0.087 A  
HETATM   19  C   UNL     1      -7.967   4.106  63.385  1.00  0.00    -0.084 A  
HETATM   20  C   UNL     1      -6.594   7.443  69.368  1.00  0.00    -0.037 A  
HETATM   21  C   UNL     1      -6.451   8.738  68.883  1.00  0.00    -0.049 A  
HETATM   22  C   UNL     1      -7.017   3.182  63.805  1.00  0.00    -0.048 A  
HETATM   23  C   UNL     1      -6.608   3.169  65.133  1.00  0.00    -0.039 A  
HETATM   24  C   UNL     1      -7.026   9.089  67.664  1.00  0.00    -0.075 A  
HETATM   25  C   UNL     1      -7.764   8.150  66.941  1.00  0.00    -0.096 A  
HETATM   26  C   UNL     1      -7.166   4.070  66.047  1.00  0.00    -0.068 A  
ENDBRANCH   9  10
ENDBRANCH   7   9
TORSDOF 2
ENDMDL
MODEL      168
REMARK 921   NORMALIZED FREE ENERGY PREDICTED BY IDOCK:   -3.07 KCAL/MOL
REMARK 922        TOTAL FREE ENERGY PREDICTED BY IDOCK:   -3.95 KCAL/MOL
REMARK 923 INTER-LIGAND FREE ENERGY PREDICTED BY IDOCK:   -3.75 KCAL/MOL
REMARK 924 INTRA-LIGAND FREE ENERGY PREDICTED BY IDOCK:   -0.20 KCAL/MOL
REMARK 927      BINDING AFFINITY PREDICTED BY RF-SCORE:    0.00 PKD
ROOT
HETATM    1  C   UNL     1      -9.420  11.762  63.926  1.00  0.00    -0.031 C  
HETATM    2  N   UNL     1      -8.849  10.678  64.849  1.00  0.00    -0.193 N  
HETATM    3  C   UNL     1      -7.320  10.689  64.691  1.00  0.00     0.174 C  
HETATM    4  C   UNL     1      -9.435   9.339  64.392  1.00  0.00     0.331 C  
HETATM    5  C   UNL     1      -6.631   9.814  65.728  1.00  0.00    -0.088 C  
HETATM    6  C   UNL     1      -7.033  10.206  67.136  1.00  0.00    -0.087 C  
HETATM    7  C   UNL     1      -8.544  10.094  67.320  1.00  0.00    -0.125 C  
HETATM    8  C   UNL     1      -9.265  11.000  66.308  1.00  0.00    -0.182 C  
ENDROOT
BRANCH   7   9
HETATM    9  O   UNL     1      -8.840  10.466  68.676  1.00  0.00    -0.127 OA 
BRANCH   9  10
HETATM   10  C   UNL     1      -8.770   9.388  69.541  1.00  0.00    -0.161 C  
HETATM   11  O   UNL     1      -7.810   9.217  70.284  1.00  0.00    -0.092 OA 
HETATM   12  C   UNL     1     -10.027   8.453  69.430  1.00  0.00    -0.191 C  
HETATM   13  C   UNL     1     -10.358   7.860  70.813  1.00  0.00    -0.211 A  
HETATM   14  O   UNL     1     -11.114   9.328  69.035  1.00  0.00    -0.431 OA 
HETATM   15  C   UNL     1      -9.826   7.408  68.323  1.00  0.00    -0.173 A  
HETATM   16  H   UNL     1     -11.874   8.763  68.968  1.00  0.00     0.000 HD 
HETATM   17  C   UNL     1     -11.548   8.183  71.492  1.00  0.00    -0.315 A  
HETATM   18  C   UNL     1      -8.555   6.876  68.035  1.00  0.00    -0.123 A  
HETATM   19  C   UNL     1     -11.776   7.753  72.804  1.00  0.00    -0.312 A  
HETATM   20  C   UNL     1      -8.363   6.002  66.964  1.00  0.00    -0.105 A  
HETATM   21  C   UNL     1      -9.441   5.626  66.170  1.00  0.00    -0.157 A  
HETATM   22  C   UNL     1     -10.822   6.987  73.465  1.00  0.00    -0.289 A  
HETATM   23  C   UNL     1      -9.652   6.625  72.807  1.00  0.00    -0.157 A  
HETATM   24  C   UNL     1     -10.717   6.097  66.467  1.00  0.00    -0.207 A  
HETATM   25  C   UNL     1     -10.913   6.964  67.544  1.00  0.00    -0.340 A  
HETATM   26  C   UNL     1      -9.429   7.046  71.492  1.00  0.00    -0.155 A  
ENDBRANCH   9  10
ENDBRANCH   7   9
TORSDOF 2
ENDMDL
MODEL      169
REMARK 921   NORMALIZED FREE ENERGY PREDICTED BY IDOCK:   -3.05 KCAL/MOL
REMARK 922        TOTAL FREE ENERGY PREDICTED BY IDOCK:   -3.92 KCAL/MOL
REMARK 923 INTER-LIGAND FREE ENERGY PREDICTED BY IDOCK:   -4.60 KCAL/MOL
REMARK 924 INTRA-LIGAND FREE ENERGY PREDICTED BY IDOCK:    0.68 KCAL/MOL
REMARK 927      BINDING AFFINITY PREDICTED BY RF-SCORE:    0.00 PKD
ROOT
HETATM    1  C   UNL     1      -6.753  19.441  66.907  1.00  0.00    -0.195 C  
HETATM    2  N   UNL     1      -7.807  18.873  67.867  1.00  0.00    -0.258 N  
HETATM    3  C   UNL     1      -8.871  19.960  68.087  1.00  0.00    -0.248 C  
HETATM    4  C   UNL     1      -7.091  18.537  69.179  1.00  0.00    -0.211 C  
HETATM    5  C   UNL     1     -10.084  19.429  68.837  1.00  0.00    -0.459 C  
HETATM    6  C   UNL     1     -10.680  18.222  68.140  1.00  0.00    -0.223 C  
HETATM    7  C   UNL     1      -9.648  17.105  68.016  1.00  0.00    -0.267 C  
HETATM    8  C   UNL     1      -8.426  17.603  67.227  1.00  0.00    -0.216 C  
ENDROOT
BRANCH   7   9
HETATM    9  O   UNL     1     -10.291  15.997  67.363  1.00  0.00    -0.281 OA 
BRANCH   9  10
HETATM   10  C   UNL     1      -9.391  15.013  66.995  1.00  0.00    -0.224 C  
HETATM   11  O   UNL     1      -8.288  15.285  66.534  1.00  0.00    -0.235 OA 
HETATM   12  C   UNL     1      -9.962  13.568  67.224  1.00  0.00    -0.236 C  
HETATM   13  C   UNL     1      -8.820  12.617  67.633  1.00  0.00    -0.184 A  
HETATM   14  O   UNL     1     -10.874  13.696  68.344  1.00  0.00    -0.241 OA 
HETATM   15  C   UNL     1     -10.766  13.105  66.000  1.00  0.00    -0.288 A  
HETATM   16  H   UNL     1     -11.219  12.822  68.483  1.00  0.00     0.000 HD 
HETATM   17  C   UNL     1      -8.770  12.027  68.910  1.00  0.00     0.204 A  
HETATM   18  C   UNL     1     -10.412  13.497  64.696  1.00  0.00    -0.439 A  
HETATM   19  C   UNL     1      -7.661  11.278  69.322  1.00  0.00     0.010 A  
HETATM   20  C   UNL     1     -11.204  13.154  63.598  1.00  0.00    -0.239 A  
HETATM   21  C   UNL     1     -12.355  12.395  63.780  1.00  0.00    -0.625 A  
HETATM   22  C   UNL     1      -6.580  11.100  68.465  1.00  0.00    -0.060 A  
HETATM   23  C   UNL     1      -6.617  11.644  67.187  1.00  0.00    -0.134 A  
HETATM   24  C   UNL     1     -12.698  11.951  65.054  1.00  0.00     0.730 A  
HETATM   25  C   UNL     1     -11.902  12.285  66.152  1.00  0.00    -0.398 A  
HETATM   26  C   UNL     1      -7.729  12.384  66.771  1.00  0.00     0.115 A  
ENDBRANCH   9  10
ENDBRANCH   7   9
TORSDOF 2
ENDMDL
MODEL      170
REMARK 921   NORMALIZED FREE ENERGY PREDICTED BY IDOCK:   -3.00 KCAL/MOL
REMARK 922        TOTAL FREE ENERGY PREDICTED BY IDOCK:   -3.86 KCAL/MOL
REMARK 923 INTER-LIGAND FREE ENERGY PREDICTED BY IDOCK:   -4.13 KCAL/MOL
REMARK 924 INTRA-LIGAND FREE ENERGY PREDICTED BY IDOCK:    0.26 KCAL/MOL
REMARK 927      BINDING AFFINITY PREDICTED BY RF-SCORE:    0.00 PKD
ROOT
HETATM    1  C   UNL     1      -8.207   7.646  65.952  1.00  0.00    -0.133 C  
HETATM    2  N   UNL     1      -7.748   8.247  67.286  1.00  0.00    -0.100 N  
HETATM    3  C   UNL     1      -6.247   8.553  67.169  1.00  0.00    -0.056 C  
HETATM    4  C   UNL     1      -8.007   7.195  68.369  1.00  0.00    -0.124 C  
HETATM    5  C   UNL     1      -5.734   9.364  68.350  1.00  0.00    -0.041 C  
HETATM    6  C   UNL     1      -6.533  10.638  68.534  1.00  0.00    -0.054 C  
HETATM    7  C   UNL     1      -8.010  10.324  68.754  1.00  0.00    -0.113 C  
HETATM    8  C   UNL     1      -8.565   9.538  67.555  1.00  0.00    -0.126 C  
ENDROOT
BRANCH   7   9
HETATM    9  O   UNL     1      -8.692  11.576  68.935  1.00  0.00    -0.090 OA 
BRANCH   9  10
HETATM   10  C   UNL     1      -8.903  12.235  67.736  1.00  0.00    -0.174 C  
HETATM   11  O   UNL     1      -7.994  12.422  66.934  1.00  0.00    -0.138 OA 
HETATM   12  C   UNL     1     -10.393  12.699  67.565  1.00  0.00    -0.218 C  
HETATM   13  C   UNL     1     -10.795  12.619  66.079  1.00  0.00    -0.306 A  
HETATM   14  O   UNL     1     -11.177  11.728  68.304  1.00  0.00    -0.216 OA 
HETATM   15  C   UNL     1     -10.606  14.077  68.206  1.00  0.00    -0.253 A  
HETATM   16  H   UNL     1     -12.079  12.009  68.199  1.00  0.00     0.000 HD 
HETATM   17  C   UNL     1     -11.773  11.715  65.624  1.00  0.00     0.032 A  
HETATM   18  C   UNL     1      -9.589  15.049  68.218  1.00  0.00    -0.210 A  
HETATM   19  C   UNL     1     -12.032  11.551  64.259  1.00  0.00    -0.047 A  
HETATM   20  C   UNL     1      -9.755  16.262  68.889  1.00  0.00    -0.248 A  
HETATM   21  C   UNL     1     -10.949  16.537  69.546  1.00  0.00    -0.289 A  
HETATM   22  C   UNL     1     -11.320  12.288  63.318  1.00  0.00    -0.414 A  
HETATM   23  C   UNL     1     -10.372  13.211  63.740  1.00  0.00     0.180 A  
HETATM   24  C   UNL     1     -11.991  15.613  69.505  1.00  0.00    -0.363 A  
HETATM   25  C   UNL     1     -11.829  14.403  68.826  1.00  0.00    -0.360 A  
HETATM   26  C   UNL     1     -10.121  13.384  65.106  1.00  0.00    -0.266 A  
ENDBRANCH   9  10
ENDBRANCH   7   9
TORSDOF 2
ENDMDL
MODEL      171
REMARK 921   NORMALIZED FREE ENERGY PREDICTED BY IDOCK:   -2.96 KCAL/MOL
REMARK 922        TOTAL FREE ENERGY PREDICTED BY IDOCK:   -3.83 KCAL/MOL
REMARK 923 INTER-LIGAND FREE ENERGY PREDICTED BY IDOCK:   -4.03 KCAL/MOL
REMARK 924 INTRA-LIGAND FREE ENERGY PREDICTED BY IDOCK:    0.20 KCAL/MOL
REMARK 927      BINDING AFFINITY PREDICTED BY RF-SCORE:    0.00 PKD
ROOT
HETATM    1  C   UNL     1     -12.677   8.866  72.474  1.00  0.00    -0.313 C  
HETATM    2  N   UNL     1     -12.845   9.816  71.283  1.00  0.00    -0.357 N  
HETATM    3  C   UNL     1     -12.708  11.253  71.809  1.00  0.00    -0.273 C  
HETATM    4  C   UNL     1     -14.244   9.577  70.706  1.00  0.00     0.570 C  
HETATM    5  C   UNL     1     -12.627  12.271  70.680  1.00  0.00    -0.241 C  
HETATM    6  C   UNL     1     -11.505  11.939  69.716  1.00  0.00    -0.303 C  
HETATM    7  C   UNL     1     -11.701  10.549  69.116  1.00  0.00    -0.189 C  
HETATM    8  C   UNL     1     -11.748   9.495  70.234  1.00  0.00    -0.117 C  
ENDROOT
BRANCH   7   9
HETATM    9  O   UNL     1     -10.612  10.318  68.207  1.00  0.00    -0.193 OA 
BRANCH   9  10
HETATM   10  C   UNL     1      -9.667   9.453  68.733  1.00  0.00    -0.156 C  
HETATM   11  O   UNL     1      -9.035   9.726  69.747  1.00  0.00    -0.192 OA 
HETATM   12  C   UNL     1      -9.518   8.144  67.879  1.00  0.00    -0.146 C  
HETATM   13  C   UNL     1      -9.203   6.953  68.804  1.00  0.00    -0.131 A  
HETATM   14  O   UNL     1     -10.822   7.930  67.284  1.00  0.00    -0.491 OA 
HETATM   15  C   UNL     1      -8.502   8.352  66.745  1.00  0.00    -0.114 A  
HETATM   16  H   UNL     1     -10.732   7.138  66.768  1.00  0.00     0.000 HD 
HETATM   17  C   UNL     1     -10.107   5.886  68.972  1.00  0.00    -0.237 A  
HETATM   18  C   UNL     1      -7.385   9.192  66.904  1.00  0.00    -0.090 A  
HETATM   19  C   UNL     1      -9.877   4.881  69.917  1.00  0.00    -0.295 A  
HETATM   20  C   UNL     1      -6.521   9.455  65.839  1.00  0.00    -0.075 A  
HETATM   21  C   UNL     1      -6.745   8.867  64.599  1.00  0.00    -0.073 A  
HETATM   22  C   UNL     1      -8.738   4.917  70.715  1.00  0.00    -0.142 A  
HETATM   23  C   UNL     1      -7.812   5.940  70.548  1.00  0.00    -0.101 A  
HETATM   24  C   UNL     1      -7.814   7.991  64.431  1.00  0.00    -0.139 A  
HETATM   25  C   UNL     1      -8.674   7.720  65.498  1.00  0.00    -0.102 A  
HETATM   26  C   UNL     1      -8.036   6.939  69.595  1.00  0.00    -0.126 A  
ENDBRANCH   9  10
ENDBRANCH   7   9
TORSDOF 2
ENDMDL
MODEL      172
REMARK 921   NORMALIZED FREE ENERGY PREDICTED BY IDOCK:   -2.95 KCAL/MOL
REMARK 922        TOTAL FREE ENERGY PREDICTED BY IDOCK:   -3.81 KCAL/MOL
REMARK 923 INTER-LIGAND FREE ENERGY PREDICTED BY IDOCK:   -4.31 KCAL/MOL
REMARK 924 INTRA-LIGAND FREE ENERGY PREDICTED BY IDOCK:    0.50 KCAL/MOL
REMARK 927      BINDING AFFINITY PREDICTED BY RF-SCORE:    0.00 PKD
ROOT
HETATM    1  C   UNL     1      -5.928   4.035  67.449  1.00  0.00    -0.024 C  
HETATM    2  N   UNL     1      -6.247   5.447  67.955  1.00  0.00    -0.036 N  
HETATM    3  C   UNL     1      -5.299   6.423  67.241  1.00  0.00    -0.005 C  
HETATM    4  C   UNL     1      -5.999   5.453  69.467  1.00  0.00    -0.020 C  
HETATM    5  C   UNL     1      -5.678   7.876  67.491  1.00  0.00    -0.038 C  
HETATM    6  C   UNL     1      -7.120   8.144  67.109  1.00  0.00    -0.079 C  
HETATM    7  C   UNL     1      -8.066   7.243  67.898  1.00  0.00    -0.119 C  
HETATM    8  C   UNL     1      -7.730   5.766  67.631  1.00  0.00    -0.097 C  
ENDROOT
BRANCH   7   9
HETATM    9  O   UNL     1      -9.406   7.567  67.491  1.00  0.00    -0.136 OA 
BRANCH   9  10
HETATM   10  C   UNL     1      -9.967   8.558  68.279  1.00  0.00    -0.184 C  
HETATM   11  O   UNL     1     -10.460   9.569  67.792  1.00  0.00    -0.224 OA 
HETATM   12  C   UNL     1      -9.872   8.225  69.810  1.00  0.00    -0.187 C  
HETATM   13  C   UNL     1     -11.114   8.773  70.539  1.00  0.00    -0.278 A  
HETATM   14  O   UNL     1      -9.899   6.777  69.884  1.00  0.00    -0.164 OA 
HETATM   15  C   UNL     1      -8.533   8.710  70.386  1.00  0.00    -0.144 A  
HETATM   16  H   UNL     1      -9.843   6.576  70.811  1.00  0.00     0.000 HD 
HETATM   17  C   UNL     1     -12.056   7.918  71.141  1.00  0.00    -0.294 A  
HETATM   18  C   UNL     1      -7.901   9.869  69.902  1.00  0.00    -0.182 A  
HETATM   19  C   UNL     1     -13.250   8.415  71.678  1.00  0.00    -0.360 A  
HETATM   20  C   UNL     1      -6.638  10.249  70.360  1.00  0.00    -0.126 A  
HETATM   21  C   UNL     1      -5.990   9.488  71.326  1.00  0.00    -0.069 A  
HETATM   22  C   UNL     1     -13.526   9.777  71.627  1.00  0.00    -0.436 A  
HETATM   23  C   UNL     1     -12.599  10.648  71.068  1.00  0.00    -0.516 A  
HETATM   24  C   UNL     1      -6.617   8.365  71.859  1.00  0.00    -0.072 A  
HETATM   25  C   UNL     1      -7.885   7.989  71.409  1.00  0.00    -0.099 A  
HETATM   26  C   UNL     1     -11.401  10.153  70.541  1.00  0.00    -0.416 A  
ENDBRANCH   9  10
ENDBRANCH   7   9
TORSDOF 2
ENDMDL
MODEL      173
REMARK 921   NORMALIZED FREE ENERGY PREDICTED BY IDOCK:   -2.92 KCAL/MOL
REMARK 922        TOTAL FREE ENERGY PREDICTED BY IDOCK:   -3.78 KCAL/MOL
REMARK 923 INTER-LIGAND FREE ENERGY PREDICTED BY IDOCK:   -4.37 KCAL/MOL
REMARK 924 INTRA-LIGAND FREE ENERGY PREDICTED BY IDOCK:    0.59 KCAL/MOL
REMARK 927      BINDING AFFINITY PREDICTED BY RF-SCORE:    0.00 PKD
ROOT
HETATM    1  C   UNL     1     -13.868   7.430  71.477  1.00  0.00    -0.374 C  
HETATM    2  N   UNL     1     -12.358   7.196  71.351  1.00  0.00    -0.358 N  
HETATM    3  C   UNL     1     -11.979   6.060  72.314  1.00  0.00    -0.204 C  
HETATM    4  C   UNL     1     -11.662   8.502  71.748  1.00  0.00    -0.327 C  
HETATM    5  C   UNL     1     -10.548   5.585  72.106  1.00  0.00    -0.280 C  
HETATM    6  C   UNL     1     -10.304   5.178  70.667  1.00  0.00    -0.305 C  
HETATM    7  C   UNL     1     -10.582   6.343  69.720  1.00  0.00    -0.254 C  
HETATM    8  C   UNL     1     -12.036   6.817  69.882  1.00  0.00    -0.039 C  
ENDROOT
BRANCH   7   9
HETATM    9  O   UNL     1     -10.315   5.883  68.385  1.00  0.00    -0.170 OA 
BRANCH   9  10
HETATM   10  C   UNL     1     -10.085   6.928  67.507  1.00  0.00    -0.174 C  
HETATM   11  O   UNL     1     -10.880   7.211  66.617  1.00  0.00    -0.233 OA 
HETATM   12  C   UNL     1      -8.723   7.656  67.790  1.00  0.00    -0.127 C  
HETATM   13  C   UNL     1      -8.861   9.158  67.478  1.00  0.00    -0.124 A  
HETATM   14  O   UNL     1      -8.502   7.502  69.215  1.00  0.00    -0.133 OA 
HETATM   15  C   UNL     1      -7.574   6.957  67.049  1.00  0.00    -0.102 A  
HETATM   16  H   UNL     1      -7.678   7.942  69.386  1.00  0.00     0.000 HD 
HETATM   17  C   UNL     1      -8.772  10.135  68.488  1.00  0.00    -0.123 A  
HETATM   18  C   UNL     1      -7.771   6.344  65.797  1.00  0.00    -0.092 A  
HETATM   19  C   UNL     1      -9.037  11.483  68.221  1.00  0.00    -0.185 A  
HETATM   20  C   UNL     1      -6.748   5.626  65.175  1.00  0.00    -0.047 A  
HETATM   21  C   UNL     1      -5.501   5.522  65.782  1.00  0.00    -0.013 A  
HETATM   22  C   UNL     1      -9.394  11.885  66.938  1.00  0.00    -0.198 A  
HETATM   23  C   UNL     1      -9.458  10.947  65.915  1.00  0.00    -0.241 A  
HETATM   24  C   UNL     1      -5.266   6.163  66.995  1.00  0.00    -0.005 A  
HETATM   25  C   UNL     1      -6.285   6.890  67.614  1.00  0.00    -0.041 A  
HETATM   26  C   UNL     1      -9.182   9.601  66.179  1.00  0.00    -0.222 A  
ENDBRANCH   9  10
ENDBRANCH   7   9
TORSDOF 2
ENDMDL
MODEL      174
REMARK 921   NORMALIZED FREE ENERGY PREDICTED BY IDOCK:   -2.91 KCAL/MOL
REMARK 922        TOTAL FREE ENERGY PREDICTED BY IDOCK:   -3.77 KCAL/MOL
REMARK 923 INTER-LIGAND FREE ENERGY PREDICTED BY IDOCK:   -4.11 KCAL/MOL
REMARK 924 INTRA-LIGAND FREE ENERGY PREDICTED BY IDOCK:    0.34 KCAL/MOL
REMARK 927      BINDING AFFINITY PREDICTED BY RF-SCORE:    0.00 PKD
ROOT
HETATM    1  C   UNL     1     -12.268  14.286  65.484  1.00  0.00    -0.402 C  
HETATM    2  N   UNL     1     -11.295  13.116  65.678  1.00  0.00    -0.298 N  
HETATM    3  C   UNL     1      -9.879  13.632  65.379  1.00  0.00    -0.126 C  
HETATM    4  C   UNL     1     -11.698  12.021  64.685  1.00  0.00    -0.287 C  
HETATM    5  C   UNL     1      -8.808  12.621  65.763  1.00  0.00     0.552 C  
HETATM    6  C   UNL     1      -8.936  12.204  67.214  1.00  0.00    -0.184 C  
HETATM    7  C   UNL     1     -10.310  11.596  67.483  1.00  0.00    -0.197 C  
HETATM    8  C   UNL     1     -11.412  12.613  67.141  1.00  0.00    -0.346 C  
ENDROOT
BRANCH   7   9
HETATM    9  O   UNL     1     -10.346  11.216  68.869  1.00  0.00    -0.195 OA 
BRANCH   9  10
HETATM   10  C   UNL     1      -9.222  10.502  69.245  1.00  0.00    -0.148 C  
HETATM   11  O   UNL     1      -8.103  11.003  69.228  1.00  0.00    -0.110 OA 
HETATM   12  C   UNL     1      -9.565   9.027  69.661  1.00  0.00    -0.171 C  
HETATM   13  C   UNL     1      -8.618   8.571  70.789  1.00  0.00    -0.175 A  
HETATM   14  O   UNL     1     -10.912   9.088  70.191  1.00  0.00    -0.237 OA 
HETATM   15  C   UNL     1      -9.574   8.107  68.431  1.00  0.00    -0.155 A  
HETATM   16  H   UNL     1     -11.119   8.196  70.444  1.00  0.00     0.000 HD 
HETATM   17  C   UNL     1      -9.092   8.289  72.084  1.00  0.00    -0.279 A  
HETATM   18  C   UNL     1      -8.707   8.323  67.344  1.00  0.00    -0.125 A  
HETATM   19  C   UNL     1      -8.211   8.013  73.136  1.00  0.00    -0.244 A  
HETATM   20  C   UNL     1      -8.789   7.545  66.188  1.00  0.00    -0.185 A  
HETATM   21  C   UNL     1      -9.726   6.522  66.102  1.00  0.00     0.015 A  
HETATM   22  C   UNL     1      -6.837   8.009  72.916  1.00  0.00    -0.104 A  
HETATM   23  C   UNL     1      -6.343   8.252  71.639  1.00  0.00    -0.049 A  
HETATM   24  C   UNL     1     -10.560   6.254  67.185  1.00  0.00    -0.380 A  
HETATM   25  C   UNL     1     -10.473   7.026  68.345  1.00  0.00    -0.231 A  
HETATM   26  C   UNL     1      -7.224   8.518  70.586  1.00  0.00    -0.052 A  
ENDBRANCH   9  10
ENDBRANCH   7   9
TORSDOF 2
ENDMDL
MODEL      175
REMARK 921   NORMALIZED FREE ENERGY PREDICTED BY IDOCK:   -2.91 KCAL/MOL
REMARK 922        TOTAL FREE ENERGY PREDICTED BY IDOCK:   -3.77 KCAL/MOL
REMARK 923 INTER-LIGAND FREE ENERGY PREDICTED BY IDOCK:   -4.61 KCAL/MOL
REMARK 924 INTRA-LIGAND FREE ENERGY PREDICTED BY IDOCK:    0.84 KCAL/MOL
REMARK 927      BINDING AFFINITY PREDICTED BY RF-SCORE:    0.00 PKD
ROOT
HETATM    1  C   UNL     1      -6.598   4.157  66.012  1.00  0.00    -0.041 C  
HETATM    2  N   UNL     1      -6.415   4.734  67.422  1.00  0.00    -0.044 N  
HETATM    3  C   UNL     1      -5.839   6.150  67.275  1.00  0.00    -0.017 C  
HETATM    4  C   UNL     1      -5.434   3.819  68.162  1.00  0.00    -0.013 C  
HETATM    5  C   UNL     1      -5.832   6.906  68.596  1.00  0.00    -0.018 C  
HETATM    6  C   UNL     1      -7.214   6.946  69.216  1.00  0.00    -0.090 C  
HETATM    7  C   UNL     1      -7.742   5.534  69.456  1.00  0.00    -0.082 C  
HETATM    8  C   UNL     1      -7.796   4.760  68.129  1.00  0.00    -0.082 C  
ENDROOT
BRANCH   7   9
HETATM    9  O   UNL     1      -9.042   5.658  70.056  1.00  0.00    -0.133 OA 
BRANCH   9  10
HETATM   10  C   UNL     1      -9.437   6.979  70.181  1.00  0.00    -0.162 C  
HETATM   11  O   UNL     1      -9.434   7.747  69.225  1.00  0.00    -0.155 OA 
HETATM   12  C   UNL     1      -9.854   7.340  71.651  1.00  0.00    -0.165 C  
HETATM   13  C   UNL     1     -10.997   8.373  71.628  1.00  0.00    -0.345 A  
HETATM   14  O   UNL     1     -10.365   6.104  72.212  1.00  0.00    -0.188 OA 
HETATM   15  C   UNL     1      -8.628   7.768  72.470  1.00  0.00    -0.184 A  
HETATM   16  H   UNL     1     -10.618   6.323  73.101  1.00  0.00     0.000 HD 
HETATM   17  C   UNL     1     -12.287   8.061  72.099  1.00  0.00    -0.358 A  
HETATM   18  C   UNL     1      -7.553   8.457  71.880  1.00  0.00    -0.146 A  
HETATM   19  C   UNL     1     -13.352   8.956  71.946  1.00  0.00    -0.455 A  
HETATM   20  C   UNL     1      -6.399   8.756  72.607  1.00  0.00    -0.028 A  
HETATM   21  C   UNL     1      -6.304   8.389  73.945  1.00  0.00    -0.136 A  
HETATM   22  C   UNL     1     -13.151  10.183  71.323  1.00  0.00    -0.490 A  
HETATM   23  C   UNL     1     -11.881  10.531  70.878  1.00  0.00    -0.455 A  
HETATM   24  C   UNL     1      -7.376   7.752  74.566  1.00  0.00    -0.183 A  
HETATM   25  C   UNL     1      -8.534   7.461  73.842  1.00  0.00    -0.225 A  
HETATM   26  C   UNL     1     -10.814   9.641  71.040  1.00  0.00    -0.412 A  
ENDBRANCH   9  10
ENDBRANCH   7   9
TORSDOF 2
ENDMDL
MODEL      176
REMARK 921   NORMALIZED FREE ENERGY PREDICTED BY IDOCK:   -2.88 KCAL/MOL
REMARK 922        TOTAL FREE ENERGY PREDICTED BY IDOCK:   -3.74 KCAL/MOL
REMARK 923 INTER-LIGAND FREE ENERGY PREDICTED BY IDOCK:   -4.06 KCAL/MOL
REMARK 924 INTRA-LIGAND FREE ENERGY PREDICTED BY IDOCK:    0.32 KCAL/MOL
REMARK 927      BINDING AFFINITY PREDICTED BY RF-SCORE:    0.00 PKD
ROOT
HETATM    1  C   UNL     1     -11.818  16.642  71.584  1.00  0.00     0.137 C  
HETATM    2  N   UNL     1     -11.877  15.118  71.746  1.00  0.00    -0.377 N  
HETATM    3  C   UNL     1     -13.289  14.755  72.232  1.00  0.00    -0.391 C  
HETATM    4  C   UNL     1     -10.825  14.733  72.790  1.00  0.00     1.922 C  
HETATM    5  C   UNL     1     -13.535  13.254  72.207  1.00  0.00    -0.679 C  
HETATM    6  C   UNL     1     -13.271  12.674  70.832  1.00  0.00     0.214 C  
HETATM    7  C   UNL     1     -11.834  12.947  70.396  1.00  0.00    -0.157 C  
HETATM    8  C   UNL     1     -11.570  14.462  70.375  1.00  0.00    -0.226 C  
ENDROOT
BRANCH   7   9
HETATM    9  O   UNL     1     -11.660  12.356  69.097  1.00  0.00    -0.274 OA 
BRANCH   9  10
HETATM   10  C   UNL     1     -11.341  13.296  68.132  1.00  0.00    -0.288 C  
HETATM   11  O   UNL     1     -12.171  14.092  67.706  1.00  0.00    -0.334 OA 
HETATM   12  C   UNL     1      -9.842  13.195  67.674  1.00  0.00    -0.219 C  
HETATM   13  C   UNL     1      -9.304  14.600  67.342  1.00  0.00    -0.196 A  
HETATM   14  O   UNL     1      -9.128  12.692  68.831  1.00  0.00    -0.384 OA 
HETATM   15  C   UNL     1      -9.694  12.173  66.537  1.00  0.00    -0.234 A  
HETATM   16  H   UNL     1      -8.221  12.631  68.554  1.00  0.00     0.000 HD 
HETATM   17  C   UNL     1      -8.284  15.201  68.104  1.00  0.00    -0.145 A  
HETATM   18  C   UNL     1     -10.711  11.980  65.584  1.00  0.00    -0.313 A  
HETATM   19  C   UNL     1      -7.899  16.528  67.884  1.00  0.00    -0.162 A  
HETATM   20  C   UNL     1     -10.612  10.982  64.613  1.00  0.00    -0.369 A  
HETATM   21  C   UNL     1      -9.485  10.169  64.562  1.00  0.00    -0.364 A  
HETATM   22  C   UNL     1      -8.522  17.283  66.896  1.00  0.00    -0.251 A  
HETATM   23  C   UNL     1      -9.508  16.704  66.107  1.00  0.00    -0.319 A  
HETATM   24  C   UNL     1      -8.442  10.375  65.461  1.00  0.00    -0.171 A  
HETATM   25  C   UNL     1      -8.535  11.379  66.427  1.00  0.00    -0.160 A  
HETATM   26  C   UNL     1      -9.886  15.375  66.319  1.00  0.00    -0.320 A  
ENDBRANCH   9  10
ENDBRANCH   7   9
TORSDOF 2
ENDMDL
MODEL      177
REMARK 921   NORMALIZED FREE ENERGY PREDICTED BY IDOCK:   -2.88 KCAL/MOL
REMARK 922        TOTAL FREE ENERGY PREDICTED BY IDOCK:   -3.74 KCAL/MOL
REMARK 923 INTER-LIGAND FREE ENERGY PREDICTED BY IDOCK:   -4.21 KCAL/MOL
REMARK 924 INTRA-LIGAND FREE ENERGY PREDICTED BY IDOCK:    0.47 KCAL/MOL
REMARK 927      BINDING AFFINITY PREDICTED BY RF-SCORE:    0.00 PKD
ROOT
HETATM    1  C   UNL     1     -10.663   7.757  72.939  1.00  0.00    -0.385 C  
HETATM    2  N   UNL     1     -11.215   8.147  71.563  1.00  0.00    -0.251 N  
HETATM    3  C   UNL     1     -11.566   9.643  71.608  1.00  0.00    -0.336 C  
HETATM    4  C   UNL     1     -12.468   7.300  71.320  1.00  0.00    -0.366 C  
HETATM    5  C   UNL     1     -11.905  10.193  70.230  1.00  0.00    -0.342 C  
HETATM    6  C   UNL     1     -10.789   9.929  69.239  1.00  0.00    -0.255 C  
HETATM    7  C   UNL     1     -10.513   8.433  69.120  1.00  0.00    -0.206 C  
HETATM    8  C   UNL     1     -10.129   7.858  70.494  1.00  0.00    -0.192 C  
ENDROOT
BRANCH   7   9
HETATM    9  O   UNL     1      -9.459   8.266  68.157  1.00  0.00    -0.137 OA 
BRANCH   9  10
HETATM   10  C   UNL     1      -8.604   7.230  68.491  1.00  0.00    -0.124 C  
HETATM   11  O   UNL     1      -7.634   7.403  69.219  1.00  0.00    -0.096 OA 
HETATM   12  C   UNL     1      -9.026   5.871  67.825  1.00  0.00    -0.111 C  
HETATM   13  C   UNL     1      -8.691   4.703  68.772  1.00  0.00    -0.113 A  
HETATM   14  O   UNL     1     -10.467   5.951  67.687  1.00  0.00    -0.189 OA 
HETATM   15  C   UNL     1      -8.415   5.746  66.422  1.00  0.00    -0.122 A  
HETATM   16  H   UNL     1     -10.722   5.129  67.285  1.00  0.00     0.000 HD 
HETATM   17  C   UNL     1      -9.698   3.908  69.352  1.00  0.00    -0.172 A  
HETATM   18  C   UNL     1      -7.154   6.290  66.117  1.00  0.00    -0.067 A  
HETATM   19  C   UNL     1      -9.396   2.941  70.317  1.00  0.00    -0.219 A  
HETATM   20  C   UNL     1      -6.649   6.259  64.816  1.00  0.00    -0.038 A  
HETATM   21  C   UNL     1      -7.385   5.666  63.796  1.00  0.00    -0.058 A  
HETATM   22  C   UNL     1      -8.079   2.745  70.722  1.00  0.00    -0.061 A  
HETATM   23  C   UNL     1      -7.061   3.492  70.142  1.00  0.00    -0.041 A  
HETATM   24  C   UNL     1      -8.613   5.074  64.083  1.00  0.00    -0.125 A  
HETATM   25  C   UNL     1      -9.115   5.096  65.386  1.00  0.00    -0.145 A  
HETATM   26  C   UNL     1      -7.363   4.451  69.169  1.00  0.00    -0.055 A  
ENDBRANCH   9  10
ENDBRANCH   7   9
TORSDOF 2
ENDMDL
MODEL      178
REMARK 921   NORMALIZED FREE ENERGY PREDICTED BY IDOCK:   -2.87 KCAL/MOL
REMARK 922        TOTAL FREE ENERGY PREDICTED BY IDOCK:   -3.72 KCAL/MOL
REMARK 923 INTER-LIGAND FREE ENERGY PREDICTED BY IDOCK:   -4.64 KCAL/MOL
REMARK 924 INTRA-LIGAND FREE ENERGY PREDICTED BY IDOCK:    0.92 KCAL/MOL
REMARK 927      BINDING AFFINITY PREDICTED BY RF-SCORE:    0.00 PKD
ROOT
HETATM    1  C   UNL     1     -10.526  13.376  64.146  1.00  0.00    -0.181 C  
HETATM    2  N   UNL     1     -10.554  11.850  63.996  1.00  0.00    -0.335 N  
HETATM    3  C   UNL     1      -9.412  11.453  63.048  1.00  0.00    -0.358 C  
HETATM    4  C   UNL     1     -11.914  11.477  63.399  1.00  0.00    -0.038 C  
HETATM    5  C   UNL     1      -9.198   9.947  63.008  1.00  0.00    -0.284 C  
HETATM    6  C   UNL     1      -8.968   9.384  64.396  1.00  0.00    -0.215 C  
HETATM    7  C   UNL     1     -10.153   9.691  65.308  1.00  0.00     0.063 C  
HETATM    8  C   UNL     1     -10.367  11.211  65.398  1.00  0.00    -0.271 C  
ENDROOT
BRANCH   7   9
HETATM    9  O   UNL     1      -9.865   9.115  66.593  1.00  0.00    -0.198 OA 
BRANCH   9  10
HETATM   10  C   UNL     1      -8.876   9.808  67.268  1.00  0.00    -0.132 C  
HETATM   11  O   UNL     1      -7.699   9.749  66.929  1.00  0.00    -0.098 OA 
HETATM   12  C   UNL     1      -9.445  10.630  68.479  1.00  0.00    -0.176 C  
HETATM   13  C   UNL     1      -8.640  11.934  68.647  1.00  0.00    -0.037 A  
HETATM   14  O   UNL     1     -10.800  10.974  68.098  1.00  0.00    -0.193 OA 
HETATM   15  C   UNL     1      -9.508   9.757  69.741  1.00  0.00    -0.253 A  
HETATM   16  H   UNL     1     -11.144  11.472  68.830  1.00  0.00     0.000 HD 
HETATM   17  C   UNL     1      -9.225  13.197  68.438  1.00  0.00    -0.141 A  
HETATM   18  C   UNL     1      -8.555   8.752  69.989  1.00  0.00    -0.136 A  
HETATM   19  C   UNL     1      -8.456  14.366  68.454  1.00  0.00    -0.165 A  
HETATM   20  C   UNL     1      -8.675   7.897  71.086  1.00  0.00    -0.146 A  
HETATM   21  C   UNL     1      -9.739   8.043  71.970  1.00  0.00    -0.264 A  
HETATM   22  C   UNL     1      -7.086  14.299  68.683  1.00  0.00    -0.111 A  
HETATM   23  C   UNL     1      -6.487  13.068  68.925  1.00  0.00    -0.094 A  
HETATM   24  C   UNL     1     -10.665   9.064  71.775  1.00  0.00    -0.437 A  
HETATM   25  C   UNL     1     -10.542   9.925  70.683  1.00  0.00    -0.341 A  
HETATM   26  C   UNL     1      -7.258  11.901  68.919  1.00  0.00    -0.098 A  
ENDBRANCH   9  10
ENDBRANCH   7   9
TORSDOF 2
ENDMDL
MODEL      179
REMARK 921   NORMALIZED FREE ENERGY PREDICTED BY IDOCK:   -2.81 KCAL/MOL
REMARK 922        TOTAL FREE ENERGY PREDICTED BY IDOCK:   -3.66 KCAL/MOL
REMARK 923 INTER-LIGAND FREE ENERGY PREDICTED BY IDOCK:   -3.56 KCAL/MOL
REMARK 924 INTRA-LIGAND FREE ENERGY PREDICTED BY IDOCK:   -0.10 KCAL/MOL
REMARK 927      BINDING AFFINITY PREDICTED BY RF-SCORE:    0.00 PKD
ROOT
HETATM    1  C   UNL     1      -9.417  12.750  66.320  1.00  0.00    -0.196 C  
HETATM    2  N   UNL     1      -9.048  11.309  66.695  1.00  0.00    -0.174 N  
HETATM    3  C   UNL     1      -7.903  10.865  65.772  1.00  0.00    -0.057 C  
HETATM    4  C   UNL     1     -10.295  10.449  66.471  1.00  0.00    -0.224 C  
HETATM    5  C   UNL     1      -7.300   9.537  66.206  1.00  0.00    -0.093 C  
HETATM    6  C   UNL     1      -6.843   9.582  67.650  1.00  0.00    -0.075 C  
HETATM    7  C   UNL     1      -8.008   9.923  68.576  1.00  0.00    -0.086 C  
HETATM    8  C   UNL     1      -8.612  11.282  68.184  1.00  0.00    -0.150 C  
ENDROOT
BRANCH   7   9
HETATM    9  O   UNL     1      -7.499   9.932  69.920  1.00  0.00    -0.117 OA 
BRANCH   9  10
HETATM   10  C   UNL     1      -7.284   8.654  70.407  1.00  0.00    -0.045 C  
HETATM   11  O   UNL     1      -6.169   8.144  70.411  1.00  0.00    -0.035 OA 
HETATM   12  C   UNL     1      -8.608   7.979  70.913  1.00  0.00    -0.133 C  
HETATM   13  C   UNL     1      -8.301   7.071  72.119  1.00  0.00    -0.107 A  
HETATM   14  O   UNL     1      -9.442   9.076  71.365  1.00  0.00    -0.263 OA 
HETATM   15  C   UNL     1      -9.331   7.273  69.755  1.00  0.00    -0.150 A  
HETATM   16  H   UNL     1     -10.243   8.667  71.672  1.00  0.00     0.000 HD 
HETATM   17  C   UNL     1      -8.798   7.355  73.405  1.00  0.00    -0.212 A  
HETATM   18  C   UNL     1      -8.618   6.669  68.703  1.00  0.00    -0.125 A  
HETATM   19  C   UNL     1      -8.401   6.607  74.519  1.00  0.00    -0.157 A  
HETATM   20  C   UNL     1      -9.281   6.117  67.605  1.00  0.00    -0.107 A  
HETATM   21  C   UNL     1     -10.670   6.139  67.546  1.00  0.00    -0.393 A  
HETATM   22  C   UNL     1      -7.501   5.557  74.373  1.00  0.00    -0.088 A  
HETATM   23  C   UNL     1      -7.020   5.233  73.110  1.00  0.00    -0.080 A  
HETATM   24  C   UNL     1     -11.399   6.684  68.600  1.00  0.00    -0.148 A  
HETATM   25  C   UNL     1     -10.738   7.229  69.703  1.00  0.00    -0.249 A  
HETATM   26  C   UNL     1      -7.425   5.974  71.994  1.00  0.00    -0.095 A  
ENDBRANCH   9  10
ENDBRANCH   7   9
TORSDOF 2
ENDMDL
MODEL      180
REMARK 921   NORMALIZED FREE ENERGY PREDICTED BY IDOCK:   -2.80 KCAL/MOL
REMARK 922        TOTAL FREE ENERGY PREDICTED BY IDOCK:   -3.65 KCAL/MOL
REMARK 923 INTER-LIGAND FREE ENERGY PREDICTED BY IDOCK:   -4.48 KCAL/MOL
REMARK 924 INTRA-LIGAND FREE ENERGY PREDICTED BY IDOCK:    0.83 KCAL/MOL
REMARK 927      BINDING AFFINITY PREDICTED BY RF-SCORE:    0.00 PKD
ROOT
HETATM    1  C   UNL     1      -7.043   3.701  65.516  1.00  0.00    -0.066 C  
HETATM    2  N   UNL     1      -7.221   4.182  66.961  1.00  0.00    -0.067 N  
HETATM    3  C   UNL     1      -5.976   4.999  67.338  1.00  0.00    -0.026 C  
HETATM    4  C   UNL     1      -7.343   2.935  67.842  1.00  0.00    -0.053 C  
HETATM    5  C   UNL     1      -6.144   5.719  68.668  1.00  0.00    -0.025 C  
HETATM    6  C   UNL     1      -7.384   6.591  68.672  1.00  0.00    -0.087 C  
HETATM    7  C   UNL     1      -8.633   5.757  68.399  1.00  0.00    -0.112 C  
HETATM    8  C   UNL     1      -8.506   5.048  67.041  1.00  0.00    -0.106 C  
ENDROOT
BRANCH   7   9
HETATM    9  O   UNL     1      -9.760   6.648  68.434  1.00  0.00    -0.126 OA 
BRANCH   9  10
HETATM   10  C   UNL     1      -9.375   7.976  68.489  1.00  0.00    -0.142 C  
HETATM   11  O   UNL     1      -8.544   8.440  67.716  1.00  0.00    -0.129 OA 
HETATM   12  C   UNL     1     -10.106   8.762  69.635  1.00  0.00    -0.204 C  
HETATM   13  C   UNL     1     -10.353  10.217  69.193  1.00  0.00    -0.241 A  
HETATM   14  O   UNL     1     -11.389   8.104  69.784  1.00  0.00    -0.458 OA 
HETATM   15  C   UNL     1      -9.339   8.623  70.959  1.00  0.00    -0.254 A  
HETATM   16  H   UNL     1     -11.832   8.579  70.477  1.00  0.00     0.000 HD 
HETATM   17  C   UNL     1     -11.654  10.719  68.994  1.00  0.00    -0.370 A  
HETATM   18  C   UNL     1      -7.936   8.525  70.989  1.00  0.00    -0.132 A  
HETATM   19  C   UNL     1     -11.866  11.995  68.459  1.00  0.00    -0.369 A  
HETATM   20  C   UNL     1      -7.252   8.300  72.185  1.00  0.00    -0.114 A  
HETATM   21  C   UNL     1      -7.957   8.187  73.379  1.00  0.00    -0.240 A  
HETATM   22  C   UNL     1     -10.784  12.798  68.113  1.00  0.00    -0.243 A  
HETATM   23  C   UNL     1      -9.490  12.340  68.329  1.00  0.00    -0.209 A  
HETATM   24  C   UNL     1      -9.342   8.333  73.382  1.00  0.00    -0.186 A  
HETATM   25  C   UNL     1     -10.026   8.567  72.188  1.00  0.00    -0.387 A  
HETATM   26  C   UNL     1      -9.277  11.069  68.874  1.00  0.00    -0.139 A  
ENDBRANCH   9  10
ENDBRANCH   7   9
TORSDOF 2
ENDMDL
MODEL      181
REMARK 921   NORMALIZED FREE ENERGY PREDICTED BY IDOCK:   -2.76 KCAL/MOL
REMARK 922        TOTAL FREE ENERGY PREDICTED BY IDOCK:   -3.60 KCAL/MOL
REMARK 923 INTER-LIGAND FREE ENERGY PREDICTED BY IDOCK:   -3.91 KCAL/MOL
REMARK 924 INTRA-LIGAND FREE ENERGY PREDICTED BY IDOCK:    0.31 KCAL/MOL
REMARK 927      BINDING AFFINITY PREDICTED BY RF-SCORE:    0.00 PKD
ROOT
HETATM    1  C   UNL     1      -9.246   5.308  69.829  1.00  0.00    -0.126 C  
HETATM    2  N   UNL     1      -9.835   6.473  70.633  1.00  0.00    -0.183 N  
HETATM    3  C   UNL     1      -9.065   6.560  71.960  1.00  0.00    -0.140 C  
HETATM    4  C   UNL     1     -11.313   6.152  70.880  1.00  0.00    -0.287 C  
HETATM    5  C   UNL     1      -9.408   7.822  72.739  1.00  0.00    -0.263 C  
HETATM    6  C   UNL     1      -9.186   9.066  71.902  1.00  0.00    -0.100 C  
HETATM    7  C   UNL     1     -10.032   9.022  70.633  1.00  0.00    -0.233 C  
HETATM    8  C   UNL     1      -9.677   7.775  69.806  1.00  0.00    -0.176 C  
ENDROOT
BRANCH   7   9
HETATM    9  O   UNL     1      -9.777  10.236  69.906  1.00  0.00    -0.196 OA 
BRANCH   9  10
HETATM   10  C   UNL     1      -8.619  10.161  69.153  1.00  0.00    -0.165 C  
HETATM   11  O   UNL     1      -7.576   9.712  69.615  1.00  0.00    -0.088 OA 
HETATM   12  C   UNL     1      -8.816  10.720  67.698  1.00  0.00    -0.132 C  
HETATM   13  C   UNL     1      -7.945   9.920  66.711  1.00  0.00    -0.116 A  
HETATM   14  O   UNL     1     -10.210  10.471  67.385  1.00  0.00    -0.191 OA 
HETATM   15  C   UNL     1      -8.581  12.237  67.667  1.00  0.00    -0.169 A  
HETATM   16  H   UNL     1     -10.329  10.809  66.505  1.00  0.00     0.000 HD 
HETATM   17  C   UNL     1      -8.514   9.111  65.709  1.00  0.00    -0.152 A  
HETATM   18  C   UNL     1      -7.637  12.853  68.510  1.00  0.00    -0.120 A  
HETATM   19  C   UNL     1      -7.722   8.281  64.909  1.00  0.00    -0.115 A  
HETATM   20  C   UNL     1      -7.498  14.242  68.546  1.00  0.00    -0.121 A  
HETATM   21  C   UNL     1      -8.286  15.043  67.727  1.00  0.00    -0.158 A  
HETATM   22  C   UNL     1      -6.343   8.242  65.090  1.00  0.00    -0.048 A  
HETATM   23  C   UNL     1      -5.751   9.055  66.049  1.00  0.00    -0.050 A  
HETATM   24  C   UNL     1      -9.190  14.454  66.846  1.00  0.00    -0.269 A  
HETATM   25  C   UNL     1      -9.324  13.065  66.801  1.00  0.00    -0.244 A  
HETATM   26  C   UNL     1      -6.542   9.893  66.842  1.00  0.00    -0.067 A  
ENDBRANCH   9  10
ENDBRANCH   7   9
TORSDOF 2
ENDMDL
MODEL      182
REMARK 921   NORMALIZED FREE ENERGY PREDICTED BY IDOCK:   -2.75 KCAL/MOL
REMARK 922        TOTAL FREE ENERGY PREDICTED BY IDOCK:   -3.59 KCAL/MOL
REMARK 923 INTER-LIGAND FREE ENERGY PREDICTED BY IDOCK:   -2.97 KCAL/MOL
REMARK 924 INTRA-LIGAND FREE ENERGY PREDICTED BY IDOCK:   -0.61 KCAL/MOL
REMARK 927      BINDING AFFINITY PREDICTED BY RF-SCORE:    0.00 PKD
ROOT
HETATM    1  C   UNL     1      -8.964   7.566  72.562  1.00  0.00    -0.134 C  
HETATM    2  N   UNL     1      -8.733   6.087  72.228  1.00  0.00    -0.131 N  
HETATM    3  C   UNL     1      -9.479   5.249  73.278  1.00  0.00    -0.141 C  
HETATM    4  C   UNL     1      -7.223   5.837  72.302  1.00  0.00    -0.089 C  
HETATM    5  C   UNL     1      -9.511   3.772  72.914  1.00  0.00    -0.153 C  
HETATM    6  C   UNL     1     -10.098   3.555  71.533  1.00  0.00    -0.081 C  
HETATM    7  C   UNL     1      -9.291   4.307  70.478  1.00  0.00    -0.145 C  
HETATM    8  C   UNL     1      -9.275   5.810  70.801  1.00  0.00    -0.152 C  
ENDROOT
BRANCH   7   9
HETATM    9  O   UNL     1      -9.898   4.040  69.203  1.00  0.00    -0.153 OA 
BRANCH   9  10
HETATM   10  C   UNL     1      -8.958   3.850  68.205  1.00  0.00    -0.121 C  
HETATM   11  O   UNL     1      -7.995   3.108  68.359  1.00  0.00    -0.058 OA 
HETATM   12  C   UNL     1      -9.278   4.689  66.917  1.00  0.00    -0.127 C  
HETATM   13  C   UNL     1      -8.837   3.908  65.665  1.00  0.00    -0.124 A  
HETATM   14  O   UNL     1     -10.723   4.812  66.896  1.00  0.00    -0.171 OA 
HETATM   15  C   UNL     1      -8.678   6.099  67.029  1.00  0.00    -0.107 A  
HETATM   16  H   UNL     1     -10.916   5.319  66.117  1.00  0.00     0.000 HD 
HETATM   17  C   UNL     1      -9.769   3.436  64.721  1.00  0.00    -0.152 A  
HETATM   18  C   UNL     1      -7.469   6.332  67.710  1.00  0.00    -0.093 A  
HETATM   19  C   UNL     1      -9.376   2.609  63.662  1.00  0.00    -0.102 A  
HETATM   20  C   UNL     1      -6.981   7.627  67.894  1.00  0.00    -0.076 A  
HETATM   21  C   UNL     1      -7.681   8.714  67.382  1.00  0.00    -0.098 A  
HETATM   22  C   UNL     1      -8.043   2.238  63.522  1.00  0.00    -0.073 A  
HETATM   23  C   UNL     1      -7.097   2.716  64.421  1.00  0.00    -0.049 A  
HETATM   24  C   UNL     1      -8.853   8.505  66.660  1.00  0.00    -0.157 A  
HETATM   25  C   UNL     1      -9.338   7.210  66.467  1.00  0.00    -0.208 A  
HETATM   26  C   UNL     1      -7.488   3.551  65.472  1.00  0.00    -0.077 A  
ENDBRANCH   9  10
ENDBRANCH   7   9
TORSDOF 2
ENDMDL
MODEL      183
REMARK 921   NORMALIZED FREE ENERGY PREDICTED BY IDOCK:   -2.70 KCAL/MOL
REMARK 922        TOTAL FREE ENERGY PREDICTED BY IDOCK:   -3.54 KCAL/MOL
REMARK 923 INTER-LIGAND FREE ENERGY PREDICTED BY IDOCK:   -4.04 KCAL/MOL
REMARK 924 INTRA-LIGAND FREE ENERGY PREDICTED BY IDOCK:    0.50 KCAL/MOL
REMARK 927      BINDING AFFINITY PREDICTED BY RF-SCORE:    0.00 PKD
ROOT
HETATM    1  C   UNL     1     -13.638   7.660  72.156  1.00  0.00    -0.044 C  
HETATM    2  N   UNL     1     -12.208   7.315  71.720  1.00  0.00    -0.319 N  
HETATM    3  C   UNL     1     -11.703   6.184  72.629  1.00  0.00    -0.151 C  
HETATM    4  C   UNL     1     -11.363   8.580  71.901  1.00  0.00    -0.329 C  
HETATM    5  C   UNL     1     -10.383   5.604  72.141  1.00  0.00    -0.256 C  
HETATM    6  C   UNL     1     -10.483   5.138  70.702  1.00  0.00    -0.269 C  
HETATM    7  C   UNL     1     -10.885   6.291  69.787  1.00  0.00    -0.336 C  
HETATM    8  C   UNL     1     -12.237   6.871  70.235  1.00  0.00    -0.037 C  
ENDROOT
BRANCH   7   9
HETATM    9  O   UNL     1     -10.943   5.774  68.447  1.00  0.00    -0.233 OA 
BRANCH   9  10
HETATM   10  C   UNL     1      -9.775   6.012  67.743  1.00  0.00    -0.115 C  
HETATM   11  O   UNL     1      -9.155   5.107  67.195  1.00  0.00    -0.112 OA 
HETATM   12  C   UNL     1      -9.369   7.529  67.760  1.00  0.00    -0.141 C  
HETATM   13  C   UNL     1      -8.696   7.901  66.424  1.00  0.00    -0.170 A  
HETATM   14  O   UNL     1     -10.620   8.253  67.860  1.00  0.00    -0.352 OA 
HETATM   15  C   UNL     1      -8.528   7.848  69.004  1.00  0.00    -0.131 A  
HETATM   16  H   UNL     1     -10.375   9.171  67.869  1.00  0.00     0.000 HD 
HETATM   17  C   UNL     1      -9.290   8.807  65.524  1.00  0.00    -0.165 A  
HETATM   18  C   UNL     1      -7.647   6.902  69.560  1.00  0.00    -0.099 A  
HETATM   19  C   UNL     1      -8.744   9.032  64.255  1.00  0.00    -0.140 A  
HETATM   20  C   UNL     1      -6.960   7.164  70.747  1.00  0.00    -0.061 A  
HETATM   21  C   UNL     1      -7.125   8.384  71.393  1.00  0.00    -0.074 A  
HETATM   22  C   UNL     1      -7.592   8.361  63.859  1.00  0.00    -0.135 A  
HETATM   23  C   UNL     1      -6.968   7.486  64.740  1.00  0.00    -0.055 A  
HETATM   24  C   UNL     1      -7.951   9.357  70.834  1.00  0.00    -0.096 A  
HETATM   25  C   UNL     1      -8.631   9.100  69.642  1.00  0.00    -0.143 A  
HETATM   26  C   UNL     1      -7.507   7.268  66.012  1.00  0.00    -0.080 A  
ENDBRANCH   9  10
ENDBRANCH   7   9
TORSDOF 2
ENDMDL
MODEL      184
REMARK 921   NORMALIZED FREE ENERGY PREDICTED BY IDOCK:   -2.66 KCAL/MOL
REMARK 922        TOTAL FREE ENERGY PREDICTED BY IDOCK:   -3.49 KCAL/MOL
REMARK 923 INTER-LIGAND FREE ENERGY PREDICTED BY IDOCK:   -3.73 KCAL/MOL
REMARK 924 INTRA-LIGAND FREE ENERGY PREDICTED BY IDOCK:    0.24 KCAL/MOL
REMARK 927      BINDING AFFINITY PREDICTED BY RF-SCORE:    0.00 PKD
ROOT
HETATM    1  C   UNL     1      -8.003  11.195  68.796  1.00  0.00    -0.144 C  
HETATM    2  N   UNL     1      -8.990  10.898  67.660  1.00  0.00    -0.140 N  
HETATM    3  C   UNL     1      -8.236  11.063  66.331  1.00  0.00    -0.166 C  
HETATM    4  C   UNL     1     -10.129  11.916  67.771  1.00  0.00    -0.191 C  
HETATM    5  C   UNL     1      -9.051  10.569  65.145  1.00  0.00    -0.227 C  
HETATM    6  C   UNL     1      -9.497   9.133  65.339  1.00  0.00    -0.231 C  
HETATM    7  C   UNL     1     -10.334   8.993  66.608  1.00  0.00    -0.219 C  
HETATM    8  C   UNL     1      -9.518   9.449  67.829  1.00  0.00    -0.132 C  
ENDROOT
BRANCH   7   9
HETATM    9  O   UNL     1     -10.727   7.614  66.712  1.00  0.00    -0.318 OA 
BRANCH   9  10
HETATM   10  C   UNL     1     -10.000   6.934  67.673  1.00  0.00    -0.144 C  
HETATM   11  O   UNL     1     -10.091   7.207  68.865  1.00  0.00    -0.167 OA 
HETATM   12  C   UNL     1      -9.076   5.828  67.049  1.00  0.00    -0.114 C  
HETATM   13  C   UNL     1      -8.977   4.629  68.012  1.00  0.00    -0.131 A  
HETATM   14  O   UNL     1      -9.765   5.396  65.848  1.00  0.00    -0.251 OA 
HETATM   15  C   UNL     1      -7.722   6.424  66.637  1.00  0.00    -0.099 A  
HETATM   16  H   UNL     1      -9.206   4.726  65.471  1.00  0.00     0.000 HD 
HETATM   17  C   UNL     1      -9.504   3.367  67.679  1.00  0.00    -0.231 A  
HETATM   18  C   UNL     1      -7.130   7.475  67.363  1.00  0.00    -0.085 A  
HETATM   19  C   UNL     1      -9.536   2.323  68.611  1.00  0.00    -0.201 A  
HETATM   20  C   UNL     1      -5.949   8.079  66.927  1.00  0.00    -0.052 A  
HETATM   21  C   UNL     1      -5.325   7.631  65.768  1.00  0.00    -0.029 A  
HETATM   22  C   UNL     1      -9.039   2.518  69.896  1.00  0.00    -0.179 A  
HETATM   23  C   UNL     1      -8.483   3.744  70.241  1.00  0.00    -0.093 A  
HETATM   24  C   UNL     1      -5.863   6.558  65.061  1.00  0.00    -0.030 A  
HETATM   25  C   UNL     1      -7.039   5.948  65.501  1.00  0.00    -0.069 A  
HETATM   26  C   UNL     1      -8.442   4.783  69.306  1.00  0.00    -0.087 A  
ENDBRANCH   9  10
ENDBRANCH   7   9
TORSDOF 2
ENDMDL
MODEL      185
REMARK 921   NORMALIZED FREE ENERGY PREDICTED BY IDOCK:   -2.58 KCAL/MOL
REMARK 922        TOTAL FREE ENERGY PREDICTED BY IDOCK:   -3.40 KCAL/MOL
REMARK 923 INTER-LIGAND FREE ENERGY PREDICTED BY IDOCK:   -2.73 KCAL/MOL
REMARK 924 INTRA-LIGAND FREE ENERGY PREDICTED BY IDOCK:   -0.67 KCAL/MOL
REMARK 927      BINDING AFFINITY PREDICTED BY RF-SCORE:    0.00 PKD
ROOT
HETATM    1  C   UNL     1      -8.420   8.323  73.877  1.00  0.00    -0.178 C  
HETATM    2  N   UNL     1      -9.455   7.782  72.882  1.00  0.00    -0.208 N  
HETATM    3  C   UNL     1     -10.431   8.923  72.557  1.00  0.00     0.157 C  
HETATM    4  C   UNL     1     -10.181   6.622  73.570  1.00  0.00    -0.277 C  
HETATM    5  C   UNL     1     -11.361   8.570  71.405  1.00  0.00    -0.330 C  
HETATM    6  C   UNL     1     -10.583   8.157  70.172  1.00  0.00    -0.237 C  
HETATM    7  C   UNL     1      -9.690   6.956  70.474  1.00  0.00    -0.172 C  
HETATM    8  C   UNL     1      -8.712   7.299  71.609  1.00  0.00    -0.117 C  
ENDROOT
BRANCH   7   9
HETATM    9  O   UNL     1      -9.001   6.618  69.258  1.00  0.00    -0.135 OA 
BRANCH   9  10
HETATM   10  C   UNL     1      -9.235   5.310  68.870  1.00  0.00    -0.118 C  
HETATM   11  O   UNL     1     -10.350   4.927  68.531  1.00  0.00    -0.088 OA 
HETATM   12  C   UNL     1      -7.938   4.427  68.937  1.00  0.00    -0.073 C  
HETATM   13  C   UNL     1      -7.963   3.381  67.806  1.00  0.00    -0.080 A  
HETATM   14  O   UNL     1      -6.844   5.345  68.687  1.00  0.00    -0.055 OA 
HETATM   15  C   UNL     1      -7.759   3.837  70.343  1.00  0.00    -0.047 A  
HETATM   16  H   UNL     1      -6.060   4.811  68.727  1.00  0.00     0.000 HD 
HETATM   17  C   UNL     1      -7.029   3.407  66.752  1.00  0.00    -0.054 A  
HETATM   18  C   UNL     1      -8.864   3.484  71.139  1.00  0.00    -0.136 A  
HETATM   19  C   UNL     1      -7.143   2.542  65.659  1.00  0.00    -0.057 A  
HETATM   20  C   UNL     1      -8.697   3.041  72.453  1.00  0.00    -0.097 A  
HETATM   21  C   UNL     1      -7.420   2.925  72.991  1.00  0.00    -0.046 A  
HETATM   22  C   UNL     1      -8.191   1.629  65.595  1.00  0.00    -0.083 A  
HETATM   23  C   UNL     1      -9.108   1.559  66.637  1.00  0.00    -0.065 A  
HETATM   24  C   UNL     1      -6.308   3.219  72.206  1.00  0.00    -0.014 A  
HETATM   25  C   UNL     1      -6.473   3.652  70.889  1.00  0.00    -0.030 A  
HETATM   26  C   UNL     1      -8.988   2.416  67.735  1.00  0.00    -0.190 A  
ENDBRANCH   9  10
ENDBRANCH   7   9
TORSDOF 2
ENDMDL
MODEL      186
REMARK 921   NORMALIZED FREE ENERGY PREDICTED BY IDOCK:   -2.55 KCAL/MOL
REMARK 922        TOTAL FREE ENERGY PREDICTED BY IDOCK:   -3.37 KCAL/MOL
REMARK 923 INTER-LIGAND FREE ENERGY PREDICTED BY IDOCK:   -4.35 KCAL/MOL
REMARK 924 INTRA-LIGAND FREE ENERGY PREDICTED BY IDOCK:    0.98 KCAL/MOL
REMARK 927      BINDING AFFINITY PREDICTED BY RF-SCORE:    0.00 PKD
ROOT
HETATM    1  C   UNL     1      -9.807  15.455  65.795  1.00  0.00    -0.364 C  
HETATM    2  N   UNL     1     -10.728  14.235  65.922  1.00  0.00    -0.296 N  
HETATM    3  C   UNL     1     -11.626  14.198  64.676  1.00  0.00    -0.406 C  
HETATM    4  C   UNL     1     -11.563  14.428  67.191  1.00  0.00    -0.386 C  
HETATM    5  C   UNL     1     -12.420  12.903  64.580  1.00  0.00    -0.499 C  
HETATM    6  C   UNL     1     -11.510  11.692  64.628  1.00  0.00    -0.249 C  
HETATM    7  C   UNL     1     -10.694  11.678  65.917  1.00  0.00    -0.278 C  
HETATM    8  C   UNL     1      -9.850  12.960  66.019  1.00  0.00    -0.255 C  
ENDROOT
BRANCH   7   9
HETATM    9  O   UNL     1      -9.873  10.498  65.892  1.00  0.00    -0.210 OA 
BRANCH   9  10
HETATM   10  C   UNL     1      -8.763  10.616  66.711  1.00  0.00    -0.130 C  
HETATM   11  O   UNL     1      -8.502  11.659  67.300  1.00  0.00    -0.144 OA 
HETATM   12  C   UNL     1      -7.919   9.292  66.764  1.00  0.00    -0.108 C  
HETATM   13  C   UNL     1      -7.302   9.126  68.167  1.00  0.00    -0.079 A  
HETATM   14  O   UNL     1      -8.878   8.225  66.556  1.00  0.00    -0.135 OA 
HETATM   15  C   UNL     1      -6.902   9.255  65.615  1.00  0.00    -0.074 A  
HETATM   16  H   UNL     1      -8.368   7.425  66.589  1.00  0.00     0.000 HD 
HETATM   17  C   UNL     1      -7.682   8.073  69.022  1.00  0.00    -0.100 A  
HETATM   18  C   UNL     1      -6.296  10.428  65.129  1.00  0.00    -0.103 A  
HETATM   19  C   UNL     1      -7.222   8.009  70.342  1.00  0.00    -0.049 A  
HETATM   20  C   UNL     1      -5.448  10.399  64.021  1.00  0.00    -0.149 A  
HETATM   21  C   UNL     1      -5.173   9.192  63.386  1.00  0.00    -0.066 A  
HETATM   22  C   UNL     1      -6.371   8.992  70.836  1.00  0.00    -0.060 A  
HETATM   23  C   UNL     1      -5.955  10.024  70.004  1.00  0.00    -0.053 A  
HETATM   24  C   UNL     1      -5.719   8.010  63.880  1.00  0.00    -0.057 A  
HETATM   25  C   UNL     1      -6.559   8.037  64.994  1.00  0.00    -0.051 A  
HETATM   26  C   UNL     1      -6.405  10.083  68.681  1.00  0.00    -0.048 A  
ENDBRANCH   9  10
ENDBRANCH   7   9
TORSDOF 2
ENDMDL
MODEL      187
REMARK 921   NORMALIZED FREE ENERGY PREDICTED BY IDOCK:   -2.53 KCAL/MOL
REMARK 922        TOTAL FREE ENERGY PREDICTED BY IDOCK:   -3.34 KCAL/MOL
REMARK 923 INTER-LIGAND FREE ENERGY PREDICTED BY IDOCK:   -3.63 KCAL/MOL
REMARK 924 INTRA-LIGAND FREE ENERGY PREDICTED BY IDOCK:    0.29 KCAL/MOL
REMARK 927      BINDING AFFINITY PREDICTED BY RF-SCORE:    0.00 PKD
ROOT
HETATM    1  C   UNL     1      -6.113   8.254  65.189  1.00  0.00    -0.045 C  
HETATM    2  N   UNL     1      -7.003   9.380  64.648  1.00  0.00    -0.093 N  
HETATM    3  C   UNL     1      -7.947   8.767  63.602  1.00  0.00    -0.158 C  
HETATM    4  C   UNL     1      -6.079  10.419  64.006  1.00  0.00    -0.082 C  
HETATM    5  C   UNL     1      -9.030   9.742  63.166  1.00  0.00    -0.270 C  
HETATM    6  C   UNL     1      -9.809  10.271  64.354  1.00  0.00    -0.374 C  
HETATM    7  C   UNL     1      -8.880  10.972  65.342  1.00  0.00    -0.147 C  
HETATM    8  C   UNL     1      -7.798   9.995  65.830  1.00  0.00    -0.128 C  
ENDROOT
BRANCH   7   9
HETATM    9  O   UNL     1      -9.693  11.454  66.426  1.00  0.00    -0.195 OA 
BRANCH   9  10
HETATM   10  C   UNL     1      -8.940  12.073  67.408  1.00  0.00    -0.176 C  
HETATM   11  O   UNL     1      -8.144  11.449  68.101  1.00  0.00    -0.123 OA 
HETATM   12  C   UNL     1      -9.246  13.610  67.514  1.00  0.00    -0.218 C  
HETATM   13  C   UNL     1      -7.961  14.370  67.896  1.00  0.00    -0.150 A  
HETATM   14  O   UNL     1      -9.634  14.010  66.176  1.00  0.00    -0.359 OA 
HETATM   15  C   UNL     1     -10.434  13.859  68.454  1.00  0.00    -0.250 A  
HETATM   16  H   UNL     1      -9.819  14.939  66.240  1.00  0.00     0.000 HD 
HETATM   17  C   UNL     1      -7.350  15.280  67.013  1.00  0.00    -0.072 A  
HETATM   18  C   UNL     1     -10.673  13.040  69.573  1.00  0.00     0.253 A  
HETATM   19  C   UNL     1      -6.111  15.860  67.310  1.00  0.00    -0.086 A  
HETATM   20  C   UNL     1     -11.809  13.211  70.366  1.00  0.00    -0.259 A  
HETATM   21  C   UNL     1     -12.721  14.218  70.068  1.00  0.00    -0.167 A  
HETATM   22  C   UNL     1      -5.458  15.546  68.497  1.00  0.00    -0.102 A  
HETATM   23  C   UNL     1      -6.054  14.676  69.402  1.00  0.00    -0.109 A  
HETATM   24  C   UNL     1     -12.480  15.076  68.997  1.00  0.00     0.072 A  
HETATM   25  C   UNL     1     -11.339  14.911  68.209  1.00  0.00    -0.325 A  
HETATM   26  C   UNL     1      -7.297  14.105  69.110  1.00  0.00    -0.067 A  
ENDBRANCH   9  10
ENDBRANCH   7   9
TORSDOF 2
ENDMDL
MODEL      188
REMARK 921   NORMALIZED FREE ENERGY PREDICTED BY IDOCK:   -2.53 KCAL/MOL
REMARK 922        TOTAL FREE ENERGY PREDICTED BY IDOCK:   -3.34 KCAL/MOL
REMARK 923 INTER-LIGAND FREE ENERGY PREDICTED BY IDOCK:   -4.37 KCAL/MOL
REMARK 924 INTRA-LIGAND FREE ENERGY PREDICTED BY IDOCK:    1.03 KCAL/MOL
REMARK 927      BINDING AFFINITY PREDICTED BY RF-SCORE:    0.00 PKD
ROOT
HETATM    1  C   UNL     1     -11.103   7.254  73.176  1.00  0.00    -0.292 C  
HETATM    2  N   UNL     1     -11.694   7.901  71.917  1.00  0.00    -0.282 N  
HETATM    3  C   UNL     1     -12.858   8.802  72.357  1.00  0.00    -0.371 C  
HETATM    4  C   UNL     1     -12.193   6.766  71.017  1.00  0.00    -0.352 C  
HETATM    5  C   UNL     1     -13.371   9.672  71.219  1.00  0.00    -0.403 C  
HETATM    6  C   UNL     1     -12.254  10.493  70.604  1.00  0.00    -0.446 C  
HETATM    7  C   UNL     1     -11.146   9.587  70.074  1.00  0.00    -0.237 C  
HETATM    8  C   UNL     1     -10.582   8.723  71.215  1.00  0.00    -0.262 C  
ENDROOT
BRANCH   7   9
HETATM    9  O   UNL     1     -10.138  10.435  69.498  1.00  0.00    -0.229 OA 
BRANCH   9  10
HETATM   10  C   UNL     1      -8.894   9.828  69.474  1.00  0.00    -0.193 C  
HETATM   11  O   UNL     1      -8.531   9.065  70.362  1.00  0.00    -0.143 OA 
HETATM   12  C   UNL     1      -8.052  10.246  68.216  1.00  0.00    -0.107 C  
HETATM   13  C   UNL     1      -7.181   9.060  67.757  1.00  0.00    -0.083 A  
HETATM   14  O   UNL     1      -9.030  10.524  67.183  1.00  0.00    -0.139 OA 
HETATM   15  C   UNL     1      -7.269  11.537  68.496  1.00  0.00    -0.096 A  
HETATM   16  H   UNL     1      -8.520  10.776  66.422  1.00  0.00     0.000 HD 
HETATM   17  C   UNL     1      -7.389   8.426  66.517  1.00  0.00    -0.081 A  
HETATM   18  C   UNL     1      -6.769  11.831  69.778  1.00  0.00     0.015 A  
HETATM   19  C   UNL     1      -6.690   7.265  66.168  1.00  0.00    -0.053 A  
HETATM   20  C   UNL     1      -6.145  13.050  70.049  1.00  0.00    -0.112 A  
HETATM   21  C   UNL     1      -5.990  13.993  69.038  1.00  0.00    -0.091 A  
HETATM   22  C   UNL     1      -5.764   6.715  67.049  1.00  0.00    -0.014 A  
HETATM   23  C   UNL     1      -5.515   7.339  68.265  1.00  0.00    -0.022 A  
HETATM   24  C   UNL     1      -6.430  13.704  67.749  1.00  0.00    -0.178 A  
HETATM   25  C   UNL     1      -7.045  12.481  67.475  1.00  0.00    -0.151 A  
HETATM   26  C   UNL     1      -6.206   8.505  68.610  1.00  0.00    -0.046 A  
ENDBRANCH   9  10
ENDBRANCH   7   9
TORSDOF 2
ENDMDL
MODEL      189
REMARK 921   NORMALIZED FREE ENERGY PREDICTED BY IDOCK:   -2.53 KCAL/MOL
REMARK 922        TOTAL FREE ENERGY PREDICTED BY IDOCK:   -3.34 KCAL/MOL
REMARK 923 INTER-LIGAND FREE ENERGY PREDICTED BY IDOCK:   -2.92 KCAL/MOL
REMARK 924 INTRA-LIGAND FREE ENERGY PREDICTED BY IDOCK:   -0.42 KCAL/MOL
REMARK 927      BINDING AFFINITY PREDICTED BY RF-SCORE:    0.00 PKD
ROOT
HETATM    1  C   UNL     1     -10.522  13.818  64.081  1.00  0.00     0.173 C  
HETATM    2  N   UNL     1     -10.285  13.062  65.394  1.00  0.00    -0.296 N  
HETATM    3  C   UNL     1     -11.528  13.258  66.277  1.00  0.00    -0.325 C  
HETATM    4  C   UNL     1      -9.046  13.675  66.053  1.00  0.00     0.236 C  
HETATM    5  C   UNL     1     -11.503  12.364  67.508  1.00  0.00    -0.410 C  
HETATM    6  C   UNL     1     -11.333  10.906  67.129  1.00  0.00    -0.168 C  
HETATM    7  C   UNL     1     -10.043  10.698  66.340  1.00  0.00    -0.225 C  
HETATM    8  C   UNL     1     -10.060  11.562  65.068  1.00  0.00    -0.270 C  
ENDROOT
BRANCH   7   9
HETATM    9  O   UNL     1      -9.949   9.297  66.034  1.00  0.00    -0.290 OA 
BRANCH   9  10
HETATM   10  C   UNL     1      -8.703   8.778  66.337  1.00  0.00    -0.139 C  
HETATM   11  O   UNL     1      -7.702   9.484  66.379  1.00  0.00    -0.097 OA 
HETATM   12  C   UNL     1      -8.749   7.229  66.594  1.00  0.00    -0.132 C  
HETATM   13  C   UNL     1      -7.715   6.849  67.671  1.00  0.00    -0.111 A  
HETATM   14  O   UNL     1     -10.075   6.974  67.121  1.00  0.00    -0.177 OA 
HETATM   15  C   UNL     1      -8.601   6.459  65.273  1.00  0.00    -0.051 A  
HETATM   16  H   UNL     1     -10.103   6.037  67.277  1.00  0.00     0.000 HD 
HETATM   17  C   UNL     1      -8.105   6.347  68.927  1.00  0.00    -0.111 A  
HETATM   18  C   UNL     1      -7.809   6.950  64.219  1.00  0.00    -0.104 A  
HETATM   19  C   UNL     1      -7.171   6.137  69.948  1.00  0.00    -0.074 A  
HETATM   20  C   UNL     1      -7.758   6.296  62.987  1.00  0.00    -0.093 A  
HETATM   21  C   UNL     1      -8.483   5.126  62.789  1.00  0.00    -0.113 A  
HETATM   22  C   UNL     1      -5.826   6.422  69.735  1.00  0.00    -0.018 A  
HETATM   23  C   UNL     1      -5.409   6.887  68.494  1.00  0.00    -0.016 A  
HETATM   24  C   UNL     1      -9.233   4.591  63.834  1.00  0.00    -0.095 A  
HETATM   25  C   UNL     1      -9.277   5.239  65.070  1.00  0.00     0.028 A  
HETATM   26  C   UNL     1      -6.340   7.087  67.470  1.00  0.00    -0.046 A  
ENDBRANCH   9  10
ENDBRANCH   7   9
TORSDOF 2
ENDMDL
MODEL      190
REMARK 921   NORMALIZED FREE ENERGY PREDICTED BY IDOCK:   -2.52 KCAL/MOL
REMARK 922        TOTAL FREE ENERGY PREDICTED BY IDOCK:   -3.33 KCAL/MOL
REMARK 923 INTER-LIGAND FREE ENERGY PREDICTED BY IDOCK:   -3.15 KCAL/MOL
REMARK 924 INTRA-LIGAND FREE ENERGY PREDICTED BY IDOCK:   -0.18 KCAL/MOL
REMARK 927      BINDING AFFINITY PREDICTED BY RF-SCORE:    0.00 PKD
ROOT
HETATM    1  C   UNL     1      -8.669   8.515  72.536  1.00  0.00    -0.156 C  
HETATM    2  N   UNL     1      -9.843   8.462  71.550  1.00  0.00    -0.189 N  
HETATM    3  C   UNL     1     -10.839   9.561  71.951  1.00  0.00     0.173 C  
HETATM    4  C   UNL     1     -10.481   7.075  71.678  1.00  0.00    -0.199 C  
HETATM    5  C   UNL     1     -11.930   9.754  70.907  1.00  0.00    -0.413 C  
HETATM    6  C   UNL     1     -11.342  10.030  69.538  1.00  0.00    -0.220 C  
HETATM    7  C   UNL     1     -10.433   8.885  69.098  1.00  0.00    -0.223 C  
HETATM    8  C   UNL     1      -9.297   8.694  70.117  1.00  0.00    -0.164 C  
ENDROOT
BRANCH   7   9
HETATM    9  O   UNL     1      -9.930   9.215  67.792  1.00  0.00    -0.169 OA 
BRANCH   9  10
HETATM   10  C   UNL     1      -9.646   8.087  67.041  1.00  0.00    -0.196 C  
HETATM   11  O   UNL     1     -10.525   7.310  66.686  1.00  0.00    -0.244 OA 
HETATM   12  C   UNL     1      -8.112   7.944  66.738  1.00  0.00    -0.108 C  
HETATM   13  C   UNL     1      -7.914   7.312  65.346  1.00  0.00    -0.125 A  
HETATM   14  O   UNL     1      -7.607   9.303  66.700  1.00  0.00    -0.092 OA 
HETATM   15  C   UNL     1      -7.403   7.200  67.879  1.00  0.00    -0.097 A  
HETATM   16  H   UNL     1      -6.679   9.216  66.516  1.00  0.00     0.000 HD 
HETATM   17  C   UNL     1      -7.329   8.029  64.285  1.00  0.00    -0.095 A  
HETATM   18  C   UNL     1      -8.050   6.185  68.609  1.00  0.00    -0.108 A  
HETATM   19  C   UNL     1      -7.280   7.499  62.991  1.00  0.00    -0.083 A  
HETATM   20  C   UNL     1      -7.435   5.582  69.708  1.00  0.00    -0.070 A  
HETATM   21  C   UNL     1      -6.154   5.967  70.088  1.00  0.00    -0.026 A  
HETATM   22  C   UNL     1      -7.813   6.240  62.729  1.00  0.00    -0.099 A  
HETATM   23  C   UNL     1      -8.367   5.498  63.765  1.00  0.00    -0.075 A  
HETATM   24  C   UNL     1      -5.473   6.932  69.350  1.00  0.00    -0.015 A  
HETATM   25  C   UNL     1      -6.083   7.529  68.245  1.00  0.00    -0.036 A  
HETATM   26  C   UNL     1      -8.406   6.023  65.061  1.00  0.00    -0.121 A  
ENDBRANCH   9  10
ENDBRANCH   7   9
TORSDOF 2
ENDMDL
MODEL      191
REMARK 921   NORMALIZED FREE ENERGY PREDICTED BY IDOCK:   -2.47 KCAL/MOL
REMARK 922        TOTAL FREE ENERGY PREDICTED BY IDOCK:   -3.27 KCAL/MOL
REMARK 923 INTER-LIGAND FREE ENERGY PREDICTED BY IDOCK:   -4.54 KCAL/MOL
REMARK 924 INTRA-LIGAND FREE ENERGY PREDICTED BY IDOCK:    1.27 KCAL/MOL
REMARK 927      BINDING AFFINITY PREDICTED BY RF-SCORE:    0.00 PKD
ROOT
HETATM    1  C   UNL     1      -5.771   6.490  65.401  1.00  0.00    -0.026 C  
HETATM    2  N   UNL     1      -7.288   6.319  65.263  1.00  0.00    -0.074 N  
HETATM    3  C   UNL     1      -7.647   4.913  65.767  1.00  0.00    -0.086 C  
HETATM    4  C   UNL     1      -7.628   6.469  63.777  1.00  0.00    -0.096 C  
HETATM    5  C   UNL     1      -9.151   4.716  65.894  1.00  0.00    -0.135 C  
HETATM    6  C   UNL     1      -9.776   5.781  66.772  1.00  0.00    -0.172 C  
HETATM    7  C   UNL     1      -9.505   7.174  66.209  1.00  0.00    -0.067 C  
HETATM    8  C   UNL     1      -7.989   7.414  66.108  1.00  0.00    -0.112 C  
ENDROOT
BRANCH   7   9
HETATM    9  O   UNL     1     -10.139   8.121  67.086  1.00  0.00    -0.209 OA 
BRANCH   9  10
HETATM   10  C   UNL     1      -9.229   8.773  67.899  1.00  0.00    -0.139 C  
HETATM   11  O   UNL     1      -8.064   8.400  67.993  1.00  0.00    -0.120 OA 
HETATM   12  C   UNL     1      -9.871   9.988  68.658  1.00  0.00    -0.160 C  
HETATM   13  C   UNL     1      -8.828  11.110  68.820  1.00  0.00    -0.128 A  
HETATM   14  O   UNL     1     -10.925  10.464  67.784  1.00  0.00    -0.273 OA 
HETATM   15  C   UNL     1     -10.513   9.523  69.974  1.00  0.00    -0.283 A  
HETATM   16  H   UNL     1     -11.313  11.200  68.243  1.00  0.00     0.000 HD 
HETATM   17  C   UNL     1      -8.974  12.355  68.178  1.00  0.00    -0.196 A  
HETATM   18  C   UNL     1      -9.970   8.463  70.723  1.00  0.00    -0.222 A  
HETATM   19  C   UNL     1      -7.957  13.316  68.216  1.00  0.00    -0.144 A  
HETATM   20  C   UNL     1     -10.613   7.981  71.865  1.00  0.00    -0.305 A  
HETATM   21  C   UNL     1     -11.802   8.563  72.293  1.00  0.00    -0.453 A  
HETATM   22  C   UNL     1      -6.774  13.056  68.899  1.00  0.00    -0.096 A  
HETATM   23  C   UNL     1      -6.617  11.849  69.570  1.00  0.00    -0.093 A  
HETATM   24  C   UNL     1     -12.331   9.647  71.598  1.00  0.00    -0.489 A  
HETATM   25  C   UNL     1     -11.684  10.136  70.461  1.00  0.00    -0.407 A  
HETATM   26  C   UNL     1      -7.637  10.892  69.541  1.00  0.00    -0.057 A  
ENDBRANCH   9  10
ENDBRANCH   7   9
TORSDOF 2
ENDMDL
MODEL      192
REMARK 921   NORMALIZED FREE ENERGY PREDICTED BY IDOCK:   -2.46 KCAL/MOL
REMARK 922        TOTAL FREE ENERGY PREDICTED BY IDOCK:   -3.27 KCAL/MOL
REMARK 923 INTER-LIGAND FREE ENERGY PREDICTED BY IDOCK:   -4.24 KCAL/MOL
REMARK 924 INTRA-LIGAND FREE ENERGY PREDICTED BY IDOCK:    0.97 KCAL/MOL
REMARK 927      BINDING AFFINITY PREDICTED BY RF-SCORE:    0.00 PKD
ROOT
HETATM    1  C   UNL     1     -11.153   1.958  73.032  1.00  0.00    -0.109 C  
HETATM    2  N   UNL     1      -9.976   2.941  73.043  1.00  0.00    -0.117 N  
HETATM    3  C   UNL     1      -9.179   2.731  71.746  1.00  0.00    -0.103 C  
HETATM    4  C   UNL     1      -9.119   2.609  74.269  1.00  0.00    -0.078 C  
HETATM    5  C   UNL     1      -8.124   3.808  71.541  1.00  0.00    -0.069 C  
HETATM    6  C   UNL     1      -8.735   5.195  71.582  1.00  0.00    -0.140 C  
HETATM    7  C   UNL     1      -9.437   5.438  72.915  1.00  0.00    -0.144 C  
HETATM    8  C   UNL     1     -10.537   4.385  73.130  1.00  0.00    -0.200 C  
ENDROOT
BRANCH   7   9
HETATM    9  O   UNL     1      -9.973   6.771  72.880  1.00  0.00    -0.165 OA 
BRANCH   9  10
HETATM   10  C   UNL     1      -9.791   7.377  71.649  1.00  0.00    -0.165 C  
HETATM   11  O   UNL     1      -8.723   7.890  71.334  1.00  0.00    -0.120 OA 
HETATM   12  C   UNL     1     -11.087   7.329  70.764  1.00  0.00    -0.266 C  
HETATM   13  C   UNL     1     -10.698   7.188  69.280  1.00  0.00    -0.231 A  
HETATM   14  O   UNL     1     -11.778   6.122  71.173  1.00  0.00    -0.282 OA 
HETATM   15  C   UNL     1     -11.994   8.529  71.071  1.00  0.00    -0.260 A  
HETATM   16  H   UNL     1     -12.562   6.093  70.637  1.00  0.00     0.000 HD 
HETATM   17  C   UNL     1     -11.012   6.033  68.539  1.00  0.00    -0.350 A  
HETATM   18  C   UNL     1     -11.462   9.782  71.430  1.00  0.00    -0.435 A  
HETATM   19  C   UNL     1     -10.534   5.854  67.236  1.00  0.00    -0.325 A  
HETATM   20  C   UNL     1     -12.292  10.840  71.804  1.00  0.00    -0.163 A  
HETATM   21  C   UNL     1     -13.673  10.674  71.807  1.00  0.00    -0.014 A  
HETATM   22  C   UNL     1      -9.735   6.826  66.643  1.00  0.00    -0.213 A  
HETATM   23  C   UNL     1      -9.438   7.991  67.340  1.00  0.00    -0.187 A  
HETATM   24  C   UNL     1     -14.226   9.461  71.405  1.00  0.00    -0.003 A  
HETATM   25  C   UNL     1     -13.397   8.405  71.022  1.00  0.00     0.096 A  
HETATM   26  C   UNL     1      -9.923   8.175  68.638  1.00  0.00    -0.201 A  
ENDBRANCH   9  10
ENDBRANCH   7   9
TORSDOF 2
ENDMDL
MODEL      193
REMARK 921   NORMALIZED FREE ENERGY PREDICTED BY IDOCK:   -2.45 KCAL/MOL
REMARK 922        TOTAL FREE ENERGY PREDICTED BY IDOCK:   -3.26 KCAL/MOL
REMARK 923 INTER-LIGAND FREE ENERGY PREDICTED BY IDOCK:   -3.50 KCAL/MOL
REMARK 924 INTRA-LIGAND FREE ENERGY PREDICTED BY IDOCK:    0.24 KCAL/MOL
REMARK 927      BINDING AFFINITY PREDICTED BY RF-SCORE:    0.00 PKD
ROOT
HETATM    1  C   UNL     1     -11.114   7.285  73.205  1.00  0.00    -0.292 C  
HETATM    2  N   UNL     1     -11.487   7.716  71.781  1.00  0.00    -0.256 N  
HETATM    3  C   UNL     1     -10.908   9.120  71.551  1.00  0.00    -0.366 C  
HETATM    4  C   UNL     1     -13.017   7.737  71.700  1.00  0.00    -0.345 C  
HETATM    5  C   UNL     1     -11.017   9.554  70.097  1.00  0.00    -0.302 C  
HETATM    6  C   UNL     1     -10.371   8.544  69.169  1.00  0.00    -0.227 C  
HETATM    7  C   UNL     1     -11.021   7.172  69.326  1.00  0.00    -0.136 C  
HETATM    8  C   UNL     1     -10.890   6.692  70.781  1.00  0.00    -0.252 C  
ENDROOT
BRANCH   7   9
HETATM    9  O   UNL     1     -10.367   6.280  68.408  1.00  0.00    -0.161 OA 
BRANCH   9  10
HETATM   10  C   UNL     1      -9.475   5.435  69.045  1.00  0.00    -0.133 C  
HETATM   11  O   UNL     1      -9.852   4.573  69.831  1.00  0.00    -0.203 OA 
HETATM   12  C   UNL     1      -7.985   5.731  68.647  1.00  0.00    -0.101 C  
HETATM   13  C   UNL     1      -7.182   4.416  68.624  1.00  0.00    -0.056 A  
HETATM   14  O   UNL     1      -8.052   6.251  67.295  1.00  0.00    -0.108 OA 
HETATM   15  C   UNL     1      -7.392   6.821  69.551  1.00  0.00    -0.091 A  
HETATM   16  H   UNL     1      -7.151   6.429  67.054  1.00  0.00     0.000 HD 
HETATM   17  C   UNL     1      -6.648   3.896  67.429  1.00  0.00    -0.046 A  
HETATM   18  C   UNL     1      -7.774   6.946  70.900  1.00  0.00    -0.092 A  
HETATM   19  C   UNL     1      -6.042   2.635  67.393  1.00  0.00    -0.027 A  
HETATM   20  C   UNL     1      -7.306   7.999  71.689  1.00  0.00    -0.078 A  
HETATM   21  C   UNL     1      -6.431   8.936  71.152  1.00  0.00    -0.066 A  
HETATM   22  C   UNL     1      -5.955   1.867  68.549  1.00  0.00    -0.024 A  
HETATM   23  C   UNL     1      -6.445   2.369  69.749  1.00  0.00    -0.029 A  
HETATM   24  C   UNL     1      -5.997   8.804  69.835  1.00  0.00    -0.031 A  
HETATM   25  C   UNL     1      -6.457   7.747  69.047  1.00  0.00    -0.037 A  
HETATM   26  C   UNL     1      -7.040   3.634  69.788  1.00  0.00    -0.042 A  
ENDBRANCH   9  10
ENDBRANCH   7   9
TORSDOF 2
ENDMDL
MODEL      194
REMARK 921   NORMALIZED FREE ENERGY PREDICTED BY IDOCK:   -2.40 KCAL/MOL
REMARK 922        TOTAL FREE ENERGY PREDICTED BY IDOCK:   -3.20 KCAL/MOL
REMARK 923 INTER-LIGAND FREE ENERGY PREDICTED BY IDOCK:   -3.77 KCAL/MOL
REMARK 924 INTRA-LIGAND FREE ENERGY PREDICTED BY IDOCK:    0.57 KCAL/MOL
REMARK 927      BINDING AFFINITY PREDICTED BY RF-SCORE:    0.00 PKD
ROOT
HETATM    1  C   UNL     1      -9.888   6.149  72.927  1.00  0.00    -0.167 C  
HETATM    2  N   UNL     1     -10.713   6.874  71.857  1.00  0.00    -0.216 N  
HETATM    3  C   UNL     1     -10.717   8.371  72.206  1.00  0.00    -0.347 C  
HETATM    4  C   UNL     1     -12.132   6.298  71.910  1.00  0.00    -0.255 C  
HETATM    5  C   UNL     1     -11.310   9.218  71.089  1.00  0.00    -0.412 C  
HETATM    6  C   UNL     1     -10.601   8.971  69.773  1.00  0.00    -0.236 C  
HETATM    7  C   UNL     1     -10.689   7.500  69.378  1.00  0.00    -0.193 C  
HETATM    8  C   UNL     1     -10.060   6.623  70.473  1.00  0.00    -0.187 C  
ENDROOT
BRANCH   7   9
HETATM    9  O   UNL     1     -10.010   7.352  68.119  1.00  0.00    -0.155 OA 
BRANCH   9  10
HETATM   10  C   UNL     1      -9.533   8.559  67.638  1.00  0.00    -0.145 C  
HETATM   11  O   UNL     1     -10.284   9.416  67.185  1.00  0.00    -0.218 OA 
HETATM   12  C   UNL     1      -7.969   8.663  67.734  1.00  0.00    -0.107 C  
HETATM   13  C   UNL     1      -7.562  10.121  68.025  1.00  0.00    -0.088 A  
HETATM   14  O   UNL     1      -7.607   7.850  68.879  1.00  0.00    -0.096 OA 
HETATM   15  C   UNL     1      -7.310   8.057  66.487  1.00  0.00    -0.084 A  
HETATM   16  H   UNL     1      -6.661   7.913  68.938  1.00  0.00     0.000 HD 
HETATM   17  C   UNL     1      -6.947  10.490  69.236  1.00  0.00    -0.086 A  
HETATM   18  C   UNL     1      -7.920   8.135  65.221  1.00  0.00    -0.126 A  
HETATM   19  C   UNL     1      -6.708  11.833  69.550  1.00  0.00    -0.067 A  
HETATM   20  C   UNL     1      -7.364   7.496  64.111  1.00  0.00    -0.091 A  
HETATM   21  C   UNL     1      -6.177   6.784  64.239  1.00  0.00    -0.035 A  
HETATM   22  C   UNL     1      -7.076  12.836  68.659  1.00  0.00    -0.100 A  
HETATM   23  C   UNL     1      -7.655  12.498  67.442  1.00  0.00    -0.156 A  
HETATM   24  C   UNL     1      -5.527   6.736  65.469  1.00  0.00    -0.026 A  
HETATM   25  C   UNL     1      -6.076   7.382  66.579  1.00  0.00    -0.040 A  
HETATM   26  C   UNL     1      -7.884  11.155  67.123  1.00  0.00    -0.139 A  
ENDBRANCH   9  10
ENDBRANCH   7   9
TORSDOF 2
ENDMDL
MODEL      195
REMARK 921   NORMALIZED FREE ENERGY PREDICTED BY IDOCK:   -2.38 KCAL/MOL
REMARK 922        TOTAL FREE ENERGY PREDICTED BY IDOCK:   -3.17 KCAL/MOL
REMARK 923 INTER-LIGAND FREE ENERGY PREDICTED BY IDOCK:   -4.13 KCAL/MOL
REMARK 924 INTRA-LIGAND FREE ENERGY PREDICTED BY IDOCK:    0.96 KCAL/MOL
REMARK 927      BINDING AFFINITY PREDICTED BY RF-SCORE:    0.00 PKD
ROOT
HETATM    1  C   UNL     1      -6.101   9.683  64.739  1.00  0.00    -0.085 C  
HETATM    2  N   UNL     1      -7.348   8.793  64.656  1.00  0.00    -0.095 N  
HETATM    3  C   UNL     1      -6.875   7.337  64.533  1.00  0.00    -0.050 C  
HETATM    4  C   UNL     1      -8.128   9.221  63.409  1.00  0.00    -0.161 C  
HETATM    5  C   UNL     1      -8.023   6.348  64.676  1.00  0.00    -0.118 C  
HETATM    6  C   UNL     1      -8.780   6.563  65.971  1.00  0.00    -0.155 C  
HETATM    7  C   UNL     1      -9.337   7.982  66.043  1.00  0.00    -0.091 C  
HETATM    8  C   UNL     1      -8.192   9.003  65.941  1.00  0.00    -0.117 C  
ENDROOT
BRANCH   7   9
HETATM    9  O   UNL     1     -10.049   8.100  67.287  1.00  0.00    -0.192 OA 
BRANCH   9  10
HETATM   10  C   UNL     1      -9.677   7.126  68.197  1.00  0.00    -0.139 C  
HETATM   11  O   UNL     1      -9.655   5.938  67.898  1.00  0.00    -0.113 OA 
HETATM   12  C   UNL     1      -9.321   7.730  69.602  1.00  0.00    -0.153 C  
HETATM   13  C   UNL     1      -8.192   6.905  70.251  1.00  0.00    -0.129 A  
HETATM   14  O   UNL     1      -8.815   9.059  69.324  1.00  0.00    -0.135 OA 
HETATM   15  C   UNL     1     -10.583   7.867  70.466  1.00  0.00    -0.223 A  
HETATM   16  H   UNL     1      -8.598   9.424  70.174  1.00  0.00     0.000 HD 
HETATM   17  C   UNL     1      -6.917   7.453  70.487  1.00  0.00    -0.053 A  
HETATM   18  C   UNL     1     -11.644   6.949  70.370  1.00  0.00    -0.385 A  
HETATM   19  C   UNL     1      -5.859   6.660  70.945  1.00  0.00    -0.027 A  
HETATM   20  C   UNL     1     -12.828   7.135  71.086  1.00  0.00    -0.340 A  
HETATM   21  C   UNL     1     -12.968   8.233  71.927  1.00  0.00    -0.371 A  
HETATM   22  C   UNL     1      -6.052   5.302  71.181  1.00  0.00    -0.022 A  
HETATM   23  C   UNL     1      -7.309   4.742  70.987  1.00  0.00    -0.060 A  
HETATM   24  C   UNL     1     -11.912   9.128  72.079  1.00  0.00    -0.421 A  
HETATM   25  C   UNL     1     -10.724   8.938  71.372  1.00  0.00    -0.382 A  
HETATM   26  C   UNL     1      -8.370   5.537  70.539  1.00  0.00    -0.116 A  
ENDBRANCH   9  10
ENDBRANCH   7   9
TORSDOF 2
ENDMDL
MODEL      196
REMARK 921   NORMALIZED FREE ENERGY PREDICTED BY IDOCK:   -2.19 KCAL/MOL
REMARK 922        TOTAL FREE ENERGY PREDICTED BY IDOCK:   -2.97 KCAL/MOL
REMARK 923 INTER-LIGAND FREE ENERGY PREDICTED BY IDOCK:   -3.91 KCAL/MOL
REMARK 924 INTRA-LIGAND FREE ENERGY PREDICTED BY IDOCK:    0.94 KCAL/MOL
REMARK 927      BINDING AFFINITY PREDICTED BY RF-SCORE:    0.00 PKD
ROOT
HETATM    1  C   UNL     1     -10.378  15.538  69.747  1.00  0.00    -0.309 C  
HETATM    2  N   UNL     1     -11.404  14.869  68.824  1.00  0.00    -0.272 N  
HETATM    3  C   UNL     1     -10.967  15.127  67.374  1.00  0.00    -0.314 C  
HETATM    4  C   UNL     1     -12.762  15.519  69.110  1.00  0.00     0.485 C  
HETATM    5  C   UNL     1     -11.782  14.315  66.377  1.00  0.00    -0.403 C  
HETATM    6  C   UNL     1     -11.735  12.835  66.700  1.00  0.00    -0.459 C  
HETATM    7  C   UNL     1     -12.268  12.571  68.106  1.00  0.00     0.161 C  
HETATM    8  C   UNL     1     -11.436  13.350  69.139  1.00  0.00    -0.300 C  
ENDROOT
BRANCH   7   9
HETATM    9  O   UNL     1     -12.204  11.152  68.329  1.00  0.00    -0.613 OA 
BRANCH   9  10
HETATM   10  C   UNL     1     -11.242  10.812  69.264  1.00  0.00    -0.272 C  
HETATM   11  O   UNL     1     -11.398  11.031  70.460  1.00  0.00    -0.253 OA 
HETATM   12  C   UNL     1      -9.979  10.151  68.605  1.00  0.00    -0.170 C  
HETATM   13  C   UNL     1      -9.393   9.089  69.555  1.00  0.00    -0.160 A  
HETATM   14  O   UNL     1     -10.479   9.481  67.420  1.00  0.00    -0.244 OA 
HETATM   15  C   UNL     1      -8.977  11.227  68.161  1.00  0.00    -0.166 A  
HETATM   16  H   UNL     1      -9.715   9.081  67.022  1.00  0.00     0.000 HD 
HETATM   17  C   UNL     1      -9.396   7.720  69.226  1.00  0.00    -0.148 A  
HETATM   18  C   UNL     1      -8.820  12.428  68.879  1.00  0.00     0.292 A  
HETATM   19  C   UNL     1      -8.992   6.749  70.150  1.00  0.00    -0.149 A  
HETATM   20  C   UNL     1      -7.981  13.442  68.416  1.00  0.00    -0.139 A  
HETATM   21  C   UNL     1      -7.265  13.270  67.236  1.00  0.00    -0.033 A  
HETATM   22  C   UNL     1      -8.572   7.126  71.422  1.00  0.00    -0.116 A  
HETATM   23  C   UNL     1      -8.528   8.473  71.762  1.00  0.00    -0.236 A  
HETATM   24  C   UNL     1      -7.363  12.070  66.536  1.00  0.00     0.246 A  
HETATM   25  C   UNL     1      -8.195  11.051  67.003  1.00  0.00    -0.138 A  
HETATM   26  C   UNL     1      -8.923   9.443  70.835  1.00  0.00    -0.198 A  
ENDBRANCH   9  10
ENDBRANCH   7   9
TORSDOF 2
ENDMDL
MODEL      197
REMARK 921   NORMALIZED FREE ENERGY PREDICTED BY IDOCK:   -2.19 KCAL/MOL
REMARK 922        TOTAL FREE ENERGY PREDICTED BY IDOCK:   -2.96 KCAL/MOL
REMARK 923 INTER-LIGAND FREE ENERGY PREDICTED BY IDOCK:   -4.30 KCAL/MOL
REMARK 924 INTRA-LIGAND FREE ENERGY PREDICTED BY IDOCK:    1.34 KCAL/MOL
REMARK 927      BINDING AFFINITY PREDICTED BY RF-SCORE:    0.00 PKD
ROOT
HETATM    1  C   UNL     1      -5.440  11.563  68.980  1.00  0.00    -0.046 C  
HETATM    2  N   UNL     1      -6.740  12.176  68.446  1.00  0.00    -0.058 N  
HETATM    3  C   UNL     1      -7.867  11.158  68.677  1.00  0.00    -0.138 C  
HETATM    4  C   UNL     1      -6.537  12.435  66.949  1.00  0.00     0.154 C  
HETATM    5  C   UNL     1      -9.241  11.749  68.396  1.00  0.00    -0.175 C  
HETATM    6  C   UNL     1      -9.476  13.008  69.207  1.00  0.00     0.823 C  
HETATM    7  C   UNL     1      -8.412  14.058  68.896  1.00  0.00     0.046 C  
HETATM    8  C   UNL     1      -7.014  13.499  69.209  1.00  0.00    -0.008 C  
ENDROOT
BRANCH   7   9
HETATM    9  O   UNL     1      -8.712  15.220  69.688  1.00  0.00    -0.235 OA 
BRANCH   9  10
HETATM   10  C   UNL     1      -9.548  16.103  69.026  1.00  0.00    -0.251 C  
HETATM   11  O   UNL     1     -10.425  16.725  69.613  1.00  0.00    -0.291 OA 
HETATM   12  C   UNL     1      -9.236  16.178  67.489  1.00  0.00    -0.208 C  
HETATM   13  C   UNL     1      -9.489  17.609  66.977  1.00  0.00    -0.266 A  
HETATM   14  O   UNL     1      -7.819  15.894  67.377  1.00  0.00    -0.141 OA 
HETATM   15  C   UNL     1     -10.005  15.088  66.728  1.00  0.00    -0.254 A  
HETATM   16  H   UNL     1      -7.630  15.941  66.447  1.00  0.00     0.000 HD 
HETATM   17  C   UNL     1      -8.441  18.421  66.502  1.00  0.00    -0.287 A  
HETATM   18  C   UNL     1     -11.280  14.660  67.144  1.00  0.00    -0.349 A  
HETATM   19  C   UNL     1      -8.654  19.764  66.171  1.00  0.00    -0.367 A  
HETATM   20  C   UNL     1     -11.930  13.601  66.508  1.00  0.00    -0.465 A  
HETATM   21  C   UNL     1     -11.328  12.960  65.431  1.00  0.00    -0.336 A  
HETATM   22  C   UNL     1      -9.921  20.324  66.305  1.00  0.00    -0.474 A  
HETATM   23  C   UNL     1     -10.980  19.537  66.740  1.00  0.00    -0.391 A  
HETATM   24  C   UNL     1     -10.090  13.399  64.968  1.00  0.00    -0.261 A  
HETATM   25  C   UNL     1      -9.443  14.464  65.597  1.00  0.00    -0.045 A  
HETATM   26  C   UNL     1     -10.769  18.192  67.060  1.00  0.00    -0.274 A  
ENDBRANCH   9  10
ENDBRANCH   7   9
TORSDOF 2
ENDMDL
MODEL      198
REMARK 921   NORMALIZED FREE ENERGY PREDICTED BY IDOCK:   -2.17 KCAL/MOL
REMARK 922        TOTAL FREE ENERGY PREDICTED BY IDOCK:   -2.94 KCAL/MOL
REMARK 923 INTER-LIGAND FREE ENERGY PREDICTED BY IDOCK:   -3.70 KCAL/MOL
REMARK 924 INTRA-LIGAND FREE ENERGY PREDICTED BY IDOCK:    0.75 KCAL/MOL
REMARK 927      BINDING AFFINITY PREDICTED BY RF-SCORE:    0.00 PKD
ROOT
HETATM    1  C   UNL     1     -10.116   6.168  71.120  1.00  0.00    -0.190 C  
HETATM    2  N   UNL     1      -9.706   6.773  69.771  1.00  0.00    -0.157 N  
HETATM    3  C   UNL     1     -10.988   7.021  68.962  1.00  0.00    -0.130 C  
HETATM    4  C   UNL     1      -8.808   5.749  69.070  1.00  0.00    -0.111 C  
HETATM    5  C   UNL     1     -10.723   7.831  67.701  1.00  0.00    -0.227 C  
HETATM    6  C   UNL     1     -10.024   9.137  68.021  1.00  0.00    -0.213 C  
HETATM    7  C   UNL     1      -8.699   8.882  68.734  1.00  0.00    -0.137 C  
HETATM    8  C   UNL     1      -8.943   8.097  70.033  1.00  0.00    -0.143 C  
ENDROOT
BRANCH   7   9
HETATM    9  O   UNL     1      -8.095  10.162  68.987  1.00  0.00    -0.106 OA 
BRANCH   9  10
HETATM   10  C   UNL     1      -8.668  11.169  68.232  1.00  0.00    -0.151 C  
HETATM   11  O   UNL     1      -9.831  11.519  68.398  1.00  0.00    -0.193 OA 
HETATM   12  C   UNL     1      -7.671  11.761  67.173  1.00  0.00    -0.162 C  
HETATM   13  C   UNL     1      -7.943  13.267  66.988  1.00  0.00     0.013 A  
HETATM   14  O   UNL     1      -6.356  11.603  67.764  1.00  0.00    -0.058 OA 
HETATM   15  C   UNL     1      -7.715  10.944  65.874  1.00  0.00    -0.073 A  
HETATM   16  H   UNL     1      -5.753  11.961  67.123  1.00  0.00     0.000 HD 
HETATM   17  C   UNL     1      -6.999  14.241  67.366  1.00  0.00    -0.077 A  
HETATM   18  C   UNL     1      -8.904  10.340  65.425  1.00  0.00    -0.192 A  
HETATM   19  C   UNL     1      -7.308  15.606  67.325  1.00  0.00    -0.255 A  
HETATM   20  C   UNL     1      -8.916   9.517  64.297  1.00  0.00    -0.248 A  
HETATM   21  C   UNL     1      -7.743   9.297  63.583  1.00  0.00    -0.116 A  
HETATM   22  C   UNL     1      -8.565  16.027  66.902  1.00  0.00    -0.263 A  
HETATM   23  C   UNL     1      -9.504  15.088  66.492  1.00  0.00    -0.306 A  
HETATM   24  C   UNL     1      -6.564   9.925  63.977  1.00  0.00    -0.127 A  
HETATM   25  C   UNL     1      -6.553  10.756  65.099  1.00  0.00     0.132 A  
HETATM   26  C   UNL     1      -9.192  13.724  66.523  1.00  0.00    -0.210 A  
ENDBRANCH   9  10
ENDBRANCH   7   9
TORSDOF 2
ENDMDL
MODEL      199
REMARK 921   NORMALIZED FREE ENERGY PREDICTED BY IDOCK:   -2.06 KCAL/MOL
REMARK 922        TOTAL FREE ENERGY PREDICTED BY IDOCK:   -2.82 KCAL/MOL
REMARK 923 INTER-LIGAND FREE ENERGY PREDICTED BY IDOCK:   -4.45 KCAL/MOL
REMARK 924 INTRA-LIGAND FREE ENERGY PREDICTED BY IDOCK:    1.63 KCAL/MOL
REMARK 927      BINDING AFFINITY PREDICTED BY RF-SCORE:    0.00 PKD
ROOT
HETATM    1  C   UNL     1      -8.890   5.579  68.794  1.00  0.00    -0.107 C  
HETATM    2  N   UNL     1      -8.148   6.676  68.020  1.00  0.00    -0.110 N  
HETATM    3  C   UNL     1      -8.540   6.551  66.540  1.00  0.00    -0.123 C  
HETATM    4  C   UNL     1      -6.648   6.429  68.210  1.00  0.00    -0.066 C  
HETATM    5  C   UNL     1      -8.046   7.730  65.714  1.00  0.00    -0.125 C  
HETATM    6  C   UNL     1      -8.524   9.047  66.291  1.00  0.00    -0.132 C  
HETATM    7  C   UNL     1      -8.044   9.215  67.730  1.00  0.00    -0.105 C  
HETATM    8  C   UNL     1      -8.563   8.055  68.596  1.00  0.00    -0.128 C  
ENDROOT
BRANCH   7   9
HETATM    9  O   UNL     1      -8.523  10.487  68.196  1.00  0.00    -0.117 OA 
BRANCH   9  10
HETATM   10  C   UNL     1      -8.857  11.334  67.154  1.00  0.00    -0.153 C  
HETATM   11  O   UNL     1      -8.662  11.026  65.984  1.00  0.00    -0.181 OA 
HETATM   12  C   UNL     1      -9.478  12.685  67.660  1.00  0.00    -0.189 C  
HETATM   13  C   UNL     1     -10.543  13.175  66.660  1.00  0.00    -0.284 A  
HETATM   14  O   UNL     1     -10.139  12.353  68.907  1.00  0.00    -0.411 OA 
HETATM   15  C   UNL     1      -8.373  13.708  67.960  1.00  0.00    -0.170 A  
HETATM   16  H   UNL     1     -10.515  13.170  69.213  1.00  0.00     0.000 HD 
HETATM   17  C   UNL     1     -11.906  13.246  67.006  1.00  0.00    -0.442 A  
HETATM   18  C   UNL     1      -7.181  13.745  67.212  1.00  0.00     0.016 A  
HETATM   19  C   UNL     1     -12.883  13.556  66.053  1.00  0.00    -0.169 A  
HETATM   20  C   UNL     1      -6.140  14.610  67.553  1.00  0.00     0.032 A  
HETATM   21  C   UNL     1      -6.276  15.471  68.637  1.00  0.00    -0.096 A  
HETATM   22  C   UNL     1     -12.519  13.805  64.734  1.00  0.00    -0.386 A  
HETATM   23  C   UNL     1     -11.178  13.774  64.372  1.00  0.00    -0.364 A  
HETATM   24  C   UNL     1      -7.466  15.490  69.361  1.00  0.00    -0.219 A  
HETATM   25  C   UNL     1      -8.511  14.632  69.015  1.00  0.00    -0.095 A  
HETATM   26  C   UNL     1     -10.200  13.474  65.326  1.00  0.00    -0.323 A  
ENDBRANCH   9  10
ENDBRANCH   7   9
TORSDOF 2
ENDMDL
MODEL      200
REMARK 921   NORMALIZED FREE ENERGY PREDICTED BY IDOCK:   -2.06 KCAL/MOL
REMARK 922        TOTAL FREE ENERGY PREDICTED BY IDOCK:   -2.82 KCAL/MOL
REMARK 923 INTER-LIGAND FREE ENERGY PREDICTED BY IDOCK:   -3.04 KCAL/MOL
REMARK 924 INTRA-LIGAND FREE ENERGY PREDICTED BY IDOCK:    0.22 KCAL/MOL
REMARK 927      BINDING AFFINITY PREDICTED BY RF-SCORE:    0.00 PKD
ROOT
HETATM    1  C   UNL     1      -8.429   9.965  63.826  1.00  0.00    -0.181 C  
HETATM    2  N   UNL     1      -7.708   8.632  63.593  1.00  0.00    -0.128 N  
HETATM    3  C   UNL     1      -6.215   8.937  63.391  1.00  0.00    -0.089 C  
HETATM    4  C   UNL     1      -8.311   8.004  62.333  1.00  0.00    -0.122 C  
HETATM    5  C   UNL     1      -5.368   7.673  63.382  1.00  0.00    -0.038 C  
HETATM    6  C   UNL     1      -5.587   6.852  64.637  1.00  0.00    -0.032 C  
HETATM    7  C   UNL     1      -7.056   6.462  64.779  1.00  0.00    -0.057 C  
HETATM    8  C   UNL     1      -7.933   7.725  64.831  1.00  0.00    -0.139 C  
ENDROOT
BRANCH   7   9
HETATM    9  O   UNL     1      -7.178   5.678  65.978  1.00  0.00    -0.070 OA 
BRANCH   9  10
HETATM   10  C   UNL     1      -7.291   6.466  67.110  1.00  0.00    -0.083 C  
HETATM   11  O   UNL     1      -6.445   7.303  67.401  1.00  0.00    -0.054 OA 
HETATM   12  C   UNL     1      -8.587   6.141  67.935  1.00  0.00    -0.114 C  
HETATM   13  C   UNL     1      -9.126   7.430  68.585  1.00  0.00    -0.134 A  
HETATM   14  O   UNL     1      -9.553   5.683  66.955  1.00  0.00    -0.124 OA 
HETATM   15  C   UNL     1      -8.325   4.994  68.922  1.00  0.00    -0.083 A  
HETATM   16  H   UNL     1     -10.337   5.487  67.454  1.00  0.00     0.000 HD 
HETATM   17  C   UNL     1     -10.366   7.984  68.212  1.00  0.00    -0.240 A  
HETATM   18  C   UNL     1      -7.069   4.821  69.532  1.00  0.00    -0.054 A  
HETATM   19  C   UNL     1     -10.783   9.226  68.704  1.00  0.00    -0.180 A  
HETATM   20  C   UNL     1      -6.808   3.721  70.351  1.00  0.00    -0.034 A  
HETATM   21  C   UNL     1      -7.803   2.781  70.592  1.00  0.00    -0.045 A  
HETATM   22  C   UNL     1      -9.973   9.940  69.582  1.00  0.00    -0.255 A  
HETATM   23  C   UNL     1      -8.760   9.400  69.992  1.00  0.00    -0.227 A  
HETATM   24  C   UNL     1      -9.070   2.957  70.042  1.00  0.00    -0.193 A  
HETATM   25  C   UNL     1      -9.336   4.062  69.231  1.00  0.00    -0.238 A  
HETATM   26  C   UNL     1      -8.347   8.154  69.509  1.00  0.00    -0.122 A  
ENDBRANCH   9  10
ENDBRANCH   7   9
TORSDOF 2
ENDMDL
MODEL      201
REMARK 921   NORMALIZED FREE ENERGY PREDICTED BY IDOCK:   -1.78 KCAL/MOL
REMARK 922        TOTAL FREE ENERGY PREDICTED BY IDOCK:   -2.51 KCAL/MOL
REMARK 923 INTER-LIGAND FREE ENERGY PREDICTED BY IDOCK:   -2.32 KCAL/MOL
REMARK 924 INTRA-LIGAND FREE ENERGY PREDICTED BY IDOCK:   -0.19 KCAL/MOL
REMARK 927      BINDING AFFINITY PREDICTED BY RF-SCORE:    0.00 PKD
ROOT
HETATM    1  C   UNL     1     -11.209  13.351  65.058  1.00  0.00    -0.317 C  
HETATM    2  N   UNL     1     -10.734  12.750  66.387  1.00  0.00    -0.259 N  
HETATM    3  C   UNL     1     -11.805  13.053  67.446  1.00  0.00    -0.357 C  
HETATM    4  C   UNL     1      -9.407  13.428  66.742  1.00  0.00    -0.256 C  
HETATM    5  C   UNL     1     -11.551  12.307  68.748  1.00  0.00    -0.380 C  
HETATM    6  C   UNL     1     -11.429  10.814  68.514  1.00  0.00    -0.362 C  
HETATM    7  C   UNL     1     -10.294  10.510  67.539  1.00  0.00    -0.223 C  
HETATM    8  C   UNL     1     -10.547  11.221  66.200  1.00  0.00    -0.258 C  
ENDROOT
BRANCH   7   9
HETATM    9  O   UNL     1     -10.235   9.082  67.384  1.00  0.00    -0.209 OA 
BRANCH   9  10
HETATM   10  C   UNL     1      -9.571   8.468  68.432  1.00  0.00    -0.147 C  
HETATM   11  O   UNL     1     -10.169   8.032  69.408  1.00  0.00    -0.200 OA 
HETATM   12  C   UNL     1      -8.017   8.427  68.209  1.00  0.00    -0.119 C  
HETATM   13  C   UNL     1      -7.439   7.134  68.817  1.00  0.00    -0.102 A  
HETATM   14  O   UNL     1      -7.843   8.375  66.771  1.00  0.00    -0.093 OA 
HETATM   15  C   UNL     1      -7.363   9.717  68.726  1.00  0.00    -0.074 A  
HETATM   16  H   UNL     1      -6.903   8.349  66.637  1.00  0.00     0.000 HD 
HETATM   17  C   UNL     1      -6.861   6.133  68.013  1.00  0.00    -0.067 A  
HETATM   18  C   UNL     1      -7.872  10.404  69.844  1.00  0.00    -0.050 A  
HETATM   19  C   UNL     1      -6.467   4.904  68.555  1.00  0.00    -0.037 A  
HETATM   20  C   UNL     1      -7.335  11.627  70.247  1.00  0.00     1.626 A  
HETATM   21  C   UNL     1      -6.264  12.181  69.553  1.00  0.00    -0.124 A  
HETATM   22  C   UNL     1      -6.638   4.650  69.912  1.00  0.00    -0.036 A  
HETATM   23  C   UNL     1      -7.175   5.633  70.734  1.00  0.00    -0.079 A  
HETATM   24  C   UNL     1      -5.709  11.495  68.476  1.00  0.00    -0.042 A  
HETATM   25  C   UNL     1      -6.240  10.267  68.077  1.00  0.00    -0.056 A  
HETATM   26  C   UNL     1      -7.560   6.865  70.195  1.00  0.00    -0.099 A  
ENDBRANCH   9  10
ENDBRANCH   7   9
TORSDOF 2
ENDMDL
MODEL      202
REMARK 921   NORMALIZED FREE ENERGY PREDICTED BY IDOCK:   -1.59 KCAL/MOL
REMARK 922        TOTAL FREE ENERGY PREDICTED BY IDOCK:   -2.30 KCAL/MOL
REMARK 923 INTER-LIGAND FREE ENERGY PREDICTED BY IDOCK:   -3.61 KCAL/MOL
REMARK 924 INTRA-LIGAND FREE ENERGY PREDICTED BY IDOCK:    1.31 KCAL/MOL
REMARK 927      BINDING AFFINITY PREDICTED BY RF-SCORE:    0.00 PKD
ROOT
HETATM    1  C   UNL     1     -11.142  16.657  65.870  1.00  0.00     0.210 C  
HETATM    2  N   UNL     1     -11.324  15.278  65.226  1.00  0.00    -0.317 N  
HETATM    3  C   UNL     1      -9.941  14.793  64.763  1.00  0.00     0.135 C  
HETATM    4  C   UNL     1     -12.268  15.455  64.033  1.00  0.00     0.051 C  
HETATM    5  C   UNL     1      -9.963  13.338  64.318  1.00  0.00     0.085 C  
HETATM    6  C   UNL     1     -10.516  12.437  65.404  1.00  0.00    -0.306 C  
HETATM    7  C   UNL     1     -11.932  12.858  65.788  1.00  0.00    -0.443 C  
HETATM    8  C   UNL     1     -11.931  14.315  66.280  1.00  0.00    -0.412 C  
ENDROOT
BRANCH   7   9
HETATM    9  O   UNL     1     -12.388  11.951  66.806  1.00  0.00    -0.229 OA 
BRANCH   9  10
HETATM   10  C   UNL     1     -11.342  11.278  67.414  1.00  0.00    -0.276 C  
HETATM   11  O   UNL     1     -10.851  10.268  66.922  1.00  0.00    -0.220 OA 
HETATM   12  C   UNL     1     -10.905  11.952  68.764  1.00  0.00    -0.231 C  
HETATM   13  C   UNL     1      -9.384  11.794  68.955  1.00  0.00     0.194 A  
HETATM   14  O   UNL     1     -11.202  13.361  68.595  1.00  0.00    -0.240 OA 
HETATM   15  C   UNL     1     -11.750  11.419  69.930  1.00  0.00    -0.424 A  
HETATM   16  H   UNL     1     -10.937  13.768  69.411  1.00  0.00     0.000 HD 
HETATM   17  C   UNL     1      -8.518  12.904  68.949  1.00  0.00     0.294 A  
HETATM   18  C   UNL     1     -12.221  10.093  69.953  1.00  0.00    -0.050 A  
HETATM   19  C   UNL     1      -7.129  12.742  68.983  1.00  0.00    -0.025 A  
HETATM   20  C   UNL     1     -13.070   9.645  70.966  1.00  0.00    -0.310 A  
HETATM   21  C   UNL     1     -13.450  10.507  71.989  1.00  0.00    -0.330 A  
HETATM   22  C   UNL     1      -6.574  11.467  69.027  1.00  0.00    -0.086 A  
HETATM   23  C   UNL     1      -7.406  10.355  69.067  1.00  0.00    -0.097 A  
HETATM   24  C   UNL     1     -12.955  11.809  72.017  1.00  0.00    -0.370 A  
HETATM   25  C   UNL     1     -12.098  12.256  71.009  1.00  0.00    -0.037 A  
HETATM   26  C   UNL     1      -8.795  10.517  69.044  1.00  0.00    -0.174 A  
ENDBRANCH   9  10
ENDBRANCH   7   9
TORSDOF 2
ENDMDL
MODEL      203
REMARK 921   NORMALIZED FREE ENERGY PREDICTED BY IDOCK:   -1.42 KCAL/MOL
REMARK 922        TOTAL FREE ENERGY PREDICTED BY IDOCK:   -2.10 KCAL/MOL
REMARK 923 INTER-LIGAND FREE ENERGY PREDICTED BY IDOCK:   -5.09 KCAL/MOL
REMARK 924 INTRA-LIGAND FREE ENERGY PREDICTED BY IDOCK:    2.99 KCAL/MOL
REMARK 927      BINDING AFFINITY PREDICTED BY RF-SCORE:    0.00 PKD
ROOT
HETATM    1  C   UNL     1     -14.108  14.987  71.629  1.00  0.00    -0.525 C  
HETATM    2  N   UNL     1     -12.818  14.716  70.845  1.00  0.00    -0.349 N  
HETATM    3  C   UNL     1     -12.572  13.199  70.861  1.00  0.00    -0.295 C  
HETATM    4  C   UNL     1     -11.687  15.460  71.562  1.00  0.00    -0.404 C  
HETATM    5  C   UNL     1     -11.447  12.791  69.921  1.00  0.00    -0.141 C  
HETATM    6  C   UNL     1     -11.701  13.283  68.510  1.00  0.00    -0.388 C  
HETATM    7  C   UNL     1     -11.842  14.803  68.483  1.00  0.00    -0.306 C  
HETATM    8  C   UNL     1     -12.999  15.240  69.396  1.00  0.00     0.590 C  
ENDROOT
BRANCH   7   9
HETATM    9  O   UNL     1     -12.064  15.189  67.116  1.00  0.00    -0.069 OA 
BRANCH   9  10
HETATM   10  C   UNL     1     -11.048  15.992  66.628  1.00  0.00     0.006 C  
HETATM   11  O   UNL     1     -10.946  16.248  65.433  1.00  0.00    -0.291 OA 
HETATM   12  C   UNL     1     -10.086  16.491  67.763  1.00  0.00    -0.264 C  
HETATM   13  C   UNL     1      -9.581  17.909  67.431  1.00  0.00    -0.271 A  
HETATM   14  O   UNL     1     -10.912  16.565  68.952  1.00  0.00    -0.319 OA 
HETATM   15  C   UNL     1      -8.972  15.465  68.016  1.00  0.00    -0.171 A  
HETATM   16  H   UNL     1     -10.329  16.868  69.639  1.00  0.00     0.000 HD 
HETATM   17  C   UNL     1      -9.928  19.022  68.221  1.00  0.00    -0.459 A  
HETATM   18  C   UNL     1      -8.445  14.679  66.974  1.00  0.00    -0.237 A  
HETATM   19  C   UNL     1      -9.584  20.322  67.835  1.00  0.00    -0.438 A  
HETATM   20  C   UNL     1      -7.504  13.679  67.227  1.00  0.00    -0.052 A  
HETATM   21  C   UNL     1      -7.055  13.458  68.525  1.00  0.00    -0.108 A  
HETATM   22  C   UNL     1      -8.882  20.539  66.654  1.00  0.00    -0.185 A  
HETATM   23  C   UNL     1      -8.498  19.456  65.872  1.00  0.00    -0.067 A  
HETATM   24  C   UNL     1      -7.522  14.257  69.565  1.00  0.00     0.091 A  
HETATM   25  C   UNL     1      -8.456  15.263  69.312  1.00  0.00    -0.238 A  
HETATM   26  C   UNL     1      -8.833  18.155  66.263  1.00  0.00    -0.196 A  
ENDBRANCH   9  10
ENDBRANCH   7   9
TORSDOF 2
ENDMDL
MODEL      204
REMARK 921   NORMALIZED FREE ENERGY PREDICTED BY IDOCK:   -1.25 KCAL/MOL
REMARK 922        TOTAL FREE ENERGY PREDICTED BY IDOCK:   -1.92 KCAL/MOL
REMARK 923 INTER-LIGAND FREE ENERGY PREDICTED BY IDOCK:   -3.80 KCAL/MOL
REMARK 924 INTRA-LIGAND FREE ENERGY PREDICTED BY IDOCK:    1.88 KCAL/MOL
REMARK 927      BINDING AFFINITY PREDICTED BY RF-SCORE:    0.00 PKD
ROOT
HETATM    1  C   UNL     1      -8.980   3.780  66.803  1.00  0.00    -0.141 C  
HETATM    2  N   UNL     1      -9.409   4.765  67.897  1.00  0.00    -0.126 N  
HETATM    3  C   UNL     1      -9.136   4.103  69.256  1.00  0.00    -0.127 C  
HETATM    4  C   UNL     1     -10.907   5.028  67.709  1.00  0.00     0.495 C  
HETATM    5  C   UNL     1      -9.307   5.076  70.413  1.00  0.00    -0.216 C  
HETATM    6  C   UNL     1      -8.444   6.309  70.230  1.00  0.00    -0.134 C  
HETATM    7  C   UNL     1      -8.791   7.023  68.926  1.00  0.00    -0.130 C  
HETATM    8  C   UNL     1      -8.589   6.072  67.736  1.00  0.00    -0.106 C  
ENDROOT
BRANCH   7   9
HETATM    9  O   UNL     1      -7.946   8.183  68.835  1.00  0.00    -0.110 OA 
BRANCH   9  10
HETATM   10  C   UNL     1      -8.572   9.325  69.302  1.00  0.00    -0.139 C  
HETATM   11  O   UNL     1      -7.937  10.272  69.750  1.00  0.00    -0.166 OA 
HETATM   12  C   UNL     1     -10.136   9.233  69.194  1.00  0.00    -0.199 C  
HETATM   13  C   UNL     1     -10.719  10.627  68.887  1.00  0.00    -0.254 A  
HETATM   14  O   UNL     1     -10.386   8.371  68.055  1.00  0.00    -0.210 OA 
HETATM   15  C   UNL     1     -10.724   8.561  70.443  1.00  0.00    -0.246 A  
HETATM   16  H   UNL     1     -11.332   8.316  67.990  1.00  0.00     0.000 HD 
HETATM   17  C   UNL     1     -11.366  10.906  67.669  1.00  0.00    -0.345 A  
HETATM   18  C   UNL     1     -10.138   8.725  71.712  1.00  0.00    -0.403 A  
HETATM   19  C   UNL     1     -11.767  12.206  67.340  1.00  0.00    -0.374 A  
HETATM   20  C   UNL     1     -10.618   8.032  72.825  1.00  0.00    -0.420 A  
HETATM   21  C   UNL     1     -11.707   7.177  72.697  1.00  0.00    -0.171 A  
HETATM   22  C   UNL     1     -11.533  13.255  68.224  1.00  0.00    -0.351 A  
HETATM   23  C   UNL     1     -10.926  13.002  69.448  1.00  0.00    -0.048 A  
HETATM   24  C   UNL     1     -12.337   7.038  71.462  1.00  0.00    -0.420 A  
HETATM   25  C   UNL     1     -11.864   7.737  70.350  1.00  0.00     0.023 A  
HETATM   26  C   UNL     1     -10.534  11.701  69.781  1.00  0.00     0.515 A  
ENDBRANCH   9  10
ENDBRANCH   7   9
TORSDOF 2
ENDMDL
MODEL      205
REMARK 921   NORMALIZED FREE ENERGY PREDICTED BY IDOCK:   -1.23 KCAL/MOL
REMARK 922        TOTAL FREE ENERGY PREDICTED BY IDOCK:   -1.89 KCAL/MOL
REMARK 923 INTER-LIGAND FREE ENERGY PREDICTED BY IDOCK:   -3.17 KCAL/MOL
REMARK 924 INTRA-LIGAND FREE ENERGY PREDICTED BY IDOCK:    1.28 KCAL/MOL
REMARK 927      BINDING AFFINITY PREDICTED BY RF-SCORE:    0.00 PKD
ROOT
HETATM    1  C   UNL     1     -12.018  14.121  73.613  1.00  0.00     0.982 C  
HETATM    2  N   UNL     1     -12.845  14.149  72.322  1.00  0.00    -0.342 N  
HETATM    3  C   UNL     1     -13.701  15.425  72.343  1.00  0.00    -0.542 C  
HETATM    4  C   UNL     1     -13.730  12.899  72.322  1.00  0.00    -0.458 C  
HETATM    5  C   UNL     1     -14.389  15.676  71.010  1.00  0.00     0.287 C  
HETATM    6  C   UNL     1     -13.390  15.716  69.871  1.00  0.00     0.872 C  
HETATM    7  C   UNL     1     -12.612  14.405  69.788  1.00  0.00    -0.115 C  
HETATM    8  C   UNL     1     -11.874  14.146  71.112  1.00  0.00    -0.135 C  
ENDROOT
BRANCH   7   9
HETATM    9  O   UNL     1     -11.701  14.516  68.681  1.00  0.00    -0.301 OA 
BRANCH   9  10
HETATM   10  C   UNL     1     -10.420  14.845  69.089  1.00  0.00    -0.244 C  
HETATM   11  O   UNL     1     -10.078  14.772  70.264  1.00  0.00     0.166 OA 
HETATM   12  C   UNL     1      -9.517  15.315  67.893  1.00  0.00    -0.197 C  
HETATM   13  C   UNL     1      -8.063  14.866  68.133  1.00  0.00    -0.137 A  
HETATM   14  O   UNL     1     -10.029  14.610  66.734  1.00  0.00    -0.250 OA 
HETATM   15  C   UNL     1      -9.684  16.822  67.651  1.00  0.00    -0.251 A  
HETATM   16  H   UNL     1      -9.482  14.894  66.011  1.00  0.00     0.000 HD 
HETATM   17  C   UNL     1      -7.434  13.920  67.301  1.00  0.00    -0.051 A  
HETATM   18  C   UNL     1      -9.928  17.715  68.711  1.00  0.00    -0.358 A  
HETATM   19  C   UNL     1      -6.165  13.414  67.606  1.00  0.00    -0.145 A  
HETATM   20  C   UNL     1     -10.177  19.068  68.473  1.00  0.00    -0.422 A  
HETATM   21  C   UNL     1     -10.168  19.560  67.173  1.00  0.00    -0.542 A  
HETATM   22  C   UNL     1      -5.496  13.844  68.747  1.00  0.00    -0.082 A  
HETATM   23  C   UNL     1      -6.079  14.802  69.568  1.00  0.00    -0.112 A  
HETATM   24  C   UNL     1      -9.876  18.707  66.111  1.00  0.00    -0.308 A  
HETATM   25  C   UNL     1      -9.618  17.355  66.348  1.00  0.00    -0.291 A  
HETATM   26  C   UNL     1      -7.343  15.315  69.257  1.00  0.00    -0.191 A  
ENDBRANCH   9  10
ENDBRANCH   7   9
TORSDOF 2
ENDMDL
MODEL      206
REMARK 921   NORMALIZED FREE ENERGY PREDICTED BY IDOCK:   -0.72 KCAL/MOL
REMARK 922        TOTAL FREE ENERGY PREDICTED BY IDOCK:   -1.32 KCAL/MOL
REMARK 923 INTER-LIGAND FREE ENERGY PREDICTED BY IDOCK:   -2.17 KCAL/MOL
REMARK 924 INTRA-LIGAND FREE ENERGY PREDICTED BY IDOCK:    0.85 KCAL/MOL
REMARK 927      BINDING AFFINITY PREDICTED BY RF-SCORE:    0.00 PKD
ROOT
HETATM    1  C   UNL     1      -8.474  11.291  69.210  1.00  0.00     0.213 C  
HETATM    2  N   UNL     1      -7.783   9.949  69.479  1.00  0.00    -0.118 N  
HETATM    3  C   UNL     1      -6.733  10.176  70.577  1.00  0.00    -0.096 C  
HETATM    4  C   UNL     1      -7.117   9.511  68.170  1.00  0.00    -0.079 C  
HETATM    5  C   UNL     1      -6.146   8.868  71.089  1.00  0.00    -0.053 C  
HETATM    6  C   UNL     1      -7.231   7.924  71.566  1.00  0.00    -0.067 C  
HETATM    7  C   UNL     1      -8.216   7.619  70.440  1.00  0.00    -0.122 C  
HETATM    8  C   UNL     1      -8.854   8.922  69.931  1.00  0.00    -0.151 C  
ENDROOT
BRANCH   7   9
HETATM    9  O   UNL     1      -9.199   6.711  70.965  1.00  0.00    -0.159 OA 
BRANCH   9  10
HETATM   10  C   UNL     1      -9.609   5.782  70.024  1.00  0.00    -0.164 C  
HETATM   11  O   UNL     1     -10.745   5.786  69.564  1.00  0.00    -0.291 OA 
HETATM   12  C   UNL     1      -8.471   4.762  69.661  1.00  0.00    -0.082 C  
HETATM   13  C   UNL     1      -8.586   4.363  68.177  1.00  0.00    -0.105 A  
HETATM   14  O   UNL     1      -7.234   5.496  69.844  1.00  0.00    -0.064 OA 
HETATM   15  C   UNL     1      -8.476   3.577  70.639  1.00  0.00    -0.103 A  
HETATM   16  H   UNL     1      -6.546   4.879  69.624  1.00  0.00     0.000 HD 
HETATM   17  C   UNL     1      -7.593   4.707  67.239  1.00  0.00    -0.086 A  
HETATM   18  C   UNL     1      -9.671   3.091  71.200  1.00  0.00    -0.192 A  
HETATM   19  C   UNL     1      -7.770   4.465  65.872  1.00  0.00    -0.094 A  
HETATM   20  C   UNL     1      -9.659   2.080  72.163  1.00  0.00    -0.180 A  
HETATM   21  C   UNL     1      -8.453   1.521  72.570  1.00  0.00    -0.053 A  
HETATM   22  C   UNL     1      -8.941   3.870  65.413  1.00  0.00    -0.132 A  
HETATM   23  C   UNL     1      -9.922   3.489  66.320  1.00  0.00     0.211 A  
HETATM   24  C   UNL     1      -7.261   1.948  71.990  1.00  0.00    -0.038 A  
HETATM   25  C   UNL     1      -7.272   2.952  71.021  1.00  0.00    -0.033 A  
HETATM   26  C   UNL     1      -9.741   3.722  67.687  1.00  0.00    -0.136 A  
ENDBRANCH   9  10
ENDBRANCH   7   9
TORSDOF 2
ENDMDL
MODEL      207
REMARK 921   NORMALIZED FREE ENERGY PREDICTED BY IDOCK:   -0.71 KCAL/MOL
REMARK 922        TOTAL FREE ENERGY PREDICTED BY IDOCK:   -1.31 KCAL/MOL
REMARK 923 INTER-LIGAND FREE ENERGY PREDICTED BY IDOCK:   -3.21 KCAL/MOL
REMARK 924 INTRA-LIGAND FREE ENERGY PREDICTED BY IDOCK:    1.90 KCAL/MOL
REMARK 927      BINDING AFFINITY PREDICTED BY RF-SCORE:    0.00 PKD
ROOT
HETATM    1  C   UNL     1     -10.820  10.846  64.006  1.00  0.00    -0.005 C  
HETATM    2  N   UNL     1     -10.177  11.260  65.335  1.00  0.00    -0.258 N  
HETATM    3  C   UNL     1      -8.831  10.528  65.450  1.00  0.00    -0.187 C  
HETATM    4  C   UNL     1     -11.130  10.829  66.454  1.00  0.00     0.057 C  
HETATM    5  C   UNL     1      -7.998  11.039  66.617  1.00  0.00    -0.156 C  
HETATM    6  C   UNL     1      -7.793  12.538  66.536  1.00  0.00     0.402 C  
HETATM    7  C   UNL     1      -9.133  13.268  66.526  1.00  0.00    -0.117 C  
HETATM    8  C   UNL     1      -9.980  12.799  65.332  1.00  0.00    -0.199 C  
ENDROOT
BRANCH   7   9
HETATM    9  O   UNL     1      -8.854  14.677  66.463  1.00  0.00    -0.238 OA 
BRANCH   9  10
HETATM   10  C   UNL     1      -9.503  15.385  67.459  1.00  0.00    -0.205 C  
HETATM   11  O   UNL     1     -10.232  16.337  67.205  1.00  0.00    -0.265 OA 
HETATM   12  C   UNL     1      -9.178  14.831  68.892  1.00  0.00    -0.177 C  
HETATM   13  C   UNL     1     -10.414  14.980  69.800  1.00  0.00    -0.204 A  
HETATM   14  O   UNL     1      -8.918  13.418  68.700  1.00  0.00    -0.345 OA 
HETATM   15  C   UNL     1      -7.902  15.483  69.446  1.00  0.00    -0.231 A  
HETATM   16  H   UNL     1      -8.722  13.083  69.567  1.00  0.00     0.000 HD 
HETATM   17  C   UNL     1     -11.102  13.860  70.303  1.00  0.00     0.266 A  
HETATM   18  C   UNL     1      -7.562  16.813  69.137  1.00  0.00    -0.181 A  
HETATM   19  C   UNL     1     -12.302  14.001  71.010  1.00  0.00    -0.443 A  
HETATM   20  C   UNL     1      -6.353  17.367  69.561  1.00  0.00    -0.233 A  
HETATM   21  C   UNL     1      -5.468  16.609  70.320  1.00  0.00    -0.204 A  
HETATM   22  C   UNL     1     -12.840  15.265  71.231  1.00  0.00    -0.494 A  
HETATM   23  C   UNL     1     -12.164  16.390  70.774  1.00  0.00     0.510 A  
HETATM   24  C   UNL     1      -5.805  15.308  70.683  1.00  0.00    -0.041 A  
HETATM   25  C   UNL     1      -7.018  14.755  70.267  1.00  0.00     0.090 A  
HETATM   26  C   UNL     1     -10.959  16.250  70.077  1.00  0.00    -0.356 A  
ENDBRANCH   9  10
ENDBRANCH   7   9
TORSDOF 2
ENDMDL
MODEL      208
REMARK 921   NORMALIZED FREE ENERGY PREDICTED BY IDOCK:   -0.53 KCAL/MOL
REMARK 922        TOTAL FREE ENERGY PREDICTED BY IDOCK:   -1.11 KCAL/MOL
REMARK 923 INTER-LIGAND FREE ENERGY PREDICTED BY IDOCK:   -1.88 KCAL/MOL
REMARK 924 INTRA-LIGAND FREE ENERGY PREDICTED BY IDOCK:    0.76 KCAL/MOL
REMARK 927      BINDING AFFINITY PREDICTED BY RF-SCORE:    0.00 PKD
ROOT
HETATM    1  C   UNL     1     -10.380   5.214  67.399  1.00  0.00    -0.149 C  
HETATM    2  N   UNL     1     -10.396   6.634  67.980  1.00  0.00    -0.173 N  
HETATM    3  C   UNL     1     -11.138   6.581  69.324  1.00  0.00    -0.334 C  
HETATM    4  C   UNL     1     -11.140   7.524  66.980  1.00  0.00     0.181 C  
HETATM    5  C   UNL     1     -11.015   7.884  70.099  1.00  0.00    -0.235 C  
HETATM    6  C   UNL     1      -9.563   8.273  70.298  1.00  0.00    -0.169 C  
HETATM    7  C   UNL     1      -8.855   8.427  68.955  1.00  0.00    -0.143 C  
HETATM    8  C   UNL     1      -8.931   7.109  68.167  1.00  0.00    -0.128 C  
ENDROOT
BRANCH   7   9
HETATM    9  O   UNL     1      -7.496   8.809  69.228  1.00  0.00    -0.075 OA 
BRANCH   9  10
HETATM   10  C   UNL     1      -7.391  10.138  69.598  1.00  0.00    -0.138 C  
HETATM   11  O   UNL     1      -6.905  10.474  70.672  1.00  0.00    -0.330 OA 
HETATM   12  C   UNL     1      -7.968  11.107  68.505  1.00  0.00    -0.143 C  
HETATM   13  C   UNL     1      -7.149  12.412  68.483  1.00  0.00    -0.100 A  
HETATM   14  O   UNL     1      -7.766  10.418  67.245  1.00  0.00    -0.098 OA 
HETATM   15  C   UNL     1      -9.477  11.309  68.705  1.00  0.00    -0.147 A  
HETATM   16  H   UNL     1      -8.115  11.005  66.584  1.00  0.00     0.000 HD 
HETATM   17  C   UNL     1      -6.367  12.777  67.370  1.00  0.00    -0.139 A  
HETATM   18  C   UNL     1     -10.055  11.309  69.988  1.00  0.00     1.009 A  
HETATM   19  C   UNL     1      -5.518  13.889  67.410  1.00  0.00     0.322 A  
HETATM   20  C   UNL     1     -11.439  11.393  70.158  1.00  0.00    -0.302 A  
HETATM   21  C   UNL     1     -12.271  11.500  69.049  1.00  0.00    -0.186 A  
HETATM   22  C   UNL     1      -5.434  14.663  68.563  1.00  0.00    -0.102 A  
HETATM   23  C   UNL     1      -6.220  14.345  69.665  1.00  0.00    -0.126 A  
HETATM   24  C   UNL     1     -11.719  11.555  67.772  1.00  0.00    -0.299 A  
HETATM   25  C   UNL     1     -10.335  11.480  67.601  1.00  0.00    -0.209 A  
HETATM   26  C   UNL     1      -7.076  13.240  69.621  1.00  0.00     0.337 A  
ENDBRANCH   9  10
ENDBRANCH   7   9
TORSDOF 2
ENDMDL
MODEL      209
REMARK 921   NORMALIZED FREE ENERGY PREDICTED BY IDOCK:   -0.20 KCAL/MOL
REMARK 922        TOTAL FREE ENERGY PREDICTED BY IDOCK:   -0.75 KCAL/MOL
REMARK 923 INTER-LIGAND FREE ENERGY PREDICTED BY IDOCK:   -1.60 KCAL/MOL
REMARK 924 INTRA-LIGAND FREE ENERGY PREDICTED BY IDOCK:    0.85 KCAL/MOL
REMARK 927      BINDING AFFINITY PREDICTED BY RF-SCORE:    0.00 PKD
ROOT
HETATM    1  C   UNL     1      -8.502   2.882  70.596  1.00  0.00    -0.057 C  
HETATM    2  N   UNL     1      -9.261   4.023  69.908  1.00  0.00    -0.126 N  
HETATM    3  C   UNL     1     -10.266   4.593  70.921  1.00  0.00    -0.143 C  
HETATM    4  C   UNL     1      -9.986   3.421  68.700  1.00  0.00     0.460 C  
HETATM    5  C   UNL     1     -10.913   5.878  70.426  1.00  0.00    -0.376 C  
HETATM    6  C   UNL     1      -9.870   6.915  70.057  1.00  0.00    -0.180 C  
HETATM    7  C   UNL     1      -8.936   6.381  68.974  1.00  0.00    -0.128 C  
HETATM    8  C   UNL     1      -8.239   5.102  69.464  1.00  0.00    -0.093 C  
ENDROOT
BRANCH   7   9
HETATM    9  O   UNL     1      -7.993   7.422  68.671  1.00  0.00    -0.119 OA 
BRANCH   9  10
HETATM   10  C   UNL     1      -7.541   7.355  67.364  1.00  0.00    -0.112 C  
HETATM   11  O   UNL     1      -6.366   7.129  67.097  1.00  0.00    -0.048 OA 
HETATM   12  C   UNL     1      -8.689   7.612  66.324  1.00  0.00    -0.152 C  
HETATM   13  C   UNL     1      -8.448   6.759  65.063  1.00  0.00     0.004 A  
HETATM   14  O   UNL     1      -9.898   7.141  66.971  1.00  0.00    -0.171 OA 
HETATM   15  C   UNL     1      -8.845   9.116  66.052  1.00  0.00    -0.200 A  
HETATM   16  H   UNL     1     -10.592   7.296  66.342  1.00  0.00     0.000 HD 
HETATM   17  C   UNL     1      -9.322   5.718  64.696  1.00  0.00     0.655 A  
HETATM   18  C   UNL     1      -7.739   9.986  66.074  1.00  0.00    -0.110 A  
HETATM   19  C   UNL     1      -9.023   4.860  63.631  1.00  0.00    -0.024 A  
HETATM   20  C   UNL     1      -7.901  11.364  65.924  1.00  0.00     0.208 A  
HETATM   21  C   UNL     1      -9.170  11.900  65.731  1.00  0.00    -0.110 A  
HETATM   22  C   UNL     1      -7.846   5.025  62.909  1.00  0.00    -0.072 A  
HETATM   23  C   UNL     1      -6.981   6.065  63.229  1.00  0.00    -0.048 A  
HETATM   24  C   UNL     1     -10.274  11.054  65.654  1.00  0.00    -0.318 A  
HETATM   25  C   UNL     1     -10.112   9.675  65.793  1.00  0.00    -0.274 A  
HETATM   26  C   UNL     1      -7.285   6.929  64.286  1.00  0.00    -0.067 A  
ENDBRANCH   9  10
ENDBRANCH   7   9
TORSDOF 2
ENDMDL
MODEL      210
REMARK 921   NORMALIZED FREE ENERGY PREDICTED BY IDOCK:   -0.20 KCAL/MOL
REMARK 922        TOTAL FREE ENERGY PREDICTED BY IDOCK:   -0.74 KCAL/MOL
REMARK 923 INTER-LIGAND FREE ENERGY PREDICTED BY IDOCK:   -1.28 KCAL/MOL
REMARK 924 INTRA-LIGAND FREE ENERGY PREDICTED BY IDOCK:    0.54 KCAL/MOL
REMARK 927      BINDING AFFINITY PREDICTED BY RF-SCORE:    0.00 PKD
ROOT
HETATM    1  C   UNL     1     -12.297  10.030  71.963  1.00  0.00    -0.138 C  
HETATM    2  N   UNL     1     -12.125  10.334  70.469  1.00  0.00    -0.297 N  
HETATM    3  C   UNL     1     -11.403  11.685  70.348  1.00  0.00     0.284 C  
HETATM    4  C   UNL     1     -13.527  10.407  69.857  1.00  0.00     1.057 C  
HETATM    5  C   UNL     1     -10.973  11.978  68.918  1.00  0.00    -0.277 C  
HETATM    6  C   UNL     1     -10.120  10.858  68.356  1.00  0.00    -0.196 C  
HETATM    7  C   UNL     1     -10.880   9.534  68.383  1.00  0.00    -0.137 C  
HETATM    8  C   UNL     1     -11.293   9.194  69.825  1.00  0.00     0.030 C  
ENDROOT
BRANCH   7   9
HETATM    9  O   UNL     1     -10.015   8.531  67.824  1.00  0.00    -0.170 OA 
BRANCH   9  10
HETATM   10  C   UNL     1      -8.827   8.416  68.525  1.00  0.00    -0.136 C  
HETATM   11  O   UNL     1      -8.084   9.376  68.699  1.00  0.00    -0.101 OA 
HETATM   12  C   UNL     1      -8.571   6.950  69.028  1.00  0.00    -0.128 C  
HETATM   13  C   UNL     1      -7.842   6.986  70.385  1.00  0.00    -0.108 A  
HETATM   14  O   UNL     1      -9.891   6.387  69.232  1.00  0.00    -0.145 OA 
HETATM   15  C   UNL     1      -7.859   6.125  67.946  1.00  0.00    -0.106 A  
HETATM   16  H   UNL     1      -9.737   5.500  69.536  1.00  0.00     0.000 HD 
HETATM   17  C   UNL     1      -8.453   6.522  71.566  1.00  0.00    -0.125 A  
HETATM   18  C   UNL     1      -6.934   6.713  67.063  1.00  0.00    -0.071 A  
HETATM   19  C   UNL     1      -7.840   6.686  72.813  1.00  0.00    -0.100 A  
HETATM   20  C   UNL     1      -6.365   5.980  66.020  1.00  0.00    -0.042 A  
HETATM   21  C   UNL     1      -6.694   4.639  65.850  1.00  0.00    -0.053 A  
HETATM   22  C   UNL     1      -6.602   7.314  72.908  1.00  0.00    -0.063 A  
HETATM   23  C   UNL     1      -5.962   7.752  71.755  1.00  0.00    -0.035 A  
HETATM   24  C   UNL     1      -7.566   4.022  66.742  1.00  0.00    -0.088 A  
HETATM   25  C   UNL     1      -8.129   4.751  67.792  1.00  0.00    -0.093 A  
HETATM   26  C   UNL     1      -6.569   7.579  70.507  1.00  0.00    -0.042 A  
ENDBRANCH   9  10
ENDBRANCH   7   9
TORSDOF 2
ENDMDL
MODEL      211
REMARK 921   NORMALIZED FREE ENERGY PREDICTED BY IDOCK:    0.05 KCAL/MOL
REMARK 922        TOTAL FREE ENERGY PREDICTED BY IDOCK:   -0.47 KCAL/MOL
REMARK 923 INTER-LIGAND FREE ENERGY PREDICTED BY IDOCK:   -1.62 KCAL/MOL
REMARK 924 INTRA-LIGAND FREE ENERGY PREDICTED BY IDOCK:    1.16 KCAL/MOL
REMARK 927      BINDING AFFINITY PREDICTED BY RF-SCORE:    0.00 PKD
ROOT
HETATM    1  C   UNL     1      -9.616   4.885  67.939  1.00  0.00    -0.145 C  
HETATM    2  N   UNL     1      -8.666   5.967  67.410  1.00  0.00    -0.109 N  
HETATM    3  C   UNL     1      -8.708   5.915  65.875  1.00  0.00    -0.150 C  
HETATM    4  C   UNL     1      -7.264   5.632  67.929  1.00  0.00    -0.072 C  
HETATM    5  C   UNL     1      -7.983   7.094  65.242  1.00  0.00    -0.127 C  
HETATM    6  C   UNL     1      -8.523   8.415  65.754  1.00  0.00    -0.169 C  
HETATM    7  C   UNL     1      -8.384   8.504  67.272  1.00  0.00    -0.115 C  
HETATM    8  C   UNL     1      -9.142   7.345  67.939  1.00  0.00    -0.129 C  
ENDROOT
BRANCH   7   9
HETATM    9  O   UNL     1      -8.901   9.784  67.675  1.00  0.00    -0.125 OA 
BRANCH   9  10
HETATM   10  C   UNL     1     -10.230   9.715  68.054  1.00  0.00    -0.194 C  
HETATM   11  O   UNL     1     -10.887   8.688  67.921  1.00  0.00    -0.138 OA 
HETATM   12  C   UNL     1     -10.755  11.075  68.637  1.00  0.00    -0.198 C  
HETATM   13  C   UNL     1     -11.788  10.802  69.747  1.00  0.00    -0.409 A  
HETATM   14  O   UNL     1      -9.593  11.702  69.236  1.00  0.00    -0.394 OA 
HETATM   15  C   UNL     1     -11.263  11.985  67.508  1.00  0.00    -0.357 A  
HETATM   16  H   UNL     1      -9.911  12.525  69.589  1.00  0.00     0.000 HD 
HETATM   17  C   UNL     1     -11.539  11.144  71.090  1.00  0.00     0.442 A  
HETATM   18  C   UNL     1     -11.875  11.457  66.356  1.00  0.00     0.507 A  
HETATM   19  C   UNL     1     -12.419  10.768  72.111  1.00  0.00     0.290 A  
HETATM   20  C   UNL     1     -12.244  12.281  65.291  1.00  0.00    -0.313 A  
HETATM   21  C   UNL     1     -12.027  13.653  65.365  1.00  0.00    -0.400 A  
HETATM   22  C   UNL     1     -13.569  10.042  71.812  1.00  0.00    -0.330 A  
HETATM   23  C   UNL     1     -13.855   9.719  70.491  1.00  0.00     0.532 A  
HETATM   24  C   UNL     1     -11.471  14.205  66.515  1.00  0.00    -0.368 A  
HETATM   25  C   UNL     1     -11.110  13.384  67.585  1.00  0.00    -0.288 A  
HETATM   26  C   UNL     1     -12.981  10.105  69.469  1.00  0.00     1.140 A  
ENDBRANCH   9  10
ENDBRANCH   7   9
TORSDOF 2
ENDMDL
MODEL      212
REMARK 921   NORMALIZED FREE ENERGY PREDICTED BY IDOCK:    0.19 KCAL/MOL
REMARK 922        TOTAL FREE ENERGY PREDICTED BY IDOCK:   -0.31 KCAL/MOL
REMARK 923 INTER-LIGAND FREE ENERGY PREDICTED BY IDOCK:   -1.03 KCAL/MOL
REMARK 924 INTRA-LIGAND FREE ENERGY PREDICTED BY IDOCK:    0.72 KCAL/MOL
REMARK 927      BINDING AFFINITY PREDICTED BY RF-SCORE:    0.00 PKD
ROOT
HETATM    1  C   UNL     1     -12.289  10.040  71.973  1.00  0.00    -0.138 C  
HETATM    2  N   UNL     1     -12.056  10.386  70.497  1.00  0.00    -0.307 N  
HETATM    3  C   UNL     1     -11.305  11.725  70.444  1.00  0.00     0.368 C  
HETATM    4  C   UNL     1     -13.433  10.506  69.837  1.00  0.00     1.069 C  
HETATM    5  C   UNL     1     -10.816  12.053  69.041  1.00  0.00    -0.223 C  
HETATM    6  C   UNL     1      -9.965  10.933  68.476  1.00  0.00    -0.188 C  
HETATM    7  C   UNL     1     -10.750   9.625  68.434  1.00  0.00    -0.209 C  
HETATM    8  C   UNL     1     -11.223   9.249  69.849  1.00  0.00    -0.126 C  
ENDROOT
BRANCH   7   9
HETATM    9  O   UNL     1      -9.884   8.622  67.876  1.00  0.00    -0.160 OA 
BRANCH   9  10
HETATM   10  C   UNL     1      -8.715   8.477  68.604  1.00  0.00    -0.139 C  
HETATM   11  O   UNL     1      -8.580   8.977  69.715  1.00  0.00    -0.124 OA 
HETATM   12  C   UNL     1      -7.636   7.635  67.835  1.00  0.00    -0.117 C  
HETATM   13  C   UNL     1      -6.812   6.805  68.839  1.00  0.00    -0.065 A  
HETATM   14  O   UNL     1      -8.393   6.723  67.000  1.00  0.00    -0.112 OA 
HETATM   15  C   UNL     1      -6.797   8.539  66.920  1.00  0.00    -0.069 A  
HETATM   16  H   UNL     1      -7.740   6.213  66.536  1.00  0.00     0.000 HD 
HETATM   17  C   UNL     1      -6.864   5.398  68.855  1.00  0.00    -0.055 A  
HETATM   18  C   UNL     1      -6.498   9.868  67.273  1.00  0.00    -0.069 A  
HETATM   19  C   UNL     1      -6.224   4.659  69.856  1.00  0.00    -0.026 A  
HETATM   20  C   UNL     1      -5.820  10.714  66.394  1.00  0.00    -0.092 A  
HETATM   21  C   UNL     1      -5.409  10.243  65.151  1.00  0.00    -0.094 A  
HETATM   22  C   UNL     1      -5.517   5.308  70.862  1.00  0.00    -0.005 A  
HETATM   23  C   UNL     1      -5.422   6.695  70.853  1.00  0.00    -0.023 A  
HETATM   24  C   UNL     1      -5.647   8.917  64.801  1.00  0.00    -0.061 A  
HETATM   25  C   UNL     1      -6.317   8.067  65.683  1.00  0.00    -0.042 A  
HETATM   26  C   UNL     1      -6.052   7.434  69.846  1.00  0.00    -0.027 A  
ENDBRANCH   9  10
ENDBRANCH   7   9
TORSDOF 2
ENDMDL
MODEL      213
REMARK 921   NORMALIZED FREE ENERGY PREDICTED BY IDOCK:    1.17 KCAL/MOL
REMARK 922        TOTAL FREE ENERGY PREDICTED BY IDOCK:    0.79 KCAL/MOL
REMARK 923 INTER-LIGAND FREE ENERGY PREDICTED BY IDOCK:    0.35 KCAL/MOL
REMARK 924 INTRA-LIGAND FREE ENERGY PREDICTED BY IDOCK:    0.44 KCAL/MOL
REMARK 927      BINDING AFFINITY PREDICTED BY RF-SCORE:    0.00 PKD
ROOT
HETATM    1  C   UNL     1     -11.865  18.061  74.032  1.00  0.00     1.177 C  
HETATM    2  N   UNL     1     -12.268  16.730  73.385  1.00  0.00    -0.288 N  
HETATM    3  C   UNL     1     -13.802  16.656  73.386  1.00  0.00     1.072 C  
HETATM    4  C   UNL     1     -11.666  15.610  74.240  1.00  0.00     0.316 C  
HETATM    5  C   UNL     1     -14.320  15.486  72.562  1.00  0.00    -0.363 C  
HETATM    6  C   UNL     1     -13.782  15.527  71.146  1.00  0.00    -0.411 C  
HETATM    7  C   UNL     1     -12.256  15.496  71.146  1.00  0.00    -0.396 C  
HETATM    8  C   UNL     1     -11.706  16.691  71.940  1.00  0.00    -0.028 C  
ENDROOT
BRANCH   7   9
HETATM    9  O   UNL     1     -11.827  15.522  69.774  1.00  0.00    -0.316 OA 
BRANCH   9  10
HETATM   10  C   UNL     1     -10.449  15.470  69.655  1.00  0.00    -0.286 C  
HETATM   11  O   UNL     1      -9.709  15.920  70.523  1.00  0.00     0.437 OA 
HETATM   12  C   UNL     1      -9.992  14.800  68.311  1.00  0.00    -0.222 C  
HETATM   13  C   UNL     1      -8.685  14.015  68.539  1.00  0.00    -0.156 A  
HETATM   14  O   UNL     1     -11.042  13.856  67.983  1.00  0.00    -0.246 OA 
HETATM   15  C   UNL     1      -9.916  15.844  67.186  1.00  0.00    -0.240 A  
HETATM   16  H   UNL     1     -10.765  13.451  67.170  1.00  0.00     0.000 HD 
HETATM   17  C   UNL     1      -8.635  12.613  68.424  1.00  0.00    -0.122 A  
HETATM   18  C   UNL     1      -9.544  17.176  67.443  1.00  0.00    -0.247 A  
HETATM   19  C   UNL     1      -7.483  11.896  68.769  1.00  0.00    -0.100 A  
HETATM   20  C   UNL     1      -9.573  18.142  66.435  1.00  0.00    -0.298 A  
HETATM   21  C   UNL     1      -9.955  17.791  65.145  1.00  0.00     1.290 A  
HETATM   22  C   UNL     1      -6.356  12.566  69.234  1.00  0.00    -0.110 A  
HETATM   23  C   UNL     1      -6.367  13.952  69.326  1.00  0.00    -0.112 A  
HETATM   24  C   UNL     1     -10.277  16.467  64.854  1.00  0.00     0.505 A  
HETATM   25  C   UNL     1     -10.239  15.499  65.859  1.00  0.00    -0.367 A  
HETATM   26  C   UNL     1      -7.514  14.669  68.972  1.00  0.00    -0.136 A  
ENDBRANCH   9  10
ENDBRANCH   7   9
TORSDOF 2
ENDMDL
MODEL      214
REMARK 921   NORMALIZED FREE ENERGY PREDICTED BY IDOCK:    1.20 KCAL/MOL
REMARK 922        TOTAL FREE ENERGY PREDICTED BY IDOCK:    0.82 KCAL/MOL
REMARK 923 INTER-LIGAND FREE ENERGY PREDICTED BY IDOCK:   -1.40 KCAL/MOL
REMARK 924 INTRA-LIGAND FREE ENERGY PREDICTED BY IDOCK:    2.22 KCAL/MOL
REMARK 927      BINDING AFFINITY PREDICTED BY RF-SCORE:    0.00 PKD
ROOT
HETATM    1  C   UNL     1      -5.126  14.298  70.017  1.00  0.00    -0.089 C  
HETATM    2  N   UNL     1      -6.282  15.262  70.307  1.00  0.00    -0.127 N  
HETATM    3  C   UNL     1      -5.934  16.615  69.668  1.00  0.00    -0.214 C  
HETATM    4  C   UNL     1      -6.395  15.390  71.830  1.00  0.00     1.452 C  
HETATM    5  C   UNL     1      -7.110  17.580  69.693  1.00  0.00     0.234 C  
HETATM    6  C   UNL     1      -8.336  16.974  69.041  1.00  0.00    -0.125 C  
HETATM    7  C   UNL     1      -8.741  15.682  69.745  1.00  0.00     0.043 C  
HETATM    8  C   UNL     1      -7.582  14.673  69.700  1.00  0.00     0.015 C  
ENDROOT
BRANCH   7   9
HETATM    9  O   UNL     1      -9.913  15.181  69.080  1.00  0.00    -0.220 OA 
BRANCH   9  10
HETATM   10  C   UNL     1     -10.511  16.139  68.281  1.00  0.00    -0.276 C  
HETATM   11  O   UNL     1     -11.388  16.882  68.709  1.00  0.00    -0.167 OA 
HETATM   12  C   UNL     1      -9.945  16.131  66.816  1.00  0.00    -0.258 C  
HETATM   13  C   UNL     1      -9.928  17.567  66.257  1.00  0.00    -0.316 A  
HETATM   14  O   UNL     1      -8.575  15.673  66.944  1.00  0.00    -0.205 OA 
HETATM   15  C   UNL     1     -10.710  15.121  65.948  1.00  0.00    -0.341 A  
HETATM   16  H   UNL     1      -8.233  15.668  66.058  1.00  0.00     0.000 HD 
HETATM   17  C   UNL     1      -8.723  18.230  65.956  1.00  0.00     0.006 A  
HETATM   18  C   UNL     1     -12.079  14.865  66.149  1.00  0.00     0.020 A  
HETATM   19  C   UNL     1      -8.710  19.578  65.583  1.00  0.00     0.323 A  
HETATM   20  C   UNL     1     -12.744  13.875  65.423  1.00  0.00    -0.525 A  
HETATM   21  C   UNL     1     -12.059  13.134  64.467  1.00  0.00    -0.462 A  
HETATM   22  C   UNL     1      -9.900  20.294  65.499  1.00  0.00     0.038 A  
HETATM   23  C   UNL     1     -11.107  19.655  65.758  1.00  0.00    -0.082 A  
HETATM   24  C   UNL     1     -10.716  13.404  64.213  1.00  0.00    -0.374 A  
HETATM   25  C   UNL     1     -10.052  14.400  64.931  1.00  0.00    -0.253 A  
HETATM   26  C   UNL     1     -11.122  18.304  66.121  1.00  0.00     0.500 A  
ENDBRANCH   9  10
ENDBRANCH   7   9
TORSDOF 2
ENDMDL
MODEL      215
REMARK 921   NORMALIZED FREE ENERGY PREDICTED BY IDOCK:    1.25 KCAL/MOL
REMARK 922        TOTAL FREE ENERGY PREDICTED BY IDOCK:    0.88 KCAL/MOL
REMARK 923 INTER-LIGAND FREE ENERGY PREDICTED BY IDOCK:   -1.96 KCAL/MOL
REMARK 924 INTRA-LIGAND FREE ENERGY PREDICTED BY IDOCK:    2.84 KCAL/MOL
REMARK 927      BINDING AFFINITY PREDICTED BY RF-SCORE:    0.00 PKD
ROOT
HETATM    1  C   UNL     1      -8.396  11.482  69.272  1.00  0.00     0.337 C  
HETATM    2  N   UNL     1      -7.892  10.100  68.836  1.00  0.00    -0.093 N  
HETATM    3  C   UNL     1      -6.771   9.686  69.801  1.00  0.00    -0.062 C  
HETATM    4  C   UNL     1      -7.358  10.243  67.407  1.00  0.00    -0.093 C  
HETATM    5  C   UNL     1      -6.354   8.236  69.607  1.00  0.00    -0.036 C  
HETATM    6  C   UNL     1      -7.540   7.300  69.723  1.00  0.00    -0.098 C  
HETATM    7  C   UNL     1      -8.610   7.650  68.692  1.00  0.00    -0.129 C  
HETATM    8  C   UNL     1      -9.077   9.101  68.891  1.00  0.00    -0.139 C  
ENDROOT
BRANCH   7   9
HETATM    9  O   UNL     1      -9.688   6.713  68.856  1.00  0.00    -0.135 OA 
BRANCH   9  10
HETATM   10  C   UNL     1      -9.869   5.923  67.735  1.00  0.00    -0.124 C  
HETATM   11  O   UNL     1     -10.984   5.705  67.272  1.00  0.00    -0.209 OA 
HETATM   12  C   UNL     1      -8.514   5.360  67.177  1.00  0.00    -0.106 C  
HETATM   13  C   UNL     1      -8.585   5.262  65.640  1.00  0.00    -0.143 A  
HETATM   14  O   UNL     1      -7.520   6.356  67.526  1.00  0.00    -0.088 OA 
HETATM   15  C   UNL     1      -8.145   4.045  67.880  1.00  0.00    -0.089 A  
HETATM   16  H   UNL     1      -6.700   6.015  67.188  1.00  0.00     0.000 HD 
HETATM   17  C   UNL     1      -7.773   6.057  64.810  1.00  0.00    -0.101 A  
HETATM   18  C   UNL     1      -9.132   3.139  68.311  1.00  0.00    -0.215 A  
HETATM   19  C   UNL     1      -7.941   6.064  63.420  1.00  0.00    -0.112 A  
HETATM   20  C   UNL     1      -8.795   1.995  69.036  1.00  0.00    -0.138 A  
HETATM   21  C   UNL     1      -7.463   1.723  69.329  1.00  0.00    -0.043 A  
HETATM   22  C   UNL     1      -8.923   5.274  62.830  1.00  0.00     0.109 A  
HETATM   23  C   UNL     1      -9.717   4.455  63.624  1.00  0.00     0.003 A  
HETATM   24  C   UNL     1      -6.464   2.577  68.869  1.00  0.00    -0.029 A  
HETATM   25  C   UNL     1      -6.799   3.717  68.135  1.00  0.00    -0.047 A  
HETATM   26  C   UNL     1      -9.542   4.440  65.012  1.00  0.00    -0.175 A  
ENDBRANCH   9  10
ENDBRANCH   7   9
TORSDOF 2
ENDMDL
MODEL      216
REMARK 921   NORMALIZED FREE ENERGY PREDICTED BY IDOCK:    1.29 KCAL/MOL
REMARK 922        TOTAL FREE ENERGY PREDICTED BY IDOCK:    0.92 KCAL/MOL
REMARK 923 INTER-LIGAND FREE ENERGY PREDICTED BY IDOCK:    0.10 KCAL/MOL
REMARK 924 INTRA-LIGAND FREE ENERGY PREDICTED BY IDOCK:    0.83 KCAL/MOL
REMARK 927      BINDING AFFINITY PREDICTED BY RF-SCORE:    0.00 PKD
ROOT
HETATM    1  C   UNL     1      -9.068  20.614  67.869  1.00  0.00     0.031 C  
HETATM    2  N   UNL     1     -10.155  19.804  67.152  1.00  0.00    -0.394 N  
HETATM    3  C   UNL     1      -9.884  19.893  65.642  1.00  0.00    -0.090 C  
HETATM    4  C   UNL     1     -11.502  20.442  67.503  1.00  0.00     1.812 C  
HETATM    5  C   UNL     1     -10.762  18.939  64.845  1.00  0.00     1.758 C  
HETATM    6  C   UNL     1     -10.617  17.513  65.337  1.00  0.00    -0.005 C  
HETATM    7  C   UNL     1     -10.988  17.410  66.814  1.00  0.00     0.175 C  
HETATM    8  C   UNL     1     -10.087  18.336  67.648  1.00  0.00    -0.356 C  
ENDROOT
BRANCH   7   9
HETATM    9  O   UNL     1     -10.840  16.032  67.198  1.00  0.00    -0.310 OA 
BRANCH   9  10
HETATM   10  C   UNL     1     -10.800  15.873  68.573  1.00  0.00    -0.298 C  
HETATM   11  O   UNL     1     -10.741  16.834  69.332  1.00  0.00    -0.326 OA 
HETATM   12  C   UNL     1     -10.824  14.362  68.998  1.00  0.00    -0.252 C  
HETATM   13  C   UNL     1     -11.597  14.207  70.323  1.00  0.00    -0.267 A  
HETATM   14  O   UNL     1     -11.567  13.687  67.952  1.00  0.00    -0.301 OA 
HETATM   15  C   UNL     1      -9.400  13.786  69.024  1.00  0.00     0.228 A  
HETATM   16  H   UNL     1     -11.582  12.773  68.210  1.00  0.00     0.000 HD 
HETATM   17  C   UNL     1     -12.816  13.506  70.390  1.00  0.00    -0.064 A  
HETATM   18  C   UNL     1      -8.293  14.576  69.383  1.00  0.00     0.164 A  
HETATM   19  C   UNL     1     -13.580  13.489  71.563  1.00  0.00    -0.254 A  
HETATM   20  C   UNL     1      -6.992  14.074  69.309  1.00  0.00    -0.084 A  
HETATM   21  C   UNL     1      -6.773  12.766  68.892  1.00  0.00    -0.097 A  
HETATM   22  C   UNL     1     -13.141  14.170  72.694  1.00  0.00    -0.564 A  
HETATM   23  C   UNL     1     -11.926  14.843  72.665  1.00  0.00    -0.348 A  
HETATM   24  C   UNL     1      -7.856  11.948  68.582  1.00  0.00    -0.104 A  
HETATM   25  C   UNL     1      -9.158  12.445  68.665  1.00  0.00     0.022 A  
HETATM   26  C   UNL     1     -11.157  14.851  71.497  1.00  0.00     0.019 A  
ENDBRANCH   9  10
ENDBRANCH   7   9
TORSDOF 2
ENDMDL
MODEL      217
REMARK 921   NORMALIZED FREE ENERGY PREDICTED BY IDOCK:    1.72 KCAL/MOL
REMARK 922        TOTAL FREE ENERGY PREDICTED BY IDOCK:    1.41 KCAL/MOL
REMARK 923 INTER-LIGAND FREE ENERGY PREDICTED BY IDOCK:    0.87 KCAL/MOL
REMARK 924 INTRA-LIGAND FREE ENERGY PREDICTED BY IDOCK:    0.54 KCAL/MOL
REMARK 927      BINDING AFFINITY PREDICTED BY RF-SCORE:    0.00 PKD
ROOT
HETATM    1  C   UNL     1      -9.022  18.053  69.995  1.00  0.00     2.008 C  
HETATM    2  N   UNL     1      -9.096  18.337  68.489  1.00  0.00    -0.313 N  
HETATM    3  C   UNL     1      -7.656  18.406  67.957  1.00  0.00    -0.259 C  
HETATM    4  C   UNL     1      -9.808  19.682  68.316  1.00  0.00    -0.419 C  
HETATM    5  C   UNL     1      -7.610  18.453  66.436  1.00  0.00    -0.282 C  
HETATM    6  C   UNL     1      -8.357  17.285  65.824  1.00  0.00     0.210 C  
HETATM    7  C   UNL     1      -9.815  17.279  66.275  1.00  0.00    -0.285 C  
HETATM    8  C   UNL     1      -9.891  17.192  67.808  1.00  0.00    -0.274 C  
ENDROOT
BRANCH   7   9
HETATM    9  O   UNL     1     -10.455  16.157  65.643  1.00  0.00    -0.356 OA 
BRANCH   9  10
HETATM   10  C   UNL     1      -9.816  14.962  65.929  1.00  0.00    -0.332 C  
HETATM   11  O   UNL     1      -8.607  14.825  65.780  1.00  0.00     0.601 OA 
HETATM   12  C   UNL     1     -10.814  13.859  66.431  1.00  0.00    -0.291 C  
HETATM   13  C   UNL     1     -10.116  12.962  67.472  1.00  0.00    -0.214 A  
HETATM   14  O   UNL     1     -11.879  14.587  67.093  1.00  0.00    -0.392 OA 
HETATM   15  C   UNL     1     -11.420  13.098  65.242  1.00  0.00    -0.328 A  
HETATM   16  H   UNL     1     -12.482  13.919  67.397  1.00  0.00     0.000 HD 
HETATM   17  C   UNL     1     -10.527  12.934  68.818  1.00  0.00    -0.183 A  
HETATM   18  C   UNL     1     -10.684  12.865  64.066  1.00  0.00    -0.429 A  
HETATM   19  C   UNL     1      -9.803  12.226  69.784  1.00  0.00     1.765 A  
HETATM   20  C   UNL     1     -11.272  12.260  62.953  1.00  0.00     0.315 A  
HETATM   21  C   UNL     1     -12.602  11.858  63.001  1.00  0.00    -0.113 A  
HETATM   22  C   UNL     1      -8.654  11.529  69.426  1.00  0.00     0.584 A  
HETATM   23  C   UNL     1      -8.244  11.513  68.098  1.00  0.00    -0.149 A  
HETATM   24  C   UNL     1     -13.336  12.030  64.171  1.00  0.00     0.422 A  
HETATM   25  C   UNL     1     -12.747  12.626  65.288  1.00  0.00    -0.229 A  
HETATM   26  C   UNL     1      -8.974  12.211  67.130  1.00  0.00    -0.189 A  
ENDBRANCH   9  10
ENDBRANCH   7   9
TORSDOF 2
ENDMDL
MODEL      218
REMARK 921   NORMALIZED FREE ENERGY PREDICTED BY IDOCK:    5.37 KCAL/MOL
REMARK 922        TOTAL FREE ENERGY PREDICTED BY IDOCK:    5.48 KCAL/MOL
REMARK 923 INTER-LIGAND FREE ENERGY PREDICTED BY IDOCK:    4.62 KCAL/MOL
REMARK 924 INTRA-LIGAND FREE ENERGY PREDICTED BY IDOCK:    0.86 KCAL/MOL
REMARK 927      BINDING AFFINITY PREDICTED BY RF-SCORE:    0.00 PKD
ROOT
HETATM    1  C   UNL     1      -9.740  20.788  68.354  1.00  0.00     0.400 C  
HETATM    2  N   UNL     1     -10.589  19.603  67.879  1.00  0.00    -0.409 N  
HETATM    3  C   UNL     1     -10.377  19.455  66.364  1.00  0.00    -0.483 C  
HETATM    4  C   UNL     1     -12.050  19.935  68.195  1.00  0.00     3.529 C  
HETATM    5  C   UNL     1     -10.987  18.171  65.822  1.00  0.00     0.226 C  
HETATM    6  C   UNL     1     -10.464  16.956  66.562  1.00  0.00    -0.253 C  
HETATM    7  C   UNL     1     -10.769  17.058  68.054  1.00  0.00    -0.365 C  
HETATM    8  C   UNL     1     -10.129  18.329  68.636  1.00  0.00    -0.385 C  
ENDROOT
BRANCH   7   9
HETATM    9  O   UNL     1     -10.257  15.868  68.679  1.00  0.00    -0.213 OA 
BRANCH   9  10
HETATM   10  C   UNL     1      -9.361  15.195  67.867  1.00  0.00    -0.185 C  
HETATM   11  O   UNL     1      -8.578  15.791  67.135  1.00  0.00    -0.175 OA 
HETATM   12  C   UNL     1      -9.494  13.636  67.998  1.00  0.00    -0.209 C  
HETATM   13  C   UNL     1      -8.108  12.981  67.837  1.00  0.00    -0.158 A  
HETATM   14  O   UNL     1      -9.952  13.409  69.355  1.00  0.00    -0.234 OA 
HETATM   15  C   UNL     1     -10.564  13.102  67.034  1.00  0.00    -0.259 A  
HETATM   16  H   UNL     1     -10.032  12.466  69.434  1.00  0.00     0.000 HD 
HETATM   17  C   UNL     1      -7.483  12.300  68.899  1.00  0.00    -0.012 A  
HETATM   18  C   UNL     1     -10.789  13.701  65.781  1.00  0.00    -0.274 A  
HETATM   19  C   UNL     1      -6.169  11.831  68.788  1.00  0.00    -0.057 A  
HETATM   20  C   UNL     1     -11.829  13.274  64.952  1.00  0.00    -0.398 A  
HETATM   21  C   UNL     1     -12.651  12.226  65.351  1.00  0.00     0.196 A  
HETATM   22  C   UNL     1      -5.452  12.028  67.612  1.00  0.00    -0.082 A  
HETATM   23  C   UNL     1      -6.056  12.668  66.537  1.00  0.00     1.410 A  
HETATM   24  C   UNL     1     -12.415  11.583  66.563  1.00  0.00     2.396 A  
HETATM   25  C   UNL     1     -11.371  12.003  67.389  1.00  0.00    -0.393 A  
HETATM   26  C   UNL     1      -7.373  13.128  66.643  1.00  0.00     1.008 A  
ENDBRANCH   9  10
ENDBRANCH   7   9
TORSDOF 2
ENDMDL
MODEL      219
REMARK 921   NORMALIZED FREE ENERGY PREDICTED BY IDOCK:    6.31 KCAL/MOL
REMARK 922        TOTAL FREE ENERGY PREDICTED BY IDOCK:    6.53 KCAL/MOL
REMARK 923 INTER-LIGAND FREE ENERGY PREDICTED BY IDOCK:   -2.06 KCAL/MOL
REMARK 924 INTRA-LIGAND FREE ENERGY PREDICTED BY IDOCK:    8.59 KCAL/MOL
REMARK 927      BINDING AFFINITY PREDICTED BY RF-SCORE:    0.00 PKD
ROOT
HETATM    1  C   UNL     1     -11.364   9.236  72.020  1.00  0.00    -0.165 C  
HETATM    2  N   UNL     1     -10.993   8.356  70.820  1.00  0.00    -0.242 N  
HETATM    3  C   UNL     1     -11.489   9.064  69.550  1.00  0.00     0.315 C  
HETATM    4  C   UNL     1     -11.703   7.011  71.008  1.00  0.00    -0.333 C  
HETATM    5  C   UNL     1     -10.973   8.397  68.283  1.00  0.00     0.154 C  
HETATM    6  C   UNL     1      -9.461   8.294  68.290  1.00  0.00    -0.146 C  
HETATM    7  C   UNL     1      -8.978   7.499  69.500  1.00  0.00    -0.143 C  
HETATM    8  C   UNL     1      -9.453   8.175  70.797  1.00  0.00    -0.162 C  
ENDROOT
BRANCH   7   9
HETATM    9  O   UNL     1      -7.543   7.435  69.425  1.00  0.00    -0.092 OA 
BRANCH   9  10
HETATM   10  C   UNL     1      -7.110   6.523  68.478  1.00  0.00    -0.083 C  
HETATM   11  O   UNL     1      -6.015   5.978  68.560  1.00  0.00    -0.018 OA 
HETATM   12  C   UNL     1      -8.161   6.310  67.331  1.00  0.00    -0.109 C  
HETATM   13  C   UNL     1      -8.112   4.848  66.846  1.00  0.00    -0.107 A  
HETATM   14  O   UNL     1      -9.450   6.543  67.954  1.00  0.00    -0.122 OA 
HETATM   15  C   UNL     1      -7.969   7.354  66.221  1.00  0.00    -0.109 A  
HETATM   16  H   UNL     1     -10.086   6.413  67.260  1.00  0.00     0.000 HD 
HETATM   17  C   UNL     1      -9.197   3.970  67.030  1.00  0.00    -0.186 A  
HETATM   18  C   UNL     1      -6.694   7.851  65.891  1.00  0.00    -0.049 A  
HETATM   19  C   UNL     1      -9.093   2.611  66.713  1.00  0.00    -0.149 A  
HETATM   20  C   UNL     1      -6.537   8.871  64.951  1.00  0.00    -0.069 A  
HETATM   21  C   UNL     1      -7.649   9.401  64.307  1.00  0.00    -0.115 A  
HETATM   22  C   UNL     1      -7.903   2.100  66.204  1.00  0.00    -0.076 A  
HETATM   23  C   UNL     1      -6.827   2.950  65.981  1.00  0.00    -0.048 A  
HETATM   24  C   UNL     1      -8.916   8.890  64.578  1.00  0.00     0.001 A  
HETATM   25  C   UNL     1      -9.074   7.864  65.511  1.00  0.00     0.057 A  
HETATM   26  C   UNL     1      -6.934   4.311  66.287  1.00  0.00    -0.066 A  
ENDBRANCH   9  10
ENDBRANCH   7   9
TORSDOF 2
ENDMDL
MODEL      220
REMARK 921   NORMALIZED FREE ENERGY PREDICTED BY IDOCK:   10.09 KCAL/MOL
REMARK 922        TOTAL FREE ENERGY PREDICTED BY IDOCK:   10.75 KCAL/MOL
REMARK 923 INTER-LIGAND FREE ENERGY PREDICTED BY IDOCK:    9.98 KCAL/MOL
REMARK 924 INTRA-LIGAND FREE ENERGY PREDICTED BY IDOCK:    0.76 KCAL/MOL
REMARK 927      BINDING AFFINITY PREDICTED BY RF-SCORE:    0.00 PKD
ROOT
HETATM    1  C   UNL     1      -9.820   4.518  70.008  1.00  0.00    -0.226 C  
HETATM    2  N   UNL     1     -10.189   5.575  68.960  1.00  0.00    -0.211 N  
HETATM    3  C   UNL     1     -11.711   5.778  69.017  1.00  0.00     1.503 C  
HETATM    4  C   UNL     1      -9.762   5.028  67.594  1.00  0.00    -0.154 C  
HETATM    5  C   UNL     1     -12.162   6.969  68.184  1.00  0.00     3.277 C  
HETATM    6  C   UNL     1     -11.432   8.234  68.589  1.00  0.00     1.018 C  
HETATM    7  C   UNL     1      -9.924   8.063  68.432  1.00  0.00    -0.185 C  
HETATM    8  C   UNL     1      -9.435   6.889  69.295  1.00  0.00    -0.147 C  
ENDROOT
BRANCH   7   9
HETATM    9  O   UNL     1      -9.309   9.304  68.819  1.00  0.00    -0.138 OA 
BRANCH   9  10
HETATM   10  C   UNL     1      -9.944  10.399  68.260  1.00  0.00    -0.151 C  
HETATM   11  O   UNL     1     -10.900  10.275  67.504  1.00  0.00    -0.276 OA 
HETATM   12  C   UNL     1      -9.288  11.756  68.700  1.00  0.00    -0.090 C  
HETATM   13  C   UNL     1     -10.373  12.844  68.820  1.00  0.00    -0.143 A  
HETATM   14  O   UNL     1      -8.746  11.502  70.021  1.00  0.00     0.928 OA 
HETATM   15  C   UNL     1      -8.125  12.121  67.766  1.00  0.00    -0.152 A  
HETATM   16  H   UNL     1      -8.349  12.324  70.287  1.00  0.00     0.000 HD 
HETATM   17  C   UNL     1     -10.704  13.426  70.059  1.00  0.00     0.833 A  
HETATM   18  C   UNL     1      -8.147  11.788  66.399  1.00  0.00     0.032 A  
HETATM   19  C   UNL     1     -11.783  14.308  70.182  1.00  0.00    -0.357 A  
HETATM   20  C   UNL     1      -7.046  12.034  65.577  1.00  0.00     2.349 A  
HETATM   21  C   UNL     1      -5.907  12.637  66.100  1.00  0.00     2.697 A  
HETATM   22  C   UNL     1     -12.554  14.630  69.070  1.00  0.00     0.202 A  
HETATM   23  C   UNL     1     -12.230  14.096  67.828  1.00  0.00    -0.208 A  
HETATM   24  C   UNL     1      -5.881  13.023  67.438  1.00  0.00    -0.029 A  
HETATM   25  C   UNL     1      -6.985  12.786  68.259  1.00  0.00    -0.097 A  
HETATM   26  C   UNL     1     -11.144  13.222  67.703  1.00  0.00    -0.292 A  
ENDBRANCH   9  10
ENDBRANCH   7   9
TORSDOF 2
ENDMDL
MODEL      221
REMARK 921   NORMALIZED FREE ENERGY PREDICTED BY IDOCK:   13.98 KCAL/MOL
REMARK 922        TOTAL FREE ENERGY PREDICTED BY IDOCK:   15.10 KCAL/MOL
REMARK 923 INTER-LIGAND FREE ENERGY PREDICTED BY IDOCK:    7.31 KCAL/MOL
REMARK 924 INTRA-LIGAND FREE ENERGY PREDICTED BY IDOCK:    7.78 KCAL/MOL
REMARK 927      BINDING AFFINITY PREDICTED BY RF-SCORE:    0.00 PKD
ROOT
HETATM    1  C   UNL     1      -9.664   1.669  70.521  1.00  0.00    -0.009 C  
HETATM    2  N   UNL     1     -10.381   2.931  71.016  1.00  0.00     0.598 N  
HETATM    3  C   UNL     1     -11.211   2.544  72.249  1.00  0.00     1.020 C  
HETATM    4  C   UNL     1     -11.287   3.413  69.878  1.00  0.00     7.545 C  
HETATM    5  C   UNL     1     -11.782   3.761  72.961  1.00  0.00     0.239 C  
HETATM    6  C   UNL     1     -10.692   4.747  73.332  1.00  0.00    -0.322 C  
HETATM    7  C   UNL     1      -9.936   5.209  72.089  1.00  0.00    -0.187 C  
HETATM    8  C   UNL     1      -9.315   4.000  71.371  1.00  0.00    -0.144 C  
ENDROOT
BRANCH   7   9
HETATM    9  O   UNL     1      -8.935   6.147  72.520  1.00  0.00    -0.135 OA 
BRANCH   9  10
HETATM   10  C   UNL     1      -8.031   6.446  71.516  1.00  0.00    -0.105 C  
HETATM   11  O   UNL     1      -6.884   6.802  71.765  1.00  0.00    -0.067 OA 
HETATM   12  C   UNL     1      -8.656   6.286  70.084  1.00  0.00    -0.134 C  
HETATM   13  C   UNL     1      -7.579   5.788  69.100  1.00  0.00    -0.089 A  
HETATM   14  O   UNL     1      -9.661   5.251  70.226  1.00  0.00    -0.168 OA 
HETATM   15  C   UNL     1      -9.358   7.582  69.654  1.00  0.00    -0.153 A  
HETATM   16  H   UNL     1     -10.039   5.154  69.359  1.00  0.00     0.000 HD 
HETATM   17  C   UNL     1      -7.659   4.519  68.496  1.00  0.00    -0.064 A  
HETATM   18  C   UNL     1      -8.879   8.844  70.050  1.00  0.00    -0.165 A  
HETATM   19  C   UNL     1      -6.611   4.019  67.715  1.00  0.00    -0.042 A  
HETATM   20  C   UNL     1      -9.577  10.013  69.739  1.00  0.00    -0.249 A  
HETATM   21  C   UNL     1     -10.758   9.944  69.009  1.00  0.00    -0.244 A  
HETATM   22  C   UNL     1      -5.461   4.777  67.518  1.00  0.00    -0.013 A  
HETATM   23  C   UNL     1      -5.370   6.047  68.075  1.00  0.00    -0.004 A  
HETATM   24  C   UNL     1     -11.225   8.711  68.561  1.00  0.00     0.463 A  
HETATM   25  C   UNL     1     -10.523   7.543  68.863  1.00  0.00    -0.214 A  
HETATM   26  C   UNL     1      -6.422   6.551  68.847  1.00  0.00    -0.043 A  
ENDBRANCH   9  10
ENDBRANCH   7   9
TORSDOF 2
ENDMDL
MODEL      222
REMARK 921   NORMALIZED FREE ENERGY PREDICTED BY IDOCK:   14.74 KCAL/MOL
REMARK 922        TOTAL FREE ENERGY PREDICTED BY IDOCK:   15.94 KCAL/MOL
REMARK 923 INTER-LIGAND FREE ENERGY PREDICTED BY IDOCK:    7.00 KCAL/MOL
REMARK 924 INTRA-LIGAND FREE ENERGY PREDICTED BY IDOCK:    8.95 KCAL/MOL
REMARK 927      BINDING AFFINITY PREDICTED BY RF-SCORE:    0.00 PKD
ROOT
HETATM    1  C   UNL     1     -11.167  13.985  71.568  1.00  0.00     1.668 C  
HETATM    2  N   UNL     1     -10.605  14.663  70.313  1.00  0.00     0.098 N  
HETATM    3  C   UNL     1      -9.644  15.772  70.772  1.00  0.00     1.558 C  
HETATM    4  C   UNL     1     -11.792  15.253  69.546  1.00  0.00    -0.345 C  
HETATM    5  C   UNL     1      -8.851  16.359  69.613  1.00  0.00     0.362 C  
HETATM    6  C   UNL     1      -8.108  15.280  68.851  1.00  0.00    -0.180 C  
HETATM    7  C   UNL     1      -9.078  14.235  68.307  1.00  0.00    -0.188 C  
HETATM    8  C   UNL     1      -9.866  13.597  69.463  1.00  0.00     0.817 C  
ENDROOT
BRANCH   7   9
HETATM    9  O   UNL     1      -8.301  13.262  67.588  1.00  0.00    -0.155 OA 
BRANCH   9  10
HETATM   10  C   UNL     1      -9.095  12.307  66.977  1.00  0.00    -0.201 C  
HETATM   11  O   UNL     1      -9.415  12.393  65.797  1.00  0.00    -0.198 OA 
HETATM   12  C   UNL     1      -9.517  11.162  67.965  1.00  0.00    -0.174 C  
HETATM   13  C   UNL     1      -9.607   9.825  67.203  1.00  0.00    -0.211 A  
HETATM   14  O   UNL     1      -8.433  11.071  68.923  1.00  0.00    -0.183 OA 
HETATM   15  C   UNL     1     -10.796  11.547  68.722  1.00  0.00    -0.258 A  
HETATM   16  H   UNL     1      -8.688  10.378  69.520  1.00  0.00     0.000 HD 
HETATM   17  C   UNL     1      -8.729   8.759  67.474  1.00  0.00    -0.135 A  
HETATM   18  C   UNL     1     -11.798  12.333  68.123  1.00  0.00    -0.372 A  
HETATM   19  C   UNL     1      -8.725   7.602  66.685  1.00  0.00    -0.150 A  
HETATM   20  C   UNL     1     -12.911  12.762  68.848  1.00  0.00     1.900 A  
HETATM   21  C   UNL     1     -13.055  12.399  70.183  1.00  0.00     0.844 A  
HETATM   22  C   UNL     1      -9.601   7.485  65.610  1.00  0.00     0.511 A  
HETATM   23  C   UNL     1     -10.501   8.509  65.341  1.00  0.00     2.588 A  
HETATM   24  C   UNL     1     -12.103  11.579  70.784  1.00  0.00    -0.410 A  
HETATM   25  C   UNL     1     -10.995  11.141  70.057  1.00  0.00    -0.079 A  
HETATM   26  C   UNL     1     -10.512   9.660  66.135  1.00  0.00    -0.111 A  
ENDBRANCH   9  10
ENDBRANCH   7   9
TORSDOF 2
ENDMDL
MODEL      223
REMARK 921   NORMALIZED FREE ENERGY PREDICTED BY IDOCK:   35.80 KCAL/MOL
REMARK 922        TOTAL FREE ENERGY PREDICTED BY IDOCK:   39.47 KCAL/MOL
REMARK 923 INTER-LIGAND FREE ENERGY PREDICTED BY IDOCK:   18.06 KCAL/MOL
REMARK 924 INTRA-LIGAND FREE ENERGY PREDICTED BY IDOCK:   21.41 KCAL/MOL
REMARK 927      BINDING AFFINITY PREDICTED BY RF-SCORE:    0.00 PKD
ROOT
HETATM    1  C   UNL     1      -9.864   1.694  70.439  1.00  0.00     0.106 C  
HETATM    2  N   UNL     1     -10.901   2.743  70.859  1.00  0.00     2.174 N  
HETATM    3  C   UNL     1     -11.866   2.074  71.850  1.00  0.00     2.906 C  
HETATM    4  C   UNL     1     -11.639   3.183  69.591  1.00  0.00    10.964 C  
HETATM    5  C   UNL     1     -12.798   3.081  72.510  1.00  0.00     3.243 C  
HETATM    6  C   UNL     1     -12.021   4.196  73.181  1.00  0.00     0.196 C  
HETATM    7  C   UNL     1     -11.140   4.925  72.170  1.00  0.00     0.074 C  
HETATM    8  C   UNL     1     -10.161   3.937  71.516  1.00  0.00    -0.078 C  
ENDROOT
BRANCH   7   9
HETATM    9  O   UNL     1     -10.452   5.971  72.877  1.00  0.00    -0.199 OA 
BRANCH   9  10
HETATM   10  C   UNL     1      -9.081   5.780  72.889  1.00  0.00    -0.122 C  
HETATM   11  O   UNL     1      -8.362   6.315  73.725  1.00  0.00    -0.116 OA 
HETATM   12  C   UNL     1      -8.601   4.840  71.727  1.00  0.00    -0.122 C  
HETATM   13  C   UNL     1      -7.399   4.000  72.201  1.00  0.00    -0.060 A  
HETATM   14  O   UNL     1      -9.715   3.946  71.480  1.00  0.00    -0.159 OA 
HETATM   15  C   UNL     1      -8.343   5.650  70.448  1.00  0.00    -0.119 A  
HETATM   16  H   UNL     1      -9.424   3.376  70.778  1.00  0.00     0.000 HD 
HETATM   17  C   UNL     1      -7.481   2.601  72.338  1.00  0.00    -0.051 A  
HETATM   18  C   UNL     1      -7.859   6.970  70.498  1.00  0.00    -0.101 A  
HETATM   19  C   UNL     1      -6.434   1.863  72.900  1.00  0.00    -0.013 A  
HETATM   20  C   UNL     1      -7.721   7.735  69.338  1.00  0.00    -0.106 A  
HETATM   21  C   UNL     1      -8.046   7.188  68.102  1.00  0.00    -0.124 A  
HETATM   22  C   UNL     1      -5.280   2.506  73.337  1.00  0.00     0.000 A  
HETATM   23  C   UNL     1      -5.158   3.882  73.183  1.00  0.00     0.000 A  
HETATM   24  C   UNL     1      -8.478   5.867  68.020  1.00  0.00    -0.110 A  
HETATM   25  C   UNL     1      -8.607   5.098  69.179  1.00  0.00    -0.096 A  
HETATM   26  C   UNL     1      -6.201   4.619  72.611  1.00  0.00    -0.025 A  
ENDBRANCH   9  10
ENDBRANCH   7   9
TORSDOF 2
ENDMDL
MODEL      224
REMARK 921   NORMALIZED FREE ENERGY PREDICTED BY IDOCK:   75.92 KCAL/MOL
REMARK 922        TOTAL FREE ENERGY PREDICTED BY IDOCK:   84.28 KCAL/MOL
REMARK 923 INTER-LIGAND FREE ENERGY PREDICTED BY IDOCK:   65.23 KCAL/MOL
REMARK 924 INTRA-LIGAND FREE ENERGY PREDICTED BY IDOCK:   19.06 KCAL/MOL
REMARK 927      BINDING AFFINITY PREDICTED BY RF-SCORE:    0.00 PKD
ROOT
HETATM    1  C   UNL     1      -6.519  15.248  69.240  1.00  0.00    -0.131 C  
HETATM    2  N   UNL     1      -7.305  16.451  68.705  1.00  0.00    -0.190 N  
HETATM    3  C   UNL     1      -7.000  16.579  67.205  1.00  0.00    -0.194 C  
HETATM    4  C   UNL     1      -6.817  17.687  69.468  1.00  0.00    -0.051 C  
HETATM    5  C   UNL     1      -7.902  17.595  66.521  1.00  0.00    -0.307 C  
HETATM    6  C   UNL     1      -9.366  17.277  66.750  1.00  0.00    -0.272 C  
HETATM    7  C   UNL     1      -9.688  17.253  68.242  1.00  0.00    -0.294 C  
HETATM    8  C   UNL     1      -8.816  16.205  68.952  1.00  0.00    -0.248 C  
ENDROOT
BRANCH   7   9
HETATM    9  O   UNL     1     -11.090  16.961  68.373  1.00  0.00    -0.341 OA 
BRANCH   9  10
HETATM   10  C   UNL     1     -11.800  17.278  67.228  1.00  0.00     1.788 C  
HETATM   11  O   UNL     1     -12.950  17.698  67.276  1.00  0.00     5.281 OA 
HETATM   12  C   UNL     1     -10.968  17.019  65.921  1.00  0.00     0.125 C  
HETATM   13  C   UNL     1     -11.334  18.070  64.855  1.00  0.00     1.964 A  
HETATM   14  O   UNL     1      -9.585  17.222  66.308  1.00  0.00    -0.292 OA 
HETATM   15  C   UNL     1     -11.128  15.564  65.458  1.00  0.00    -0.265 A  
HETATM   16  H   UNL     1      -9.082  17.067  65.518  1.00  0.00     0.000 HD 
HETATM   17  C   UNL     1     -10.402  19.024  64.405  1.00  0.00     5.242 A  
HETATM   18  C   UNL     1     -12.331  14.859  65.649  1.00  0.00     0.115 A  
HETATM   19  C   UNL     1     -10.781  20.060  63.543  1.00  0.00     9.979 A  
HETATM   20  C   UNL     1     -12.437  13.507  65.316  1.00  0.00    -0.525 A  
HETATM   21  C   UNL     1     -11.349  12.837  64.768  1.00  0.00    -0.346 A  
HETATM   22  C   UNL     1     -12.099  20.163  63.110  1.00  0.00    12.644 A  
HETATM   23  C   UNL     1     -13.032  19.216  63.513  1.00  0.00    21.329 A  
HETATM   24  C   UNL     1     -10.165  13.526  64.521  1.00  0.00    -0.296 A  
HETATM   25  C   UNL     1     -10.059  14.880  64.844  1.00  0.00    -0.200 A  
HETATM   26  C   UNL     1     -12.652  18.175  64.366  1.00  0.00    10.713 A  
ENDBRANCH   9  10
ENDBRANCH   7   9
TORSDOF 2
ENDMDL
